MODEL 1
REMARK minimizedAffinity 6.85319614
REMARK minimizedRMSD -1
REMARK  0 active torsions:
REMARK  status: ('A' for Active; 'I' for Inactive)
ROOT
ATOM      1  C   UNL d   1      -1.214   5.999  -1.785  0.00  0.00     0.077 C 
ATOM      2  C1  UNL d   1      -1.251   4.534  -1.468  0.00  0.00    -0.074 A 
ATOM      3  C2  UNL d   1      -0.271   3.948  -0.661  0.00  0.00    -0.005 A 
ATOM      4  C3  UNL d   1      -0.323   2.585  -0.367  0.00  0.00     0.006 A 
ATOM      5  C4  UNL d   1      -1.355   1.796  -0.877  0.00  0.00    -0.005 A 
ATOM      6  C5  UNL d   1      -2.344   2.364  -1.686  0.00  0.00    -0.074 A 
ATOM      7  C6  UNL d   1      -3.465   1.532  -2.235  0.00  0.00     0.077 C 
ATOM      8  C7  UNL d   1      -2.288   3.735  -1.971  0.00  0.00    -0.001 A 
ENDROOT
TORSDOF 0
ENDMDL
