MODEL 1
REMARK minimizedAffinity 3.65489793
REMARK minimizedRMSD -1
REMARK  0 active torsions:
REMARK  status: ('A' for Active; 'I' for Inactive)
ROOT
ATOM      1  C   UNL d   1       0.361   2.020   0.639  0.00  0.00     0.077 C 
ATOM      2  C1  UNL d   1      -0.006   3.410   0.213  0.00  0.00    -0.074 A 
ATOM      3  C2  UNL d   1       0.736   4.083  -0.763  0.00  0.00    -0.005 A 
ATOM      4  C3  UNL d   1       0.376   5.372  -1.156  0.00  0.00     0.006 A 
ATOM      5  C4  UNL d   1      -0.728   6.000  -0.579  0.00  0.00    -0.005 A 
ATOM      6  C5  UNL d   1      -1.483   5.342   0.397  0.00  0.00    -0.074 A 
ATOM      7  C6  UNL d   1      -2.678   5.999   1.021  0.00  0.00     0.077 C 
ATOM      8  C7  UNL d   1      -1.119   4.045   0.782  0.00  0.00    -0.001 A 
ENDROOT
TORSDOF 0
ENDMDL
