MODEL 1
REMARK minimizedAffinity 8.88768578
REMARK minimizedRMSD -1
REMARK  0 active torsions:
REMARK  status: ('A' for Active; 'I' for Inactive)
ROOT
ATOM      1  O1  BZF d   1       0.735  -0.704  -1.643  0.00  0.00    -0.204 OA
ATOM      2  C2  BZF d   1       0.669  -2.032  -2.020  0.00  0.00     0.174 A 
ATOM      3  C3  BZF d   1      -0.610  -2.458  -2.044  0.00  0.00    -0.012 A 
ATOM      4  C3A BZF d   1      -1.399  -1.302  -1.747  0.00  0.00    -0.107 A 
ATOM      5  C4  BZF d   1      -2.743  -1.083  -1.642  0.00  0.00     0.055 A 
ATOM      6  C5  BZF d   1      -3.184   0.146  -1.267  0.00  0.00    -0.016 A 
ATOM      7  C6  BZF d   1      -2.312   1.177  -0.986  0.00  0.00     0.022 A 
ATOM      8  C7  BZF d   1      -0.970   1.009  -1.082  0.00  0.00     0.029 A 
ATOM      9  C7A BZF d   1      -0.522  -0.222  -1.492  0.00  0.00     0.058 A 
ENDROOT
TORSDOF 0
ENDMDL
