MODEL 1
REMARK minimizedAffinity 6.06128788
REMARK minimizedRMSD -1
REMARK  0 active torsions:
REMARK  status: ('A' for Active; 'I' for Inactive)
ROOT
ATOM      1  O1  BZF d   1       3.359  -2.087  -0.679  0.00  0.00    -0.204 OA
ATOM      2  C2  BZF d   1       4.422  -1.753  -1.496  0.00  0.00     0.174 A 
ATOM      3  C3  BZF d   1       4.874  -2.836  -2.161  0.00  0.00    -0.012 A 
ATOM      4  C3A BZF d   1       3.982  -3.896  -1.802  0.00  0.00    -0.107 A 
ATOM      5  C4  BZF d   1       3.902  -5.214  -2.152  0.00  0.00     0.055 A 
ATOM      6  C5  BZF d   1       2.957  -5.996  -1.567  0.00  0.00    -0.016 A 
ATOM      7  C6  BZF d   1       2.081  -5.496  -0.626  0.00  0.00     0.022 A 
ATOM      8  C7  BZF d   1       2.119  -4.194  -0.250  0.00  0.00     0.029 A 
ATOM      9  C7A BZF d   1       3.052  -3.393  -0.864  0.00  0.00     0.058 A 
ENDROOT
TORSDOF 0
ENDMDL
