MODEL 1
REMARK minimizedAffinity 7.73200941
REMARK minimizedRMSD -1
REMARK  0 active torsions:
REMARK  status: ('A' for Active; 'I' for Inactive)
ROOT
ATOM      1  O1  BZF d   1      -0.970   4.382  -1.774  0.00  0.00    -0.204 OA
ATOM      2  C2  BZF d   1      -1.098   5.559  -1.062  0.00  0.00     0.174 A 
ATOM      3  C3  BZF d   1      -0.866   5.353   0.250  0.00  0.00    -0.012 A 
ATOM      4  C3A BZF d   1      -0.484   3.978   0.353  0.00  0.00    -0.107 A 
ATOM      5  C4  BZF d   1      -0.114   3.183   1.400  0.00  0.00     0.055 A 
ATOM      6  C5  BZF d   1       0.126   1.864   1.174  0.00  0.00    -0.016 A 
ATOM      7  C6  BZF d   1       0.001   1.308  -0.082  0.00  0.00     0.022 A 
ATOM      8  C7  BZF d   1      -0.359   2.058  -1.152  0.00  0.00     0.029 A 
ATOM      9  C7A BZF d   1      -0.569   3.398  -0.933  0.00  0.00     0.058 A 
ENDROOT
TORSDOF 0
ENDMDL
