MODEL 1
REMARK minimizedAffinity 7.87622356
REMARK minimizedRMSD -1
REMARK  0 active torsions:
REMARK  status: ('A' for Active; 'I' for Inactive)
ROOT
ATOM      1  O1  BZF d   1       0.563   4.556   0.355  0.00  0.00    -0.204 OA
ATOM      2  C2  BZF d   1      -0.340   4.072  -0.572  0.00  0.00     0.174 A 
ATOM      3  C3  BZF d   1      -0.827   2.875  -0.185  0.00  0.00    -0.012 A 
ATOM      4  C3A BZF d   1      -0.257   2.636   1.105  0.00  0.00    -0.107 A 
ATOM      5  C4  BZF d   1      -0.374   1.619   2.009  0.00  0.00     0.055 A 
ATOM      6  C5  BZF d   1       0.372   1.656   3.144  0.00  0.00    -0.016 A 
ATOM      7  C6  BZF d   1       1.248   2.689   3.405  0.00  0.00     0.022 A 
ATOM      8  C7  BZF d   1       1.394   3.723   2.540  0.00  0.00     0.029 A 
ATOM      9  C7A BZF d   1       0.617   3.706   1.408  0.00  0.00     0.058 A 
ENDROOT
TORSDOF 0
ENDMDL
