MODEL 1
REMARK minimizedAffinity 12.8749199
REMARK minimizedRMSD -1
REMARK  0 active torsions:
REMARK  status: ('A' for Active; 'I' for Inactive)
ROOT
ATOM      1  O1  BZF d   1       0.481   3.465  -0.204  0.00  0.00    -0.204 OA
ATOM      2  C2  BZF d   1      -0.651   2.883  -0.740  0.00  0.00     0.174 A 
ATOM      3  C3  BZF d   1      -1.226   2.047   0.148  0.00  0.00    -0.012 A 
ATOM      4  C3A BZF d   1      -0.454   2.180   1.345  0.00  0.00    -0.107 A 
ATOM      5  C4  BZF d   1      -0.540   1.615   2.585  0.00  0.00     0.055 A 
ATOM      6  C5  BZF d   1       0.415   1.902   3.509  0.00  0.00    -0.016 A 
ATOM      7  C6  BZF d   1       1.471   2.743   3.225  0.00  0.00     0.022 A 
ATOM      8  C7  BZF d   1       1.596   3.331   2.010  0.00  0.00     0.029 A 
ATOM      9  C7A BZF d   1       0.615   3.069   1.085  0.00  0.00     0.058 A 
ENDROOT
TORSDOF 0
ENDMDL
