MODEL 1
REMARK minimizedAffinity 4.49756193
REMARK minimizedRMSD -1
REMARK  0 active torsions:
REMARK  status: ('A' for Active; 'I' for Inactive)
ROOT
ATOM      1  O1  BZF d   1      -1.161   3.023  -1.348  0.00  0.00    -0.204 OA
ATOM      2  C2  BZF d   1       0.041   2.760  -0.720  0.00  0.00     0.174 A 
ATOM      3  C3  BZF d   1       0.081   1.487  -0.277  0.00  0.00    -0.012 A 
ATOM      4  C3A BZF d   1      -1.137   0.891  -0.733  0.00  0.00    -0.107 A 
ATOM      5  C4  BZF d   1      -1.669  -0.362  -0.621  0.00  0.00     0.055 A 
ATOM      6  C5  BZF d   1      -2.913  -0.597  -1.116  0.00  0.00    -0.016 A 
ATOM      7  C6  BZF d   1      -3.653   0.396  -1.723  0.00  0.00     0.022 A 
ATOM      8  C7  BZF d   1      -3.166   1.653  -1.861  0.00  0.00     0.029 A 
ATOM      9  C7A BZF d   1      -1.896   1.886  -1.392  0.00  0.00     0.058 A 
ENDROOT
TORSDOF 0
ENDMDL
