MODEL 1
REMARK minimizedAffinity 9.66156197
REMARK minimizedRMSD -1
REMARK  0 active torsions:
REMARK  status: ('A' for Active; 'I' for Inactive)
ROOT
ATOM      1  O1  BZF d   1      -3.530  -1.324  -1.537  0.00  0.00    -0.204 OA
ATOM      2  C2  BZF d   1      -4.288  -0.233  -1.156  0.00  0.00     0.174 A 
ATOM      3  C3  BZF d   1      -3.498   0.824  -0.877  0.00  0.00    -0.012 A 
ATOM      4  C3A BZF d   1      -2.169   0.394  -1.187  0.00  0.00    -0.107 A 
ATOM      5  C4  BZF d   1      -0.949   1.003  -1.133  0.00  0.00     0.055 A 
ATOM      6  C5  BZF d   1       0.163   0.283  -1.435  0.00  0.00    -0.016 A 
ATOM      7  C6  BZF d   1       0.092  -1.049  -1.788  0.00  0.00     0.022 A 
ATOM      8  C7  BZF d   1      -1.097  -1.695  -1.860  0.00  0.00     0.029 A 
ATOM      9  C7A BZF d   1      -2.225  -0.961  -1.588  0.00  0.00     0.058 A 
ENDROOT
TORSDOF 0
ENDMDL
