MODEL 1
REMARK minimizedAffinity 3.49178433
REMARK minimizedRMSD -1
REMARK  0 active torsions:
REMARK  status: ('A' for Active; 'I' for Inactive)
ROOT
ATOM      1  O1  BZF d   1       1.003   3.965  -0.390  0.00  0.00    -0.204 OA
ATOM      2  C2  BZF d   1       0.017   3.361  -1.146  0.00  0.00     0.174 A 
ATOM      3  C3  BZF d   1      -0.746   2.554  -0.381  0.00  0.00    -0.012 A 
ATOM      4  C3A BZF d   1      -0.261   2.732   0.953  0.00  0.00    -0.107 A 
ATOM      5  C4  BZF d   1      -0.626   2.211   2.162  0.00  0.00     0.055 A 
ATOM      6  C5  BZF d   1       0.098   2.533   3.266  0.00  0.00    -0.016 A 
ATOM      7  C6  BZF d   1       1.194   3.368   3.197  0.00  0.00     0.022 A 
ATOM      8  C7  BZF d   1       1.592   3.913   2.021  0.00  0.00     0.029 A 
ATOM      9  C7A BZF d   1       0.842   3.615   0.909  0.00  0.00     0.058 A 
ENDROOT
TORSDOF 0
ENDMDL
