MODEL 1
REMARK minimizedAffinity 2.52019286
REMARK minimizedRMSD -1
REMARK  0 active torsions:
REMARK  status: ('A' for Active; 'I' for Inactive)
ROOT
ATOM      1  C4' PXY d   1      -1.877  -1.870   2.990  0.00  0.00     0.077 C 
ATOM      2  C1' PXY d   1      -0.094  -2.467  -2.476  0.00  0.00     0.077 C 
ATOM      3  C1  PXY d   1      -0.550  -2.306  -1.040  0.00  0.00    -0.082 A 
ATOM      4  C2  PXY d   1      -1.518  -3.075  -0.570  0.00  0.00     0.003 A 
ATOM      5  C3  PXY d   1      -1.964  -2.921   0.717  0.00  0.00     0.003 A 
ATOM      6  C4  PXY d   1      -1.378  -2.005   1.549  0.00  0.00    -0.082 A 
ATOM      7  C5  PXY d   1      -0.382  -1.223   1.080  0.00  0.00     0.003 A 
ATOM      8  C6  PXY d   1       0.029  -1.367  -0.242  0.00  0.00     0.003 A 
ENDROOT
TORSDOF 0
ENDMDL
