MODEL 1
REMARK minimizedAffinity 11.2313433
REMARK minimizedRMSD -1
REMARK  0 active torsions:
REMARK  status: ('A' for Active; 'I' for Inactive)
ROOT
ATOM      1  C4' PXY d   1      -5.997   5.983  -5.999  0.00  0.00     0.077 C 
ATOM      2  C1' PXY d   1      -2.218   2.107  -3.970  0.00  0.00     0.077 C 
ATOM      3  C1  PXY d   1      -3.199   3.132  -4.504  0.00  0.00    -0.082 A 
ATOM      4  C2  PXY d   1      -4.475   3.056  -4.162  0.00  0.00     0.003 A 
ATOM      5  C3  PXY d   1      -5.382   3.956  -4.661  0.00  0.00     0.003 A 
ATOM      6  C4  PXY d   1      -4.969   4.976  -5.476  0.00  0.00    -0.082 A 
ATOM      7  C5  PXY d   1      -3.667   5.066  -5.821  0.00  0.00     0.003 A 
ATOM      8  C6  PXY d   1      -2.770   4.119  -5.337  0.00  0.00     0.003 A 
ENDROOT
TORSDOF 0
ENDMDL
