MODEL 1
REMARK minimizedAffinity 13.0204649
REMARK minimizedRMSD -1
REMARK  0 active torsions:
REMARK  status: ('A' for Active; 'I' for Inactive)
ROOT
ATOM      1  C4' PXY d   1      -2.966  -4.813  -2.464  0.00  0.00     0.077 C 
ATOM      2  C1' PXY d   1       0.481  -1.602   0.886  0.00  0.00     0.077 C 
ATOM      3  C1  PXY d   1      -0.421  -2.436  -0.002  0.00  0.00    -0.082 A 
ATOM      4  C2  PXY d   1      -1.368  -3.182   0.543  0.00  0.00     0.003 A 
ATOM      5  C3  PXY d   1      -2.171  -3.967  -0.243  0.00  0.00     0.003 A 
ATOM      6  C4  PXY d   1      -2.039  -3.948  -1.606  0.00  0.00    -0.082 A 
ATOM      7  C5  PXY d   1      -1.082  -3.181  -2.171  0.00  0.00     0.003 A 
ATOM      8  C6  PXY d   1      -0.250  -2.423  -1.352  0.00  0.00     0.003 A 
ENDROOT
TORSDOF 0
ENDMDL
