MODEL 1
REMARK minimizedAffinity 7.47441196
REMARK minimizedRMSD -1
REMARK  0 active torsions:
REMARK  status: ('A' for Active; 'I' for Inactive)
ROOT
ATOM      1  C4' PXY d   1       0.722  -0.097   1.409  0.00  0.00     0.077 C 
ATOM      2  C1' PXY d   1       4.206   4.234  -0.176  0.00  0.00     0.077 C 
ATOM      3  C1  PXY d   1       3.303   3.090   0.242  0.00  0.00    -0.082 A 
ATOM      4  C2  PXY d   1       2.054   3.050  -0.195  0.00  0.00     0.003 A 
ATOM      5  C3  PXY d   1       1.214   2.040   0.199  0.00  0.00     0.003 A 
ATOM      6  C4  PXY d   1       1.672   1.033   1.006  0.00  0.00    -0.082 A 
ATOM      7  C5  PXY d   1       2.948   1.062   1.447  0.00  0.00     0.003 A 
ATOM      8  C6  PXY d   1       3.773   2.117   1.068  0.00  0.00     0.003 A 
ENDROOT
TORSDOF 0
ENDMDL
