MODEL 1
REMARK minimizedAffinity 8.9065237
REMARK minimizedRMSD -1
REMARK  0 active torsions:
REMARK  status: ('A' for Active; 'I' for Inactive)
ROOT
ATOM      1  C4' PXY d   1       1.366   0.072   0.908  0.00  0.00     0.077 C 
ATOM      2  C1' PXY d   1      -1.938  -3.979  -1.560  0.00  0.00     0.077 C 
ATOM      3  C1  PXY d   1      -1.079  -2.917  -0.902  0.00  0.00    -0.082 A 
ATOM      4  C2  PXY d   1      -0.361  -2.098  -1.654  0.00  0.00     0.003 A 
ATOM      5  C3  PXY d   1       0.446  -1.153  -1.074  0.00  0.00     0.003 A 
ATOM      6  C4  PXY d   1       0.478  -1.009   0.287  0.00  0.00    -0.082 A 
ATOM      7  C5  PXY d   1      -0.260  -1.834   1.060  0.00  0.00     0.003 A 
ATOM      8  C6  PXY d   1      -1.041  -2.814   0.454  0.00  0.00     0.003 A 
ENDROOT
TORSDOF 0
ENDMDL
