MODEL 1
REMARK minimizedAffinity 13.6549969
REMARK minimizedRMSD -1
REMARK  0 active torsions:
REMARK  status: ('A' for Active; 'I' for Inactive)
ROOT
ATOM      1  C4' PXY d   1       0.452  -1.156   1.117  0.00  0.00     0.077 C 
ATOM      2  C1' PXY d   1      -2.698  -4.689  -2.202  0.00  0.00     0.077 C 
ATOM      3  C1  PXY d   1      -1.882  -3.760  -1.324  0.00  0.00    -0.082 A 
ATOM      4  C2  PXY d   1      -0.783  -3.203  -1.805  0.00  0.00     0.003 A 
ATOM      5  C3  PXY d   1      -0.016  -2.386  -1.015  0.00  0.00     0.003 A 
ATOM      6  C4  PXY d   1      -0.407  -2.093   0.264  0.00  0.00    -0.082 A 
ATOM      7  C5  PXY d   1      -1.534  -2.649   0.759  0.00  0.00     0.003 A 
ATOM      8  C6  PXY d   1      -2.276  -3.508  -0.046  0.00  0.00     0.003 A 
ENDROOT
TORSDOF 0
ENDMDL
