MODEL 1
REMARK minimizedAffinity 5.22148323
REMARK minimizedRMSD -1
REMARK  0 active torsions:
REMARK  status: ('A' for Active; 'I' for Inactive)
ROOT
ATOM      1  C4' PXY d   1      -1.349  -3.317  -1.658  0.00  0.00     0.077 C 
ATOM      2  C1' PXY d   1      -0.962  -4.312   4.023  0.00  0.00     0.077 C 
ATOM      3  C1  PXY d   1      -1.069  -4.040   2.535  0.00  0.00    -0.082 A 
ATOM      4  C2  PXY d   1      -1.106  -5.053   1.686  0.00  0.00     0.003 A 
ATOM      5  C3  PXY d   1      -1.171  -4.824   0.335  0.00  0.00     0.003 A 
ATOM      6  C4  PXY d   1      -1.251  -3.545  -0.148  0.00  0.00    -0.082 A 
ATOM      7  C5  PXY d   1      -1.224  -2.506   0.713  0.00  0.00     0.003 A 
ATOM      8  C6  PXY d   1      -1.117  -2.759   2.078  0.00  0.00     0.003 A 
ENDROOT
TORSDOF 0
ENDMDL
