MODEL 1
REMARK minimizedAffinity 10.0675316
REMARK minimizedRMSD -1
REMARK  0 active torsions:
REMARK  status: ('A' for Active; 'I' for Inactive)
ROOT
ATOM      1  C4' PXY d   1      -2.735   0.676   3.236  0.00  0.00     0.077 C 
ATOM      2  C1' PXY d   1       1.948   1.915   0.082  0.00  0.00     0.077 C 
ATOM      3  C1  PXY d   1       0.719   1.579   0.903  0.00  0.00    -0.082 A 
ATOM      4  C2  PXY d   1       0.035   2.551   1.484  0.00  0.00     0.003 A 
ATOM      5  C3  PXY d   1      -1.061   2.262   2.256  0.00  0.00     0.003 A 
ATOM      6  C4  PXY d   1      -1.493   0.969   2.391  0.00  0.00    -0.082 A 
ATOM      7  C5  PXY d   1      -0.806  -0.027   1.792  0.00  0.00     0.003 A 
ATOM      8  C6  PXY d   1       0.327   0.284   1.046  0.00  0.00     0.003 A 
ENDROOT
TORSDOF 0
ENDMDL
