MODEL 1
REMARK minimizedAffinity 9.6443243
REMARK minimizedRMSD -1
REMARK  0 active torsions:
REMARK  status: ('A' for Active; 'I' for Inactive)
ROOT
ATOM      1  C4' PXY d   1       2.346   1.081   2.135  0.00  0.00     0.077 C 
ATOM      2  C1' PXY d   1      -0.963   4.468  -1.180  0.00  0.00     0.077 C 
ATOM      3  C1  PXY d   1      -0.103   3.583  -0.300  0.00  0.00    -0.082 A 
ATOM      4  C2  PXY d   1       1.152   3.341  -0.643  0.00  0.00     0.003 A 
ATOM      5  C3  PXY d   1       1.935   2.517   0.124  0.00  0.00     0.003 A 
ATOM      6  C4  PXY d   1       1.444   1.977   1.282  0.00  0.00    -0.082 A 
ATOM      7  C5  PXY d   1       0.168   2.227   1.645  0.00  0.00     0.003 A 
ATOM      8  C6  PXY d   1      -0.623   3.033   0.831  0.00  0.00     0.003 A 
ENDROOT
TORSDOF 0
ENDMDL
