MODEL 1
REMARK minimizedAffinity 10.0236435
REMARK minimizedRMSD -1
REMARK  0 active torsions:
REMARK  status: ('A' for Active; 'I' for Inactive)
ROOT
ATOM      1  C4' PXY d   1      -0.628   5.205  -0.746  0.00  0.00     0.077 C 
ATOM      2  C1' PXY d   1      -0.928   2.222   4.196  0.00  0.00     0.077 C 
ATOM      3  C1  PXY d   1      -0.837   3.008   2.903  0.00  0.00    -0.082 A 
ATOM      4  C2  PXY d   1      -1.946   3.397   2.295  0.00  0.00     0.003 A 
ATOM      5  C3  PXY d   1      -1.883   4.081   1.108  0.00  0.00     0.003 A 
ATOM      6  C4  PXY d   1      -0.671   4.417   0.566  0.00  0.00    -0.082 A 
ATOM      7  C5  PXY d   1       0.465   4.034   1.186  0.00  0.00     0.003 A 
ATOM      8  C6  PXY d   1       0.378   3.304   2.369  0.00  0.00     0.003 A 
ENDROOT
TORSDOF 0
ENDMDL
