MODEL 1
REMARK minimizedAffinity -1.84284687
REMARK minimizedRMSD -1
REMARK  0 active torsions:
REMARK  status: ('A' for Active; 'I' for Inactive)
ROOT
ATOM      1  C4' PXY d   1       0.589   1.301   1.897  0.00  0.00     0.077 C 
ATOM      2  C1' PXY d   1      -4.478   2.931  -0.357  0.00  0.00     0.077 C 
ATOM      3  C1  PXY d   1      -3.143   2.511   0.226  0.00  0.00    -0.082 A 
ATOM      4  C2  PXY d   1      -3.037   1.348   0.848  0.00  0.00     0.003 A 
ATOM      5  C3  PXY d   1      -1.845   0.967   1.409  0.00  0.00     0.003 A 
ATOM      6  C4  PXY d   1      -0.736   1.761   1.285  0.00  0.00    -0.082 A 
ATOM      7  C5  PXY d   1      -0.833   2.944   0.643  0.00  0.00     0.003 A 
ATOM      8  C6  PXY d   1      -2.062   3.331   0.116  0.00  0.00     0.003 A 
ENDROOT
TORSDOF 0
ENDMDL
