MODEL 1
REMARK minimizedAffinity 11.2547026
REMARK minimizedRMSD -1
REMARK  0 active torsions:
REMARK  status: ('A' for Active; 'I' for Inactive)
ROOT
ATOM      1  C4' PXY d   1       1.282  -1.021   1.628  0.00  0.00     0.077 C 
ATOM      2  C1' PXY d   1       1.621   4.617   0.398  0.00  0.00     0.077 C 
ATOM      3  C1  PXY d   1       1.538   3.141   0.732  0.00  0.00    -0.082 A 
ATOM      4  C2  PXY d   1       1.430   2.255  -0.245  0.00  0.00     0.003 A 
ATOM      5  C3  PXY d   1       1.321   0.918   0.041  0.00  0.00     0.003 A 
ATOM      6  C4  PXY d   1       1.379   0.480   1.337  0.00  0.00    -0.082 A 
ATOM      7  C5  PXY d   1       1.500   1.377   2.338  0.00  0.00     0.003 A 
ATOM      8  C6  PXY d   1       1.567   2.732   2.029  0.00  0.00     0.003 A 
ENDROOT
TORSDOF 0
ENDMDL
