MODEL 1
REMARK minimizedAffinity 12.8727264
REMARK minimizedRMSD -1
REMARK  0 active torsions:
REMARK  status: ('A' for Active; 'I' for Inactive)
ROOT
ATOM      1  C4' PXY d   1       1.355  -5.658  -3.949  0.00  0.00     0.077 C 
ATOM      2  C1' PXY d   1      -1.730  -2.669  -0.081  0.00  0.00     0.077 C 
ATOM      3  C1  PXY d   1      -0.927  -3.463  -1.091  0.00  0.00    -0.082 A 
ATOM      4  C2  PXY d   1       0.231  -2.991  -1.524  0.00  0.00     0.003 A 
ATOM      5  C3  PXY d   1       0.955  -3.682  -2.461  0.00  0.00     0.003 A 
ATOM      6  C4  PXY d   1       0.515  -4.894  -2.922  0.00  0.00    -0.082 A 
ATOM      7  C5  PXY d   1      -0.661  -5.387  -2.478  0.00  0.00     0.003 A 
ATOM      8  C6  PXY d   1      -1.400  -4.651  -1.557  0.00  0.00     0.003 A 
ENDROOT
TORSDOF 0
ENDMDL
