MODEL 1
REMARK minimizedAffinity 4.97315168
REMARK minimizedRMSD -1
REMARK  0 active torsions:
REMARK  status: ('A' for Active; 'I' for Inactive)
ROOT
ATOM      1  C4' PXY d   1       3.430   5.265  -5.942  0.00  0.00     0.077 C 
ATOM      2  C1' PXY d   1       5.907   0.043  -5.999  0.00  0.00     0.077 C 
ATOM      3  C1  PXY d   1       5.247   1.407  -5.989  0.00  0.00    -0.082 A 
ATOM      4  C2  PXY d   1       5.997   2.497  -5.964  0.00  0.00     0.003 A 
ATOM      5  C3  PXY d   1       5.416   3.738  -5.923  0.00  0.00     0.003 A 
ATOM      6  C4  PXY d   1       4.054   3.867  -5.962  0.00  0.00    -0.082 A 
ATOM      7  C5  PXY d   1       3.282   2.760  -5.999  0.00  0.00     0.003 A 
ATOM      8  C6  PXY d   1       3.890   1.509  -5.998  0.00  0.00     0.003 A 
ENDROOT
TORSDOF 0
ENDMDL
