MODEL 1
REMARK minimizedAffinity 9.43963814
REMARK minimizedRMSD -1
REMARK  0 active torsions:
REMARK  status: ('A' for Active; 'I' for Inactive)
ROOT
ATOM      1  C4' PXY d   1       0.652   2.621   1.291  0.00  0.00     0.077 C 
ATOM      2  C1' PXY d   1      -2.545  -2.193   1.443  0.00  0.00     0.077 C 
ATOM      3  C1  PXY d   1      -1.717  -0.924   1.408  0.00  0.00    -0.082 A 
ATOM      4  C2  PXY d   1      -0.671  -0.847   0.600  0.00  0.00     0.003 A 
ATOM      5  C3  PXY d   1       0.108   0.281   0.579  0.00  0.00     0.003 A 
ATOM      6  C4  PXY d   1      -0.218   1.363   1.353  0.00  0.00    -0.082 A 
ATOM      7  C5  PXY d   1      -1.289   1.296   2.172  0.00  0.00     0.003 A 
ATOM      8  C6  PXY d   1      -2.043   0.126   2.209  0.00  0.00     0.003 A 
ENDROOT
TORSDOF 0
ENDMDL
