MODEL 1
REMARK minimizedAffinity 7.98490524
REMARK minimizedRMSD -1
REMARK  0 active torsions:
REMARK  status: ('A' for Active; 'I' for Inactive)
ROOT
ATOM      1  C4' PXY d   1       4.115  -5.311  -0.789  0.00  0.00     0.077 C 
ATOM      2  C1' PXY d   1       1.624  -4.998  -5.996  0.00  0.00     0.077 C 
ATOM      3  C1  PXY d   1       2.282  -5.092  -4.634  0.00  0.00    -0.082 A 
ATOM      4  C2  PXY d   1       1.808  -4.374  -3.628  0.00  0.00     0.003 A 
ATOM      5  C3  PXY d   1       2.411  -4.423  -2.397  0.00  0.00     0.003 A 
ATOM      6  C4  PXY d   1       3.476  -5.255  -2.180  0.00  0.00    -0.082 A 
ATOM      7  C5  PXY d   1       3.959  -5.998  -3.198  0.00  0.00     0.003 A 
ATOM      8  C6  PXY d   1       3.359  -5.903  -4.450  0.00  0.00     0.003 A 
ENDROOT
TORSDOF 0
ENDMDL
