MODEL 1
REMARK minimizedAffinity 2.58333087
REMARK minimizedRMSD -1
REMARK  0 active torsions:
REMARK  status: ('A' for Active; 'I' for Inactive)
ROOT
ATOM      1  C4' PXY d   1       5.465   3.999   2.033  0.00  0.00     0.077 C 
ATOM      2  C1' PXY d   1       0.803   0.591   1.769  0.00  0.00     0.077 C 
ATOM      3  C1  PXY d   1       2.027   1.484   1.825  0.00  0.00    -0.082 A 
ATOM      4  C2  PXY d   1       2.746   1.540   2.935  0.00  0.00     0.003 A 
ATOM      5  C3  PXY d   1       3.837   2.367   3.014  0.00  0.00     0.003 A 
ATOM      6  C4  PXY d   1       4.227   3.104   1.928  0.00  0.00    -0.082 A 
ATOM      7  C5  PXY d   1       3.505   3.045   0.789  0.00  0.00     0.003 A 
ATOM      8  C6  PXY d   1       2.377   2.230   0.743  0.00  0.00     0.003 A 
ENDROOT
TORSDOF 0
ENDMDL
