MODEL 1
REMARK minimizedAffinity 13.058217
REMARK minimizedRMSD -1
REMARK  0 active torsions:
REMARK  status: ('A' for Active; 'I' for Inactive)
ROOT
ATOM      1  C4' PXY d   1       4.876   2.390   4.904  0.00  0.00     0.077 C 
ATOM      2  C1' PXY d   1       3.239   2.933  -0.613  0.00  0.00     0.077 C 
ATOM      3  C1  PXY d   1       3.679   2.797   0.831  0.00  0.00    -0.082 A 
ATOM      4  C2  PXY d   1       3.196   1.814   1.573  0.00  0.00     0.003 A 
ATOM      5  C3  PXY d   1       3.559   1.695   2.890  0.00  0.00     0.003 A 
ATOM      6  C4  PXY d   1       4.467   2.560   3.439  0.00  0.00    -0.082 A 
ATOM      7  C5  PXY d   1       4.973   3.560   2.685  0.00  0.00     0.003 A 
ATOM      8  C6  PXY d   1       4.560   3.687   1.362  0.00  0.00     0.003 A 
ENDROOT
TORSDOF 0
ENDMDL
