MODEL 1
REMARK minimizedAffinity -3.51806593
REMARK minimizedRMSD -1
REMARK  0 active torsions:
REMARK  status: ('A' for Active; 'I' for Inactive)
ROOT
ATOM      1  C4' PXY d   1       2.166   2.970  -0.337  0.00  0.00     0.077 C 
ATOM      2  C1' PXY d   1       5.220   2.319   4.528  0.00  0.00     0.077 C 
ATOM      3  C1  PXY d   1       4.418   2.477   3.252  0.00  0.00    -0.082 A 
ATOM      4  C2  PXY d   1       4.586   3.554   2.502  0.00  0.00     0.003 A 
ATOM      5  C3  PXY d   1       3.846   3.728   1.361  0.00  0.00     0.003 A 
ATOM      6  C4  PXY d   1       2.962   2.764   0.956  0.00  0.00    -0.082 A 
ATOM      7  C5  PXY d   1       2.792   1.657   1.709  0.00  0.00     0.003 A 
ATOM      8  C6  PXY d   1       3.523   1.519   2.886  0.00  0.00     0.003 A 
ENDROOT
TORSDOF 0
ENDMDL
