MODEL 1
REMARK minimizedAffinity -5.69726658
REMARK minimizedRMSD -1
REMARK  0 active torsions:
REMARK  status: ('A' for Active; 'I' for Inactive)
ROOT
ATOM      1  C   UNL d   1      -0.421  -1.496  -0.561  0.00  0.00     0.078 C 
ATOM      2  C1  UNL d   1       0.330  -0.284  -0.099  0.00  0.00    -0.077 A 
ATOM      3  C2  UNL d   1       1.650  -0.055  -0.506  0.00  0.00    -0.001 A 
ATOM      4  C3  UNL d   1       2.341   1.073  -0.060  0.00  0.00     0.003 A 
ATOM      5  C4  UNL d   1       1.721   1.980   0.797  0.00  0.00    -0.005 A 
ATOM      6  C5  UNL d   1       0.408   1.759   1.210  0.00  0.00     0.003 A 
ATOM      7  C6  UNL d   1      -0.284   0.632   0.764  0.00  0.00    -0.001 A 
ENDROOT
TORSDOF 0
ENDMDL
