MODEL 1
REMARK minimizedAffinity -5.43728209
REMARK minimizedRMSD -1
REMARK  0 active torsions:
REMARK  status: ('A' for Active; 'I' for Inactive)
ROOT
ATOM      1  C   UNL d   1       1.196   2.928   0.717  0.00  0.00     0.078 C 
ATOM      2  C1  UNL d   1       0.968   1.564   0.135  0.00  0.00    -0.077 A 
ATOM      3  C2  UNL d   1      -0.252   0.900   0.310  0.00  0.00    -0.001 A 
ATOM      4  C3  UNL d   1      -0.447  -0.372  -0.229  0.00  0.00     0.003 A 
ATOM      5  C4  UNL d   1       0.575  -0.993  -0.945  0.00  0.00    -0.005 A 
ATOM      6  C5  UNL d   1       1.793  -0.340  -1.123  0.00  0.00     0.003 A 
ATOM      7  C6  UNL d   1       1.990   0.932  -0.585  0.00  0.00    -0.001 A 
ENDROOT
TORSDOF 0
ENDMDL
