MODEL 1
REMARK minimizedAffinity -4.57671309
REMARK minimizedRMSD -1
REMARK  0 active torsions:
REMARK  status: ('A' for Active; 'I' for Inactive)
ROOT
ATOM      1  C   UNL d   1      -1.163  -0.801   1.928  0.00  0.00     0.078 C 
ATOM      2  C1  UNL d   1      -0.319   0.223   1.231  0.00  0.00    -0.077 A 
ATOM      3  C2  UNL d   1       0.343  -0.080   0.035  0.00  0.00    -0.001 A 
ATOM      4  C3  UNL d   1       1.134   0.880  -0.598  0.00  0.00     0.003 A 
ATOM      5  C4  UNL d   1       1.271   2.150  -0.041  0.00  0.00    -0.005 A 
ATOM      6  C5  UNL d   1       0.618   2.461   1.150  0.00  0.00     0.003 A 
ATOM      7  C6  UNL d   1      -0.173   1.502   1.784  0.00  0.00    -0.001 A 
ENDROOT
TORSDOF 0
ENDMDL
