MODEL 1
REMARK minimizedAffinity -4.81927586
REMARK minimizedRMSD -1
REMARK  0 active torsions:
REMARK  status: ('A' for Active; 'I' for Inactive)
ROOT
ATOM      1  C   UNL d   1       1.001   2.832   0.815  0.00  0.00     0.078 C 
ATOM      2  C1  UNL d   1       0.437   1.442   0.815  0.00  0.00    -0.077 A 
ATOM      3  C2  UNL d   1      -0.337   0.978   1.886  0.00  0.00    -0.001 A 
ATOM      4  C3  UNL d   1      -0.847  -0.321   1.877  0.00  0.00     0.003 A 
ATOM      5  C4  UNL d   1      -0.589  -1.167   0.801  0.00  0.00    -0.005 A 
ATOM      6  C5  UNL d   1       0.182  -0.715  -0.268  0.00  0.00     0.003 A 
ATOM      7  C6  UNL d   1       0.693   0.584  -0.261  0.00  0.00    -0.001 A 
ENDROOT
TORSDOF 0
ENDMDL
