MODEL 1
REMARK minimizedAffinity -3.04850984
REMARK minimizedRMSD -1
REMARK  0 active torsions:
REMARK  status: ('A' for Active; 'I' for Inactive)
ROOT
ATOM      1  C   UNL d   1      -0.463  -1.371  -1.004  0.00  0.00     0.078 C 
ATOM      2  C1  UNL d   1      -0.049  -0.185  -0.185  0.00  0.00    -0.077 A 
ATOM      3  C2  UNL d   1      -0.800   0.223   0.925  0.00  0.00    -0.001 A 
ATOM      4  C3  UNL d   1      -0.409   1.335   1.672  0.00  0.00     0.003 A 
ATOM      5  C4  UNL d   1       0.733   2.050   1.317  0.00  0.00    -0.005 A 
ATOM      6  C5  UNL d   1       1.486   1.653   0.213  0.00  0.00     0.003 A 
ATOM      7  C6  UNL d   1       1.096   0.541  -0.536  0.00  0.00    -0.001 A 
ENDROOT
TORSDOF 0
ENDMDL
