MODEL 1
REMARK minimizedAffinity -4.74384689
REMARK minimizedRMSD -1
REMARK  0 active torsions:
REMARK  status: ('A' for Active; 'I' for Inactive)
ROOT
ATOM      1  C   UNL d   1       1.051   3.042   1.087  0.00  0.00     0.078 C 
ATOM      2  C1  UNL d   1       0.594   1.652   0.761  0.00  0.00    -0.077 A 
ATOM      3  C2  UNL d   1      -0.418   1.032   1.505  0.00  0.00    -0.001 A 
ATOM      4  C3  UNL d   1      -0.826  -0.266   1.197  0.00  0.00     0.003 A 
ATOM      5  C4  UNL d   1      -0.228  -0.957   0.145  0.00  0.00    -0.005 A 
ATOM      6  C5  UNL d   1       0.781  -0.349  -0.600  0.00  0.00     0.003 A 
ATOM      7  C6  UNL d   1       1.191   0.949  -0.293  0.00  0.00    -0.001 A 
ENDROOT
TORSDOF 0
ENDMDL
