MODEL 1
REMARK minimizedAffinity -5.39521551
REMARK minimizedRMSD -1
REMARK  0 active torsions:
REMARK  status: ('A' for Active; 'I' for Inactive)
ROOT
ATOM      1  C   UNL d   1       1.139   2.891   0.995  0.00  0.00     0.078 C 
ATOM      2  C1  UNL d   1       1.032   1.496   0.456  0.00  0.00    -0.077 A 
ATOM      3  C2  UNL d   1      -0.076   0.692   0.752  0.00  0.00    -0.001 A 
ATOM      4  C3  UNL d   1      -0.159  -0.609   0.251  0.00  0.00     0.003 A 
ATOM      5  C4  UNL d   1       0.864  -1.117  -0.548  0.00  0.00    -0.005 A 
ATOM      6  C5  UNL d   1       1.971  -0.325  -0.846  0.00  0.00     0.003 A 
ATOM      7  C6  UNL d   1       2.055   0.975  -0.346  0.00  0.00    -0.001 A 
ENDROOT
TORSDOF 0
ENDMDL
