MODEL 1
REMARK minimizedAffinity -5.75984287
REMARK minimizedRMSD -1
REMARK  0 active torsions:
REMARK  status: ('A' for Active; 'I' for Inactive)
ROOT
ATOM      1  C   UNL d   1      -0.548  -1.332  -0.129  0.00  0.00     0.078 C 
ATOM      2  C1  UNL d   1      -0.166   0.051   0.308  0.00  0.00    -0.077 A 
ATOM      3  C2  UNL d   1      -0.851   0.694   1.346  0.00  0.00    -0.001 A 
ATOM      4  C3  UNL d   1      -0.492   1.985   1.736  0.00  0.00     0.003 A 
ATOM      5  C4  UNL d   1       0.554   2.645   1.092  0.00  0.00    -0.005 A 
ATOM      6  C5  UNL d   1       1.240   2.014   0.057  0.00  0.00     0.003 A 
ATOM      7  C6  UNL d   1       0.882   0.723  -0.335  0.00  0.00    -0.001 A 
ENDROOT
TORSDOF 0
ENDMDL
