MODEL 1
REMARK minimizedAffinity -4.70105124
REMARK minimizedRMSD -1
REMARK  0 active torsions:
REMARK  status: ('A' for Active; 'I' for Inactive)
ROOT
ATOM      1  C   UNL d   1      -0.374  -1.011  -0.651  0.00  0.00     0.078 C 
ATOM      2  C1  UNL d   1       0.206   0.180   0.052  0.00  0.00    -0.077 A 
ATOM      3  C2  UNL d   1       1.201   0.960  -0.550  0.00  0.00    -0.001 A 
ATOM      4  C3  UNL d   1       1.739   2.060   0.120  0.00  0.00     0.003 A 
ATOM      5  C4  UNL d   1       1.289   2.389   1.398  0.00  0.00    -0.005 A 
ATOM      6  C5  UNL d   1       0.302   1.617   2.006  0.00  0.00     0.003 A 
ATOM      7  C6  UNL d   1      -0.237   0.517   1.337  0.00  0.00    -0.001 A 
ENDROOT
TORSDOF 0
ENDMDL
