MODEL 1
REMARK minimizedAffinity -5.42589426
REMARK minimizedRMSD -1
REMARK  0 active torsions:
REMARK  status: ('A' for Active; 'I' for Inactive)
ROOT
ATOM      1  C   UNL d   1       1.302   2.905   1.163  0.00  0.00     0.078 C 
ATOM      2  C1  UNL d   1       0.666   1.621   0.719  0.00  0.00    -0.077 A 
ATOM      3  C2  UNL d   1       1.114   0.953  -0.428  0.00  0.00    -0.001 A 
ATOM      4  C3  UNL d   1       0.506  -0.235  -0.834  0.00  0.00     0.003 A 
ATOM      5  C4  UNL d   1      -0.554  -0.766  -0.101  0.00  0.00    -0.005 A 
ATOM      6  C5  UNL d   1      -1.007  -0.107   1.039  0.00  0.00     0.003 A 
ATOM      7  C6  UNL d   1      -0.401   1.082   1.448  0.00  0.00    -0.001 A 
ENDROOT
TORSDOF 0
ENDMDL
