MODEL 1
REMARK minimizedAffinity -3.91936302
REMARK minimizedRMSD -1
REMARK  0 active torsions:
REMARK  status: ('A' for Active; 'I' for Inactive)
ROOT
ATOM      1  C   UNL d   1       1.532   2.863   0.828  0.00  0.00     0.078 C 
ATOM      2  C1  UNL d   1       0.990   1.567   0.303  0.00  0.00    -0.077 A 
ATOM      3  C2  UNL d   1      -0.384   1.298   0.328  0.00  0.00    -0.001 A 
ATOM      4  C3  UNL d   1      -0.874   0.083  -0.155  0.00  0.00     0.003 A 
ATOM      5  C4  UNL d   1       0.004  -0.872  -0.665  0.00  0.00    -0.005 A 
ATOM      6  C5  UNL d   1       1.372  -0.613  -0.692  0.00  0.00     0.003 A 
ATOM      7  C6  UNL d   1       1.864   0.601  -0.209  0.00  0.00    -0.001 A 
ENDROOT
TORSDOF 0
ENDMDL
