MODEL 1
REMARK minimizedAffinity -4.79137516
REMARK minimizedRMSD -1
REMARK  0 active torsions:
REMARK  status: ('A' for Active; 'I' for Inactive)
ROOT
ATOM      1  C   UNL d   1       1.194   3.117   1.215  0.00  0.00     0.078 C 
ATOM      2  C1  UNL d   1       0.594   1.832   0.728  0.00  0.00    -0.077 A 
ATOM      3  C2  UNL d   1       1.051   1.222  -0.447  0.00  0.00    -0.001 A 
ATOM      4  C3  UNL d   1       0.477   0.031  -0.893  0.00  0.00     0.003 A 
ATOM      5  C4  UNL d   1      -0.560  -0.559  -0.173  0.00  0.00    -0.005 A 
ATOM      6  C5  UNL d   1      -1.023   0.042   0.996  0.00  0.00     0.003 A 
ATOM      7  C6  UNL d   1      -0.450   1.232   1.444  0.00  0.00    -0.001 A 
ENDROOT
TORSDOF 0
ENDMDL
