MODEL 1
REMARK minimizedAffinity -5.45303488
REMARK minimizedRMSD -1
REMARK  0 active torsions:
REMARK  status: ('A' for Active; 'I' for Inactive)
ROOT
ATOM      1  C   UNL d   1      -0.430  -0.882  -0.644  0.00  0.00     0.078 C 
ATOM      2  C1  UNL d   1       0.137   0.315   0.060  0.00  0.00    -0.077 A 
ATOM      3  C2  UNL d   1       1.432   0.770  -0.220  0.00  0.00    -0.001 A 
ATOM      4  C3  UNL d   1       1.950   1.879   0.450  0.00  0.00     0.003 A 
ATOM      5  C4  UNL d   1       1.182   2.542   1.405  0.00  0.00    -0.005 A 
ATOM      6  C5  UNL d   1      -0.107   2.096   1.691  0.00  0.00     0.003 A 
ATOM      7  C6  UNL d   1      -0.627   0.986   1.022  0.00  0.00    -0.001 A 
ENDROOT
TORSDOF 0
ENDMDL
