MODEL 1
REMARK minimizedAffinity -5.38797617
REMARK minimizedRMSD -1
REMARK  0 active torsions:
REMARK  status: ('A' for Active; 'I' for Inactive)
ROOT
ATOM      1  C   UNL d   1       0.871   2.589   1.260  0.00  0.00     0.078 C 
ATOM      2  C1  UNL d   1       0.367   1.243   0.831  0.00  0.00    -0.077 A 
ATOM      3  C2  UNL d   1      -0.724   0.644   1.472  0.00  0.00    -0.001 A 
ATOM      4  C3  UNL d   1      -1.177  -0.614   1.069  0.00  0.00     0.003 A 
ATOM      5  C4  UNL d   1      -0.544  -1.283   0.024  0.00  0.00    -0.005 A 
ATOM      6  C5  UNL d   1       0.544  -0.695  -0.619  0.00  0.00     0.003 A 
ATOM      7  C6  UNL d   1       0.998   0.562  -0.217  0.00  0.00    -0.001 A 
ENDROOT
TORSDOF 0
ENDMDL
