MODEL 1
REMARK minimizedAffinity -2.64355445
REMARK minimizedRMSD -1
REMARK  0 active torsions:
REMARK  status: ('A' for Active; 'I' for Inactive)
ROOT
ATOM      1  C   UNL d   1       2.087  -0.324  -0.883  0.00  0.00     0.078 C 
ATOM      2  C1  UNL d   1       1.002   0.183   0.020  0.00  0.00    -0.077 A 
ATOM      3  C2  UNL d   1       1.182   1.344   0.783  0.00  0.00    -0.001 A 
ATOM      4  C3  UNL d   1       0.168   1.798   1.627  0.00  0.00     0.003 A 
ATOM      5  C4  UNL d   1      -1.034   1.098   1.716  0.00  0.00    -0.005 A 
ATOM      6  C5  UNL d   1      -1.221  -0.059   0.963  0.00  0.00     0.003 A 
ATOM      7  C6  UNL d   1      -0.208  -0.515   0.119  0.00  0.00    -0.001 A 
ENDROOT
TORSDOF 0
ENDMDL
