MODEL 1
REMARK minimizedAffinity 8.75165272
REMARK minimizedRMSD -1
REMARK  0 active torsions:
REMARK  status: ('A' for Active; 'I' for Inactive)
ROOT
ATOM      1  C   UNL d   1      -3.617  -0.420   2.467  0.00  0.00    -0.002 A 
ATOM      2  C1  UNL d   1      -3.567  -1.694   3.014  0.00  0.00     0.010 A 
ATOM      3  C2  UNL d   1      -2.360  -2.222   3.476  0.00  0.00     0.041 A 
ATOM      4  C3  UNL d   1      -1.192  -1.439   3.379  0.00  0.00    -0.075 A 
ATOM      5  S   UNL d   1       0.398  -1.877   3.881  0.00  0.00     0.015 SA
ATOM      6  C4  UNL d   1       1.048  -0.383   3.381  0.00  0.00     0.022 A 
ATOM      7  C5  UNL d   1       0.089   0.442   2.842  0.00  0.00     0.026 A 
ATOM      8  C6  UNL d   1      -1.218  -0.152   2.833  0.00  0.00    -0.082 A 
ATOM      9  C7  UNL d   1      -2.457   0.354   2.372  0.00  0.00     0.045 A 
ENDROOT
TORSDOF 0
ENDMDL
