MODEL 1
REMARK minimizedAffinity 20.5194149
REMARK minimizedRMSD -1
REMARK  0 active torsions:
REMARK  status: ('A' for Active; 'I' for Inactive)
ROOT
ATOM      1  C   UNL d   1       3.848   2.137   2.379  0.00  0.00    -0.002 A 
ATOM      2  C1  UNL d   1       4.033   1.660   3.669  0.00  0.00     0.010 A 
ATOM      3  C2  UNL d   1       3.164   0.708   4.205  0.00  0.00     0.041 A 
ATOM      4  C3  UNL d   1       2.098   0.236   3.415  0.00  0.00    -0.075 A 
ATOM      5  S   UNL d   1       0.909  -0.931   3.861  0.00  0.00     0.015 SA
ATOM      6  C4  UNL d   1       0.130  -0.825   2.349  0.00  0.00     0.022 A 
ATOM      7  C5  UNL d   1       0.747   0.074   1.512  0.00  0.00     0.026 A 
ATOM      8  C6  UNL d   1       1.892   0.700   2.112  0.00  0.00    -0.082 A 
ATOM      9  C7  UNL d   1       2.789   1.666   1.598  0.00  0.00     0.045 A 
ENDROOT
TORSDOF 0
ENDMDL
