MODEL 1
REMARK minimizedAffinity 7.86822701
REMARK minimizedRMSD -1
REMARK  0 active torsions:
REMARK  status: ('A' for Active; 'I' for Inactive)
ROOT
ATOM      1  C   UNL d   1       4.501   6.000   3.158  0.00  0.00    -0.002 A 
ATOM      2  C1  UNL d   1       4.077   5.601   1.898  0.00  0.00     0.010 A 
ATOM      3  C2  UNL d   1       4.039   4.248   1.557  0.00  0.00     0.041 A 
ATOM      4  C3  UNL d   1       4.436   3.292   2.513  0.00  0.00    -0.075 A 
ATOM      5  S   UNL d   1       4.471   1.580   2.319  0.00  0.00     0.015 SA
ATOM      6  C4  UNL d   1       5.048   1.337   3.904  0.00  0.00     0.022 A 
ATOM      7  C5  UNL d   1       5.216   2.522   4.579  0.00  0.00     0.026 A 
ATOM      8  C6  UNL d   1       4.865   3.669   3.789  0.00  0.00    -0.082 A 
ATOM      9  C7  UNL d   1       4.894   5.049   4.104  0.00  0.00     0.045 A 
ENDROOT
TORSDOF 0
ENDMDL
