MODEL 1
REMARK minimizedAffinity 14.0532293
REMARK minimizedRMSD -1
REMARK  0 active torsions:
REMARK  status: ('A' for Active; 'I' for Inactive)
ROOT
ATOM      1  C   UNL d   1       3.732   5.801   5.230  0.00  0.00    -0.002 A 
ATOM      2  C1  UNL d   1       4.545   5.999   4.123  0.00  0.00     0.010 A 
ATOM      3  C2  UNL d   1       5.283   4.943   3.586  0.00  0.00     0.041 A 
ATOM      4  C3  UNL d   1       5.188   3.671   4.184  0.00  0.00    -0.075 A 
ATOM      5  S   UNL d   1       5.999   2.230   3.697  0.00  0.00     0.015 SA
ATOM      6  C4  UNL d   1       5.285   1.317   4.947  0.00  0.00     0.022 A 
ATOM      7  C5  UNL d   1       4.445   2.077   5.726  0.00  0.00     0.026 A 
ATOM      8  C6  UNL d   1       4.375   3.447   5.299  0.00  0.00    -0.082 A 
ATOM      9  C7  UNL d   1       3.640   4.538   5.821  0.00  0.00     0.045 A 
ENDROOT
TORSDOF 0
ENDMDL
