MODEL 1
REMARK minimizedAffinity 22.1667328
REMARK minimizedRMSD -1
REMARK  0 active torsions:
REMARK  status: ('A' for Active; 'I' for Inactive)
ROOT
ATOM      1  C   UNL d   1       1.432  -1.344   3.582  0.00  0.00    -0.002 A 
ATOM      2  C1  UNL d   1       1.169  -0.002   3.346  0.00  0.00     0.010 A 
ATOM      3  C2  UNL d   1      -0.082   0.406   2.879  0.00  0.00     0.041 A 
ATOM      4  C3  UNL d   1      -1.074  -0.567   2.651  0.00  0.00    -0.075 A 
ATOM      5  S   UNL d   1      -2.679  -0.301   2.080  0.00  0.00     0.015 SA
ATOM      6  C4  UNL d   1      -3.055  -1.963   2.136  0.00  0.00     0.022 A 
ATOM      7  C5  UNL d   1      -1.993  -2.717   2.577  0.00  0.00     0.026 A 
ATOM      8  C6  UNL d   1      -0.834  -1.925   2.881  0.00  0.00    -0.082 A 
ATOM      9  C7  UNL d   1       0.445  -2.306   3.354  0.00  0.00     0.045 A 
ENDROOT
TORSDOF 0
ENDMDL
