MODEL 1
REMARK minimizedAffinity 21.6423359
REMARK minimizedRMSD -1
REMARK  0 active torsions:
REMARK  status: ('A' for Active; 'I' for Inactive)
ROOT
ATOM      1  C   UNL d   1      -2.076  -4.515  -4.812  0.00  0.00    -0.002 A 
ATOM      2  C1  UNL d   1      -1.429  -4.124  -5.976  0.00  0.00     0.010 A 
ATOM      3  C2  UNL d   1      -0.645  -2.969  -5.999  0.00  0.00     0.041 A 
ATOM      4  C3  UNL d   1      -0.521  -2.206  -4.821  0.00  0.00    -0.075 A 
ATOM      5  S   UNL d   1       0.386  -0.754  -4.614  0.00  0.00     0.015 SA
ATOM      6  C4  UNL d   1      -0.064  -0.619  -2.976  0.00  0.00     0.022 A 
ATOM      7  C5  UNL d   1      -0.887  -1.647  -2.580  0.00  0.00     0.026 A 
ATOM      8  C6  UNL d   1      -1.163  -2.579  -3.637  0.00  0.00    -0.082 A 
ATOM      9  C7  UNL d   1      -1.951  -3.755  -3.646  0.00  0.00     0.045 A 
ENDROOT
TORSDOF 0
ENDMDL
