MODEL 1
REMARK minimizedAffinity 13.6906176
REMARK minimizedRMSD -1
REMARK  0 active torsions:
REMARK  status: ('A' for Active; 'I' for Inactive)
ROOT
ATOM      1  C   UNL d   1       1.549  -2.921   4.579  0.00  0.00    -0.002 A 
ATOM      2  C1  UNL d   1       0.212  -3.293   4.554  0.00  0.00     0.010 A 
ATOM      3  C2  UNL d   1      -0.715  -2.559   3.812  0.00  0.00     0.041 A 
ATOM      4  C3  UNL d   1      -0.272  -1.437   3.085  0.00  0.00    -0.075 A 
ATOM      5  S   UNL d   1      -1.228  -0.389   2.105  0.00  0.00     0.015 SA
ATOM      6  C4  UNL d   1       0.116   0.576   1.694  0.00  0.00     0.022 A 
ATOM      7  C5  UNL d   1       1.273   0.124   2.283  0.00  0.00     0.026 A 
ATOM      8  C6  UNL d   1       1.069  -1.043   3.094  0.00  0.00    -0.082 A 
ATOM      9  C7  UNL d   1       1.985  -1.807   3.857  0.00  0.00     0.045 A 
ENDROOT
TORSDOF 0
ENDMDL
