MODEL 1
REMARK minimizedAffinity 1.29480386
REMARK minimizedRMSD -1
REMARK  1 active torsions:
REMARK  status: ('A' for Active; 'I' for Inactive)
REMARK    1  A    between atoms: C1_2  and  C2_3 
ROOT
ATOM      1  C2  UNL d   1      -3.354   5.176   3.621  0.00  0.00    -0.077 A 
ATOM      2  C3  UNL d   1      -4.513   4.430   3.365  0.00  0.00     0.002 A 
ATOM      3  C4  UNL d   1      -5.116   4.471   2.106  0.00  0.00     0.002 A 
ATOM      4  C5  UNL d   1      -4.564   5.252   1.092  0.00  0.00    -0.004 A 
ATOM      5  C6  UNL d   1      -3.413   6.000   1.338  0.00  0.00     0.002 A 
ATOM      6  C7  UNL d   1      -2.810   5.961   2.596  0.00  0.00     0.002 A 
ENDROOT
BRANCH   1   7
ATOM      7  C1  UNL d   1      -2.675   5.095   4.963  0.00  0.00     0.055 C 
ATOM      8  C   UNL d   1      -3.357   5.995   5.983  0.00  0.00     0.019 C 
ENDBRANCH   1   7
TORSDOF 1
ENDMDL
