MODEL 1
REMARK minimizedAffinity -3.22049785
REMARK minimizedRMSD -1
REMARK  1 active torsions:
REMARK  status: ('A' for Active; 'I' for Inactive)
REMARK    1  A    between atoms: C1_2  and  C2_3 
ROOT
ATOM      1  C2  UNL d   1      -3.773   5.863   3.512  0.00  0.00    -0.077 A 
ATOM      2  C3  UNL d   1      -3.124   5.999   2.277  0.00  0.00     0.002 A 
ATOM      3  C4  UNL d   1      -3.848   5.918   1.086  0.00  0.00     0.002 A 
ATOM      4  C5  UNL d   1      -5.225   5.705   1.119  0.00  0.00    -0.004 A 
ATOM      5  C6  UNL d   1      -5.879   5.566   2.342  0.00  0.00     0.002 A 
ATOM      6  C7  UNL d   1      -5.156   5.646   3.534  0.00  0.00     0.002 A 
ENDROOT
BRANCH   1   7
ATOM      7  C1  UNL d   1      -3.001   6.000   4.799  0.00  0.00     0.055 C 
ATOM      8  C   UNL d   1      -3.857   5.625   6.000  0.00  0.00     0.019 C 
ENDBRANCH   1   7
TORSDOF 1
ENDMDL
