MODEL 1
REMARK minimizedAffinity -1.1564647
REMARK minimizedRMSD -1
REMARK  1 active torsions:
REMARK  status: ('A' for Active; 'I' for Inactive)
REMARK    1  A    between atoms: C1_2  and  C2_3 
ROOT
ATOM      1  C2  UNL d   1      -4.296   5.621   4.127  0.00  0.00    -0.077 A 
ATOM      2  C3  UNL d   1      -3.224   5.915   3.273  0.00  0.00     0.002 A 
ATOM      3  C4  UNL d   1      -3.422   5.995   1.893  0.00  0.00     0.002 A 
ATOM      4  C5  UNL d   1      -4.691   5.785   1.356  0.00  0.00    -0.004 A 
ATOM      5  C6  UNL d   1      -5.762   5.490   2.198  0.00  0.00     0.002 A 
ATOM      6  C7  UNL d   1      -5.566   5.409   3.577  0.00  0.00     0.002 A 
ENDROOT
BRANCH   1   7
ATOM      7  C1  UNL d   1      -4.094   5.583   5.620  0.00  0.00     0.055 C 
ATOM      8  C   UNL d   1      -2.680   5.999   5.998  0.00  0.00     0.019 C 
ENDBRANCH   1   7
TORSDOF 1
ENDMDL
