MODEL 1
REMARK minimizedAffinity 1.06459033
REMARK minimizedRMSD -1
REMARK  1 active torsions:
REMARK  status: ('A' for Active; 'I' for Inactive)
REMARK    1  A    between atoms: C1_2  and  C2_3 
ROOT
ATOM      1  C2  UNL d   1      -4.042   5.779   3.327  0.00  0.00    -0.077 A 
ATOM      2  C3  UNL d   1      -2.679   5.815   3.651  0.00  0.00     0.002 A 
ATOM      3  C4  UNL d   1      -2.272   5.927   4.982  0.00  0.00     0.002 A 
ATOM      4  C5  UNL d   1      -3.222   5.999   5.999  0.00  0.00    -0.004 A 
ATOM      5  C6  UNL d   1      -4.580   5.965   5.687  0.00  0.00     0.002 A 
ATOM      6  C7  UNL d   1      -4.989   5.855   4.357  0.00  0.00     0.002 A 
ENDROOT
BRANCH   1   7
ATOM      7  C1  UNL d   1      -4.482   5.609   1.896  0.00  0.00     0.055 C 
ATOM      8  C   UNL d   1      -5.981   5.828   1.749  0.00  0.00     0.019 C 
ENDBRANCH   1   7
TORSDOF 1
ENDMDL
