MODEL 1
REMARK minimizedAffinity 0.0778455362
REMARK minimizedRMSD -1
REMARK  1 active torsions:
REMARK  status: ('A' for Active; 'I' for Inactive)
REMARK    1  A    between atoms: C1_2  and  C2_3 
ROOT
ATOM      1  C2  UNL d   1      -3.402   5.983   3.327  0.00  0.00    -0.077 A 
ATOM      2  C3  UNL d   1      -2.034   5.995   3.634  0.00  0.00     0.002 A 
ATOM      3  C4  UNL d   1      -1.608   5.995   4.964  0.00  0.00     0.002 A 
ATOM      4  C5  UNL d   1      -2.544   5.979   5.996  0.00  0.00    -0.004 A 
ATOM      5  C6  UNL d   1      -3.906   5.968   5.701  0.00  0.00     0.002 A 
ATOM      6  C7  UNL d   1      -4.333   5.970   4.373  0.00  0.00     0.002 A 
ENDROOT
BRANCH   1   7
ATOM      7  C1  UNL d   1      -3.862   5.933   1.894  0.00  0.00     0.055 C 
ATOM      8  C   UNL d   1      -5.334   5.560   1.798  0.00  0.00     0.019 C 
ENDBRANCH   1   7
TORSDOF 1
ENDMDL
