MODEL 1
REMARK minimizedAffinity -0.485017389
REMARK minimizedRMSD -1
REMARK  1 active torsions:
REMARK  status: ('A' for Active; 'I' for Inactive)
REMARK    1  A    between atoms: C1_2  and  C2_3 
ROOT
ATOM      1  C2  UNL d   1      -3.439   5.962   3.450  0.00  0.00    -0.077 A 
ATOM      2  C3  UNL d   1      -4.775   5.976   3.874  0.00  0.00     0.002 A 
ATOM      3  C4  UNL d   1      -5.813   5.931   2.941  0.00  0.00     0.002 A 
ATOM      4  C5  UNL d   1      -5.526   5.867   1.579  0.00  0.00    -0.004 A 
ATOM      5  C6  UNL d   1      -4.200   5.855   1.147  0.00  0.00     0.002 A 
ATOM      6  C7  UNL d   1      -3.161   5.901   2.078  0.00  0.00     0.002 A 
ENDROOT
BRANCH   1   7
ATOM      7  C1  UNL d   1      -2.319   5.961   4.457  0.00  0.00     0.055 C 
ATOM      8  C   UNL d   1      -2.854   5.999   5.881  0.00  0.00     0.019 C 
ENDBRANCH   1   7
TORSDOF 1
ENDMDL
