MODEL 1
REMARK minimizedAffinity -2.49411321
REMARK minimizedRMSD -1
REMARK  1 active torsions:
REMARK  status: ('A' for Active; 'I' for Inactive)
REMARK    1  A    between atoms: C1_2  and  C2_3 
ROOT
ATOM      1  C2  UNL d   1      -3.344   3.355   4.053  0.00  0.00    -0.077 A 
ATOM      2  C3  UNL d   1      -3.318   3.873   5.356  0.00  0.00     0.002 A 
ATOM      3  C4  UNL d   1      -3.711   5.190   5.600  0.00  0.00     0.002 A 
ATOM      4  C5  UNL d   1      -4.136   5.999   4.548  0.00  0.00    -0.004 A 
ATOM      5  C6  UNL d   1      -4.163   5.493   3.248  0.00  0.00     0.002 A 
ATOM      6  C7  UNL d   1      -3.770   4.177   3.002  0.00  0.00     0.002 A 
ENDROOT
BRANCH   1   7
ATOM      7  C1  UNL d   1      -2.968   1.919   3.795  0.00  0.00     0.055 C 
ATOM      8  C   UNL d   1      -4.034   0.966   4.315  0.00  0.00     0.019 C 
ENDBRANCH   1   7
TORSDOF 1
ENDMDL
