MODEL 1
REMARK minimizedAffinity -1.90011871
REMARK minimizedRMSD -1
REMARK  1 active torsions:
REMARK  status: ('A' for Active; 'I' for Inactive)
REMARK    1  A    between atoms: C1_2  and  C2_3 
ROOT
ATOM      1  C2  UNL d   1      -3.865   6.000   3.896  0.00  0.00    -0.077 A 
ATOM      2  C3  UNL d   1      -5.051   5.999   3.149  0.00  0.00     0.002 A 
ATOM      3  C4  UNL d   1      -5.006   5.997   1.753  0.00  0.00     0.002 A 
ATOM      4  C5  UNL d   1      -3.778   5.990   1.094  0.00  0.00    -0.004 A 
ATOM      5  C6  UNL d   1      -2.593   5.993   1.829  0.00  0.00     0.002 A 
ATOM      6  C7  UNL d   1      -2.636   5.997   3.223  0.00  0.00     0.002 A 
ENDROOT
BRANCH   1   7
ATOM      7  C1  UNL d   1      -3.911   5.953   5.401  0.00  0.00     0.055 C 
ATOM      8  C   UNL d   1      -2.512   5.903   5.997  0.00  0.00     0.019 C 
ENDBRANCH   1   7
TORSDOF 1
ENDMDL
