MODEL 1
REMARK minimizedAffinity -2.55026364
REMARK minimizedRMSD -1
REMARK  1 active torsions:
REMARK  status: ('A' for Active; 'I' for Inactive)
REMARK    1  A    between atoms: C1_2  and  C2_3 
ROOT
ATOM      1  C2  UNL d   1       3.745   4.950   0.343  0.00  0.00    -0.077 A 
ATOM      2  C3  UNL d   1       3.832   4.181   1.512  0.00  0.00     0.002 A 
ATOM      3  C4  UNL d   1       4.927   4.318   2.368  0.00  0.00     0.002 A 
ATOM      4  C5  UNL d   1       5.941   5.224   2.064  0.00  0.00    -0.004 A 
ATOM      5  C6  UNL d   1       5.865   5.991   0.903  0.00  0.00     0.002 A 
ATOM      6  C7  UNL d   1       4.771   5.855   0.046  0.00  0.00     0.002 A 
ENDROOT
BRANCH   1   7
ATOM      7  C1  UNL d   1       2.541   4.839  -0.555  0.00  0.00     0.055 C 
ATOM      8  C   UNL d   1       2.896   5.159  -2.000  0.00  0.00     0.019 C 
ENDBRANCH   1   7
TORSDOF 1
ENDMDL
