MODEL 1
REMARK minimizedAffinity 5.895051
REMARK minimizedRMSD -1
REMARK  1 active torsions:
REMARK  status: ('A' for Active; 'I' for Inactive)
REMARK    1  A    between atoms: C1_2  and  C2_3 
ROOT
ATOM      1  C2  UNL d   1      -3.597   5.364   4.442  0.00  0.00    -0.077 A 
ATOM      2  C3  UNL d   1      -4.855   5.912   4.154  0.00  0.00     0.002 A 
ATOM      3  C4  UNL d   1      -5.328   5.942   2.841  0.00  0.00     0.002 A 
ATOM      4  C5  UNL d   1      -4.553   5.422   1.807  0.00  0.00    -0.004 A 
ATOM      5  C6  UNL d   1      -3.300   4.876   2.083  0.00  0.00     0.002 A 
ATOM      6  C7  UNL d   1      -2.825   4.846   3.395  0.00  0.00     0.002 A 
ENDROOT
BRANCH   1   7
ATOM      7  C1  UNL d   1      -3.106   5.286   5.864  0.00  0.00     0.055 C 
ATOM      8  C   UNL d   1      -1.704   5.861   5.998  0.00  0.00     0.019 C 
ENDBRANCH   1   7
TORSDOF 1
ENDMDL
