MODEL 1
REMARK minimizedAffinity -3.30124378
REMARK minimizedRMSD -1
REMARK  0 active torsions:
REMARK  status: ('A' for Active; 'I' for Inactive)
ROOT
ATOM      1  C   UNL d   1      -0.798  -0.948  -0.774  0.00  0.00     0.077 C 
ATOM      2  C1  UNL d   1      -0.046  -0.039   0.152  0.00  0.00    -0.074 A 
ATOM      3  C2  UNL d   1      -0.706   0.654   1.172  0.00  0.00    -0.005 A 
ATOM      4  C3  UNL d   1       0.008   1.489   2.031  0.00  0.00     0.006 A 
ATOM      5  C4  UNL d   1       1.387   1.638   1.881  0.00  0.00    -0.005 A 
ATOM      6  C5  UNL d   1       2.065   0.952   0.868  0.00  0.00    -0.074 A 
ATOM      7  C6  UNL d   1       3.548   1.094   0.698  0.00  0.00     0.077 C 
ATOM      8  C7  UNL d   1       1.341   0.110   0.012  0.00  0.00    -0.001 A 
ENDROOT
TORSDOF 0
ENDMDL
