MODEL 1
REMARK minimizedAffinity 1.23985243
REMARK minimizedRMSD -1
REMARK  0 active torsions:
REMARK  status: ('A' for Active; 'I' for Inactive)
ROOT
ATOM      1  C   UNL d   1      -0.383  -0.988  -0.747  0.00  0.00     0.077 C 
ATOM      2  C1  UNL d   1       0.189  -0.006   0.231  0.00  0.00    -0.074 A 
ATOM      3  C2  UNL d   1      -0.644   0.742   1.070  0.00  0.00    -0.005 A 
ATOM      4  C3  UNL d   1      -0.096   1.644   1.982  0.00  0.00     0.006 A 
ATOM      5  C4  UNL d   1       1.287   1.808   2.065  0.00  0.00    -0.005 A 
ATOM      6  C5  UNL d   1       2.136   1.068   1.235  0.00  0.00    -0.074 A 
ATOM      7  C6  UNL d   1       3.625   1.225   1.318  0.00  0.00     0.077 C 
ATOM      8  C7  UNL d   1       1.578   0.158   0.326  0.00  0.00    -0.001 A 
ENDROOT
TORSDOF 0
ENDMDL
