MODEL 1
REMARK minimizedAffinity -4.03701448
REMARK minimizedRMSD -1
REMARK  0 active torsions:
REMARK  status: ('A' for Active; 'I' for Inactive)
ROOT
ATOM      1  C   UNL d   1       1.012   2.526   0.612  0.00  0.00     0.077 C 
ATOM      2  C1  UNL d   1       0.401   1.202   0.261  0.00  0.00    -0.074 A 
ATOM      3  C2  UNL d   1      -0.776   0.767   0.877  0.00  0.00    -0.005 A 
ATOM      4  C3  UNL d   1      -1.338  -0.462   0.533  0.00  0.00     0.006 A 
ATOM      5  C4  UNL d   1      -0.729  -1.268  -0.430  0.00  0.00    -0.005 A 
ATOM      6  C5  UNL d   1       0.448  -0.849  -1.058  0.00  0.00    -0.074 A 
ATOM      7  C6  UNL d   1       1.111  -1.699  -2.102  0.00  0.00     0.077 C 
ATOM      8  C7  UNL d   1       1.003   0.391  -0.711  0.00  0.00    -0.001 A 
ENDROOT
TORSDOF 0
ENDMDL
