MODEL 1
REMARK minimizedAffinity -5.14251089
REMARK minimizedRMSD -1
REMARK  0 active torsions:
REMARK  status: ('A' for Active; 'I' for Inactive)
ROOT
ATOM      1  C   UNL d   1      -0.211   1.113   3.374  0.00  0.00     0.077 C 
ATOM      2  C1  UNL d   1       0.146   0.980   1.923  0.00  0.00    -0.074 A 
ATOM      3  C2  UNL d   1       1.224   1.687   1.381  0.00  0.00    -0.005 A 
ATOM      4  C3  UNL d   1       1.551   1.546   0.032  0.00  0.00     0.006 A 
ATOM      5  C4  UNL d   1       0.803   0.698  -0.787  0.00  0.00    -0.005 A 
ATOM      6  C5  UNL d   1      -0.278  -0.017  -0.262  0.00  0.00    -0.074 A 
ATOM      7  C6  UNL d   1      -1.085  -0.940  -1.126  0.00  0.00     0.077 C 
ATOM      8  C7  UNL d   1      -0.595   0.125   1.096  0.00  0.00    -0.001 A 
ENDROOT
TORSDOF 0
ENDMDL
