MODEL 1
REMARK minimizedAffinity -4.69485283
REMARK minimizedRMSD -1
REMARK  0 active torsions:
REMARK  status: ('A' for Active; 'I' for Inactive)
ROOT
ATOM      1  C   UNL d   1      -5.067  -2.912  -1.094  0.00  0.00     0.077 C 
ATOM      2  C1  UNL d   1      -3.831  -2.292  -1.674  0.00  0.00    -0.074 A 
ATOM      3  C2  UNL d   1      -3.818  -1.806  -2.986  0.00  0.00    -0.005 A 
ATOM      4  C3  UNL d   1      -2.664  -1.224  -3.509  0.00  0.00     0.006 A 
ATOM      5  C4  UNL d   1      -1.512  -1.122  -2.727  0.00  0.00    -0.005 A 
ATOM      6  C5  UNL d   1      -1.507  -1.601  -1.414  0.00  0.00    -0.074 A 
ATOM      7  C6  UNL d   1      -0.281  -1.490  -0.557  0.00  0.00     0.077 C 
ATOM      8  C7  UNL d   1      -2.673  -2.179  -0.893  0.00  0.00    -0.001 A 
ENDROOT
TORSDOF 0
ENDMDL
