MODEL 1
REMARK minimizedAffinity -6.21604729
REMARK minimizedRMSD -1
REMARK  0 active torsions:
REMARK  status: ('A' for Active; 'I' for Inactive)
ROOT
ATOM      1  C   UNL d   1       1.592   3.221   1.739  0.00  0.00     0.077 C 
ATOM      2  C1  UNL d   1       0.767   2.006   1.437  0.00  0.00    -0.074 A 
ATOM      3  C2  UNL d   1       1.070   1.185   0.345  0.00  0.00    -0.005 A 
ATOM      4  C3  UNL d   1       0.300   0.053   0.082  0.00  0.00     0.006 A 
ATOM      5  C4  UNL d   1      -0.779  -0.271   0.905  0.00  0.00    -0.005 A 
ATOM      6  C5  UNL d   1      -1.097   0.537   2.002  0.00  0.00    -0.074 A 
ATOM      7  C6  UNL d   1      -2.247   0.199   2.902  0.00  0.00     0.077 C 
ATOM      8  C7  UNL d   1      -0.314   1.670   2.264  0.00  0.00    -0.001 A 
ENDROOT
TORSDOF 0
ENDMDL
