MODEL 1
REMARK minimizedAffinity -3.64081717
REMARK minimizedRMSD -1
REMARK  0 active torsions:
REMARK  status: ('A' for Active; 'I' for Inactive)
ROOT
ATOM      1  C   UNL d   1      -3.665  -1.557  -2.605  0.00  0.00     0.077 C 
ATOM      2  C1  UNL d   1      -2.335  -1.425  -1.925  0.00  0.00    -0.074 A 
ATOM      3  C2  UNL d   1      -1.161  -1.855  -2.552  0.00  0.00    -0.005 A 
ATOM      4  C3  UNL d   1       0.070  -1.716  -1.911  0.00  0.00     0.006 A 
ATOM      5  C4  UNL d   1       0.139  -1.148  -0.638  0.00  0.00    -0.005 A 
ATOM      6  C5  UNL d   1      -1.024  -0.711   0.004  0.00  0.00    -0.074 A 
ATOM      7  C6  UNL d   1      -0.966  -0.089   1.367  0.00  0.00     0.077 C 
ATOM      8  C7  UNL d   1      -2.256  -0.848  -0.650  0.00  0.00    -0.001 A 
ENDROOT
TORSDOF 0
ENDMDL
