MODEL 1
REMARK minimizedAffinity -1.91872299
REMARK minimizedRMSD -1
REMARK  0 active torsions:
REMARK  status: ('A' for Active; 'I' for Inactive)
ROOT
ATOM      1  C   UNL d   1      -0.922  -0.976  -0.701  0.00  0.00     0.077 C 
ATOM      2  C1  UNL d   1      -0.267  -0.026   0.257  0.00  0.00    -0.074 A 
ATOM      3  C2  UNL d   1      -1.016   0.637   1.236  0.00  0.00    -0.005 A 
ATOM      4  C3  UNL d   1      -0.392   1.510   2.127  0.00  0.00     0.006 A 
ATOM      5  C4  UNL d   1       0.984   1.730   2.048  0.00  0.00    -0.005 A 
ATOM      6  C5  UNL d   1       1.748   1.075   1.077  0.00  0.00    -0.074 A 
ATOM      7  C6  UNL d   1       3.230   1.292   0.986  0.00  0.00     0.077 C 
ATOM      8  C7  UNL d   1       1.116   0.194   0.190  0.00  0.00    -0.001 A 
ENDROOT
TORSDOF 0
ENDMDL
