MODEL 1
REMARK minimizedAffinity -3.76691818
REMARK minimizedRMSD -1
REMARK  0 active torsions:
REMARK  status: ('A' for Active; 'I' for Inactive)
ROOT
ATOM      1  C   UNL d   1       1.484   3.216   0.690  0.00  0.00     0.077 C 
ATOM      2  C1  UNL d   1       0.579   2.025   0.799  0.00  0.00    -0.074 A 
ATOM      3  C2  UNL d   1      -0.151   1.781   1.966  0.00  0.00    -0.005 A 
ATOM      4  C3  UNL d   1      -0.995   0.674   2.049  0.00  0.00     0.006 A 
ATOM      5  C4  UNL d   1      -1.118  -0.199   0.967  0.00  0.00    -0.005 A 
ATOM      6  C5  UNL d   1      -0.397   0.029  -0.209  0.00  0.00    -0.074 A 
ATOM      7  C6  UNL d   1      -0.525  -0.893  -1.384  0.00  0.00     0.077 C 
ATOM      8  C7  UNL d   1       0.444   1.148  -0.287  0.00  0.00    -0.001 A 
ENDROOT
TORSDOF 0
ENDMDL
