MODEL 1
REMARK minimizedAffinity -4.83597279
REMARK minimizedRMSD -1
REMARK  0 active torsions:
REMARK  status: ('A' for Active; 'I' for Inactive)
ROOT
ATOM      1  C   UNL d   1       1.561   2.646   0.748  0.00  0.00     0.077 C 
ATOM      2  C1  UNL d   1       0.908   1.323   0.478  0.00  0.00    -0.074 A 
ATOM      3  C2  UNL d   1       1.407   0.462  -0.505  0.00  0.00    -0.005 A 
ATOM      4  C3  UNL d   1       0.795  -0.769  -0.739  0.00  0.00     0.006 A 
ATOM      5  C4  UNL d   1      -0.322  -1.150   0.006  0.00  0.00    -0.005 A 
ATOM      6  C5  UNL d   1      -0.835  -0.303   0.993  0.00  0.00    -0.074 A 
ATOM      7  C6  UNL d   1      -2.029  -0.702   1.809  0.00  0.00     0.077 C 
ATOM      8  C7  UNL d   1      -0.210   0.929   1.227  0.00  0.00    -0.001 A 
ENDROOT
TORSDOF 0
ENDMDL
