MODEL 1
REMARK minimizedAffinity -6.02164698
REMARK minimizedRMSD -1
REMARK  0 active torsions:
REMARK  status: ('A' for Active; 'I' for Inactive)
ROOT
ATOM      1  C   UNL d   1      -0.780  -1.383  -0.545  0.00  0.00     0.077 C 
ATOM      2  C1  UNL d   1      -0.107  -0.301   0.246  0.00  0.00    -0.074 A 
ATOM      3  C2  UNL d   1      -0.673   0.182   1.430  0.00  0.00    -0.005 A 
ATOM      4  C3  UNL d   1      -0.030   1.182   2.161  0.00  0.00     0.006 A 
ATOM      5  C4  UNL d   1       1.184   1.707   1.715  0.00  0.00    -0.005 A 
ATOM      6  C5  UNL d   1       1.766   1.235   0.534  0.00  0.00    -0.074 A 
ATOM      7  C6  UNL d   1       3.075   1.782   0.047  0.00  0.00     0.077 C 
ATOM      8  C7  UNL d   1       1.117   0.226  -0.190  0.00  0.00    -0.001 A 
ENDROOT
TORSDOF 0
ENDMDL
