MODEL 1
REMARK minimizedAffinity 0.833925068
REMARK minimizedRMSD -1
REMARK  0 active torsions:
REMARK  status: ('A' for Active; 'I' for Inactive)
ROOT
ATOM      1  C   UNL d   1      -1.329   0.216   2.061  0.00  0.00     0.077 C 
ATOM      2  C1  UNL d   1      -0.919  -0.208   0.683  0.00  0.00    -0.074 A 
ATOM      3  C2  UNL d   1       0.432  -0.281   0.325  0.00  0.00    -0.005 A 
ATOM      4  C3  UNL d   1       0.798  -0.686  -0.958  0.00  0.00     0.006 A 
ATOM      5  C4  UNL d   1      -0.179  -1.022  -1.895  0.00  0.00    -0.005 A 
ATOM      6  C5  UNL d   1      -1.534  -0.955  -1.556  0.00  0.00    -0.074 A 
ATOM      7  C6  UNL d   1      -2.597  -1.322  -2.548  0.00  0.00     0.077 C 
ATOM      8  C7  UNL d   1      -1.895  -0.554  -0.262  0.00  0.00    -0.001 A 
ENDROOT
TORSDOF 0
ENDMDL
