MODEL 1
REMARK minimizedAffinity -1.08388734
REMARK minimizedRMSD -1
REMARK  0 active torsions:
REMARK  status: ('A' for Active; 'I' for Inactive)
ROOT
ATOM      1  C   UNL d   1      -1.868   0.349   2.693  0.00  0.00     0.077 C 
ATOM      2  C1  UNL d   1      -0.642   0.639   1.879  0.00  0.00    -0.074 A 
ATOM      3  C2  UNL d   1       0.398   1.416   2.398  0.00  0.00    -0.005 A 
ATOM      4  C3  UNL d   1       1.536   1.669   1.632  0.00  0.00     0.006 A 
ATOM      5  C4  UNL d   1       1.645   1.149   0.342  0.00  0.00    -0.005 A 
ATOM      6  C5  UNL d   1       0.615   0.369  -0.194  0.00  0.00    -0.074 A 
ATOM      7  C6  UNL d   1       0.721  -0.206  -1.575  0.00  0.00     0.077 C 
ATOM      8  C7  UNL d   1      -0.522   0.113   0.584  0.00  0.00    -0.001 A 
ENDROOT
TORSDOF 0
ENDMDL
