MODEL 1
REMARK minimizedAffinity -3.70199323
REMARK minimizedRMSD -1
REMARK  0 active torsions:
REMARK  status: ('A' for Active; 'I' for Inactive)
ROOT
ATOM      1  C   UNL d   1      -1.282  -1.871  -1.101  0.00  0.00     0.077 C 
ATOM      2  C1  UNL d   1      -0.050  -1.069  -0.800  0.00  0.00    -0.074 A 
ATOM      3  C2  UNL d   1       1.220  -1.554  -1.126  0.00  0.00    -0.005 A 
ATOM      4  C3  UNL d   1       2.356  -0.793  -0.849  0.00  0.00     0.006 A 
ATOM      5  C4  UNL d   1       2.233   0.458  -0.242  0.00  0.00    -0.005 A 
ATOM      6  C5  UNL d   1       0.970   0.959   0.091  0.00  0.00    -0.074 A 
ATOM      7  C6  UNL d   1       0.819   2.306   0.733  0.00  0.00     0.077 C 
ATOM      8  C7  UNL d   1      -0.167   0.192  -0.198  0.00  0.00    -0.001 A 
ENDROOT
TORSDOF 0
ENDMDL
