MODEL 1
REMARK minimizedAffinity -4.60468006
REMARK minimizedRMSD -1
REMARK  0 active torsions:
REMARK  status: ('A' for Active; 'I' for Inactive)
ROOT
ATOM      1  C   UNL d   1      -0.341   1.642   3.245  0.00  0.00     0.077 C 
ATOM      2  C1  UNL d   1       0.316   1.553   1.899  0.00  0.00    -0.074 A 
ATOM      3  C2  UNL d   1       1.058   2.624   1.390  0.00  0.00    -0.005 A 
ATOM      4  C3  UNL d   1       1.671   2.523   0.141  0.00  0.00     0.006 A 
ATOM      5  C4  UNL d   1       1.549   1.353  -0.610  0.00  0.00    -0.005 A 
ATOM      6  C5  UNL d   1       0.812   0.272  -0.116  0.00  0.00    -0.074 A 
ATOM      7  C6  UNL d   1       0.679  -0.996  -0.906  0.00  0.00     0.077 C 
ATOM      8  C7  UNL d   1       0.204   0.378   1.143  0.00  0.00    -0.001 A 
ENDROOT
TORSDOF 0
ENDMDL
