MODEL 1
REMARK minimizedAffinity -3.71188283
REMARK minimizedRMSD -1
REMARK  0 active torsions:
REMARK  status: ('A' for Active; 'I' for Inactive)
ROOT
ATOM      1  C   UNL d   1       1.421   3.133   1.370  0.00  0.00     0.077 C 
ATOM      2  C1  UNL d   1       0.522   1.934   1.318  0.00  0.00    -0.074 A 
ATOM      3  C2  UNL d   1      -0.356   1.648   2.369  0.00  0.00    -0.005 A 
ATOM      4  C3  UNL d   1      -1.193   0.534   2.303  0.00  0.00     0.006 A 
ATOM      5  C4  UNL d   1      -1.161  -0.304   1.187  0.00  0.00    -0.005 A 
ATOM      6  C5  UNL d   1      -0.290  -0.033   0.127  0.00  0.00    -0.074 A 
ATOM      7  C6  UNL d   1      -0.250  -0.918  -1.084  0.00  0.00     0.077 C 
ATOM      8  C7  UNL d   1       0.543   1.092   0.197  0.00  0.00    -0.001 A 
ENDROOT
TORSDOF 0
ENDMDL
