MODEL 1
REMARK minimizedAffinity 13.1073494
REMARK minimizedRMSD -1
REMARK  1 active torsions:
REMARK  status: ('A' for Active; 'I' for Inactive)
REMARK    1  A    between atoms: C1_2  and  C2_3 
ROOT
ATOM      1  C2  UNL d   1       4.085  -4.556  -2.951  0.00  0.00    -0.077 A 
ATOM      2  C3  UNL d   1       4.545  -4.632  -4.274  0.00  0.00     0.002 A 
ATOM      3  C4  UNL d   1       5.480  -3.711  -4.751  0.00  0.00     0.002 A 
ATOM      4  C5  UNL d   1       5.965  -2.711  -3.911  0.00  0.00    -0.004 A 
ATOM      5  C6  UNL d   1       5.513  -2.626  -2.595  0.00  0.00     0.002 A 
ATOM      6  C7  UNL d   1       4.578  -3.545  -2.117  0.00  0.00     0.002 A 
ENDROOT
BRANCH   1   7
ATOM      7  C1  UNL d   1       3.114  -5.579  -2.421  0.00  0.00     0.055 C 
ATOM      8  C   UNL d   1       1.808  -5.558  -3.201  0.00  0.00     0.019 C 
ENDBRANCH   1   7
TORSDOF 1
ENDMDL
