MODEL 1
REMARK minimizedAffinity 4.24384117
REMARK minimizedRMSD -1
REMARK  1 active torsions:
REMARK  status: ('A' for Active; 'I' for Inactive)
REMARK    1  A    between atoms: C1_2  and  C2_3 
ROOT
ATOM      1  C2  UNL d   1       3.863  -1.923  -0.495  0.00  0.00    -0.077 A 
ATOM      2  C3  UNL d   1       3.666  -3.039   0.329  0.00  0.00     0.002 A 
ATOM      3  C4  UNL d   1       4.550  -4.119   0.280  0.00  0.00     0.002 A 
ATOM      4  C5  UNL d   1       5.639  -4.091  -0.589  0.00  0.00    -0.004 A 
ATOM      5  C6  UNL d   1       5.842  -2.986  -1.415  0.00  0.00     0.002 A 
ATOM      6  C7  UNL d   1       4.959  -1.906  -1.367  0.00  0.00     0.002 A 
ENDROOT
BRANCH   1   7
ATOM      7  C1  UNL d   1       2.939  -0.736  -0.408  0.00  0.00     0.055 C 
ATOM      8  C   UNL d   1       1.623  -1.006  -1.122  0.00  0.00     0.019 C 
ENDBRANCH   1   7
TORSDOF 1
ENDMDL
