MODEL 1
REMARK minimizedAffinity 7.65374374
REMARK minimizedRMSD -1
REMARK  1 active torsions:
REMARK  status: ('A' for Active; 'I' for Inactive)
REMARK    1  A    between atoms: C1_2  and  C2_3 
ROOT
ATOM      1  C2  UNL d   1       1.396   3.548   2.316  0.00  0.00    -0.077 A 
ATOM      2  C3  UNL d   1       2.232   4.470   1.671  0.00  0.00     0.002 A 
ATOM      3  C4  UNL d   1       1.841   5.055   0.465  0.00  0.00     0.002 A 
ATOM      4  C5  UNL d   1       0.613   4.727  -0.105  0.00  0.00    -0.004 A 
ATOM      5  C6  UNL d   1      -0.225   3.809   0.528  0.00  0.00     0.002 A 
ATOM      6  C7  UNL d   1       0.165   3.223   1.733  0.00  0.00     0.002 A 
ENDROOT
BRANCH   1   7
ATOM      7  C1  UNL d   1       1.794   2.954   3.641  0.00  0.00     0.055 C 
ATOM      8  C   UNL d   1       2.924   3.744   4.285  0.00  0.00     0.019 C 
ENDBRANCH   1   7
TORSDOF 1
ENDMDL
