MODEL 1
REMARK minimizedAffinity 4.71162319
REMARK minimizedRMSD -1
REMARK  1 active torsions:
REMARK  status: ('A' for Active; 'I' for Inactive)
REMARK    1  A    between atoms: C1_2  and  C2_3 
ROOT
ATOM      1  C2  UNL d   1      -0.932   5.411  -1.146  0.00  0.00    -0.077 A 
ATOM      2  C3  UNL d   1      -0.127   4.263  -1.139  0.00  0.00     0.002 A 
ATOM      3  C4  UNL d   1       0.306   3.712   0.069  0.00  0.00     0.002 A 
ATOM      4  C5  UNL d   1      -0.064   4.300   1.277  0.00  0.00    -0.004 A 
ATOM      5  C6  UNL d   1      -0.863   5.443   1.280  0.00  0.00     0.002 A 
ATOM      6  C7  UNL d   1      -1.296   5.995   0.074  0.00  0.00     0.002 A 
ENDROOT
BRANCH   1   7
ATOM      7  C1  UNL d   1      -1.441   5.978  -2.446  0.00  0.00     0.055 C 
ATOM      8  C   UNL d   1      -0.351   5.994  -3.507  0.00  0.00     0.019 C 
ENDBRANCH   1   7
TORSDOF 1
ENDMDL
