MODEL 1
REMARK minimizedAffinity 0.440294653
REMARK minimizedRMSD -1
REMARK  1 active torsions:
REMARK  status: ('A' for Active; 'I' for Inactive)
REMARK    1  A    between atoms: C1_2  and  C2_3 
ROOT
ATOM      1  C2  UNL d   1      -0.326   3.774   1.744  0.00  0.00    -0.077 A 
ATOM      2  C3  UNL d   1      -0.726   5.113   1.847  0.00  0.00     0.002 A 
ATOM      3  C4  UNL d   1      -0.509   5.999   0.790  0.00  0.00     0.002 A 
ATOM      4  C5  UNL d   1       0.104   5.553  -0.380  0.00  0.00    -0.004 A 
ATOM      5  C6  UNL d   1       0.507   4.223  -0.491  0.00  0.00     0.002 A 
ATOM      6  C7  UNL d   1       0.293   3.337   0.566  0.00  0.00     0.002 A 
ENDROOT
BRANCH   1   7
ATOM      7  C1  UNL d   1      -0.603   2.806   2.865  0.00  0.00     0.055 C 
ATOM      8  C   UNL d   1       0.683   2.189   3.395  0.00  0.00     0.019 C 
ENDBRANCH   1   7
TORSDOF 1
ENDMDL
