MODEL 1
REMARK minimizedAffinity 5.98110294
REMARK minimizedRMSD -1
REMARK  1 active torsions:
REMARK  status: ('A' for Active; 'I' for Inactive)
REMARK    1  A    between atoms: C1_2  and  C2_3 
ROOT
ATOM      1  C2  UNL d   1       5.444  -2.099  -1.260  0.00  0.00    -0.077 A 
ATOM      2  C3  UNL d   1       5.792  -3.250  -0.540  0.00  0.00     0.002 A 
ATOM      3  C4  UNL d   1       5.242  -3.488   0.722  0.00  0.00     0.002 A 
ATOM      4  C5  UNL d   1       4.338  -2.581   1.271  0.00  0.00    -0.004 A 
ATOM      5  C6  UNL d   1       3.986  -1.433   0.563  0.00  0.00     0.002 A 
ATOM      6  C7  UNL d   1       4.536  -1.193  -0.697  0.00  0.00     0.002 A 
ENDROOT
BRANCH   1   7
ATOM      7  C1  UNL d   1       5.998  -1.866  -2.641  0.00  0.00     0.055 C 
ATOM      8  C   UNL d   1       5.422  -2.857  -3.643  0.00  0.00     0.019 C 
ENDBRANCH   1   7
TORSDOF 1
ENDMDL
