MODEL 1
REMARK minimizedAffinity 11.3852854
REMARK minimizedRMSD -1
REMARK  1 active torsions:
REMARK  status: ('A' for Active; 'I' for Inactive)
REMARK    1  A    between atoms: C1_2  and  C2_3 
ROOT
ATOM      1  C2  UNL d   1       5.079   5.471   3.048  0.00  0.00    -0.073 A 
ATOM      2  C3  UNL d   1       5.974   6.000   2.111  0.00  0.00    -0.002 A 
ATOM      3  C4  UNL d   1       5.995   5.512   0.804  0.00  0.00     0.004 A 
ATOM      4  C5  UNL d   1       5.119   4.498   0.418  0.00  0.00    -0.004 A 
ATOM      5  C6  UNL d   1       4.209   3.965   1.336  0.00  0.00    -0.075 A 
ATOM      6  C7  UNL d   1       3.261   2.872   0.938  0.00  0.00     0.076 C 
ATOM      7  C8  UNL d   1       4.195   4.457   2.648  0.00  0.00     0.001 A 
ENDROOT
BRANCH   1   8
ATOM      8  C1  UNL d   1       5.048   5.998   4.459  0.00  0.00     0.053 C 
ATOM      9  C   UNL d   1       5.961   5.208   5.383  0.00  0.00     0.018 C 
ENDBRANCH   1   8
TORSDOF 1
ENDMDL
