MODEL 1
REMARK minimizedAffinity -1.17442906
REMARK minimizedRMSD -1
REMARK  1 active torsions:
REMARK  status: ('A' for Active; 'I' for Inactive)
REMARK    1  A    between atoms: C1_2  and  C2_3 
ROOT
ATOM      1  C2  UNL d   1       5.203   5.732   3.255  0.00  0.00    -0.073 A 
ATOM      2  C3  UNL d   1       3.831   5.999   3.193  0.00  0.00    -0.002 A 
ATOM      3  C4  UNL d   1       3.166   5.993   1.966  0.00  0.00     0.004 A 
ATOM      4  C5  UNL d   1       3.864   5.714   0.791  0.00  0.00    -0.004 A 
ATOM      5  C6  UNL d   1       5.233   5.433   0.834  0.00  0.00    -0.075 A 
ATOM      6  C7  UNL d   1       5.999   5.132  -0.421  0.00  0.00     0.076 C 
ATOM      7  C8  UNL d   1       5.894   5.443   2.070  0.00  0.00     0.001 A 
ENDROOT
BRANCH   1   8
ATOM      8  C1  UNL d   1       5.923   5.731   4.579  0.00  0.00     0.053 C 
ATOM      9  C   UNL d   1       5.266   4.801   5.585  0.00  0.00     0.018 C 
ENDBRANCH   1   8
TORSDOF 1
ENDMDL
