MODEL 1
REMARK minimizedAffinity 5.19754648
REMARK minimizedRMSD -1
REMARK  1 active torsions:
REMARK  status: ('A' for Active; 'I' for Inactive)
REMARK    1  A    between atoms: C1_2  and  C2_3 
ROOT
ATOM      1  C2  UNL d   1       4.762  -0.102  -3.077  0.00  0.00    -0.073 A 
ATOM      2  C3  UNL d   1       4.845  -0.971  -1.984  0.00  0.00    -0.002 A 
ATOM      3  C4  UNL d   1       3.706  -1.275  -1.237  0.00  0.00     0.004 A 
ATOM      4  C5  UNL d   1       2.473  -0.720  -1.579  0.00  0.00    -0.004 A 
ATOM      5  C6  UNL d   1       2.367   0.141  -2.676  0.00  0.00    -0.075 A 
ATOM      6  C7  UNL d   1       1.049   0.748  -3.057  0.00  0.00     0.076 C 
ATOM      7  C8  UNL d   1       3.516   0.444  -3.420  0.00  0.00     0.001 A 
ENDROOT
BRANCH   1   8
ATOM      8  C1  UNL d   1       5.988   0.224  -3.891  0.00  0.00     0.053 C 
ATOM      9  C   UNL d   1       5.780  -0.052  -5.371  0.00  0.00     0.018 C 
ENDBRANCH   1   8
TORSDOF 1
ENDMDL
