MODEL 1
REMARK minimizedAffinity 8.87799835
REMARK minimizedRMSD -1
REMARK  1 active torsions:
REMARK  status: ('A' for Active; 'I' for Inactive)
REMARK    1  A    between atoms: C1_2  and  C2_3 
ROOT
ATOM      1  C2  UNL d   1      -0.783  -3.085  -1.371  0.00  0.00    -0.073 A 
ATOM      2  C3  UNL d   1       0.122  -2.527  -2.281  0.00  0.00    -0.002 A 
ATOM      3  C4  UNL d   1       1.497  -2.676  -2.090  0.00  0.00     0.004 A 
ATOM      4  C5  UNL d   1       1.979  -3.389  -0.993  0.00  0.00    -0.004 A 
ATOM      5  C6  UNL d   1       1.091  -3.965  -0.079  0.00  0.00    -0.075 A 
ATOM      6  C7  UNL d   1       1.594  -4.733   1.107  0.00  0.00     0.076 C 
ATOM      7  C8  UNL d   1      -0.288  -3.808  -0.277  0.00  0.00     0.001 A 
ENDROOT
BRANCH   1   8
ATOM      8  C1  UNL d   1      -2.267  -2.932  -1.577  0.00  0.00     0.053 C 
ATOM      9  C   UNL d   1      -2.866  -1.884  -0.652  0.00  0.00     0.018 C 
ENDBRANCH   1   8
TORSDOF 1
ENDMDL
