MODEL 1
REMARK minimizedAffinity 5.20851517
REMARK minimizedRMSD -1
REMARK  1 active torsions:
REMARK  status: ('A' for Active; 'I' for Inactive)
REMARK    1  A    between atoms: C1_2  and  C2_3 
ROOT
ATOM      1  C2  UNL d   1      -2.927  -0.750   0.872  0.00  0.00    -0.073 A 
ATOM      2  C3  UNL d   1      -2.028   0.265   0.527  0.00  0.00    -0.002 A 
ATOM      3  C4  UNL d   1      -1.544   1.139   1.501  0.00  0.00     0.004 A 
ATOM      4  C5  UNL d   1      -1.947   1.003   2.829  0.00  0.00    -0.004 A 
ATOM      5  C6  UNL d   1      -2.836  -0.013   3.196  0.00  0.00    -0.075 A 
ATOM      6  C7  UNL d   1      -3.281  -0.171   4.620  0.00  0.00     0.076 C 
ATOM      7  C8  UNL d   1      -3.320  -0.885   2.212  0.00  0.00     0.001 A 
ENDROOT
BRANCH   1   8
ATOM      8  C1  UNL d   1      -3.448  -1.700  -0.175  0.00  0.00     0.053 C 
ATOM      9  C   UNL d   1      -4.786  -2.306   0.220  0.00  0.00     0.018 C 
ENDBRANCH   1   8
TORSDOF 1
ENDMDL
