MODEL 1
REMARK minimizedAffinity -1.25909209
REMARK minimizedRMSD -1
REMARK  1 active torsions:
REMARK  status: ('A' for Active; 'I' for Inactive)
REMARK    1  A    between atoms: C1_2  and  C2_3 
ROOT
ATOM      1  C2  UNL d   1       4.646  -3.525   4.342  0.00  0.00    -0.073 A 
ATOM      2  C3  UNL d   1       5.419  -3.544   5.509  0.00  0.00    -0.002 A 
ATOM      3  C4  UNL d   1       5.983  -2.366   6.000  0.00  0.00     0.004 A 
ATOM      4  C5  UNL d   1       5.774  -1.157   5.335  0.00  0.00    -0.004 A 
ATOM      5  C6  UNL d   1       4.995  -1.116   4.174  0.00  0.00    -0.075 A 
ATOM      6  C7  UNL d   1       4.763   0.175   3.446  0.00  0.00     0.076 C 
ATOM      7  C8  UNL d   1       4.434  -2.304   3.686  0.00  0.00     0.001 A 
ENDROOT
BRANCH   1   8
ATOM      8  C1  UNL d   1       4.029  -4.794   3.812  0.00  0.00     0.053 C 
ATOM      9  C   UNL d   1       4.307  -5.984   4.716  0.00  0.00     0.018 C 
ENDBRANCH   1   8
TORSDOF 1
ENDMDL
