MODEL 1
REMARK minimizedAffinity 7.46059084
REMARK minimizedRMSD -1
REMARK  1 active torsions:
REMARK  status: ('A' for Active; 'I' for Inactive)
REMARK    1  A    between atoms: C1_2  and  C2_3 
ROOT
ATOM      1  C2  UNL d   1       1.018   1.002  -3.512  0.00  0.00    -0.073 A 
ATOM      2  C3  UNL d   1       2.290   0.900  -2.937  0.00  0.00    -0.002 A 
ATOM      3  C4  UNL d   1       2.476   0.171  -1.762  0.00  0.00     0.004 A 
ATOM      4  C5  UNL d   1       1.395  -0.469  -1.154  0.00  0.00    -0.004 A 
ATOM      5  C6  UNL d   1       0.119  -0.390  -1.721  0.00  0.00    -0.075 A 
ATOM      6  C7  UNL d   1      -1.054  -1.071  -1.079  0.00  0.00     0.076 C 
ATOM      7  C8  UNL d   1      -0.060   0.347  -2.900  0.00  0.00     0.001 A 
ENDROOT
BRANCH   1   8
ATOM      8  C1  UNL d   1       0.814   1.783  -4.785  0.00  0.00     0.053 C 
ATOM      9  C   UNL d   1       0.443   0.882  -5.953  0.00  0.00     0.018 C 
ENDBRANCH   1   8
TORSDOF 1
ENDMDL
