MODEL 1
REMARK minimizedAffinity 8.22561455
REMARK minimizedRMSD -1
REMARK  1 active torsions:
REMARK  status: ('A' for Active; 'I' for Inactive)
REMARK    1  A    between atoms: C1_2  and  C2_3 
ROOT
ATOM      1  C2  UNL d   1       1.555  -1.692  -1.486  0.00  0.00    -0.073 A 
ATOM      2  C3  UNL d   1       2.133  -0.606  -2.155  0.00  0.00    -0.002 A 
ATOM      3  C4  UNL d   1       1.376   0.532  -2.437  0.00  0.00     0.004 A 
ATOM      4  C5  UNL d   1       0.038   0.599  -2.048  0.00  0.00    -0.004 A 
ATOM      5  C6  UNL d   1      -0.554  -0.471  -1.369  0.00  0.00    -0.075 A 
ATOM      6  C7  UNL d   1      -1.993  -0.415  -0.946  0.00  0.00     0.076 C 
ATOM      7  C8  UNL d   1       0.212  -1.611  -1.091  0.00  0.00     0.001 A 
ENDROOT
BRANCH   1   8
ATOM      8  C1  UNL d   1       2.370  -2.920  -1.174  0.00  0.00     0.053 C 
ATOM      9  C   UNL d   1       2.088  -3.451   0.223  0.00  0.00     0.018 C 
ENDBRANCH   1   8
TORSDOF 1
ENDMDL
