MODEL 1
REMARK minimizedAffinity 10.6303434
REMARK minimizedRMSD -1
REMARK  1 active torsions:
REMARK  status: ('A' for Active; 'I' for Inactive)
REMARK    1  A    between atoms: C1_2  and  C2_3 
ROOT
ATOM      1  C2  UNL d   1       1.342  -3.012  -0.509  0.00  0.00    -0.073 A 
ATOM      2  C3  UNL d   1      -0.052  -3.011  -0.624  0.00  0.00    -0.002 A 
ATOM      3  C4  UNL d   1      -0.710  -1.931  -1.215  0.00  0.00     0.004 A 
ATOM      4  C5  UNL d   1       0.019  -0.847  -1.703  0.00  0.00    -0.004 A 
ATOM      5  C6  UNL d   1       1.414  -0.835  -1.608  0.00  0.00    -0.075 A 
ATOM      6  C7  UNL d   1       2.213   0.325  -2.126  0.00  0.00     0.076 C 
ATOM      7  C8  UNL d   1       2.067  -1.921  -1.011  0.00  0.00     0.001 A 
ENDROOT
BRANCH   1   8
ATOM      8  C1  UNL d   1       2.057  -4.178   0.123  0.00  0.00     0.053 C 
ATOM      9  C   UNL d   1       1.224  -4.836   1.211  0.00  0.00     0.018 C 
ENDBRANCH   1   8
TORSDOF 1
ENDMDL
