MODEL 1
REMARK minimizedAffinity 6.73818302
REMARK minimizedRMSD -1
REMARK  1 active torsions:
REMARK  status: ('A' for Active; 'I' for Inactive)
REMARK    1  A    between atoms: C1_2  and  C2_3 
ROOT
ATOM      1  C2  UNL d   1      -2.552   1.740   3.180  0.00  0.00    -0.073 A 
ATOM      2  C3  UNL d   1      -3.422   2.446   2.341  0.00  0.00    -0.002 A 
ATOM      3  C4  UNL d   1      -3.627   3.814   2.528  0.00  0.00     0.004 A 
ATOM      4  C5  UNL d   1      -2.960   4.490   3.549  0.00  0.00    -0.004 A 
ATOM      5  C6  UNL d   1      -2.077   3.805   4.390  0.00  0.00    -0.075 A 
ATOM      6  C7  UNL d   1      -1.353   4.518   5.494  0.00  0.00     0.076 C 
ATOM      7  C8  UNL d   1      -1.879   2.431   4.198  0.00  0.00     0.001 A 
ENDROOT
BRANCH   1   8
ATOM      8  C1  UNL d   1      -2.323   0.265   2.978  0.00  0.00     0.053 C 
ATOM      9  C   UNL d   1      -2.139  -0.088   1.510  0.00  0.00     0.018 C 
ENDBRANCH   1   8
TORSDOF 1
ENDMDL
