MODEL 1
REMARK minimizedAffinity 8.90935421
REMARK minimizedRMSD -1
REMARK  1 active torsions:
REMARK  status: ('A' for Active; 'I' for Inactive)
REMARK    1  A    between atoms: C1_2  and  C2_3 
ROOT
ATOM      1  C2  UNL d   1       1.692  -0.661  -1.517  0.00  0.00    -0.073 A 
ATOM      2  C3  UNL d   1       2.719  -1.298  -0.812  0.00  0.00    -0.002 A 
ATOM      3  C4  UNL d   1       2.755  -2.690  -0.722  0.00  0.00     0.004 A 
ATOM      4  C5  UNL d   1       1.769  -3.459  -1.342  0.00  0.00    -0.004 A 
ATOM      5  C6  UNL d   1       0.741  -2.841  -2.061  0.00  0.00    -0.075 A 
ATOM      6  C7  UNL d   1      -0.328  -3.654  -2.731  0.00  0.00     0.076 C 
ATOM      7  C8  UNL d   1       0.711  -1.442  -2.144  0.00  0.00     0.001 A 
ENDROOT
BRANCH   1   8
ATOM      8  C1  UNL d   1       1.653   0.842  -1.622  0.00  0.00     0.053 C 
ATOM      9  C   UNL d   1       0.301   1.345  -2.105  0.00  0.00     0.018 C 
ENDBRANCH   1   8
TORSDOF 1
ENDMDL
