MODEL 1
REMARK minimizedAffinity 10.6320543
REMARK minimizedRMSD -1
REMARK  1 active torsions:
REMARK  status: ('A' for Active; 'I' for Inactive)
REMARK    1  A    between atoms: C1_2  and  C2_3 
ROOT
ATOM      1  C2  UNL d   1       0.617  -4.444   0.694  0.00  0.00    -0.073 A 
ATOM      2  C3  UNL d   1       1.688  -3.999  -0.088  0.00  0.00    -0.002 A 
ATOM      3  C4  UNL d   1       1.469  -3.114  -1.145  0.00  0.00     0.004 A 
ATOM      4  C5  UNL d   1       0.181  -2.660  -1.425  0.00  0.00    -0.004 A 
ATOM      5  C6  UNL d   1      -0.901  -3.085  -0.647  0.00  0.00    -0.075 A 
ATOM      6  C7  UNL d   1      -2.294  -2.608  -0.938  0.00  0.00     0.076 C 
ATOM      7  C8  UNL d   1      -0.674  -3.976   0.410  0.00  0.00     0.001 A 
ENDROOT
BRANCH   1   8
ATOM      8  C1  UNL d   1       0.849  -5.395   1.840  0.00  0.00     0.053 C 
ATOM      9  C   UNL d   1       2.305  -5.820   1.942  0.00  0.00     0.018 C 
ENDBRANCH   1   8
TORSDOF 1
ENDMDL
