MODEL 1
REMARK minimizedAffinity 10.3902006
REMARK minimizedRMSD -1
REMARK  1 active torsions:
REMARK  status: ('A' for Active; 'I' for Inactive)
REMARK    1  A    between atoms: C1_2  and  C2_3 
ROOT
ATOM      1  C2  UNL d   1       0.714  -0.368  -1.974  0.00  0.00    -0.073 A 
ATOM      2  C3  UNL d   1       0.163  -1.566  -2.444  0.00  0.00    -0.002 A 
ATOM      3  C4  UNL d   1       0.940  -2.723  -2.505  0.00  0.00     0.004 A 
ATOM      4  C5  UNL d   1       2.271  -2.698  -2.090  0.00  0.00    -0.004 A 
ATOM      5  C6  UNL d   1       2.837  -1.513  -1.606  0.00  0.00    -0.075 A 
ATOM      6  C7  UNL d   1       4.268  -1.468  -1.158  0.00  0.00     0.076 C 
ATOM      7  C8  UNL d   1       2.051  -0.354  -1.551  0.00  0.00     0.001 A 
ENDROOT
BRANCH   1   8
ATOM      8  C1  UNL d   1      -0.123   0.883  -1.901  0.00  0.00     0.053 C 
ATOM      9  C   UNL d   1       0.259   1.887  -2.976  0.00  0.00     0.018 C 
ENDBRANCH   1   8
TORSDOF 1
ENDMDL
