MODEL 1
REMARK minimizedAffinity 10.2196779
REMARK minimizedRMSD -1
REMARK  1 active torsions:
REMARK  status: ('A' for Active; 'I' for Inactive)
REMARK    1  A    between atoms: C1_2  and  C2_3 
ROOT
ATOM      1  C2  UNL d   1       4.742   5.601   2.224  0.00  0.00    -0.073 A 
ATOM      2  C3  UNL d   1       5.904   5.067   2.793  0.00  0.00    -0.002 A 
ATOM      3  C4  UNL d   1       5.976   4.842   4.168  0.00  0.00     0.004 A 
ATOM      4  C5  UNL d   1       4.887   5.140   4.986  0.00  0.00    -0.004 A 
ATOM      5  C6  UNL d   1       3.713   5.664   4.435  0.00  0.00    -0.075 A 
ATOM      6  C7  UNL d   1       2.533   5.993   5.302  0.00  0.00     0.076 C 
ATOM      7  C8  UNL d   1       3.649   5.890   3.054  0.00  0.00     0.001 A 
ENDROOT
BRANCH   1   8
ATOM      8  C1  UNL d   1       4.657   5.841   0.739  0.00  0.00     0.053 C 
ATOM      9  C   UNL d   1       5.998   5.640   0.051  0.00  0.00     0.018 C 
ENDBRANCH   1   8
TORSDOF 1
ENDMDL
