MODEL 1
REMARK minimizedAffinity -0.208757982
REMARK minimizedRMSD -1
REMARK  1 active torsions:
REMARK  status: ('A' for Active; 'I' for Inactive)
REMARK    1  A    between atoms: C1_2  and  C2_3 
ROOT
ATOM      1  C2  UNL d   1       3.022   0.346  -1.777  0.00  0.00    -0.073 A 
ATOM      2  C3  UNL d   1       1.769   0.705  -2.287  0.00  0.00    -0.002 A 
ATOM      3  C4  UNL d   1       0.719  -0.214  -2.289  0.00  0.00     0.004 A 
ATOM      4  C5  UNL d   1       0.909  -1.498  -1.777  0.00  0.00    -0.004 A 
ATOM      5  C6  UNL d   1       2.150  -1.871  -1.252  0.00  0.00    -0.075 A 
ATOM      6  C7  UNL d   1       2.371  -3.248  -0.699  0.00  0.00     0.076 C 
ATOM      7  C8  UNL d   1       3.200  -0.943  -1.255  0.00  0.00     0.001 A 
ENDROOT
BRANCH   1   8
ATOM      8  C1  UNL d   1       4.156   1.338  -1.766  0.00  0.00     0.053 C 
ATOM      9  C   UNL d   1       3.673   2.760  -2.004  0.00  0.00     0.018 C 
ENDBRANCH   1   8
TORSDOF 1
ENDMDL
