MODEL 1
REMARK minimizedAffinity 1.69325888
REMARK minimizedRMSD -1
REMARK  0 active torsions:
REMARK  status: ('A' for Active; 'I' for Inactive)
ROOT
ATOM      1  C   UNL d   1       1.682  -1.314   6.000  0.00  0.00     0.020 A 
ATOM      2  C1  UNL d   1       1.987  -0.248   5.155  0.00  0.00     0.020 A 
ATOM      3  C2  UNL d   1       1.134   0.069   4.095  0.00  0.00     0.034 A 
ATOM      4  C3  UNL d   1      -0.028  -0.680   3.879  0.00  0.00     0.017 A 
ATOM      5  C4  UNL d   1      -0.333  -1.750   4.728  0.00  0.00     0.017 A 
ATOM      6  C5  UNL d   1       0.525  -2.063   5.787  0.00  0.00     0.034 A 
ATOM      7 Cl   UNL d   1      -1.748  -2.721   4.524  0.00  0.00    -0.070 Cl
ATOM      8 Cl1  UNL d   1      -1.037  -0.232   2.550  0.00  0.00    -0.070 Cl
ENDROOT
TORSDOF 0
ENDMDL
