MODEL 1
REMARK minimizedAffinity 4.15631199
REMARK minimizedRMSD -1
REMARK  0 active torsions:
REMARK  status: ('A' for Active; 'I' for Inactive)
ROOT
ATOM      1  C   UNL d   1       0.335  -1.121  -0.158  0.00  0.00     0.020 A 
ATOM      2  C1  UNL d   1      -0.909  -0.505  -0.282  0.00  0.00     0.020 A 
ATOM      3  C2  UNL d   1      -1.401   0.290   0.756  0.00  0.00     0.034 A 
ATOM      4  C3  UNL d   1      -0.647   0.470   1.922  0.00  0.00     0.017 A 
ATOM      5  C4  UNL d   1       0.602  -0.150   2.045  0.00  0.00     0.017 A 
ATOM      6  C5  UNL d   1       1.089  -0.944   1.002  0.00  0.00     0.034 A 
ATOM      7 Cl   UNL d   1       1.589   0.026   3.453  0.00  0.00    -0.070 Cl
ATOM      8 Cl1  UNL d   1      -1.317   1.466   3.166  0.00  0.00    -0.070 Cl
ENDROOT
TORSDOF 0
ENDMDL
