MODEL 1
REMARK minimizedAffinity 1.50465453
REMARK minimizedRMSD -1
REMARK  0 active torsions:
REMARK  status: ('A' for Active; 'I' for Inactive)
ROOT
ATOM      1  C   UNL d   1      -1.659  -0.175   2.441  0.00  0.00     0.020 A 
ATOM      2  C1  UNL d   1      -0.489  -0.928   2.357  0.00  0.00     0.020 A 
ATOM      3  C2  UNL d   1       0.754  -0.292   2.385  0.00  0.00     0.034 A 
ATOM      4  C3  UNL d   1       0.830   1.101   2.497  0.00  0.00     0.017 A 
ATOM      5  C4  UNL d   1      -0.345   1.856   2.581  0.00  0.00     0.017 A 
ATOM      6  C5  UNL d   1      -1.587   1.214   2.553  0.00  0.00     0.034 A 
ATOM      7 Cl   UNL d   1      -0.332   3.579   2.721  0.00  0.00    -0.070 Cl
ATOM      8 Cl1  UNL d   1       2.401   1.821   2.525  0.00  0.00    -0.070 Cl
ENDROOT
TORSDOF 0
ENDMDL
