MODEL 1
REMARK minimizedAffinity 2.16690326
REMARK minimizedRMSD -1
REMARK  0 active torsions:
REMARK  status: ('A' for Active; 'I' for Inactive)
ROOT
ATOM      1  C   UNL d   1      -0.342  -0.743  -0.193  0.00  0.00     0.020 A 
ATOM      2  C1  UNL d   1      -1.599  -0.153  -0.070  0.00  0.00     0.020 A 
ATOM      3  C2  UNL d   1      -1.894   0.636   1.044  0.00  0.00     0.034 A 
ATOM      4  C3  UNL d   1      -0.930   0.837   2.039  0.00  0.00     0.017 A 
ATOM      5  C4  UNL d   1       0.332   0.244   1.914  0.00  0.00     0.017 A 
ATOM      6  C5  UNL d   1       0.621  -0.545   0.797  0.00  0.00     0.034 A 
ATOM      7 Cl   UNL d   1       1.572   0.446   3.101  0.00  0.00    -0.070 Cl
ATOM      8 Cl1  UNL d   1      -1.363   1.824   3.389  0.00  0.00    -0.070 Cl
ENDROOT
TORSDOF 0
ENDMDL
