MODEL 1
REMARK minimizedAffinity 10.0231895
REMARK minimizedRMSD -1
REMARK  0 active torsions:
REMARK  status: ('A' for Active; 'I' for Inactive)
ROOT
ATOM      1  C   UNL d   1      -1.392  -1.546  -0.450  0.00  0.00     0.020 A 
ATOM      2  C1  UNL d   1      -2.417  -0.640  -0.178  0.00  0.00     0.020 A 
ATOM      3  C2  UNL d   1      -2.176   0.461   0.645  0.00  0.00     0.034 A 
ATOM      4  C3  UNL d   1      -0.907   0.660   1.201  0.00  0.00     0.017 A 
ATOM      5  C4  UNL d   1       0.121  -0.249   0.928  0.00  0.00     0.017 A 
ATOM      6  C5  UNL d   1      -0.126  -1.350   0.102  0.00  0.00     0.034 A 
ATOM      7 Cl   UNL d   1       1.713  -0.070   1.577  0.00  0.00    -0.070 Cl
ATOM      8 Cl1  UNL d   1      -0.680   2.044   2.210  0.00  0.00    -0.070 Cl
ENDROOT
TORSDOF 0
ENDMDL
