MODEL 1
REMARK minimizedAffinity 8.49489784
REMARK minimizedRMSD -1
REMARK  0 active torsions:
REMARK  status: ('A' for Active; 'I' for Inactive)
ROOT
ATOM      1  C   UNL d   1      -1.939   5.924   0.634  0.00  0.00     0.020 A 
ATOM      2  C1  UNL d   1      -1.817   5.978  -0.754  0.00  0.00     0.020 A 
ATOM      3  C2  UNL d   1      -0.551   6.000  -1.343  0.00  0.00     0.034 A 
ATOM      4  C3  UNL d   1       0.598   5.969  -0.544  0.00  0.00     0.017 A 
ATOM      5  C4  UNL d   1       0.474   5.915   0.849  0.00  0.00     0.017 A 
ATOM      6  C5  UNL d   1      -0.796   5.893   1.434  0.00  0.00     0.034 A 
ATOM      7 Cl   UNL d   1       1.845   5.874   1.901  0.00  0.00    -0.070 Cl
ATOM      8 Cl1  UNL d   1       2.131   5.998  -1.340  0.00  0.00    -0.070 Cl
ENDROOT
TORSDOF 0
ENDMDL
