MODEL 1
REMARK minimizedAffinity 7.99487305
REMARK minimizedRMSD -1
REMARK  0 active torsions:
REMARK  status: ('A' for Active; 'I' for Inactive)
ROOT
ATOM      1  C   UNL d   1       3.385   0.905  -0.392  0.00  0.00     0.020 A 
ATOM      2  C1  UNL d   1       3.757   2.229  -0.159  0.00  0.00     0.020 A 
ATOM      3  C2  UNL d   1       2.855   3.112   0.439  0.00  0.00     0.034 A 
ATOM      4  C3  UNL d   1       1.578   2.673   0.805  0.00  0.00     0.017 A 
ATOM      5  C4  UNL d   1       1.206   1.344   0.571  0.00  0.00     0.017 A 
ATOM      6  C5  UNL d   1       2.112   0.464  -0.028  0.00  0.00     0.034 A 
ATOM      7 Cl   UNL d   1      -0.353   0.729   0.996  0.00  0.00    -0.070 Cl
ATOM      8 Cl1  UNL d   1       0.514   3.820   1.540  0.00  0.00    -0.070 Cl
ENDROOT
TORSDOF 0
ENDMDL
