MODEL 1
REMARK minimizedAffinity 1.66092658
REMARK minimizedRMSD -1
REMARK  0 active torsions:
REMARK  status: ('A' for Active; 'I' for Inactive)
ROOT
ATOM      1  C   UNL d   1       1.743   0.406   1.018  0.00  0.00     0.020 A 
ATOM      2  C1  UNL d   1       0.836   1.283   1.611  0.00  0.00     0.020 A 
ATOM      3  C2  UNL d   1      -0.536   1.102   1.422  0.00  0.00     0.034 A 
ATOM      4  C3  UNL d   1      -1.005   0.042   0.637  0.00  0.00     0.017 A 
ATOM      5  C4  UNL d   1      -0.093  -0.837   0.042  0.00  0.00     0.017 A 
ATOM      6  C5  UNL d   1       1.279  -0.652   0.235  0.00  0.00     0.034 A 
ATOM      7 Cl   UNL d   1      -0.596  -2.168  -0.940  0.00  0.00    -0.070 Cl
ATOM      8 Cl1  UNL d   1      -2.714  -0.121   0.446  0.00  0.00    -0.070 Cl
ENDROOT
TORSDOF 0
ENDMDL
