MODEL 1
REMARK minimizedAffinity 5.59715128
REMARK minimizedRMSD -1
REMARK  0 active torsions:
REMARK  status: ('A' for Active; 'I' for Inactive)
ROOT
ATOM      1  C   UNL d   1       2.708   5.990  -1.946  0.00  0.00     0.020 A 
ATOM      2  C1  UNL d   1       3.989   5.995  -1.395  0.00  0.00     0.020 A 
ATOM      3  C2  UNL d   1       4.153   5.998  -0.008  0.00  0.00     0.034 A 
ATOM      4  C3  UNL d   1       3.034   5.996   0.832  0.00  0.00     0.017 A 
ATOM      5  C4  UNL d   1       1.749   5.991   0.279  0.00  0.00     0.017 A 
ATOM      6  C5  UNL d   1       1.590   5.988  -1.111  0.00  0.00     0.034 A 
ATOM      7 Cl   UNL d   1       0.320   5.989   1.252  0.00  0.00    -0.070 Cl
ATOM      8 Cl1  UNL d   1       3.311   5.999   2.538  0.00  0.00    -0.070 Cl
ENDROOT
TORSDOF 0
ENDMDL
