MODEL 1
REMARK minimizedAffinity 6.48060942
REMARK minimizedRMSD -1
REMARK  0 active torsions:
REMARK  status: ('A' for Active; 'I' for Inactive)
ROOT
ATOM      1  C   UNL d   1       0.378  -1.122  -6.000  0.00  0.00     0.020 A 
ATOM      2  C1  UNL d   1      -0.957  -1.316  -5.649  0.00  0.00     0.020 A 
ATOM      3  C2  UNL d   1      -1.457  -0.761  -4.470  0.00  0.00     0.034 A 
ATOM      4  C3  UNL d   1      -0.621  -0.008  -3.637  0.00  0.00     0.017 A 
ATOM      5  C4  UNL d   1       0.719   0.187  -3.990  0.00  0.00     0.017 A 
ATOM      6  C5  UNL d   1       1.214  -0.372  -5.172  0.00  0.00     0.034 A 
ATOM      7 Cl   UNL d   1       1.811   1.104  -3.013  0.00  0.00    -0.070 Cl
ATOM      8 Cl1  UNL d   1      -1.307   0.650  -2.194  0.00  0.00    -0.070 Cl
ENDROOT
TORSDOF 0
ENDMDL
