MODEL 1
REMARK minimizedAffinity 7.04514217
REMARK minimizedRMSD -1
REMARK  0 active torsions:
REMARK  status: ('A' for Active; 'I' for Inactive)
ROOT
ATOM      1  C   UNL d   1       2.144  -0.382   0.625  0.00  0.00     0.020 A 
ATOM      2  C1  UNL d   1       1.629   0.362   1.687  0.00  0.00     0.020 A 
ATOM      3  C2  UNL d   1       0.251   0.553   1.801  0.00  0.00     0.034 A 
ATOM      4  C3  UNL d   1      -0.618   0.001   0.853  0.00  0.00     0.017 A 
ATOM      5  C4  UNL d   1      -0.100  -0.745  -0.212  0.00  0.00     0.017 A 
ATOM      6  C5  UNL d   1       1.281  -0.934  -0.322  0.00  0.00     0.034 A 
ATOM      7 Cl   UNL d   1      -1.109  -1.458  -1.422  0.00  0.00    -0.070 Cl
ATOM      8 Cl1  UNL d   1      -2.311   0.277   1.056  0.00  0.00    -0.070 Cl
ENDROOT
TORSDOF 0
ENDMDL
