MODEL 1
REMARK minimizedAffinity 10.1237154
REMARK minimizedRMSD -1
REMARK  0 active torsions:
REMARK  status: ('A' for Active; 'I' for Inactive)
ROOT
ATOM      1  C   UNL d   1       4.108   1.956   0.323  0.00  0.00     0.020 A 
ATOM      2  C1  UNL d   1       3.472   1.761  -0.902  0.00  0.00     0.020 A 
ATOM      3  C2  UNL d   1       2.375   0.901  -0.990  0.00  0.00     0.034 A 
ATOM      4  C3  UNL d   1       1.911   0.233   0.149  0.00  0.00     0.017 A 
ATOM      5  C4  UNL d   1       2.551   0.429   1.378  0.00  0.00     0.017 A 
ATOM      6  C5  UNL d   1       3.648   1.291   1.461  0.00  0.00     0.034 A 
ATOM      7 Cl   UNL d   1       2.036  -0.361   2.827  0.00  0.00    -0.070 Cl
ATOM      8 Cl1  UNL d   1       0.550  -0.816  -0.034  0.00  0.00    -0.070 Cl
ENDROOT
TORSDOF 0
ENDMDL
