MODEL 1
REMARK minimizedAffinity 2.81084657
REMARK minimizedRMSD -1
REMARK  0 active torsions:
REMARK  status: ('A' for Active; 'I' for Inactive)
ROOT
ATOM      1  C   UNL d   1       3.133  -1.867  -1.252  0.00  0.00     0.020 A 
ATOM      2  C1  UNL d   1       3.590  -0.568  -1.034  0.00  0.00     0.020 A 
ATOM      3  C2  UNL d   1       2.735   0.391  -0.488  0.00  0.00     0.034 A 
ATOM      4  C3  UNL d   1       1.418   0.052  -0.157  0.00  0.00     0.017 A 
ATOM      5  C4  UNL d   1       0.960  -1.252  -0.375  0.00  0.00     0.017 A 
ATOM      6  C5  UNL d   1       1.821  -2.208  -0.923  0.00  0.00     0.034 A 
ATOM      7 Cl   UNL d   1      -0.652  -1.745   0.008  0.00  0.00    -0.070 Cl
ATOM      8 Cl1  UNL d   1       0.415   1.288   0.516  0.00  0.00    -0.070 Cl
ENDROOT
TORSDOF 0
ENDMDL
