MODEL 1
REMARK minimizedAffinity 6.98274755
REMARK minimizedRMSD -1
REMARK  0 active torsions:
REMARK  status: ('A' for Active; 'I' for Inactive)
ROOT
ATOM      1  C   UNL d   1       3.581   0.023  -0.563  0.00  0.00     0.020 A 
ATOM      2  C1  UNL d   1       3.308  -1.322  -0.811  0.00  0.00     0.020 A 
ATOM      3  C2  UNL d   1       2.037  -1.836  -0.549  0.00  0.00     0.034 A 
ATOM      4  C3  UNL d   1       1.033  -1.006  -0.038  0.00  0.00     0.017 A 
ATOM      5  C4  UNL d   1       1.307   0.344   0.210  0.00  0.00     0.017 A 
ATOM      6  C5  UNL d   1       2.583   0.854  -0.054  0.00  0.00     0.034 A 
ATOM      7 Cl   UNL d   1       0.120   1.431   0.840  0.00  0.00    -0.070 Cl
ATOM      8 Cl1  UNL d   1      -0.517  -1.709   0.261  0.00  0.00    -0.070 Cl
ENDROOT
TORSDOF 0
ENDMDL
