MODEL 1
REMARK minimizedAffinity -0.240256369
REMARK minimizedRMSD -1
REMARK  0 active torsions:
REMARK  status: ('A' for Active; 'I' for Inactive)
ROOT
ATOM      1  C   UNL d   1       2.948   3.294   2.981  0.00  0.00     0.020 A 
ATOM      2  C1  UNL d   1       1.592   3.036   3.178  0.00  0.00     0.020 A 
ATOM      3  C2  UNL d   1       0.851   2.395   2.183  0.00  0.00     0.034 A 
ATOM      4  C3  UNL d   1       1.465   2.010   0.986  0.00  0.00     0.017 A 
ATOM      5  C4  UNL d   1       2.827   2.268   0.789  0.00  0.00     0.017 A 
ATOM      6  C5  UNL d   1       3.564   2.910   1.789  0.00  0.00     0.034 A 
ATOM      7 Cl   UNL d   1       3.654   1.822  -0.661  0.00  0.00    -0.070 Cl
ATOM      8 Cl1  UNL d   1       0.488   1.221  -0.200  0.00  0.00    -0.070 Cl
ENDROOT
TORSDOF 0
ENDMDL
