MODEL 1
REMARK minimizedAffinity 14.4906006
REMARK minimizedRMSD -1
REMARK  0 active torsions:
REMARK  status: ('A' for Active; 'I' for Inactive)
ROOT
ATOM      1  C   UNL d   1      -1.441  -5.145   4.739  0.00  0.00     0.020 A 
ATOM      2  C1  UNL d   1      -0.811  -5.999   5.644  0.00  0.00     0.020 A 
ATOM      3  C2  UNL d   1       0.521  -5.779   6.000  0.00  0.00     0.034 A 
ATOM      4  C3  UNL d   1       1.228  -4.702   5.452  0.00  0.00     0.017 A 
ATOM      5  C4  UNL d   1       0.594  -3.845   4.544  0.00  0.00     0.017 A 
ATOM      6  C5  UNL d   1      -0.740  -4.071   4.191  0.00  0.00     0.034 A 
ATOM      7 Cl   UNL d   1       1.401  -2.496   3.826  0.00  0.00    -0.070 Cl
ATOM      8 Cl1  UNL d   1       2.872  -4.489   5.937  0.00  0.00    -0.070 Cl
ENDROOT
TORSDOF 0
ENDMDL
