MODEL 1
REMARK minimizedAffinity 9.65499973
REMARK minimizedRMSD -1
REMARK  0 active torsions:
REMARK  status: ('A' for Active; 'I' for Inactive)
ROOT
ATOM      1  C   UNL d   1       0.419   1.596   1.169  0.00  0.00     0.020 A 
ATOM      2  C1  UNL d   1       0.481   1.856   2.537  0.00  0.00     0.020 A 
ATOM      3  C2  UNL d   1       1.644   2.394   3.093  0.00  0.00     0.034 A 
ATOM      4  C3  UNL d   1       2.749   2.673   2.281  0.00  0.00     0.017 A 
ATOM      5  C4  UNL d   1       2.685   2.411   0.908  0.00  0.00     0.017 A 
ATOM      6  C5  UNL d   1       1.519   1.872   0.356  0.00  0.00     0.034 A 
ATOM      7 Cl   UNL d   1       4.008   2.729  -0.159  0.00  0.00    -0.070 Cl
ATOM      8 Cl1  UNL d   1       4.154   3.338   3.036  0.00  0.00    -0.070 Cl
ENDROOT
TORSDOF 0
ENDMDL
