MODEL 1
REMARK minimizedAffinity 8.98606014
REMARK minimizedRMSD -1
REMARK  0 active torsions:
REMARK  status: ('A' for Active; 'I' for Inactive)
ROOT
ATOM      1  C   UNL d   1      -0.942   0.954  -0.874  0.00  0.00     0.020 A 
ATOM      2  C1  UNL d   1       0.232   0.927  -0.123  0.00  0.00     0.020 A 
ATOM      3  C2  UNL d   1       0.998  -0.240  -0.066  0.00  0.00     0.034 A 
ATOM      4  C3  UNL d   1       0.590  -1.384  -0.760  0.00  0.00     0.017 A 
ATOM      5  C4  UNL d   1      -0.589  -1.356  -1.514  0.00  0.00     0.017 A 
ATOM      6  C5  UNL d   1      -1.352  -0.186  -1.568  0.00  0.00     0.034 A 
ATOM      7 Cl   UNL d   1      -1.157  -2.729  -2.397  0.00  0.00    -0.070 Cl
ATOM      8 Cl1  UNL d   1       1.586  -2.792  -0.645  0.00  0.00    -0.070 Cl
ENDROOT
TORSDOF 0
ENDMDL
