MODEL 1
REMARK minimizedAffinity -0.301633835
REMARK minimizedRMSD -1
REMARK  0 active torsions:
REMARK  status: ('A' for Active; 'I' for Inactive)
ROOT
ATOM      1  C   UNL d   1      -1.724  -5.772   6.000  0.00  0.00     0.020 A 
ATOM      2  C1  UNL d   1      -2.230  -4.472   6.000  0.00  0.00     0.020 A 
ATOM      3  C2  UNL d   1      -1.370  -3.389   5.807  0.00  0.00     0.034 A 
ATOM      4  C3  UNL d   1      -0.000  -3.603   5.614  0.00  0.00     0.017 A 
ATOM      5  C4  UNL d   1       0.506  -4.908   5.614  0.00  0.00     0.017 A 
ATOM      6  C5  UNL d   1      -0.359  -5.989   5.807  0.00  0.00     0.034 A 
ATOM      7 Cl   UNL d   1       2.184  -5.251   5.382  0.00  0.00    -0.070 Cl
ATOM      8 Cl1  UNL d   1       1.005  -2.217   5.381  0.00  0.00    -0.070 Cl
ENDROOT
TORSDOF 0
ENDMDL
