MODEL 1
REMARK minimizedAffinity -1.40286815
REMARK minimizedRMSD -1
REMARK  0 active torsions:
REMARK  status: ('A' for Active; 'I' for Inactive)
ROOT
ATOM      1  C   UNL d   1       0.459   0.207   0.342  0.00  0.00     0.020 A 
ATOM      2  C1  UNL d   1       0.201  -1.127   0.027  0.00  0.00     0.020 A 
ATOM      3  C2  UNL d   1       1.139  -1.867  -0.697  0.00  0.00     0.034 A 
ATOM      4  C3  UNL d   1       2.337  -1.273  -1.109  0.00  0.00     0.017 A 
ATOM      5  C4  UNL d   1       2.595   0.065  -0.793  0.00  0.00     0.017 A 
ATOM      6  C5  UNL d   1       1.653   0.801  -0.067  0.00  0.00     0.034 A 
ATOM      7 Cl   UNL d   1       4.051   0.866  -1.266  0.00  0.00    -0.070 Cl
ATOM      8 Cl1  UNL d   1       3.451  -2.248  -2.001  0.00  0.00    -0.070 Cl
ENDROOT
TORSDOF 0
ENDMDL
