MODEL 1
REMARK minimizedAffinity 0.106638297
REMARK minimizedRMSD -1
REMARK  0 active torsions:
REMARK  status: ('A' for Active; 'I' for Inactive)
ROOT
ATOM      1  C   UNL d   1       3.603  -2.268  -2.408  0.00  0.00     0.020 A 
ATOM      2  C1  UNL d   1       4.181  -1.011  -2.231  0.00  0.00     0.020 A 
ATOM      3  C2  UNL d   1       3.593  -0.087  -1.365  0.00  0.00     0.034 A 
ATOM      4  C3  UNL d   1       2.422  -0.417  -0.673  0.00  0.00     0.017 A 
ATOM      5  C4  UNL d   1       1.842  -1.679  -0.851  0.00  0.00     0.017 A 
ATOM      6  C5  UNL d   1       2.435  -2.600  -1.719  0.00  0.00     0.034 A 
ATOM      7 Cl   UNL d   1       0.398  -2.158  -0.031  0.00  0.00    -0.070 Cl
ATOM      8 Cl1  UNL d   1       1.749   0.774   0.382  0.00  0.00    -0.070 Cl
ENDROOT
TORSDOF 0
ENDMDL
