MODEL 1
REMARK minimizedAffinity 0.451136827
REMARK minimizedRMSD -1
REMARK  0 active torsions:
REMARK  status: ('A' for Active; 'I' for Inactive)
ROOT
ATOM      1  C   UNL d   1       3.450  -2.150  -1.205  0.00  0.00     0.020 A 
ATOM      2  C1  UNL d   1       2.148  -2.417  -0.784  0.00  0.00     0.020 A 
ATOM      3  C2  UNL d   1       1.361  -1.392  -0.255  0.00  0.00     0.034 A 
ATOM      4  C3  UNL d   1       1.876  -0.095  -0.145  0.00  0.00     0.017 A 
ATOM      5  C4  UNL d   1       3.184   0.172  -0.568  0.00  0.00     0.017 A 
ATOM      6  C5  UNL d   1       3.967  -0.859  -1.097  0.00  0.00     0.034 A 
ATOM      7 Cl   UNL d   1       3.888   1.747  -0.464  0.00  0.00    -0.070 Cl
ATOM      8 Cl1  UNL d   1       0.848   1.125   0.519  0.00  0.00    -0.070 Cl
ENDROOT
TORSDOF 0
ENDMDL
