MODEL 1
REMARK minimizedAffinity -0.428910881
REMARK minimizedRMSD -1
REMARK  0 active torsions:
REMARK  status: ('A' for Active; 'I' for Inactive)
ROOT
ATOM      1  C   UNL d   1      -0.812   2.349   0.593  0.00  0.00     0.020 A 
ATOM      2  C1  UNL d   1      -0.758   2.811   1.907  0.00  0.00     0.020 A 
ATOM      3  C2  UNL d   1       0.453   2.797   2.603  0.00  0.00     0.034 A 
ATOM      4  C3  UNL d   1       1.614   2.321   1.985  0.00  0.00     0.017 A 
ATOM      5  C4  UNL d   1       1.559   1.857   0.665  0.00  0.00     0.017 A 
ATOM      6  C5  UNL d   1       0.344   1.873  -0.027  0.00  0.00     0.034 A 
ATOM      7 Cl   UNL d   1       2.951   1.255  -0.164  0.00  0.00    -0.070 Cl
ATOM      8 Cl1  UNL d   1       3.077   2.334   2.904  0.00  0.00    -0.070 Cl
ENDROOT
TORSDOF 0
ENDMDL
