MODEL 1
REMARK minimizedAffinity 19.9748592
REMARK minimizedRMSD -1
REMARK  0 active torsions:
REMARK  status: ('A' for Active; 'I' for Inactive)
ROOT
ATOM      1  C   UNL d   1       4.956  -5.239   2.595  0.00  0.00    -0.002 A 
ATOM      2  C1  UNL d   1       5.996  -4.820   1.778  0.00  0.00     0.010 A 
ATOM      3  C2  UNL d   1       5.814  -3.765   0.881  0.00  0.00     0.041 A 
ATOM      4  C3  UNL d   1       4.558  -3.131   0.820  0.00  0.00    -0.075 A 
ATOM      5  S   UNL d   1       4.104  -1.818  -0.201  0.00  0.00     0.015 SA
ATOM      6  C4  UNL d   1       2.519  -1.782   0.424  0.00  0.00     0.022 A 
ATOM      7  C5  UNL d   1       2.323  -2.741   1.389  0.00  0.00     0.026 A 
ATOM      8  C6  UNL d   1       3.495  -3.535   1.633  0.00  0.00    -0.082 A 
ATOM      9  C7  UNL d   1       3.710  -4.608   2.531  0.00  0.00     0.045 A 
ENDROOT
TORSDOF 0
ENDMDL
