MODEL 1
REMARK minimizedAffinity 14.7472649
REMARK minimizedRMSD -1
REMARK  0 active torsions:
REMARK  status: ('A' for Active; 'I' for Inactive)
ROOT
ATOM      1  C   UNL d   1      -2.179  -5.172   0.191  0.00  0.00    -0.002 A 
ATOM      2  C1  UNL d   1      -1.762  -3.972   0.748  0.00  0.00     0.010 A 
ATOM      3  C2  UNL d   1      -0.539  -3.405   0.381  0.00  0.00     0.041 A 
ATOM      4  C3  UNL d   1       0.263  -4.071  -0.566  0.00  0.00    -0.075 A 
ATOM      5  S   UNL d   1       1.798  -3.565  -1.167  0.00  0.00     0.015 SA
ATOM      6  C4  UNL d   1       1.935  -4.930  -2.179  0.00  0.00     0.022 A 
ATOM      7  C5  UNL d   1       0.846  -5.762  -2.073  0.00  0.00     0.026 A 
ATOM      8  C6  UNL d   1      -0.136  -5.281  -1.142  0.00  0.00    -0.082 A 
ATOM      9  C7  UNL d   1      -1.380  -5.830  -0.749  0.00  0.00     0.045 A 
ENDROOT
TORSDOF 0
ENDMDL
