MODEL 1
REMARK minimizedAffinity 22.636816
REMARK minimizedRMSD -1
REMARK  0 active torsions:
REMARK  status: ('A' for Active; 'I' for Inactive)
ROOT
ATOM      1  C   UNL d   1      -6.000   5.289  -4.075  0.00  0.00    -0.002 A 
ATOM      2  C1  UNL d   1      -5.052   5.400  -5.082  0.00  0.00     0.010 A 
ATOM      3  C2  UNL d   1      -4.073   4.419  -5.248  0.00  0.00     0.041 A 
ATOM      4  C3  UNL d   1      -4.063   3.312  -4.377  0.00  0.00    -0.075 A 
ATOM      5  S   UNL d   1      -2.960   1.987  -4.391  0.00  0.00     0.015 SA
ATOM      6  C4  UNL d   1      -3.721   1.242  -3.061  0.00  0.00     0.022 A 
ATOM      7  C5  UNL d   1      -4.793   1.972  -2.605  0.00  0.00     0.026 A 
ATOM      8  C6  UNL d   1      -5.008   3.177  -3.356  0.00  0.00    -0.082 A 
ATOM      9  C7  UNL d   1      -5.987   4.189  -3.213  0.00  0.00     0.045 A 
ENDROOT
TORSDOF 0
ENDMDL
