MODEL 1
REMARK minimizedAffinity 8.83707619
REMARK minimizedRMSD -1
REMARK  0 active torsions:
REMARK  status: ('A' for Active; 'I' for Inactive)
ROOT
ATOM      1  C   UNL d   1      -5.126   5.495  -2.333  0.00  0.00    -0.002 A 
ATOM      2  C1  UNL d   1      -4.704   5.994  -3.557  0.00  0.00     0.010 A 
ATOM      3  C2  UNL d   1      -4.098   5.155  -4.495  0.00  0.00     0.041 A 
ATOM      4  C3  UNL d   1      -3.925   3.793  -4.180  0.00  0.00    -0.075 A 
ATOM      5  S   UNL d   1      -3.210   2.579  -5.174  0.00  0.00     0.015 SA
ATOM      6  C4  UNL d   1      -3.449   1.369  -3.997  0.00  0.00     0.022 A 
ATOM      7  C5  UNL d   1      -4.058   1.862  -2.867  0.00  0.00     0.026 A 
ATOM      8  C6  UNL d   1      -4.343   3.267  -2.954  0.00  0.00    -0.082 A 
ATOM      9  C7  UNL d   1      -4.952   4.143  -2.024  0.00  0.00     0.045 A 
ENDROOT
TORSDOF 0
ENDMDL
