MODEL 1
REMARK minimizedAffinity 7.07116699
REMARK minimizedRMSD -1
REMARK  0 active torsions:
REMARK  status: ('A' for Active; 'I' for Inactive)
ROOT
ATOM      1  C   UNL d   1      -4.399   5.409  -2.199  0.00  0.00    -0.002 A 
ATOM      2  C1  UNL d   1      -4.131   5.864  -3.483  0.00  0.00     0.010 A 
ATOM      3  C2  UNL d   1      -3.890   4.962  -4.521  0.00  0.00     0.041 A 
ATOM      4  C3  UNL d   1      -3.925   3.581  -4.245  0.00  0.00    -0.075 A 
ATOM      5  S   UNL d   1      -3.661   2.292  -5.359  0.00  0.00     0.015 SA
ATOM      6  C4  UNL d   1      -3.898   1.106  -4.158  0.00  0.00     0.022 A 
ATOM      7  C5  UNL d   1      -4.173   1.662  -2.931  0.00  0.00     0.026 A 
ATOM      8  C6  UNL d   1      -4.193   3.098  -2.961  0.00  0.00    -0.082 A 
ATOM      9  C7  UNL d   1      -4.433   4.038  -1.930  0.00  0.00     0.045 A 
ENDROOT
TORSDOF 0
ENDMDL
