MODEL 1
REMARK minimizedAffinity 21.2307224
REMARK minimizedRMSD -1
REMARK  0 active torsions:
REMARK  status: ('A' for Active; 'I' for Inactive)
ROOT
ATOM      1  C   UNL d   1       1.752  -2.083   1.469  0.00  0.00    -0.002 A 
ATOM      2  C1  UNL d   1       1.085  -0.996   2.016  0.00  0.00     0.010 A 
ATOM      3  C2  UNL d   1       0.906  -0.893   3.397  0.00  0.00     0.041 A 
ATOM      4  C3  UNL d   1       1.415  -1.911   4.228  0.00  0.00    -0.075 A 
ATOM      5  S   UNL d   1       1.315  -1.997   5.947  0.00  0.00     0.015 SA
ATOM      6  C4  UNL d   1       2.156  -3.479   5.996  0.00  0.00     0.022 A 
ATOM      7  C5  UNL d   1       2.511  -3.912   4.740  0.00  0.00     0.026 A 
ATOM      8  C6  UNL d   1       2.090  -3.016   3.701  0.00  0.00    -0.082 A 
ATOM      9  C7  UNL d   1       2.255  -3.091   2.296  0.00  0.00     0.045 A 
ENDROOT
TORSDOF 0
ENDMDL
