MODEL 1
REMARK minimizedAffinity 1.18560374
REMARK minimizedRMSD -1
REMARK  3 active torsions:
REMARK  status: ('A' for Active; 'I' for Inactive)
REMARK    1  A    between atoms: C3'_2  and  C2'_3 
REMARK    2  A    between atoms: C2'_3  and  C1'_4 
REMARK    3  A    between atoms: C1'_4  and  C1_5 
ROOT
ATOM      1  C1  N4B d   1       1.940   0.452   0.541  0.00  0.00    -0.075 A 
ATOM      2  C2  N4B d   1       2.054  -0.902   0.156  0.00  0.00     0.002 A 
ATOM      3  C3  N4B d   1       3.054  -1.290  -0.702  0.00  0.00     0.002 A 
ATOM      4  C4  N4B d   1       3.935  -0.343  -1.201  0.00  0.00    -0.004 A 
ATOM      5  C5  N4B d   1       3.834   0.958  -0.805  0.00  0.00     0.002 A 
ATOM      6  C6  N4B d   1       2.837   1.362   0.060  0.00  0.00     0.002 A 
ENDROOT
BRANCH   1   7
ATOM      7  C1' N4B d   1       0.812   0.938   1.409  0.00  0.00     0.057 C 
BRANCH   7   8
ATOM      8  C2' N4B d   1       1.331   1.159   2.826  0.00  0.00     0.009 C 
BRANCH   8   9
ATOM      9  C3' N4B d   1       0.486   0.434   3.860  0.00  0.00     0.004 C 
ATOM     10  C4' N4B d   1       0.668  -1.054   3.818  0.00  0.00     0.003 C 
ENDBRANCH   8   9
ENDBRANCH   7   8
ENDBRANCH   1   7
TORSDOF 3
ENDMDL
