MODEL 1
REMARK minimizedAffinity 8.3873539
REMARK minimizedRMSD -1
REMARK  1 active torsions:
REMARK  status: ('A' for Active; 'I' for Inactive)
REMARK    1  A    between atoms: C1_2  and  C2_3 
ROOT
ATOM      1  C2  UNL d   1       3.046  -4.001  -0.538  0.00  0.00    -0.076 A 
ATOM      2  C3  UNL d   1       2.399  -5.249  -0.544  0.00  0.00     0.004 A 
ATOM      3  C4  UNL d   1       1.012  -5.338  -0.654  0.00  0.00    -0.003 A 
ATOM      4  C5  UNL d   1       0.250  -4.180  -0.759  0.00  0.00     0.000 A 
ATOM      5  C6  UNL d   1       0.876  -2.934  -0.771  0.00  0.00     0.000 A 
ATOM      6  C7  UNL d   1       2.274  -2.827  -0.678  0.00  0.00    -0.073 A 
ATOM      7  C8  UNL d   1       2.897  -1.458  -0.691  0.00  0.00     0.078 C 
ENDROOT
BRANCH   1   8
ATOM      8  C1  UNL d   1       4.550  -3.966  -0.389  0.00  0.00     0.053 C 
ATOM      9  C   UNL d   1       5.220  -5.216  -0.939  0.00  0.00     0.018 C 
ENDBRANCH   1   8
TORSDOF 1
ENDMDL
