MODEL 1
REMARK minimizedAffinity 15.3870411
REMARK minimizedRMSD -1
REMARK  1 active torsions:
REMARK  status: ('A' for Active; 'I' for Inactive)
REMARK    1  A    between atoms: C1_2  and  C2_3 
ROOT
ATOM      1  C2  UNL d   1       2.370   4.189  -1.266  0.00  0.00    -0.076 A 
ATOM      2  C3  UNL d   1       1.671   3.641  -2.355  0.00  0.00     0.004 A 
ATOM      3  C4  UNL d   1       1.694   4.255  -3.606  0.00  0.00    -0.003 A 
ATOM      4  C5  UNL d   1       2.418   5.428  -3.788  0.00  0.00     0.000 A 
ATOM      5  C6  UNL d   1       3.133   5.977  -2.724  0.00  0.00     0.000 A 
ATOM      6  C7  UNL d   1       3.133   5.361  -1.460  0.00  0.00    -0.073 A 
ATOM      7  C8  UNL d   1       3.916   6.000  -0.346  0.00  0.00     0.078 C 
ENDROOT
BRANCH   1   8
ATOM      8  C1  UNL d   1       2.286   3.494   0.074  0.00  0.00     0.053 C 
ATOM      9  C   UNL d   1       1.073   2.583   0.182  0.00  0.00     0.018 C 
ENDBRANCH   1   8
TORSDOF 1
ENDMDL
