MODEL 1
REMARK minimizedAffinity 12.6760721
REMARK minimizedRMSD -1
REMARK  1 active torsions:
REMARK  status: ('A' for Active; 'I' for Inactive)
REMARK    1  A    between atoms: C1_2  and  C2_3 
ROOT
ATOM      1  C2  UNL d   1       1.940  -1.403   3.682  0.00  0.00    -0.076 A 
ATOM      2  C3  UNL d   1       2.616  -2.558   4.111  0.00  0.00     0.004 A 
ATOM      3  C4  UNL d   1       2.214  -3.240   5.258  0.00  0.00    -0.003 A 
ATOM      4  C5  UNL d   1       1.129  -2.778   5.995  0.00  0.00     0.000 A 
ATOM      5  C6  UNL d   1       0.436  -1.644   5.574  0.00  0.00     0.000 A 
ATOM      6  C7  UNL d   1       0.818  -0.954   4.411  0.00  0.00    -0.073 A 
ATOM      7  C8  UNL d   1       0.039   0.268   4.007  0.00  0.00     0.078 C 
ENDROOT
BRANCH   1   8
ATOM      8  C1  UNL d   1       2.438  -0.689   2.445  0.00  0.00     0.053 C 
ATOM      9  C   UNL d   1       2.939  -1.652   1.379  0.00  0.00     0.018 C 
ENDBRANCH   1   8
TORSDOF 1
ENDMDL
