MODEL 1
REMARK minimizedAffinity 15.5472336
REMARK minimizedRMSD -1
REMARK  1 active torsions:
REMARK  status: ('A' for Active; 'I' for Inactive)
REMARK    1  A    between atoms: C1_2  and  C2_3 
ROOT
ATOM      1  C2  UNL d   1       0.725   3.343  -0.834  0.00  0.00    -0.076 A 
ATOM      2  C3  UNL d   1       1.540   2.734   0.136  0.00  0.00     0.004 A 
ATOM      3  C4  UNL d   1       0.982   2.015   1.192  0.00  0.00    -0.003 A 
ATOM      4  C5  UNL d   1      -0.399   1.893   1.295  0.00  0.00     0.000 A 
ATOM      5  C6  UNL d   1      -1.222   2.476   0.331  0.00  0.00     0.000 A 
ATOM      6  C7  UNL d   1      -0.675   3.191  -0.749  0.00  0.00    -0.073 A 
ATOM      7  C8  UNL d   1      -1.610   3.804  -1.755  0.00  0.00     0.078 C 
ENDROOT
BRANCH   1   8
ATOM      8  C1  UNL d   1       1.385   4.133  -1.942  0.00  0.00     0.053 C 
ATOM      9  C   UNL d   1       2.463   5.074  -1.425  0.00  0.00     0.018 C 
ENDBRANCH   1   8
TORSDOF 1
ENDMDL
