MODEL 1
REMARK minimizedAffinity 10.1344843
REMARK minimizedRMSD -1
REMARK  1 active torsions:
REMARK  status: ('A' for Active; 'I' for Inactive)
REMARK    1  A    between atoms: C1_2  and  C2_3 
ROOT
ATOM      1  C2  UNL d   1      -0.881   2.908   0.977  0.00  0.00    -0.076 A 
ATOM      2  C3  UNL d   1      -1.317   2.135   2.067  0.00  0.00     0.004 A 
ATOM      3  C4  UNL d   1      -0.413   1.405   2.836  0.00  0.00    -0.003 A 
ATOM      4  C5  UNL d   1       0.942   1.436   2.528  0.00  0.00     0.000 A 
ATOM      5  C6  UNL d   1       1.395   2.211   1.461  0.00  0.00     0.000 A 
ATOM      6  C7  UNL d   1       0.499   2.966   0.686  0.00  0.00    -0.073 A 
ATOM      7  C8  UNL d   1       1.041   3.780  -0.457  0.00  0.00     0.078 C 
ENDROOT
BRANCH   1   8
ATOM      8  C1  UNL d   1      -1.911   3.658   0.163  0.00  0.00     0.053 C 
ATOM      9  C   UNL d   1      -2.585   4.767   0.955  0.00  0.00     0.018 C 
ENDBRANCH   1   8
TORSDOF 1
ENDMDL
