MODEL 1
REMARK minimizedAffinity 14.9342327
REMARK minimizedRMSD -1
REMARK  1 active torsions:
REMARK  status: ('A' for Active; 'I' for Inactive)
REMARK    1  A    between atoms: C1_2  and  C2_3 
ROOT
ATOM      1  C2  UNL d   1      -0.243   0.565   2.826  0.00  0.00    -0.076 A 
ATOM      2  C3  UNL d   1       1.008   1.044   2.398  0.00  0.00     0.004 A 
ATOM      3  C4  UNL d   1       1.126   1.802   1.235  0.00  0.00    -0.003 A 
ATOM      4  C5  UNL d   1      -0.005   2.094   0.480  0.00  0.00     0.000 A 
ATOM      5  C6  UNL d   1      -1.256   1.643   0.899  0.00  0.00     0.000 A 
ATOM      6  C7  UNL d   1      -1.395   0.891   2.079  0.00  0.00    -0.073 A 
ATOM      7  C8  UNL d   1      -2.767   0.424   2.480  0.00  0.00     0.078 C 
ENDROOT
BRANCH   1   8
ATOM      8  C1  UNL d   1      -0.305  -0.275   4.082  0.00  0.00     0.053 C 
ATOM      9  C   UNL d   1       0.966  -1.079   4.309  0.00  0.00     0.018 C 
ENDBRANCH   1   8
TORSDOF 1
ENDMDL
