MODEL 1
REMARK minimizedAffinity 12.9909115
REMARK minimizedRMSD -1
REMARK  1 active torsions:
REMARK  status: ('A' for Active; 'I' for Inactive)
REMARK    1  A    between atoms: C1_2  and  C2_3 
ROOT
ATOM      1  C2  UNL d   1       3.775  -3.580  -0.308  0.00  0.00    -0.076 A 
ATOM      2  C3  UNL d   1       3.260  -2.294  -0.072  0.00  0.00     0.004 A 
ATOM      3  C4  UNL d   1       4.089  -1.255   0.347  0.00  0.00    -0.003 A 
ATOM      4  C5  UNL d   1       5.447  -1.485   0.536  0.00  0.00     0.000 A 
ATOM      5  C6  UNL d   1       5.979  -2.750   0.289  0.00  0.00     0.000 A 
ATOM      6  C7  UNL d   1       5.160  -3.805  -0.149  0.00  0.00    -0.073 A 
ATOM      7  C8  UNL d   1       5.785  -5.151  -0.394  0.00  0.00     0.078 C 
ENDROOT
BRANCH   1   8
ATOM      8  C1  UNL d   1       2.823  -4.675  -0.735  0.00  0.00     0.053 C 
ATOM      9  C   UNL d   1       1.444  -4.142  -1.091  0.00  0.00     0.018 C 
ENDBRANCH   1   8
TORSDOF 1
ENDMDL
