MODEL 1
REMARK minimizedAffinity 13.8050175
REMARK minimizedRMSD -1
REMARK  1 active torsions:
REMARK  status: ('A' for Active; 'I' for Inactive)
REMARK    1  A    between atoms: C1_2  and  C2_3 
ROOT
ATOM      1  C2  UNL d   1       3.334  -4.358  -0.880  0.00  0.00    -0.076 A 
ATOM      2  C3  UNL d   1       3.639  -5.587  -1.491  0.00  0.00     0.004 A 
ATOM      3  C4  UNL d   1       4.961  -5.998  -1.654  0.00  0.00    -0.003 A 
ATOM      4  C5  UNL d   1       5.999  -5.188  -1.207  0.00  0.00     0.000 A 
ATOM      5  C6  UNL d   1       5.714  -3.974  -0.583  0.00  0.00     0.000 A 
ATOM      6  C7  UNL d   1       4.386  -3.552  -0.396  0.00  0.00    -0.073 A 
ATOM      7  C8  UNL d   1       4.136  -2.231   0.278  0.00  0.00     0.078 C 
ENDROOT
BRANCH   1   8
ATOM      8  C1  UNL d   1       1.882  -3.952  -0.756  0.00  0.00     0.053 C 
ATOM      9  C   UNL d   1       1.107  -4.157  -2.048  0.00  0.00     0.018 C 
ENDBRANCH   1   8
TORSDOF 1
ENDMDL
