MODEL 1
REMARK minimizedAffinity 19.1578026
REMARK minimizedRMSD -1
REMARK  1 active torsions:
REMARK  status: ('A' for Active; 'I' for Inactive)
REMARK    1  A    between atoms: C1_2  and  C2_3 
ROOT
ATOM      1  C2  UNL d   1       2.852  -3.681  -0.355  0.00  0.00    -0.076 A 
ATOM      2  C3  UNL d   1       1.454  -3.553  -0.427  0.00  0.00     0.004 A 
ATOM      3  C4  UNL d   1       0.654  -4.626  -0.817  0.00  0.00    -0.003 A 
ATOM      4  C5  UNL d   1       1.240  -5.845  -1.141  0.00  0.00     0.000 A 
ATOM      5  C6  UNL d   1       2.624  -5.995  -1.058  0.00  0.00     0.000 A 
ATOM      6  C7  UNL d   1       3.443  -4.928  -0.651  0.00  0.00    -0.073 A 
ATOM      7  C8  UNL d   1       4.930  -5.143  -0.585  0.00  0.00     0.078 C 
ENDROOT
BRANCH   1   8
ATOM      8  C1  UNL d   1       3.669  -2.474   0.048  0.00  0.00     0.053 C 
ATOM      9  C   UNL d   1       2.871  -1.182  -0.015  0.00  0.00     0.018 C 
ENDBRANCH   1   8
TORSDOF 1
ENDMDL
