MODEL 1
REMARK minimizedAffinity -3.89705205
REMARK minimizedRMSD -1
REMARK  0 active torsions:
REMARK  status: ('A' for Active; 'I' for Inactive)
ROOT
ATOM      1  C   UNL d   1       1.193  -2.985  -0.192  0.00  0.00     0.077 C 
ATOM      2  C1  UNL d   1       1.318  -1.520  -0.489  0.00  0.00    -0.074 A 
ATOM      3  C2  UNL d   1       2.571  -0.931  -0.687  0.00  0.00    -0.005 A 
ATOM      4  C3  UNL d   1       2.671   0.430  -0.972  0.00  0.00     0.006 A 
ATOM      5  C4  UNL d   1       1.522   1.216  -1.062  0.00  0.00    -0.005 A 
ATOM      6  C5  UNL d   1       0.260   0.644  -0.868  0.00  0.00    -0.074 A 
ATOM      7  C6  UNL d   1      -0.986   1.472  -0.971  0.00  0.00     0.077 C 
ATOM      8  C7  UNL d   1       0.167  -0.726  -0.589  0.00  0.00    -0.001 A 
ENDROOT
TORSDOF 0
ENDMDL
