MODEL 1
REMARK minimizedAffinity 2.48869395
REMARK minimizedRMSD -1
REMARK  0 active torsions:
REMARK  status: ('A' for Active; 'I' for Inactive)
ROOT
ATOM      1  C   UNL d   1       2.560  -0.525  -2.509  0.00  0.00     0.077 C 
ATOM      2  C1  UNL d   1       1.689  -0.955  -1.367  0.00  0.00    -0.074 A 
ATOM      3  C2  UNL d   1       1.740  -2.265  -0.877  0.00  0.00    -0.005 A 
ATOM      4  C3  UNL d   1       0.930  -2.648   0.192  0.00  0.00     0.006 A 
ATOM      5  C4  UNL d   1       0.062  -1.727   0.781  0.00  0.00    -0.005 A 
ATOM      6  C5  UNL d   1      -0.002  -0.414   0.305  0.00  0.00    -0.074 A 
ATOM      7  C6  UNL d   1      -0.922   0.591   0.934  0.00  0.00     0.077 C 
ATOM      8  C7  UNL d   1       0.820  -0.034  -0.765  0.00  0.00    -0.001 A 
ENDROOT
TORSDOF 0
ENDMDL
