MODEL 1
REMARK minimizedAffinity -2.72151709
REMARK minimizedRMSD -1
REMARK  0 active torsions:
REMARK  status: ('A' for Active; 'I' for Inactive)
ROOT
ATOM      1  C   UNL d   1       3.440  -0.695  -1.543  0.00  0.00     0.077 C 
ATOM      2  C1  UNL d   1       2.085  -0.641  -0.901  0.00  0.00    -0.074 A 
ATOM      3  C2  UNL d   1       1.605  -1.716  -0.145  0.00  0.00    -0.005 A 
ATOM      4  C3  UNL d   1       0.347  -1.648   0.454  0.00  0.00     0.006 A 
ATOM      5  C4  UNL d   1      -0.442  -0.507   0.303  0.00  0.00    -0.005 A 
ATOM      6  C5  UNL d   1       0.022   0.578  -0.449  0.00  0.00    -0.074 A 
ATOM      7  C6  UNL d   1      -0.810   1.815  -0.613  0.00  0.00     0.077 C 
ATOM      8  C7  UNL d   1       1.290   0.504  -1.041  0.00  0.00    -0.001 A 
ENDROOT
TORSDOF 0
ENDMDL
