MODEL 1
REMARK minimizedAffinity -4.80747128
REMARK minimizedRMSD -1
REMARK  0 active torsions:
REMARK  status: ('A' for Active; 'I' for Inactive)
ROOT
ATOM      1  C   UNL d   1       0.329  -3.098   0.076  0.00  0.00     0.077 C 
ATOM      2  C1  UNL d   1       0.784  -1.710  -0.264  0.00  0.00    -0.074 A 
ATOM      3  C2  UNL d   1       2.123  -1.448  -0.571  0.00  0.00    -0.005 A 
ATOM      4  C3  UNL d   1       2.530  -0.153  -0.894  0.00  0.00     0.006 A 
ATOM      5  C4  UNL d   1       1.603   0.890  -0.914  0.00  0.00    -0.005 A 
ATOM      6  C5  UNL d   1       0.260   0.646  -0.611  0.00  0.00    -0.074 A 
ATOM      7  C6  UNL d   1      -0.750   1.754  -0.637  0.00  0.00     0.077 C 
ATOM      8  C7  UNL d   1      -0.142  -0.658  -0.293  0.00  0.00    -0.001 A 
ENDROOT
TORSDOF 0
ENDMDL
