MODEL 1
REMARK minimizedAffinity -0.538980782
REMARK minimizedRMSD -1
REMARK  0 active torsions:
REMARK  status: ('A' for Active; 'I' for Inactive)
ROOT
ATOM      1  C   UNL d   1      -0.346  -2.667  -0.025  0.00  0.00     0.077 C 
ATOM      2  C1  UNL d   1       0.607  -1.607  -0.489  0.00  0.00    -0.074 A 
ATOM      3  C2  UNL d   1       1.896  -1.938  -0.922  0.00  0.00    -0.005 A 
ATOM      4  C3  UNL d   1       2.768  -0.941  -1.360  0.00  0.00     0.006 A 
ATOM      5  C4  UNL d   1       2.362   0.394  -1.369  0.00  0.00    -0.005 A 
ATOM      6  C5  UNL d   1       1.078   0.744  -0.941  0.00  0.00    -0.074 A 
ATOM      7  C6  UNL d   1       0.622   2.173  -0.954  0.00  0.00     0.077 C 
ATOM      8  C7  UNL d   1       0.204  -0.264  -0.509  0.00  0.00    -0.001 A 
ENDROOT
TORSDOF 0
ENDMDL
