MODEL 1
REMARK minimizedAffinity -4.97629976
REMARK minimizedRMSD -1
REMARK  0 active torsions:
REMARK  status: ('A' for Active; 'I' for Inactive)
ROOT
ATOM      1  C   UNL d   1       1.795   1.993  -1.966  0.00  0.00     0.077 C 
ATOM      2  C1  UNL d   1       1.476   0.838  -1.065  0.00  0.00    -0.074 A 
ATOM      3  C2  UNL d   1       2.184  -0.365  -1.160  0.00  0.00    -0.005 A 
ATOM      4  C3  UNL d   1       1.882  -1.428  -0.309  0.00  0.00     0.006 A 
ATOM      5  C4  UNL d   1       0.871  -1.300   0.644  0.00  0.00    -0.005 A 
ATOM      6  C5  UNL d   1       0.153  -0.105   0.754  0.00  0.00    -0.074 A 
ATOM      7  C6  UNL d   1      -0.930   0.053   1.780  0.00  0.00     0.077 C 
ATOM      8  C7  UNL d   1       0.467   0.961  -0.100  0.00  0.00    -0.001 A 
ENDROOT
TORSDOF 0
ENDMDL
