MODEL 1
REMARK minimizedAffinity -3.51131535
REMARK minimizedRMSD -1
REMARK  0 active torsions:
REMARK  status: ('A' for Active; 'I' for Inactive)
ROOT
ATOM      1  C   UNL d   1       3.135  -0.598  -0.400  0.00  0.00     0.077 C 
ATOM      2  C1  UNL d   1       1.636  -0.552  -0.379  0.00  0.00    -0.074 A 
ATOM      3  C2  UNL d   1       0.886  -1.684  -0.043  0.00  0.00    -0.005 A 
ATOM      4  C3  UNL d   1      -0.507  -1.623  -0.019  0.00  0.00     0.006 A 
ATOM      5  C4  UNL d   1      -1.164  -0.431  -0.329  0.00  0.00    -0.005 A 
ATOM      6  C5  UNL d   1      -0.431   0.711  -0.667  0.00  0.00    -0.074 A 
ATOM      7  C6  UNL d   1      -1.121   2.002  -0.994  0.00  0.00     0.077 C 
ATOM      8  C7  UNL d   1       0.969   0.644  -0.682  0.00  0.00    -0.001 A 
ENDROOT
TORSDOF 0
ENDMDL
