MODEL 1
REMARK minimizedAffinity -3.68211222
REMARK minimizedRMSD -1
REMARK  0 active torsions:
REMARK  status: ('A' for Active; 'I' for Inactive)
ROOT
ATOM      1  C   UNL d   1       3.451  -0.397  -0.599  0.00  0.00     0.077 C 
ATOM      2  C1  UNL d   1       1.960  -0.425  -0.444  0.00  0.00    -0.074 A 
ATOM      3  C2  UNL d   1       1.191  -1.413  -1.066  0.00  0.00    -0.005 A 
ATOM      4  C3  UNL d   1      -0.195  -1.432  -0.905  0.00  0.00     0.006 A 
ATOM      5  C4  UNL d   1      -0.824  -0.464  -0.122  0.00  0.00    -0.005 A 
ATOM      6  C5  UNL d   1      -0.072   0.531   0.509  0.00  0.00    -0.074 A 
ATOM      7  C6  UNL d   1      -0.731   1.573   1.363  0.00  0.00     0.077 C 
ATOM      8  C7  UNL d   1       1.321   0.539   0.348  0.00  0.00    -0.001 A 
ENDROOT
TORSDOF 0
ENDMDL
