MODEL 1
REMARK minimizedAffinity -5.4135046
REMARK minimizedRMSD -1
REMARK  0 active torsions:
REMARK  status: ('A' for Active; 'I' for Inactive)
ROOT
ATOM      1  C   UNL d   1      -1.035  -2.837  -0.366  0.00  0.00     0.077 C 
ATOM      2  C1  UNL d   1      -0.332  -1.512  -0.394  0.00  0.00    -0.074 A 
ATOM      3  C2  UNL d   1      -1.035  -0.321  -0.184  0.00  0.00    -0.005 A 
ATOM      4  C3  UNL d   1      -0.366   0.903  -0.204  0.00  0.00     0.006 A 
ATOM      5  C4  UNL d   1       1.009   0.949  -0.434  0.00  0.00    -0.005 A 
ATOM      6  C5  UNL d   1       1.729  -0.232  -0.646  0.00  0.00    -0.074 A 
ATOM      7  C6  UNL d   1       3.209  -0.201  -0.886  0.00  0.00     0.077 C 
ATOM      8  C7  UNL d   1       1.051  -1.458  -0.618  0.00  0.00    -0.001 A 
ENDROOT
TORSDOF 0
ENDMDL
