MODEL 1
REMARK minimizedAffinity -6.12491131
REMARK minimizedRMSD -1
REMARK  0 active torsions:
REMARK  status: ('A' for Active; 'I' for Inactive)
ROOT
ATOM      1  C   UNL d   1       1.485   1.786  -4.234  0.00  0.00     0.077 C 
ATOM      2  C1  UNL d   1       1.873   1.058  -2.982  0.00  0.00    -0.074 A 
ATOM      3  C2  UNL d   1       3.178   0.590  -2.797  0.00  0.00    -0.005 A 
ATOM      4  C3  UNL d   1       3.527  -0.077  -1.623  0.00  0.00     0.006 A 
ATOM      5  C4  UNL d   1       2.576  -0.282  -0.622  0.00  0.00    -0.005 A 
ATOM      6  C5  UNL d   1       1.266   0.179  -0.789  0.00  0.00    -0.074 A 
ATOM      7  C6  UNL d   1       0.234  -0.024   0.280  0.00  0.00     0.077 C 
ATOM      8  C7  UNL d   1       0.925   0.855  -1.969  0.00  0.00    -0.001 A 
ENDROOT
TORSDOF 0
ENDMDL
