MODEL 1
REMARK minimizedAffinity -5.61045456
REMARK minimizedRMSD -1
REMARK  0 active torsions:
REMARK  status: ('A' for Active; 'I' for Inactive)
ROOT
ATOM      1  C   UNL d   1      -0.677  -2.669   0.004  0.00  0.00     0.077 C 
ATOM      2  C1  UNL d   1      -0.101  -1.350  -0.419  0.00  0.00    -0.074 A 
ATOM      3  C2  UNL d   1      -0.900  -0.203  -0.479  0.00  0.00    -0.005 A 
ATOM      4  C3  UNL d   1      -0.349   1.018  -0.865  0.00  0.00     0.006 A 
ATOM      5  C4  UNL d   1       1.004   1.106  -1.193  0.00  0.00    -0.005 A 
ATOM      6  C5  UNL d   1       1.819  -0.029  -1.138  0.00  0.00    -0.074 A 
ATOM      7  C6  UNL d   1       3.278   0.050  -1.478  0.00  0.00     0.077 C 
ATOM      8  C7  UNL d   1       1.259  -1.252  -0.743  0.00  0.00    -0.001 A 
ENDROOT
TORSDOF 0
ENDMDL
