MODEL 1
REMARK minimizedAffinity -4.75998211
REMARK minimizedRMSD -1
REMARK  0 active torsions:
REMARK  status: ('A' for Active; 'I' for Inactive)
ROOT
ATOM      1  C   UNL d   1      -0.850   2.044  -1.338  0.00  0.00     0.077 C 
ATOM      2  C1  UNL d   1      -0.186   0.744  -0.994  0.00  0.00    -0.074 A 
ATOM      3  C2  UNL d   1      -0.943  -0.388  -0.674  0.00  0.00    -0.005 A 
ATOM      4  C3  UNL d   1      -0.312  -1.593  -0.365  0.00  0.00     0.006 A 
ATOM      5  C4  UNL d   1       1.081  -1.678  -0.374  0.00  0.00    -0.005 A 
ATOM      6  C5  UNL d   1       1.855  -0.558  -0.692  0.00  0.00    -0.074 A 
ATOM      7  C6  UNL d   1       3.353  -0.635  -0.716  0.00  0.00     0.077 C 
ATOM      8  C7  UNL d   1       1.213   0.648  -1.008  0.00  0.00    -0.001 A 
ENDROOT
TORSDOF 0
ENDMDL
