MODEL 1
REMARK minimizedAffinity -5.78815413
REMARK minimizedRMSD -1
REMARK  0 active torsions:
REMARK  status: ('A' for Active; 'I' for Inactive)
ROOT
ATOM      1  C   UNL d   1      -1.158   0.199   0.707  0.00  0.00     0.077 C 
ATOM      2  C1  UNL d   1       0.061  -0.002  -0.143  0.00  0.00    -0.074 A 
ATOM      3  C2  UNL d   1       0.857  -1.143   0.001  0.00  0.00    -0.005 A 
ATOM      4  C3  UNL d   1       1.983  -1.320  -0.803  0.00  0.00     0.006 A 
ATOM      5  C4  UNL d   1       2.324  -0.360  -1.757  0.00  0.00    -0.005 A 
ATOM      6  C5  UNL d   1       1.539   0.786  -1.915  0.00  0.00    -0.074 A 
ATOM      7  C6  UNL d   1       1.886   1.823  -2.943  0.00  0.00     0.077 C 
ATOM      8  C7  UNL d   1       0.406   0.954  -1.109  0.00  0.00    -0.001 A 
ENDROOT
TORSDOF 0
ENDMDL
