MODEL 1
REMARK minimizedAffinity -4.04822159
REMARK minimizedRMSD -1
REMARK  0 active torsions:
REMARK  status: ('A' for Active; 'I' for Inactive)
ROOT
ATOM      1  C   UNL d   1      -1.025   0.887   0.626  0.00  0.00     0.077 C 
ATOM      2  C1  UNL d   1       0.205   0.341  -0.035  0.00  0.00    -0.074 A 
ATOM      3  C2  UNL d   1       1.385   1.091  -0.090  0.00  0.00    -0.005 A 
ATOM      4  C3  UNL d   1       2.524   0.565  -0.700  0.00  0.00     0.006 A 
ATOM      5  C4  UNL d   1       2.495  -0.712  -1.260  0.00  0.00    -0.005 A 
ATOM      6  C5  UNL d   1       1.325  -1.477  -1.214  0.00  0.00    -0.074 A 
ATOM      7  C6  UNL d   1       1.281  -2.856  -1.802  0.00  0.00     0.077 C 
ATOM      8  C7  UNL d   1       0.187  -0.945  -0.593  0.00  0.00    -0.001 A 
ENDROOT
TORSDOF 0
ENDMDL
