MODEL 1
REMARK minimizedAffinity -4.74195623
REMARK minimizedRMSD -1
REMARK  0 active torsions:
REMARK  status: ('A' for Active; 'I' for Inactive)
ROOT
ATOM      1  C   UNL d   1      -1.138   0.885   0.484  0.00  0.00     0.077 C 
ATOM      2  C1  UNL d   1      -0.105  -0.078  -0.021  0.00  0.00    -0.074 A 
ATOM      3  C2  UNL d   1      -0.373  -1.449  -0.091  0.00  0.00    -0.005 A 
ATOM      4  C3  UNL d   1       0.594  -2.331  -0.572  0.00  0.00     0.006 A 
ATOM      5  C4  UNL d   1       1.837  -1.853  -0.988  0.00  0.00    -0.005 A 
ATOM      6  C5  UNL d   1       2.123  -0.485  -0.926  0.00  0.00    -0.074 A 
ATOM      7  C6  UNL d   1       3.451   0.047  -1.378  0.00  0.00     0.077 C 
ATOM      8  C7  UNL d   1       1.144   0.396  -0.448  0.00  0.00    -0.001 A 
ENDROOT
TORSDOF 0
ENDMDL
