MODEL 1
REMARK minimizedAffinity -2.12197638
REMARK minimizedRMSD -1
REMARK  0 active torsions:
REMARK  status: ('A' for Active; 'I' for Inactive)
ROOT
ATOM      1  C   UNL d   1       2.966  -1.133  -1.504  0.00  0.00     0.077 C 
ATOM      2  C1  UNL d   1       1.654  -0.764  -0.878  0.00  0.00    -0.074 A 
ATOM      3  C2  UNL d   1       0.969  -1.667  -0.059  0.00  0.00    -0.005 A 
ATOM      4  C3  UNL d   1      -0.246  -1.306   0.523  0.00  0.00     0.006 A 
ATOM      5  C4  UNL d   1      -0.788  -0.041   0.292  0.00  0.00    -0.005 A 
ATOM      6  C5  UNL d   1      -0.116   0.876  -0.523  0.00  0.00    -0.074 A 
ATOM      7  C6  UNL d   1      -0.679   2.243  -0.773  0.00  0.00     0.077 C 
ATOM      8  C7  UNL d   1       1.108   0.508  -1.099  0.00  0.00    -0.001 A 
ENDROOT
TORSDOF 0
ENDMDL
