MODEL 1
REMARK minimizedAffinity -2.59519863
REMARK minimizedRMSD -1
REMARK  2 active torsions:
REMARK  status: ('A' for Active; 'I' for Inactive)
REMARK    1  A    between atoms: C1_2  and  C2_3 
REMARK    2  A    between atoms: C2_3  and  C3_4 
ROOT
ATOM      1  C3  UNL d   1      -0.227   0.033   0.156  0.00  0.00    -0.075 A 
ATOM      2  C4  UNL d   1       0.538  -0.498   1.204  0.00  0.00     0.002 A 
ATOM      3  C5  UNL d   1       1.786   0.043   1.515  0.00  0.00     0.002 A 
ATOM      4  C6  UNL d   1       2.288   1.113   0.778  0.00  0.00    -0.004 A 
ATOM      5  C7  UNL d   1       1.544   1.638  -0.276  0.00  0.00     0.002 A 
ATOM      6  C8  UNL d   1       0.293   1.101  -0.587  0.00  0.00     0.002 A 
ENDROOT
BRANCH   1   7
ATOM      7  C2  UNL d   1      -1.591  -0.529  -0.167  0.00  0.00     0.056 C 
BRANCH   7   8
ATOM      8  C1  UNL d   1      -2.253   0.107  -1.394  0.00  0.00     0.007 C 
ATOM      9  C   UNL d   1      -2.884  -0.914  -2.332  0.00  0.00     0.009 C 
ENDBRANCH   7   8
ENDBRANCH   1   7
TORSDOF 2
ENDMDL
