MODEL 1
REMARK minimizedAffinity -4.68404579
REMARK minimizedRMSD -1
REMARK  2 active torsions:
REMARK  status: ('A' for Active; 'I' for Inactive)
REMARK    1  A    between atoms: C1_2  and  C2_3 
REMARK    2  A    between atoms: C2_3  and  C3_4 
ROOT
ATOM      1  C3  UNL d   1      -0.652   0.379  -0.895  0.00  0.00    -0.075 A 
ATOM      2  C4  UNL d   1      -1.989   0.040  -1.150  0.00  0.00     0.002 A 
ATOM      3  C5  UNL d   1      -2.391  -0.345  -2.429  0.00  0.00     0.002 A 
ATOM      4  C6  UNL d   1      -1.466  -0.387  -3.470  0.00  0.00    -0.004 A 
ATOM      5  C7  UNL d   1      -0.139  -0.036  -3.232  0.00  0.00     0.002 A 
ATOM      6  C8  UNL d   1       0.267   0.346  -1.952  0.00  0.00     0.002 A 
ENDROOT
BRANCH   1   7
ATOM      7  C2  UNL d   1      -0.205   0.769   0.494  0.00  0.00     0.056 C 
BRANCH   7   8
ATOM      8  C1  UNL d   1       1.130   1.520   0.531  0.00  0.00     0.007 C 
ATOM      9  C   UNL d   1       2.221   0.768   1.282  0.00  0.00     0.009 C 
ENDBRANCH   7   8
ENDBRANCH   1   7
TORSDOF 2
ENDMDL
