MODEL 1
REMARK minimizedAffinity -1.38920236
REMARK minimizedRMSD -1
REMARK  2 active torsions:
REMARK  status: ('A' for Active; 'I' for Inactive)
REMARK    1  A    between atoms: C1_2  and  C2_3 
REMARK    2  A    between atoms: C2_3  and  C3_4 
ROOT
ATOM      1  C3  UNL d   1      -1.047   0.324  -0.659  0.00  0.00    -0.075 A 
ATOM      2  C4  UNL d   1      -0.403   1.567  -0.750  0.00  0.00     0.002 A 
ATOM      3  C5  UNL d   1       0.840   1.765  -0.149  0.00  0.00     0.002 A 
ATOM      4  C6  UNL d   1       1.449   0.731   0.558  0.00  0.00    -0.004 A 
ATOM      5  C7  UNL d   1       0.811  -0.502   0.669  0.00  0.00     0.002 A 
ATOM      6  C8  UNL d   1      -0.431  -0.706   0.065  0.00  0.00     0.002 A 
ENDROOT
BRANCH   1   7
ATOM      7  C2  UNL d   1      -2.379   0.094  -1.332  0.00  0.00     0.056 C 
BRANCH   7   8
ATOM      8  C1  UNL d   1      -2.277  -0.599  -2.695  0.00  0.00     0.007 C 
ATOM      9  C   UNL d   1      -2.203   0.379  -3.860  0.00  0.00     0.009 C 
ENDBRANCH   7   8
ENDBRANCH   1   7
TORSDOF 2
ENDMDL
