MODEL 1
REMARK minimizedAffinity -3.42384958
REMARK minimizedRMSD -1
REMARK  2 active torsions:
REMARK  status: ('A' for Active; 'I' for Inactive)
REMARK    1  A    between atoms: C1_2  and  C2_3 
REMARK    2  A    between atoms: C2_3  and  C3_4 
ROOT
ATOM      1  C3  UNL d   1       0.968   0.032   0.808  0.00  0.00    -0.075 A 
ATOM      2  C4  UNL d   1       0.314  -1.113   1.286  0.00  0.00     0.002 A 
ATOM      3  C5  UNL d   1       0.906  -1.910   2.267  0.00  0.00     0.002 A 
ATOM      4  C6  UNL d   1       2.161  -1.579   2.773  0.00  0.00    -0.004 A 
ATOM      5  C7  UNL d   1       2.827  -0.454   2.294  0.00  0.00     0.002 A 
ATOM      6  C8  UNL d   1       2.236   0.348   1.316  0.00  0.00     0.002 A 
ENDROOT
BRANCH   1   7
ATOM      7  C2  UNL d   1       0.320   0.915  -0.231  0.00  0.00     0.056 C 
BRANCH   7   8
ATOM      8  C1  UNL d   1      -1.186   0.687  -0.391  0.00  0.00     0.007 C 
ATOM      9  C   UNL d   1      -1.547  -0.076  -1.659  0.00  0.00     0.009 C 
ENDBRANCH   7   8
ENDBRANCH   1   7
TORSDOF 2
ENDMDL
