MODEL 1
REMARK minimizedAffinity -3.76650119
REMARK minimizedRMSD -1
REMARK  2 active torsions:
REMARK  status: ('A' for Active; 'I' for Inactive)
REMARK    1  A    between atoms: C1_2  and  C2_3 
REMARK    2  A    between atoms: C2_3  and  C3_4 
ROOT
ATOM      1  C3  UNL d   1      -1.568   0.126  -0.970  0.00  0.00    -0.075 A 
ATOM      2  C4  UNL d   1      -1.360  -0.933  -1.866  0.00  0.00     0.002 A 
ATOM      3  C5  UNL d   1      -2.070  -0.996  -3.065  0.00  0.00     0.002 A 
ATOM      4  C6  UNL d   1      -3.002  -0.010  -3.379  0.00  0.00    -0.004 A 
ATOM      5  C7  UNL d   1      -3.230   1.037  -2.488  0.00  0.00     0.002 A 
ATOM      6  C8  UNL d   1      -2.517   1.105  -1.290  0.00  0.00     0.002 A 
ENDROOT
BRANCH   1   7
ATOM      7  C2  UNL d   1      -0.782   0.216   0.316  0.00  0.00     0.056 C 
BRANCH   7   8
ATOM      8  C1  UNL d   1       0.076   1.480   0.436  0.00  0.00     0.007 C 
ATOM      9  C   UNL d   1       1.570   1.191   0.468  0.00  0.00     0.009 C 
ENDBRANCH   7   8
ENDBRANCH   1   7
TORSDOF 2
ENDMDL
