MODEL 1
REMARK minimizedAffinity -4.5258112
REMARK minimizedRMSD -1
REMARK  2 active torsions:
REMARK  status: ('A' for Active; 'I' for Inactive)
REMARK    1  A    between atoms: C1_2  and  C2_3 
REMARK    2  A    between atoms: C2_3  and  C3_4 
ROOT
ATOM      1  C3  UNL d   1      -0.164   0.443  -0.036  0.00  0.00    -0.075 A 
ATOM      2  C4  UNL d   1       0.639   1.471  -0.550  0.00  0.00     0.002 A 
ATOM      3  C5  UNL d   1       2.024   1.438  -0.385  0.00  0.00     0.002 A 
ATOM      4  C6  UNL d   1       2.621   0.385   0.304  0.00  0.00    -0.004 A 
ATOM      5  C7  UNL d   1       1.832  -0.633   0.834  0.00  0.00     0.002 A 
ATOM      6  C8  UNL d   1       0.446  -0.605   0.666  0.00  0.00     0.002 A 
ENDROOT
BRANCH   1   7
ATOM      7  C2  UNL d   1      -1.661   0.457  -0.237  0.00  0.00     0.056 C 
BRANCH   7   8
ATOM      8  C1  UNL d   1      -2.094   0.763  -1.675  0.00  0.00     0.007 C 
ATOM      9  C   UNL d   1      -2.210  -0.482  -2.544  0.00  0.00     0.009 C 
ENDBRANCH   7   8
ENDBRANCH   1   7
TORSDOF 2
ENDMDL
