MODEL 1
REMARK minimizedAffinity -2.32006812
REMARK minimizedRMSD -1
REMARK  3 active torsions:
REMARK  status: ('A' for Active; 'I' for Inactive)
REMARK    1  A    between atoms: C3'_2  and  C2'_3 
REMARK    2  A    between atoms: C2'_3  and  C1'_4 
REMARK    3  A    between atoms: C1'_4  and  C1_5 
ROOT
ATOM      1  C1  N4B d   1      -1.371   0.970   0.191  0.00  0.00    -0.075 A 
ATOM      2  C2  N4B d   1      -2.272   0.511  -0.795  0.00  0.00     0.002 A 
ATOM      3  C3  N4B d   1      -3.610   0.399  -0.504  0.00  0.00     0.002 A 
ATOM      4  C4  N4B d   1      -4.065   0.722   0.766  0.00  0.00    -0.004 A 
ATOM      5  C5  N4B d   1      -3.192   1.188   1.705  0.00  0.00     0.002 A 
ATOM      6  C6  N4B d   1      -1.846   1.309   1.425  0.00  0.00     0.002 A 
ENDROOT
BRANCH   1   7
ATOM      7  C1' N4B d   1       0.112   1.027  -0.053  0.00  0.00     0.057 C 
BRANCH   7   8
ATOM      8  C2' N4B d   1       0.731  -0.320   0.310  0.00  0.00     0.009 C 
BRANCH   8   9
ATOM      9  C3' N4B d   1       0.784  -1.261  -0.880  0.00  0.00     0.004 C 
ATOM     10  C4' N4B d   1       2.132  -1.892  -1.062  0.00  0.00     0.003 C 
ENDBRANCH   8   9
ENDBRANCH   7   8
ENDBRANCH   1   7
TORSDOF 3
ENDMDL
