MODEL 1
REMARK minimizedAffinity -5.63280678
REMARK minimizedRMSD -1
REMARK  0 active torsions:
REMARK  status: ('A' for Active; 'I' for Inactive)
ROOT
ATOM      1  C   UNL d   1       1.918  -1.144   2.936  0.00  0.00    -0.002 A 
ATOM      2  C1  UNL d   1       2.690  -1.889   2.055  0.00  0.00     0.010 A 
ATOM      3  C2  UNL d   1       2.428  -1.862   0.684  0.00  0.00     0.041 A 
ATOM      4  C3  UNL d   1       1.369  -1.064   0.208  0.00  0.00    -0.075 A 
ATOM      5  S   UNL d   1       0.865  -0.875  -1.430  0.00  0.00     0.015 SA
ATOM      6  C4  UNL d   1      -0.386   0.199  -1.000  0.00  0.00     0.022 A 
ATOM      7  C5  UNL d   1      -0.433   0.419   0.357  0.00  0.00     0.026 A 
ATOM      8  C6  UNL d   1       0.578  -0.305   1.075  0.00  0.00    -0.082 A 
ATOM      9  C7  UNL d   1       0.868  -0.354   2.460  0.00  0.00     0.045 A 
ENDROOT
TORSDOF 0
ENDMDL
