MODEL 1
REMARK minimizedAffinity -4.17333174
REMARK minimizedRMSD -1
REMARK  0 active torsions:
REMARK  status: ('A' for Active; 'I' for Inactive)
ROOT
ATOM      1  C   UNL d   1       2.168  -0.410   2.352  0.00  0.00    -0.002 A 
ATOM      2  C1  UNL d   1       2.100  -1.713   1.880  0.00  0.00     0.010 A 
ATOM      3  C2  UNL d   1       1.479  -1.997   0.662  0.00  0.00     0.041 A 
ATOM      4  C3  UNL d   1       0.922  -0.938  -0.081  0.00  0.00    -0.075 A 
ATOM      5  S   UNL d   1       0.112  -1.046  -1.599  0.00  0.00     0.015 SA
ATOM      6  C4  UNL d   1      -0.163   0.635  -1.657  0.00  0.00     0.022 A 
ATOM      7  C5  UNL d   1       0.343   1.279  -0.554  0.00  0.00     0.026 A 
ATOM      8  C6  UNL d   1       0.977   0.383   0.373  0.00  0.00    -0.082 A 
ATOM      9  C7  UNL d   1       1.614   0.638   1.612  0.00  0.00     0.045 A 
ENDROOT
TORSDOF 0
ENDMDL
