MODEL 1
REMARK minimizedAffinity -3.39930654
REMARK minimizedRMSD -1
REMARK  0 active torsions:
REMARK  status: ('A' for Active; 'I' for Inactive)
ROOT
ATOM      1  C   UNL d   1       3.857  -0.897   2.675  0.00  0.00    -0.002 A 
ATOM      2  C1  UNL d   1       3.862  -0.164   1.496  0.00  0.00     0.010 A 
ATOM      3  C2  UNL d   1       2.703  -0.048   0.727  0.00  0.00     0.041 A 
ATOM      4  C3  UNL d   1       1.526  -0.686   1.168  0.00  0.00    -0.075 A 
ATOM      5  S   UNL d   1      -0.012  -0.682   0.390  0.00  0.00     0.015 SA
ATOM      6  C4  UNL d   1      -0.712  -1.651   1.604  0.00  0.00     0.022 A 
ATOM      7  C5  UNL d   1       0.191  -1.980   2.586  0.00  0.00     0.026 A 
ATOM      8  C6  UNL d   1       1.496  -1.429   2.351  0.00  0.00    -0.082 A 
ATOM      9  C7  UNL d   1       2.688  -1.528   3.108  0.00  0.00     0.045 A 
ENDROOT
TORSDOF 0
ENDMDL
