MODEL 1
REMARK minimizedAffinity 15.9740734
REMARK minimizedRMSD -1
REMARK  0 active torsions:
REMARK  status: ('A' for Active; 'I' for Inactive)
ROOT
ATOM      1  C   UNL d   1       3.158   5.392   5.815  0.00  0.00     0.020 A 
ATOM      2  C1  UNL d   1       3.158   4.008   5.981  0.00  0.00     0.020 A 
ATOM      3  C2  UNL d   1       4.040   3.216   5.243  0.00  0.00     0.034 A 
ATOM      4  C3  UNL d   1       4.927   3.807   4.336  0.00  0.00     0.017 A 
ATOM      5  C4  UNL d   1       4.926   5.197   4.170  0.00  0.00     0.017 A 
ATOM      6  C5  UNL d   1       4.040   5.985   4.911  0.00  0.00     0.034 A 
ATOM      7 Cl   UNL d   1       5.990   5.999   3.069  0.00  0.00    -0.070 Cl
ATOM      8 Cl1  UNL d   1       5.991   2.767   3.458  0.00  0.00    -0.070 Cl
ENDROOT
TORSDOF 0
ENDMDL
