MODEL 1
REMARK minimizedAffinity 14.1247082
REMARK minimizedRMSD -1
REMARK  0 active torsions:
REMARK  status: ('A' for Active; 'I' for Inactive)
ROOT
ATOM      1  C   UNL d   1      -1.203  -3.152  -0.973  0.00  0.00     0.020 A 
ATOM      2  C1  UNL d   1      -1.808  -2.093  -0.297  0.00  0.00     0.020 A 
ATOM      3  C2  UNL d   1      -2.019  -2.174   1.081  0.00  0.00     0.034 A 
ATOM      4  C3  UNL d   1      -1.624  -3.316   1.788  0.00  0.00     0.017 A 
ATOM      5  C4  UNL d   1      -1.016  -4.378   1.108  0.00  0.00     0.017 A 
ATOM      6  C5  UNL d   1      -0.808  -4.292  -0.272  0.00  0.00     0.034 A 
ATOM      7 Cl   UNL d   1      -0.502  -5.819   1.912  0.00  0.00    -0.070 Cl
ATOM      8 Cl1  UNL d   1      -1.915  -3.348   3.490  0.00  0.00    -0.070 Cl
ENDROOT
TORSDOF 0
ENDMDL
