MODEL 1
REMARK minimizedAffinity 12.576622
REMARK minimizedRMSD -1
REMARK  0 active torsions:
REMARK  status: ('A' for Active; 'I' for Inactive)
ROOT
ATOM      1  C   UNL d   1      -1.112  -2.467  -1.136  0.00  0.00     0.020 A 
ATOM      2  C1  UNL d   1      -1.919  -1.556  -0.455  0.00  0.00     0.020 A 
ATOM      3  C2  UNL d   1      -2.136  -1.703   0.916  0.00  0.00     0.034 A 
ATOM      4  C3  UNL d   1      -1.545  -2.764   1.612  0.00  0.00     0.017 A 
ATOM      5  C4  UNL d   1      -0.736  -3.678   0.928  0.00  0.00     0.017 A 
ATOM      6  C5  UNL d   1      -0.522  -3.526  -0.445  0.00  0.00     0.034 A 
ATOM      7 Cl   UNL d   1       0.027  -5.013   1.719  0.00  0.00    -0.070 Cl
ATOM      8 Cl1  UNL d   1      -1.857  -2.886   3.307  0.00  0.00    -0.070 Cl
ENDROOT
TORSDOF 0
ENDMDL
