MODEL 1
REMARK minimizedAffinity 13.6238832
REMARK minimizedRMSD -1
REMARK  0 active torsions:
REMARK  status: ('A' for Active; 'I' for Inactive)
ROOT
ATOM      1  C   UNL d   1      -2.189  -2.157   0.276  0.00  0.00     0.020 A 
ATOM      2  C1  UNL d   1      -1.326  -2.969  -0.459  0.00  0.00     0.020 A 
ATOM      3  C2  UNL d   1      -0.796  -4.125   0.117  0.00  0.00     0.034 A 
ATOM      4  C3  UNL d   1      -1.127  -4.473   1.432  0.00  0.00     0.017 A 
ATOM      5  C4  UNL d   1      -1.993  -3.657   2.169  0.00  0.00     0.017 A 
ATOM      6  C5  UNL d   1      -2.522  -2.501   1.587  0.00  0.00     0.034 A 
ATOM      7 Cl   UNL d   1      -2.448  -4.020   3.796  0.00  0.00    -0.070 Cl
ATOM      8 Cl1  UNL d   1      -0.434  -5.917   2.081  0.00  0.00    -0.070 Cl
ENDROOT
TORSDOF 0
ENDMDL
