MODEL 1
REMARK minimizedAffinity 6.45811701
REMARK minimizedRMSD -1
REMARK  0 active torsions:
REMARK  status: ('A' for Active; 'I' for Inactive)
ROOT
ATOM      1  C   UNL d   1      -1.860  -1.113  -1.000  0.00  0.00     0.020 A 
ATOM      2  C1  UNL d   1      -1.623  -2.193  -1.849  0.00  0.00     0.020 A 
ATOM      3  C2  UNL d   1      -1.359  -3.457  -1.316  0.00  0.00     0.034 A 
ATOM      4  C3  UNL d   1      -1.330  -3.643   0.071  0.00  0.00     0.017 A 
ATOM      5  C4  UNL d   1      -1.568  -2.558   0.923  0.00  0.00     0.017 A 
ATOM      6  C5  UNL d   1      -1.833  -1.296   0.383  0.00  0.00     0.034 A 
ATOM      7 Cl   UNL d   1      -1.550  -2.710   2.645  0.00  0.00    -0.070 Cl
ATOM      8 Cl1  UNL d   1      -0.997  -5.232   0.662  0.00  0.00    -0.070 Cl
ENDROOT
TORSDOF 0
ENDMDL
