MODEL 1
REMARK minimizedAffinity 12.5511446
REMARK minimizedRMSD -1
REMARK  0 active torsions:
REMARK  status: ('A' for Active; 'I' for Inactive)
ROOT
ATOM      1  C   UNL d   1      -4.899   2.311   5.951  0.00  0.00     0.020 A 
ATOM      2  C1  UNL d   1      -3.508   2.404   5.940  0.00  0.00     0.020 A 
ATOM      3  C2  UNL d   1      -2.730   1.245   5.942  0.00  0.00     0.034 A 
ATOM      4  C3  UNL d   1      -3.342  -0.014   5.956  0.00  0.00     0.017 A 
ATOM      5  C4  UNL d   1      -4.739  -0.107   5.968  0.00  0.00     0.017 A 
ATOM      6  C5  UNL d   1      -5.513   1.058   5.966  0.00  0.00     0.034 A 
ATOM      7 Cl   UNL d   1      -5.567  -1.624   5.986  0.00  0.00    -0.070 Cl
ATOM      8 Cl1  UNL d   1      -2.319  -1.406   5.958  0.00  0.00    -0.070 Cl
ENDROOT
TORSDOF 0
ENDMDL
