MODEL 1
REMARK minimizedAffinity 4.87475586
REMARK minimizedRMSD -1
REMARK  0 active torsions:
REMARK  status: ('A' for Active; 'I' for Inactive)
ROOT
ATOM      1  C   UNL d   1      -1.076  -2.867  -0.426  0.00  0.00     0.020 A 
ATOM      2  C1  UNL d   1      -1.928  -2.110   0.377  0.00  0.00     0.020 A 
ATOM      3  C2  UNL d   1      -2.250  -2.550   1.663  0.00  0.00     0.034 A 
ATOM      4  C3  UNL d   1      -1.719  -3.750   2.150  0.00  0.00     0.017 A 
ATOM      5  C4  UNL d   1      -0.864  -4.509   1.343  0.00  0.00     0.017 A 
ATOM      6  C5  UNL d   1      -0.545  -4.064   0.057  0.00  0.00     0.034 A 
ATOM      7 Cl   UNL d   1      -0.170  -6.000   1.875  0.00  0.00    -0.070 Cl
ATOM      8 Cl1  UNL d   1      -2.160  -4.232   3.749  0.00  0.00    -0.070 Cl
ENDROOT
TORSDOF 0
ENDMDL
