MODEL 1
REMARK minimizedAffinity 5.6710186
REMARK minimizedRMSD -1
REMARK  0 active torsions:
REMARK  status: ('A' for Active; 'I' for Inactive)
ROOT
ATOM      1  C   UNL d   1      -0.290  -4.586  -0.203  0.00  0.00     0.020 A 
ATOM      2  C1  UNL d   1      -0.650  -3.797  -1.295  0.00  0.00     0.020 A 
ATOM      3  C2  UNL d   1      -1.411  -2.642  -1.101  0.00  0.00     0.034 A 
ATOM      4  C3  UNL d   1      -1.814  -2.273   0.187  0.00  0.00     0.017 A 
ATOM      5  C4  UNL d   1      -1.451  -3.066   1.283  0.00  0.00     0.017 A 
ATOM      6  C5  UNL d   1      -0.690  -4.221   1.083  0.00  0.00     0.034 A 
ATOM      7 Cl   UNL d   1      -1.911  -2.674   2.902  0.00  0.00    -0.070 Cl
ATOM      8 Cl1  UNL d   1      -2.752  -0.832   0.354  0.00  0.00    -0.070 Cl
ENDROOT
TORSDOF 0
ENDMDL
