MODEL 1
REMARK minimizedAffinity 13.1024265
REMARK minimizedRMSD -1
REMARK  0 active torsions:
REMARK  status: ('A' for Active; 'I' for Inactive)
ROOT
ATOM      1  C   UNL d   1      -5.397   4.434  -5.986  0.00  0.00     0.020 A 
ATOM      2  C1  UNL d   1      -5.891   5.533  -5.285  0.00  0.00     0.020 A 
ATOM      3  C2  UNL d   1      -5.218   6.000  -4.154  0.00  0.00     0.034 A 
ATOM      4  C3  UNL d   1      -4.047   5.368  -3.720  0.00  0.00     0.017 A 
ATOM      5  C4  UNL d   1      -3.552   4.264  -4.425  0.00  0.00     0.017 A 
ATOM      6  C5  UNL d   1      -4.230   3.801  -5.556  0.00  0.00     0.034 A 
ATOM      7 Cl   UNL d   1      -2.113   3.432  -3.951  0.00  0.00    -0.070 Cl
ATOM      8 Cl1  UNL d   1      -3.266   5.999  -2.314  0.00  0.00    -0.070 Cl
ENDROOT
TORSDOF 0
ENDMDL
