MODEL 1
REMARK minimizedAffinity 16.0748825
REMARK minimizedRMSD -1
REMARK  0 active torsions:
REMARK  status: ('A' for Active; 'I' for Inactive)
ROOT
ATOM      1  C   UNL d   1       3.239   2.550   5.387  0.00  0.00     0.020 A 
ATOM      2  C1  UNL d   1       3.590   3.752   6.000  0.00  0.00     0.020 A 
ATOM      3  C2  UNL d   1       4.116   4.798   5.237  0.00  0.00     0.034 A 
ATOM      4  C3  UNL d   1       4.291   4.643   3.858  0.00  0.00     0.017 A 
ATOM      5  C4  UNL d   1       3.938   3.436   3.243  0.00  0.00     0.017 A 
ATOM      6  C5  UNL d   1       3.413   2.393   4.011  0.00  0.00     0.034 A 
ATOM      7 Cl   UNL d   1       4.126   3.171   1.545  0.00  0.00    -0.070 Cl
ATOM      8 Cl1  UNL d   1       4.946   5.978   2.976  0.00  0.00    -0.070 Cl
ENDROOT
TORSDOF 0
ENDMDL
