MODEL 1
REMARK minimizedAffinity 9.49389648
REMARK minimizedRMSD -1
REMARK  0 active torsions:
REMARK  status: ('A' for Active; 'I' for Inactive)
ROOT
ATOM      1  C   UNL d   1      -1.656  -1.865   0.244  0.00  0.00     0.020 A 
ATOM      2  C1  UNL d   1      -1.018  -2.836  -0.526  0.00  0.00     0.020 A 
ATOM      3  C2  UNL d   1      -0.785  -4.106   0.005  0.00  0.00     0.034 A 
ATOM      4  C3  UNL d   1      -1.190  -4.409   1.311  0.00  0.00     0.017 A 
ATOM      5  C4  UNL d   1      -1.830  -3.433   2.083  0.00  0.00     0.017 A 
ATOM      6  C5  UNL d   1      -2.061  -2.163   1.546  0.00  0.00     0.034 A 
ATOM      7 Cl   UNL d   1      -2.359  -3.732   3.701  0.00  0.00    -0.070 Cl
ATOM      8 Cl1  UNL d   1      -0.869  -6.000   1.903  0.00  0.00    -0.070 Cl
ENDROOT
TORSDOF 0
ENDMDL
