MODEL 1
REMARK minimizedAffinity 11.2146702
REMARK minimizedRMSD -1
REMARK  0 active torsions:
REMARK  status: ('A' for Active; 'I' for Inactive)
ROOT
ATOM      1  C   UNL d   1       2.355   1.632  -1.764  0.00  0.00     0.020 A 
ATOM      2  C1  UNL d   1       2.228   0.529  -0.922  0.00  0.00     0.020 A 
ATOM      3  C2  UNL d   1       2.826   0.542   0.340  0.00  0.00     0.034 A 
ATOM      4  C3  UNL d   1       3.554   1.660   0.763  0.00  0.00     0.017 A 
ATOM      5  C4  UNL d   1       3.681   2.767  -0.083  0.00  0.00     0.017 A 
ATOM      6  C5  UNL d   1       3.080   2.749  -1.346  0.00  0.00     0.034 A 
ATOM      7 Cl   UNL d   1       4.563   4.183   0.368  0.00  0.00    -0.070 Cl
ATOM      8 Cl1  UNL d   1       4.267   1.607   2.336  0.00  0.00    -0.070 Cl
ENDROOT
TORSDOF 0
ENDMDL
