MODEL 1
REMARK minimizedAffinity 10.9317541
REMARK minimizedRMSD -1
REMARK  0 active torsions:
REMARK  status: ('A' for Active; 'I' for Inactive)
ROOT
ATOM      1  C   UNL d   1       4.879   0.040  -3.736  0.00  0.00     0.020 A 
ATOM      2  C1  UNL d   1       5.999   0.847  -3.537  0.00  0.00     0.020 A 
ATOM      3  C2  UNL d   1       5.998   1.803  -2.520  0.00  0.00     0.034 A 
ATOM      4  C3  UNL d   1       4.877   1.954  -1.696  0.00  0.00     0.017 A 
ATOM      5  C4  UNL d   1       3.754   1.144  -1.896  0.00  0.00     0.017 A 
ATOM      6  C5  UNL d   1       3.759   0.188  -2.917  0.00  0.00     0.034 A 
ATOM      7 Cl   UNL d   1       2.332   1.272  -0.921  0.00  0.00    -0.070 Cl
ATOM      8 Cl1  UNL d   1       4.946   3.157  -0.457  0.00  0.00    -0.070 Cl
ENDROOT
TORSDOF 0
ENDMDL
