MODEL 1
REMARK minimizedAffinity 6.76376057
REMARK minimizedRMSD -1
REMARK  0 active torsions:
REMARK  status: ('A' for Active; 'I' for Inactive)
ROOT
ATOM      1  C   UNL d   1      -5.669   4.388  -6.000  0.00  0.00     0.020 A 
ATOM      2  C1  UNL d   1      -5.995   5.523  -5.259  0.00  0.00     0.020 A 
ATOM      3  C2  UNL d   1      -5.117   5.994  -4.280  0.00  0.00     0.034 A 
ATOM      4  C3  UNL d   1      -3.909   5.329  -4.039  0.00  0.00     0.017 A 
ATOM      5  C4  UNL d   1      -3.583   4.189  -4.784  0.00  0.00     0.017 A 
ATOM      6  C5  UNL d   1      -4.465   3.722  -5.763  0.00  0.00     0.034 A 
ATOM      7 Cl   UNL d   1      -2.111   3.316  -4.544  0.00  0.00    -0.070 Cl
ATOM      8 Cl1  UNL d   1      -2.871   5.966  -2.814  0.00  0.00    -0.070 Cl
ENDROOT
TORSDOF 0
ENDMDL
