MODEL 1
REMARK minimizedAffinity 9.94016838
REMARK minimizedRMSD -1
REMARK  0 active torsions:
REMARK  status: ('A' for Active; 'I' for Inactive)
ROOT
ATOM      1  C   UNL d   1      -5.073   2.105   5.911  0.00  0.00     0.020 A 
ATOM      2  C1  UNL d   1      -3.705   2.299   5.718  0.00  0.00     0.020 A 
ATOM      3  C2  UNL d   1      -2.853   1.198   5.609  0.00  0.00     0.034 A 
ATOM      4  C3  UNL d   1      -3.367  -0.101   5.693  0.00  0.00     0.017 A 
ATOM      5  C4  UNL d   1      -4.740  -0.294   5.886  0.00  0.00     0.017 A 
ATOM      6  C5  UNL d   1      -5.589   0.811   5.994  0.00  0.00     0.034 A 
ATOM      7 Cl   UNL d   1      -5.448  -1.867   5.998  0.00  0.00    -0.070 Cl
ATOM      8 Cl1  UNL d   1      -2.256  -1.416   5.549  0.00  0.00    -0.070 Cl
ENDROOT
TORSDOF 0
ENDMDL
