MODEL 1
REMARK minimizedAffinity 4.80998039
REMARK minimizedRMSD -1
REMARK  0 active torsions:
REMARK  status: ('A' for Active; 'I' for Inactive)
ROOT
ATOM      1  C   UNL d   1      -5.014   5.996  -4.956  0.00  0.00     0.020 A 
ATOM      2  C1  UNL d   1      -5.995   5.254  -5.614  0.00  0.00     0.020 A 
ATOM      3  C2  UNL d   1      -5.764   3.913  -5.926  0.00  0.00     0.034 A 
ATOM      4  C3  UNL d   1      -4.549   3.310  -5.581  0.00  0.00     0.017 A 
ATOM      5  C4  UNL d   1      -3.565   4.055  -4.922  0.00  0.00     0.017 A 
ATOM      6  C5  UNL d   1      -3.802   5.398  -4.611  0.00  0.00     0.034 A 
ATOM      7 Cl   UNL d   1      -2.041   3.380  -4.464  0.00  0.00    -0.070 Cl
ATOM      8 Cl1  UNL d   1      -4.331   1.647  -5.998  0.00  0.00    -0.070 Cl
ENDROOT
TORSDOF 0
ENDMDL
