MODEL 1
REMARK minimizedAffinity 2.93144512
REMARK minimizedRMSD -1
REMARK  0 active torsions:
REMARK  status: ('A' for Active; 'I' for Inactive)
ROOT
ATOM      1  C   UNL d   1      -0.618  -0.815  -2.467  0.00  0.00     0.020 A 
ATOM      2  C1  UNL d   1      -1.143  -1.122  -1.213  0.00  0.00     0.020 A 
ATOM      3  C2  UNL d   1      -2.407  -0.652  -0.851  0.00  0.00     0.034 A 
ATOM      4  C3  UNL d   1      -3.150   0.128  -1.745  0.00  0.00     0.017 A 
ATOM      5  C4  UNL d   1      -2.622   0.436  -3.004  0.00  0.00     0.017 A 
ATOM      6  C5  UNL d   1      -1.356  -0.038  -3.361  0.00  0.00     0.034 A 
ATOM      7 Cl   UNL d   1      -3.480   1.393  -4.160  0.00  0.00    -0.070 Cl
ATOM      8 Cl1  UNL d   1      -4.707   0.676  -1.231  0.00  0.00    -0.070 Cl
ENDROOT
TORSDOF 0
ENDMDL
