MODEL 1
REMARK minimizedAffinity 5.12224817
REMARK minimizedRMSD -1
REMARK  0 active torsions:
REMARK  status: ('A' for Active; 'I' for Inactive)
ROOT
ATOM      1  C   UNL d   1      -4.379   5.573  -2.137  0.00  0.00     0.020 A 
ATOM      2  C1  UNL d   1      -5.640   5.998  -1.724  0.00  0.00     0.020 A 
ATOM      3  C2  UNL d   1      -5.982   5.959  -0.370  0.00  0.00     0.034 A 
ATOM      4  C3  UNL d   1      -5.060   5.493   0.575  0.00  0.00     0.017 A 
ATOM      5  C4  UNL d   1      -3.794   5.066   0.159  0.00  0.00     0.017 A 
ATOM      6  C5  UNL d   1      -3.458   5.108  -1.198  0.00  0.00     0.034 A 
ATOM      7 Cl   UNL d   1      -2.604   4.479   1.266  0.00  0.00    -0.070 Cl
ATOM      8 Cl1  UNL d   1      -5.549   5.473   2.232  0.00  0.00    -0.070 Cl
ENDROOT
TORSDOF 0
ENDMDL
