MODEL 1
REMARK minimizedAffinity 20.6664085
REMARK minimizedRMSD -1
REMARK  0 active torsions:
REMARK  status: ('A' for Active; 'I' for Inactive)
ROOT
ATOM      1  C   UNL d   1      -1.497  -1.544  -2.123  0.00  0.00     0.020 A 
ATOM      2  C1  UNL d   1      -0.662  -1.966  -1.089  0.00  0.00     0.020 A 
ATOM      3  C2  UNL d   1      -1.083  -1.856   0.238  0.00  0.00     0.034 A 
ATOM      4  C3  UNL d   1      -2.343  -1.323   0.534  0.00  0.00     0.017 A 
ATOM      5  C4  UNL d   1      -3.181  -0.901  -0.504  0.00  0.00     0.017 A 
ATOM      6  C5  UNL d   1      -2.754  -1.013  -1.831  0.00  0.00     0.034 A 
ATOM      7 Cl   UNL d   1      -4.749  -0.233  -0.217  0.00  0.00    -0.070 Cl
ATOM      8 Cl1  UNL d   1      -2.800  -1.217   2.197  0.00  0.00    -0.070 Cl
ENDROOT
TORSDOF 0
ENDMDL
