MODEL 1
REMARK minimizedAffinity -5.7370286
REMARK minimizedRMSD -1
REMARK  1 active torsions:
REMARK  status: ('A' for Active; 'I' for Inactive)
REMARK    1  A    between atoms: C1_2  and  C2_3 
ROOT
ATOM      1  C2  UNL d   1       0.026  -1.085  -0.090  0.00  0.00    -0.076 A 
ATOM      2  C3  UNL d   1      -0.035  -2.317   0.584  0.00  0.00     0.004 A 
ATOM      3  C4  UNL d   1       0.067  -3.521  -0.112  0.00  0.00    -0.003 A 
ATOM      4  C5  UNL d   1       0.232  -3.512  -1.492  0.00  0.00     0.000 A 
ATOM      5  C6  UNL d   1       0.312  -2.299  -2.175  0.00  0.00     0.000 A 
ATOM      6  C7  UNL d   1       0.228  -1.076  -1.487  0.00  0.00    -0.073 A 
ATOM      7  C8  UNL d   1       0.315   0.203  -2.274  0.00  0.00     0.078 C 
ENDROOT
BRANCH   1   8
ATOM      8  C1  UNL d   1      -0.117   0.188   0.714  0.00  0.00     0.053 C 
ATOM      9  C   UNL d   1      -1.540   0.411   1.203  0.00  0.00     0.018 C 
ENDBRANCH   1   8
TORSDOF 1
ENDMDL
