MODEL 1
REMARK minimizedAffinity -4.74339104
REMARK minimizedRMSD -1
REMARK  1 active torsions:
REMARK  status: ('A' for Active; 'I' for Inactive)
REMARK    1  A    between atoms: C1_2  and  C2_3 
ROOT
ATOM      1  C2  UNL d   1       0.103   1.149  -0.502  0.00  0.00    -0.076 A 
ATOM      2  C3  UNL d   1       0.292   0.787  -1.847  0.00  0.00     0.004 A 
ATOM      3  C4  UNL d   1       0.253  -0.549  -2.243  0.00  0.00    -0.003 A 
ATOM      4  C5  UNL d   1       0.024  -1.544  -1.300  0.00  0.00     0.000 A 
ATOM      5  C6  UNL d   1      -0.184  -1.202   0.035  0.00  0.00     0.000 A 
ATOM      6  C7  UNL d   1      -0.164   0.141   0.449  0.00  0.00    -0.073 A 
ATOM      7  C8  UNL d   1      -0.388   0.452   1.903  0.00  0.00     0.078 C 
ENDROOT
BRANCH   1   8
ATOM      8  C1  UNL d   1       0.183   2.612  -0.128  0.00  0.00     0.053 C 
ATOM      9  C   UNL d   1       1.613   3.076   0.107  0.00  0.00     0.018 C 
ENDBRANCH   1   8
TORSDOF 1
ENDMDL
