MODEL 1
REMARK minimizedAffinity -3.62939072
REMARK minimizedRMSD -1
REMARK  1 active torsions:
REMARK  status: ('A' for Active; 'I' for Inactive)
REMARK    1  A    between atoms: C1_2  and  C2_3 
ROOT
ATOM      1  C2  UNL d   1       0.526  -1.322  -0.437  0.00  0.00    -0.076 A 
ATOM      2  C3  UNL d   1      -0.106  -0.563   0.563  0.00  0.00     0.004 A 
ATOM      3  C4  UNL d   1      -0.686   0.670   0.270  0.00  0.00    -0.003 A 
ATOM      4  C5  UNL d   1      -0.644   1.164  -1.029  0.00  0.00     0.000 A 
ATOM      5  C6  UNL d   1      -0.037   0.417  -2.038  0.00  0.00     0.000 A 
ATOM      6  C7  UNL d   1       0.538  -0.835  -1.762  0.00  0.00    -0.073 A 
ATOM      7  C8  UNL d   1       1.186  -1.595  -2.887  0.00  0.00     0.078 C 
ENDROOT
BRANCH   1   8
ATOM      8  C1  UNL d   1       1.161  -2.639  -0.055  0.00  0.00     0.053 C 
ATOM      9  C   UNL d   1       0.172  -3.794  -0.084  0.00  0.00     0.018 C 
ENDBRANCH   1   8
TORSDOF 1
ENDMDL
