MODEL 1
REMARK minimizedAffinity -3.90320778
REMARK minimizedRMSD -1
REMARK  1 active torsions:
REMARK  status: ('A' for Active; 'I' for Inactive)
REMARK    1  A    between atoms: C1_2  and  C2_3 
ROOT
ATOM      1  C2  UNL d   1      -0.379  -1.291   0.263  0.00  0.00    -0.076 A 
ATOM      2  C3  UNL d   1       0.293  -1.100  -0.957  0.00  0.00     0.004 A 
ATOM      3  C4  UNL d   1       0.560   0.182  -1.436  0.00  0.00    -0.003 A 
ATOM      4  C5  UNL d   1       0.160   1.293  -0.702  0.00  0.00     0.000 A 
ATOM      5  C6  UNL d   1      -0.492   1.123   0.518  0.00  0.00     0.000 A 
ATOM      6  C7  UNL d   1      -0.755  -0.162   1.024  0.00  0.00    -0.073 A 
ATOM      7  C8  UNL d   1      -1.467  -0.288   2.343  0.00  0.00     0.078 C 
ENDROOT
BRANCH   1   8
ATOM      8  C1  UNL d   1      -0.665  -2.703   0.719  0.00  0.00     0.053 C 
ATOM      9  C   UNL d   1       0.394  -3.691   0.254  0.00  0.00     0.018 C 
ENDBRANCH   1   8
TORSDOF 1
ENDMDL
