MODEL 1
REMARK minimizedAffinity -3.93096805
REMARK minimizedRMSD -1
REMARK  1 active torsions:
REMARK  status: ('A' for Active; 'I' for Inactive)
REMARK    1  A    between atoms: C1_2  and  C2_3 
ROOT
ATOM      1  C2  UNL d   1      -0.087   0.245   0.098  0.00  0.00    -0.076 A 
ATOM      2  C3  UNL d   1      -0.979   0.224   1.184  0.00  0.00     0.004 A 
ATOM      3  C4  UNL d   1      -1.307  -0.972   1.821  0.00  0.00    -0.003 A 
ATOM      4  C5  UNL d   1      -0.747  -2.167   1.382  0.00  0.00     0.000 A 
ATOM      5  C6  UNL d   1       0.154  -2.162   0.317  0.00  0.00     0.000 A 
ATOM      6  C7  UNL d   1       0.507  -0.963  -0.325  0.00  0.00    -0.073 A 
ATOM      7  C8  UNL d   1       1.479  -1.018  -1.472  0.00  0.00     0.078 C 
ENDROOT
BRANCH   1   8
ATOM      8  C1  UNL d   1       0.210   1.568  -0.570  0.00  0.00     0.053 C 
ATOM      9  C   UNL d   1       1.322   2.337   0.127  0.00  0.00     0.018 C 
ENDBRANCH   1   8
TORSDOF 1
ENDMDL
