MODEL 1
REMARK minimizedAffinity -3.19952416
REMARK minimizedRMSD -1
REMARK  1 active torsions:
REMARK  status: ('A' for Active; 'I' for Inactive)
REMARK    1  A    between atoms: C1_2  and  C2_3 
ROOT
ATOM      1  C2  UNL d   1      -0.065  -0.205  -0.638  0.00  0.00    -0.076 A 
ATOM      2  C3  UNL d   1      -0.522  -0.436   0.672  0.00  0.00     0.004 A 
ATOM      3  C4  UNL d   1      -0.625  -1.730   1.178  0.00  0.00    -0.003 A 
ATOM      4  C5  UNL d   1      -0.272  -2.816   0.383  0.00  0.00     0.000 A 
ATOM      5  C6  UNL d   1       0.200  -2.604  -0.912  0.00  0.00     0.000 A 
ATOM      6  C7  UNL d   1       0.326  -1.305  -1.432  0.00  0.00    -0.073 A 
ATOM      7  C8  UNL d   1       0.835  -1.135  -2.837  0.00  0.00     0.078 C 
ENDROOT
BRANCH   1   8
ATOM      8  C1  UNL d   1       0.000   1.219  -1.142  0.00  0.00     0.053 C 
ATOM      9  C   UNL d   1       0.226   2.223  -0.022  0.00  0.00     0.018 C 
ENDBRANCH   1   8
TORSDOF 1
ENDMDL
