MODEL 1
REMARK minimizedAffinity -3.96096587
REMARK minimizedRMSD -1
REMARK  1 active torsions:
REMARK  status: ('A' for Active; 'I' for Inactive)
REMARK    1  A    between atoms: C1_2  and  C2_3 
ROOT
ATOM      1  C2  UNL d   1       0.140  -1.170  -0.457  0.00  0.00    -0.076 A 
ATOM      2  C3  UNL d   1       0.453  -1.438  -1.801  0.00  0.00     0.004 A 
ATOM      3  C4  UNL d   1       0.287  -2.715  -2.335  0.00  0.00    -0.003 A 
ATOM      4  C5  UNL d   1      -0.195  -3.744  -1.533  0.00  0.00     0.000 A 
ATOM      5  C6  UNL d   1      -0.526  -3.492  -0.203  0.00  0.00     0.000 A 
ATOM      6  C7  UNL d   1      -0.381  -2.207   0.347  0.00  0.00    -0.073 A 
ATOM      7  C8  UNL d   1      -0.748  -1.993   1.790  0.00  0.00     0.078 C 
ENDROOT
BRANCH   1   8
ATOM      8  C1  UNL d   1       0.366   0.227   0.074  0.00  0.00     0.053 C 
ATOM      9  C   UNL d   1      -0.776   1.172  -0.265  0.00  0.00     0.018 C 
ENDBRANCH   1   8
TORSDOF 1
ENDMDL
