MODEL 1
REMARK minimizedAffinity -3.93430352
REMARK minimizedRMSD -1
REMARK  1 active torsions:
REMARK  status: ('A' for Active; 'I' for Inactive)
REMARK    1  A    between atoms: C1_2  and  C2_3 
ROOT
ATOM      1  C2  UNL d   1      -0.485   0.075   0.074  0.00  0.00    -0.076 A 
ATOM      2  C3  UNL d   1      -0.775   0.160   1.446  0.00  0.00     0.004 A 
ATOM      3  C4  UNL d   1      -0.943  -0.990   2.217  0.00  0.00    -0.003 A 
ATOM      4  C5  UNL d   1      -0.823  -2.243   1.626  0.00  0.00     0.000 A 
ATOM      5  C6  UNL d   1      -0.518  -2.346   0.270  0.00  0.00     0.000 A 
ATOM      6  C7  UNL d   1      -0.329  -1.197  -0.518  0.00  0.00    -0.073 A 
ATOM      7  C8  UNL d   1      -0.008  -1.367  -1.977  0.00  0.00     0.078 C 
ENDROOT
BRANCH   1   8
ATOM      8  C1  UNL d   1      -0.340   1.356  -0.717  0.00  0.00     0.053 C 
ATOM      9  C   UNL d   1       0.387   2.442   0.062  0.00  0.00     0.018 C 
ENDBRANCH   1   8
TORSDOF 1
ENDMDL
