MODEL 1
REMARK minimizedAffinity -6.65245295
REMARK minimizedRMSD -1
REMARK  1 active torsions:
REMARK  status: ('A' for Active; 'I' for Inactive)
REMARK    1  A    between atoms: C1_2  and  C2_3 
ROOT
ATOM      1  C2  UNL d   1      -0.279  -0.379  -0.616  0.00  0.00    -0.076 A 
ATOM      2  C3  UNL d   1       0.146  -0.684  -1.921  0.00  0.00     0.004 A 
ATOM      3  C4  UNL d   1       0.275  -2.006  -2.343  0.00  0.00    -0.003 A 
ATOM      4  C5  UNL d   1      -0.019  -3.045  -1.467  0.00  0.00     0.000 A 
ATOM      5  C6  UNL d   1      -0.459  -2.761  -0.175  0.00  0.00     0.000 A 
ATOM      6  C7  UNL d   1      -0.611  -1.433   0.261  0.00  0.00    -0.073 A 
ATOM      7  C8  UNL d   1      -1.083  -1.185   1.668  0.00  0.00     0.078 C 
ENDROOT
BRANCH   1   8
ATOM      8  C1  UNL d   1      -0.375   1.073  -0.206  0.00  0.00     0.053 C 
ATOM      9  C   UNL d   1       0.991   1.716  -0.018  0.00  0.00     0.018 C 
ENDBRANCH   1   8
TORSDOF 1
ENDMDL
