MODEL 1
REMARK minimizedAffinity -5.49427128
REMARK minimizedRMSD -1
REMARK  1 active torsions:
REMARK  status: ('A' for Active; 'I' for Inactive)
REMARK    1  A    between atoms: C1_2  and  C2_3 
ROOT
ATOM      1  C2  UNL d   1      -0.182  -0.299  -0.282  0.00  0.00    -0.076 A 
ATOM      2  C3  UNL d   1       0.497  -1.114  -1.204  0.00  0.00     0.004 A 
ATOM      3  C4  UNL d   1       0.579  -2.493  -1.017  0.00  0.00    -0.003 A 
ATOM      4  C5  UNL d   1      -0.018  -3.079   0.094  0.00  0.00     0.000 A 
ATOM      5  C6  UNL d   1      -0.711  -2.287   1.009  0.00  0.00     0.000 A 
ATOM      6  C7  UNL d   1      -0.817  -0.898   0.827  0.00  0.00    -0.073 A 
ATOM      7  C8  UNL d   1      -1.572  -0.091   1.848  0.00  0.00     0.078 C 
ENDROOT
BRANCH   1   8
ATOM      8  C1  UNL d   1      -0.215   1.194  -0.523  0.00  0.00     0.053 C 
ATOM      9  C   UNL d   1       1.093   1.873  -0.146  0.00  0.00     0.018 C 
ENDBRANCH   1   8
TORSDOF 1
ENDMDL
