MODEL 1
REMARK minimizedAffinity -4.43343782
REMARK minimizedRMSD -1
REMARK  0 active torsions:
REMARK  status: ('A' for Active; 'I' for Inactive)
ROOT
ATOM      1  C1  BNZ d   1       2.037  -0.199  -2.549  0.00  0.00     0.000 A 
ATOM      2  C2  BNZ d   1       1.352   0.944  -2.232  0.00  0.00     0.000 A 
ATOM      3  C3  BNZ d   1       0.505   0.978  -1.160  0.00  0.00     0.000 A 
ATOM      4  C4  BNZ d   1       0.315  -0.140  -0.430  0.00  0.00     0.000 A 
ATOM      5  C5  BNZ d   1       0.991  -1.302  -0.742  0.00  0.00     0.000 A 
ATOM      6  C6  BNZ d   1       1.872  -1.322  -1.799  0.00  0.00     0.000 A 
ENDROOT
TORSDOF 0
ENDMDL
