MODEL 1
REMARK minimizedAffinity -2.17992306
REMARK minimizedRMSD -1
REMARK  0 active torsions:
REMARK  status: ('A' for Active; 'I' for Inactive)
ROOT
ATOM      1  C1  BNZ d   1       1.397  -2.217  -0.921  0.00  0.00     0.000 A 
ATOM      2  C2  BNZ d   1       2.483  -2.044  -1.737  0.00  0.00     0.000 A 
ATOM      3  C3  BNZ d   1       2.830  -0.800  -2.186  0.00  0.00     0.000 A 
ATOM      4  C4  BNZ d   1       2.068   0.262  -1.853  0.00  0.00     0.000 A 
ATOM      5  C5  BNZ d   1       0.964   0.102  -1.038  0.00  0.00     0.000 A 
ATOM      6  C6  BNZ d   1       0.641  -1.146  -0.556  0.00  0.00     0.000 A 
ENDROOT
TORSDOF 0
ENDMDL
