MODEL 1
REMARK minimizedAffinity -2.10313964
REMARK minimizedRMSD -1
REMARK  0 active torsions:
REMARK  status: ('A' for Active; 'I' for Inactive)
ROOT
ATOM      1  C1  BNZ d   1       1.502  -1.078  -0.924  0.00  0.00     0.000 A 
ATOM      2  C2  BNZ d   1       2.024   0.122  -1.326  0.00  0.00     0.000 A 
ATOM      3  C3  BNZ d   1       1.427   1.299  -0.970  0.00  0.00     0.000 A 
ATOM      4  C4  BNZ d   1       0.288   1.273  -0.248  0.00  0.00     0.000 A 
ATOM      5  C5  BNZ d   1      -0.256   0.071   0.156  0.00  0.00     0.000 A 
ATOM      6  C6  BNZ d   1       0.369  -1.111  -0.171  0.00  0.00     0.000 A 
ENDROOT
TORSDOF 0
ENDMDL
