MODEL 1
REMARK minimizedAffinity -0.833630383
REMARK minimizedRMSD -1
REMARK  0 active torsions:
REMARK  status: ('A' for Active; 'I' for Inactive)
ROOT
ATOM      1  C1  BNZ d   1       0.380  -1.151   0.412  0.00  0.00     0.000 A 
ATOM      2  C2  BNZ d   1       1.201  -0.216  -0.161  0.00  0.00     0.000 A 
ATOM      3  C3  BNZ d   1       0.813   1.091  -0.257  0.00  0.00     0.000 A 
ATOM      4  C4  BNZ d   1      -0.410   1.454   0.182  0.00  0.00     0.000 A 
ATOM      5  C5  BNZ d   1      -1.253   0.522   0.754  0.00  0.00     0.000 A 
ATOM      6  C6  BNZ d   1      -0.843  -0.786   0.884  0.00  0.00     0.000 A 
ENDROOT
TORSDOF 0
ENDMDL
