MODEL 1
REMARK minimizedAffinity -3.91037703
REMARK minimizedRMSD -1
REMARK  0 active torsions:
REMARK  status: ('A' for Active; 'I' for Inactive)
ROOT
ATOM      1  C1  BNZ d   1       0.444   1.263   0.159  0.00  0.00     0.000 A 
ATOM      2  C2  BNZ d   1      -0.765   0.895  -0.368  0.00  0.00     0.000 A 
ATOM      3  C3  BNZ d   1      -1.766   0.428   0.436  0.00  0.00     0.000 A 
ATOM      4  C4  BNZ d   1      -1.545   0.292   1.760  0.00  0.00     0.000 A 
ATOM      5  C5  BNZ d   1      -0.328   0.651   2.305  0.00  0.00     0.000 A 
ATOM      6  C6  BNZ d   1       0.664   1.157   1.498  0.00  0.00     0.000 A 
ENDROOT
TORSDOF 0
ENDMDL
