MODEL 1
REMARK minimizedAffinity -4.42548704
REMARK minimizedRMSD -1
REMARK  0 active torsions:
REMARK  status: ('A' for Active; 'I' for Inactive)
ROOT
ATOM      1  C1  BNZ d   1       0.907   1.534  -0.410  0.00  0.00     0.000 A 
ATOM      2  C2  BNZ d   1       1.953   1.169  -1.215  0.00  0.00     0.000 A 
ATOM      3  C3  BNZ d   1       1.816   0.158  -2.125  0.00  0.00     0.000 A 
ATOM      4  C4  BNZ d   1       0.649  -0.513  -2.200  0.00  0.00     0.000 A 
ATOM      5  C5  BNZ d   1      -0.412  -0.163  -1.388  0.00  0.00     0.000 A 
ATOM      6  C6  BNZ d   1      -0.283   0.881  -0.501  0.00  0.00     0.000 A 
ENDROOT
TORSDOF 0
ENDMDL
