MODEL 1
REMARK minimizedAffinity -3.37899256
REMARK minimizedRMSD -1
REMARK  0 active torsions:
REMARK  status: ('A' for Active; 'I' for Inactive)
ROOT
ATOM      1  C1  BNZ d   1       0.503   0.617  -1.269  0.00  0.00     0.000 A 
ATOM      2  C2  BNZ d   1      -0.330   0.808  -0.198  0.00  0.00     0.000 A 
ATOM      3  C3  BNZ d   1      -0.735  -0.248   0.569  0.00  0.00     0.000 A 
ATOM      4  C4  BNZ d   1      -0.341  -1.495   0.242  0.00  0.00     0.000 A 
ATOM      5  C5  BNZ d   1       0.491  -1.705  -0.839  0.00  0.00     0.000 A 
ATOM      6  C6  BNZ d   1       0.929  -0.635  -1.587  0.00  0.00     0.000 A 
ENDROOT
TORSDOF 0
ENDMDL
