MODEL 1
REMARK minimizedAffinity -4.70317602
REMARK minimizedRMSD -1
REMARK  0 active torsions:
REMARK  status: ('A' for Active; 'I' for Inactive)
ROOT
ATOM      1  C1  BNZ d   1       0.594   1.320  -1.005  0.00  0.00     0.000 A 
ATOM      2  C2  BNZ d   1      -0.169   0.374  -0.375  0.00  0.00     0.000 A 
ATOM      3  C3  BNZ d   1      -0.068  -0.947  -0.713  0.00  0.00     0.000 A 
ATOM      4  C4  BNZ d   1       0.765  -1.314  -1.708  0.00  0.00     0.000 A 
ATOM      5  C5  BNZ d   1       1.534  -0.371  -2.360  0.00  0.00     0.000 A 
ATOM      6  C6  BNZ d   1       1.458   0.953  -1.990  0.00  0.00     0.000 A 
ENDROOT
TORSDOF 0
ENDMDL
