MODEL 1
REMARK minimizedAffinity -2.81801033
REMARK minimizedRMSD -1
REMARK  0 active torsions:
REMARK  status: ('A' for Active; 'I' for Inactive)
ROOT
ATOM      1  C1  BNZ d   1      -0.206  -1.173   1.162  0.00  0.00     0.000 A 
ATOM      2  C2  BNZ d   1       0.089  -1.801  -0.018  0.00  0.00     0.000 A 
ATOM      3  C3  BNZ d   1      -0.193  -1.206  -1.217  0.00  0.00     0.000 A 
ATOM      4  C4  BNZ d   1      -0.804  -0.004  -1.233  0.00  0.00     0.000 A 
ATOM      5  C5  BNZ d   1      -1.116   0.638  -0.051  0.00  0.00     0.000 A 
ATOM      6  C6  BNZ d   1      -0.795   0.054   1.153  0.00  0.00     0.000 A 
ENDROOT
TORSDOF 0
ENDMDL
