MODEL 1
REMARK minimizedAffinity -2.3208282
REMARK minimizedRMSD -1
REMARK  0 active torsions:
REMARK  status: ('A' for Active; 'I' for Inactive)
ROOT
ATOM      1  C1  BNZ d   1      -3.504   4.079  -5.925  0.00  0.00     0.000 A 
ATOM      2  C2  BNZ d   1      -4.624   3.292  -5.941  0.00  0.00     0.000 A 
ATOM      3  C3  BNZ d   1      -5.871   3.850  -5.998  0.00  0.00     0.000 A 
ATOM      4  C4  BNZ d   1      -5.996   5.193  -5.999  0.00  0.00     0.000 A 
ATOM      5  C5  BNZ d   1      -4.876   6.000  -5.973  0.00  0.00     0.000 A 
ATOM      6  C6  BNZ d   1      -3.622   5.434  -5.955  0.00  0.00     0.000 A 
ENDROOT
TORSDOF 0
ENDMDL
