MODEL 1
REMARK minimizedAffinity -1.62725866
REMARK minimizedRMSD -1
REMARK  0 active torsions:
REMARK  status: ('A' for Active; 'I' for Inactive)
ROOT
ATOM      1  C1  BNZ d   1      -0.408  -0.892   0.763  0.00  0.00     0.000 A 
ATOM      2  C2  BNZ d   1       0.680  -0.467   0.048  0.00  0.00     0.000 A 
ATOM      3  C3  BNZ d   1       0.805   0.843  -0.323  0.00  0.00     0.000 A 
ATOM      4  C4  BNZ d   1      -0.175   1.716  -0.014  0.00  0.00     0.000 A 
ATOM      5  C5  BNZ d   1      -1.282   1.301   0.699  0.00  0.00     0.000 A 
ATOM      6  C6  BNZ d   1      -1.386  -0.010   1.104  0.00  0.00     0.000 A 
ENDROOT
TORSDOF 0
ENDMDL
