MODEL 1
REMARK minimizedAffinity -1.78265464
REMARK minimizedRMSD -1
REMARK  0 active torsions:
REMARK  status: ('A' for Active; 'I' for Inactive)
ROOT
ATOM      1  C1  BNZ d   1      -0.037  -1.491   0.805  0.00  0.00     0.000 A 
ATOM      2  C2  BNZ d   1       0.431  -1.980  -0.385  0.00  0.00     0.000 A 
ATOM      3  C3  BNZ d   1       0.466  -1.190  -1.501  0.00  0.00     0.000 A 
ATOM      4  C4  BNZ d   1      -0.003   0.072  -1.434  0.00  0.00     0.000 A 
ATOM      5  C5  BNZ d   1      -0.487   0.577  -0.243  0.00  0.00     0.000 A 
ATOM      6  C6  BNZ d   1      -0.484  -0.209   0.887  0.00  0.00     0.000 A 
ENDROOT
TORSDOF 0
ENDMDL
