MODEL 1
REMARK minimizedAffinity -1.07171941
REMARK minimizedRMSD -1
REMARK  0 active torsions:
REMARK  status: ('A' for Active; 'I' for Inactive)
ROOT
ATOM      1  C1  BNZ d   1      -3.076   0.749   0.115  0.00  0.00     0.000 A 
ATOM      2  C2  BNZ d   1      -1.905   0.271  -0.410  0.00  0.00     0.000 A 
ATOM      3  C3  BNZ d   1      -0.878  -0.115   0.405  0.00  0.00     0.000 A 
ATOM      4  C4  BNZ d   1      -1.008   0.016   1.741  0.00  0.00     0.000 A 
ATOM      5  C5  BNZ d   1      -2.179   0.505   2.286  0.00  0.00     0.000 A 
ATOM      6  C6  BNZ d   1      -3.225   0.855   1.463  0.00  0.00     0.000 A 
ENDROOT
TORSDOF 0
ENDMDL
