MODEL 1
REMARK minimizedAffinity -3.11035204
REMARK minimizedRMSD -1
REMARK  0 active torsions:
REMARK  status: ('A' for Active; 'I' for Inactive)
ROOT
ATOM      1  C1  BNZ d   1      -2.684   1.097   0.861  0.00  0.00     0.000 A 
ATOM      2  C2  BNZ d   1      -1.977   1.498  -0.241  0.00  0.00     0.000 A 
ATOM      3  C3  BNZ d   1      -0.754   0.956  -0.522  0.00  0.00     0.000 A 
ATOM      4  C4  BNZ d   1      -0.223   0.046   0.319  0.00  0.00     0.000 A 
ATOM      5  C5  BNZ d   1      -0.919  -0.362   1.439  0.00  0.00     0.000 A 
ATOM      6  C6  BNZ d   1      -2.167   0.157   1.698  0.00  0.00     0.000 A 
ENDROOT
TORSDOF 0
ENDMDL
