MODEL 1
REMARK minimizedAffinity -4.42097044
REMARK minimizedRMSD -1
REMARK  0 active torsions:
REMARK  status: ('A' for Active; 'I' for Inactive)
ROOT
ATOM      1  C1  BNZ d   1       0.526   0.797  -1.555  0.00  0.00     0.000 A 
ATOM      2  C2  BNZ d   1       1.479   0.830  -2.538  0.00  0.00     0.000 A 
ATOM      3  C3  BNZ d   1       2.207  -0.286  -2.845  0.00  0.00     0.000 A 
ATOM      4  C4  BNZ d   1       2.010  -1.420  -2.142  0.00  0.00     0.000 A 
ATOM      5  C5  BNZ d   1       1.059  -1.466  -1.141  0.00  0.00     0.000 A 
ATOM      6  C6  BNZ d   1       0.301  -0.352  -0.862  0.00  0.00     0.000 A 
ENDROOT
TORSDOF 0
ENDMDL
