MODEL 1
REMARK minimizedAffinity -2.88905287
REMARK minimizedRMSD -1
REMARK  0 active torsions:
REMARK  status: ('A' for Active; 'I' for Inactive)
ROOT
ATOM      1  C1  BNZ d   1       1.712   0.236  -1.286  0.00  0.00     0.000 A 
ATOM      2  C2  BNZ d   1       0.677  -0.479  -0.745  0.00  0.00     0.000 A 
ATOM      3  C3  BNZ d   1      -0.345   0.154  -0.094  0.00  0.00     0.000 A 
ATOM      4  C4  BNZ d   1      -0.310   1.494   0.050  0.00  0.00     0.000 A 
ATOM      5  C5  BNZ d   1       0.731   2.228  -0.481  0.00  0.00     0.000 A 
ATOM      6  C6  BNZ d   1       1.738   1.592  -1.170  0.00  0.00     0.000 A 
ENDROOT
TORSDOF 0
ENDMDL
