MODEL 1
REMARK minimizedAffinity 4.96425819
REMARK minimizedRMSD -1
REMARK  0 active torsions:
REMARK  status: ('A' for Active; 'I' for Inactive)
ROOT
ATOM      1  C1  BNZ d   1      -5.756  -3.634   3.207  0.00  0.00     0.000 A 
ATOM      2  C2  BNZ d   1      -5.603  -3.668   1.846  0.00  0.00     0.000 A 
ATOM      3  C3  BNZ d   1      -5.672  -4.850   1.163  0.00  0.00     0.000 A 
ATOM      4  C4  BNZ d   1      -5.854  -6.000   1.845  0.00  0.00     0.000 A 
ATOM      5  C5  BNZ d   1      -6.000  -5.983   3.218  0.00  0.00     0.000 A 
ATOM      6  C6  BNZ d   1      -5.969  -4.787   3.897  0.00  0.00     0.000 A 
ENDROOT
TORSDOF 0
ENDMDL
