MODEL 1
REMARK minimizedAffinity 2.7054503
REMARK minimizedRMSD -1
REMARK  0 active torsions:
REMARK  status: ('A' for Active; 'I' for Inactive)
ROOT
ATOM      1  C1  BNZ d   1      -0.053  -2.030   2.300  0.00  0.00     0.000 A 
ATOM      2  C2  BNZ d   1      -1.126  -1.613   1.559  0.00  0.00     0.000 A 
ATOM      3  C3  BNZ d   1      -1.977  -0.656   2.036  0.00  0.00     0.000 A 
ATOM      4  C4  BNZ d   1      -1.778  -0.147   3.269  0.00  0.00     0.000 A 
ATOM      5  C5  BNZ d   1      -0.706  -0.564   4.033  0.00  0.00     0.000 A 
ATOM      6  C6  BNZ d   1       0.171  -1.499   3.533  0.00  0.00     0.000 A 
ENDROOT
TORSDOF 0
ENDMDL
