MODEL 1
REMARK minimizedAffinity 4.62014771
REMARK minimizedRMSD -1
REMARK  0 active torsions:
REMARK  status: ('A' for Active; 'I' for Inactive)
ROOT
ATOM      1  C1  BNZ d   1       0.017  -2.611   1.749  0.00  0.00     0.000 A 
ATOM      2  C2  BNZ d   1       1.042  -3.154   2.477  0.00  0.00     0.000 A 
ATOM      3  C3  BNZ d   1       1.429  -2.597   3.664  0.00  0.00     0.000 A 
ATOM      4  C4  BNZ d   1       0.819  -1.477   4.102  0.00  0.00     0.000 A 
ATOM      5  C5  BNZ d   1      -0.210  -0.912   3.375  0.00  0.00     0.000 A 
ATOM      6  C6  BNZ d   1      -0.623  -1.497   2.200  0.00  0.00     0.000 A 
ENDROOT
TORSDOF 0
ENDMDL
