MODEL 1
REMARK minimizedAffinity -0.601973772
REMARK minimizedRMSD -1
REMARK  0 active torsions:
REMARK  status: ('A' for Active; 'I' for Inactive)
ROOT
ATOM      1  C1  BNZ d   1       2.192   6.000  -2.629  0.00  0.00     0.000 A 
ATOM      2  C2  BNZ d   1       1.627   4.875  -3.169  0.00  0.00     0.000 A 
ATOM      3  C3  BNZ d   1       2.353   3.725  -3.309  0.00  0.00     0.000 A 
ATOM      4  C4  BNZ d   1       3.652   3.713  -2.949  0.00  0.00     0.000 A 
ATOM      5  C5  BNZ d   1       4.239   4.842  -2.412  0.00  0.00     0.000 A 
ATOM      6  C6  BNZ d   1       3.495   5.986  -2.236  0.00  0.00     0.000 A 
ENDROOT
TORSDOF 0
ENDMDL
