MODEL 1
REMARK minimizedAffinity 3.8119278
REMARK minimizedRMSD -1
REMARK  0 active torsions:
REMARK  status: ('A' for Active; 'I' for Inactive)
ROOT
ATOM      1  C1  BNZ d   1      -5.997  -4.825   3.262  0.00  0.00     0.000 A 
ATOM      2  C2  BNZ d   1      -5.994  -5.999   3.967  0.00  0.00     0.000 A 
ATOM      3  C3  BNZ d   1      -5.986  -5.995   5.334  0.00  0.00     0.000 A 
ATOM      4  C4  BNZ d   1      -5.942  -4.819   5.992  0.00  0.00     0.000 A 
ATOM      5  C5  BNZ d   1      -5.936  -3.627   5.296  0.00  0.00     0.000 A 
ATOM      6  C6  BNZ d   1      -5.983  -3.635   3.920  0.00  0.00     0.000 A 
ENDROOT
TORSDOF 0
ENDMDL
