MODEL 1
REMARK minimizedAffinity 7.98962975
REMARK minimizedRMSD -1
REMARK  0 active torsions:
REMARK  status: ('A' for Active; 'I' for Inactive)
ROOT
ATOM      1  C1  BNZ d   1      -0.581  -0.781   3.819  0.00  0.00     0.000 A 
ATOM      2  C2  BNZ d   1      -0.883  -1.012   2.503  0.00  0.00     0.000 A 
ATOM      3  C3  BNZ d   1      -0.276  -2.023   1.813  0.00  0.00     0.000 A 
ATOM      4  C4  BNZ d   1       0.660  -2.776   2.427  0.00  0.00     0.000 A 
ATOM      5  C5  BNZ d   1       0.982  -2.550   3.750  0.00  0.00     0.000 A 
ATOM      6  C6  BNZ d   1       0.340  -1.556   4.453  0.00  0.00     0.000 A 
ENDROOT
TORSDOF 0
ENDMDL
