MODEL 1
REMARK minimizedAffinity 6.25043917
REMARK minimizedRMSD -1
REMARK  0 active torsions:
REMARK  status: ('A' for Active; 'I' for Inactive)
ROOT
ATOM      1  C1  BNZ d   1       2.731   1.000  -1.323  0.00  0.00     0.000 A 
ATOM      2  C2  BNZ d   1       2.332   1.316  -2.594  0.00  0.00     0.000 A 
ATOM      3  C3  BNZ d   1       2.714   2.492  -3.176  0.00  0.00     0.000 A 
ATOM      4  C4  BNZ d   1       3.460   3.368  -2.473  0.00  0.00     0.000 A 
ATOM      5  C5  BNZ d   1       3.863   3.069  -1.187  0.00  0.00     0.000 A 
ATOM      6  C6  BNZ d   1       3.509   1.867  -0.618  0.00  0.00     0.000 A 
ENDROOT
TORSDOF 0
ENDMDL
