MODEL 1
REMARK minimizedAffinity -0.0446380265
REMARK minimizedRMSD -1
REMARK  0 active torsions:
REMARK  status: ('A' for Active; 'I' for Inactive)
ROOT
ATOM      1  C1  BNZ d   1      -5.595  -3.564   3.455  0.00  0.00     0.000 A 
ATOM      2  C2  BNZ d   1      -5.991  -4.686   4.133  0.00  0.00     0.000 A 
ATOM      3  C3  BNZ d   1      -6.000  -5.908   3.520  0.00  0.00     0.000 A 
ATOM      4  C4  BNZ d   1      -5.651  -6.000   2.221  0.00  0.00     0.000 A 
ATOM      5  C5  BNZ d   1      -5.258  -4.876   1.521  0.00  0.00     0.000 A 
ATOM      6  C6  BNZ d   1      -5.214  -3.655   2.152  0.00  0.00     0.000 A 
ENDROOT
TORSDOF 0
ENDMDL
