MODEL 1
REMARK minimizedAffinity 6.87537289
REMARK minimizedRMSD -1
REMARK  0 active torsions:
REMARK  status: ('A' for Active; 'I' for Inactive)
ROOT
ATOM      1  C1  BNZ d   1      -2.253   0.706   1.353  0.00  0.00     0.000 A 
ATOM      2  C2  BNZ d   1      -3.371   0.271   0.693  0.00  0.00     0.000 A 
ATOM      3  C3  BNZ d   1      -3.501  -1.039   0.325  0.00  0.00     0.000 A 
ATOM      4  C4  BNZ d   1      -2.497  -1.902   0.580  0.00  0.00     0.000 A 
ATOM      5  C5  BNZ d   1      -1.359  -1.477   1.237  0.00  0.00     0.000 A 
ATOM      6  C6  BNZ d   1      -1.248  -0.166   1.641  0.00  0.00     0.000 A 
ENDROOT
TORSDOF 0
ENDMDL
