MODEL 1
REMARK minimizedAffinity 2.68110585
REMARK minimizedRMSD -1
REMARK  0 active torsions:
REMARK  status: ('A' for Active; 'I' for Inactive)
ROOT
ATOM      1  C1  BNZ d   1      -4.133   3.195   4.513  0.00  0.00     0.000 A 
ATOM      2  C2  BNZ d   1      -4.096   1.828   4.571  0.00  0.00     0.000 A 
ATOM      3  C3  BNZ d   1      -5.020   1.133   5.300  0.00  0.00     0.000 A 
ATOM      4  C4  BNZ d   1      -5.955   1.807   6.000  0.00  0.00     0.000 A 
ATOM      5  C5  BNZ d   1      -6.000   3.187   5.958  0.00  0.00     0.000 A 
ATOM      6  C6  BNZ d   1      -5.091   3.881   5.193  0.00  0.00     0.000 A 
ENDROOT
TORSDOF 0
ENDMDL
