MODEL 1
REMARK minimizedAffinity 0.830742002
REMARK minimizedRMSD -1
REMARK  0 active torsions:
REMARK  status: ('A' for Active; 'I' for Inactive)
ROOT
ATOM      1  C1  BNZ d   1      -2.502  -0.028   0.498  0.00  0.00     0.000 A 
ATOM      2  C2  BNZ d   1      -3.160   0.628   1.503  0.00  0.00     0.000 A 
ATOM      3  C3  BNZ d   1      -2.841   0.403   2.813  0.00  0.00     0.000 A 
ATOM      4  C4  BNZ d   1      -1.893  -0.507   3.117  0.00  0.00     0.000 A 
ATOM      5  C5  BNZ d   1      -1.227  -1.185   2.115  0.00  0.00     0.000 A 
ATOM      6  C6  BNZ d   1      -1.524  -0.927   0.797  0.00  0.00     0.000 A 
ENDROOT
TORSDOF 0
ENDMDL
