MODEL 1
REMARK minimizedAffinity 3.19211936
REMARK minimizedRMSD -1
REMARK  0 active torsions:
REMARK  status: ('A' for Active; 'I' for Inactive)
ROOT
ATOM      1  C1  BNZ d   1      -5.245  -3.937   1.974  0.00  0.00     0.000 A 
ATOM      2  C2  BNZ d   1      -5.607  -5.255   1.878  0.00  0.00     0.000 A 
ATOM      3  C3  BNZ d   1      -6.000  -5.955   2.984  0.00  0.00     0.000 A 
ATOM      4  C4  BNZ d   1      -5.993  -5.350   4.189  0.00  0.00     0.000 A 
ATOM      5  C5  BNZ d   1      -5.623  -4.025   4.304  0.00  0.00     0.000 A 
ATOM      6  C6  BNZ d   1      -5.265  -3.312   3.183  0.00  0.00     0.000 A 
ENDROOT
TORSDOF 0
ENDMDL
