MODEL 1
REMARK minimizedAffinity 7.34897709
REMARK minimizedRMSD -1
REMARK  0 active torsions:
REMARK  status: ('A' for Active; 'I' for Inactive)
ROOT
ATOM      1  C1  BNZ d   1      -1.019  -1.989   3.399  0.00  0.00     0.000 A 
ATOM      2  C2  BNZ d   1      -1.613  -2.474   2.264  0.00  0.00     0.000 A 
ATOM      3  C3  BNZ d   1      -1.129  -2.151   1.027  0.00  0.00     0.000 A 
ATOM      4  C4  BNZ d   1      -0.078  -1.312   0.926  0.00  0.00     0.000 A 
ATOM      5  C5  BNZ d   1       0.526  -0.807   2.060  0.00  0.00     0.000 A 
ATOM      6  C6  BNZ d   1       0.060  -1.165   3.304  0.00  0.00     0.000 A 
ENDROOT
TORSDOF 0
ENDMDL
