MODEL 1
REMARK minimizedAffinity -0.738260329
REMARK minimizedRMSD -1
REMARK  0 active torsions:
REMARK  status: ('A' for Active; 'I' for Inactive)
ROOT
ATOM      1  C1  BNZ d   1      -5.239  -3.717   3.278  0.00  0.00     0.000 A 
ATOM      2  C2  BNZ d   1      -5.339  -3.695   4.644  0.00  0.00     0.000 A 
ATOM      3  C3  BNZ d   1      -5.677  -4.823   5.339  0.00  0.00     0.000 A 
ATOM      4  C4  BNZ d   1      -5.954  -5.958   4.666  0.00  0.00     0.000 A 
ATOM      5  C5  BNZ d   1      -5.867  -5.993   3.288  0.00  0.00     0.000 A 
ATOM      6  C6  BNZ d   1      -5.488  -4.867   2.595  0.00  0.00     0.000 A 
ENDROOT
TORSDOF 0
ENDMDL
