MODEL 1
REMARK minimizedAffinity 10.5961733
REMARK minimizedRMSD -1
REMARK  0 active torsions:
REMARK  status: ('A' for Active; 'I' for Inactive)
ROOT
ATOM      1  C1  BNZ d   1      -0.025  -4.131  -4.482  0.00  0.00     0.000 A 
ATOM      2  C2  BNZ d   1       0.110  -4.929  -5.586  0.00  0.00     0.000 A 
ATOM      3  C3  BNZ d   1      -0.849  -5.849  -5.908  0.00  0.00     0.000 A 
ATOM      4  C4  BNZ d   1      -1.921  -5.997  -5.103  0.00  0.00     0.000 A 
ATOM      5  C5  BNZ d   1      -2.068  -5.206  -3.981  0.00  0.00     0.000 A 
ATOM      6  C6  BNZ d   1      -1.120  -4.255  -3.682  0.00  0.00     0.000 A 
ENDROOT
TORSDOF 0
ENDMDL
