MODEL 1
REMARK minimizedAffinity 7.28322315
REMARK minimizedRMSD -1
REMARK  0 active torsions:
REMARK  status: ('A' for Active; 'I' for Inactive)
ROOT
ATOM      1  C1  BNZ d   1      -5.631  -3.639   3.530  0.00  0.00     0.000 A 
ATOM      2  C2  BNZ d   1      -5.974  -4.806   4.159  0.00  0.00     0.000 A 
ATOM      3  C3  BNZ d   1      -5.999  -5.989   3.474  0.00  0.00     0.000 A 
ATOM      4  C4  BNZ d   1      -5.720  -5.998   2.155  0.00  0.00     0.000 A 
ATOM      5  C5  BNZ d   1      -5.381  -4.828   1.504  0.00  0.00     0.000 A 
ATOM      6  C6  BNZ d   1      -5.319  -3.645   2.205  0.00  0.00     0.000 A 
ENDROOT
TORSDOF 0
ENDMDL
