MODEL 1
REMARK minimizedAffinity 3.4114852
REMARK minimizedRMSD -1
REMARK  0 active torsions:
REMARK  status: ('A' for Active; 'I' for Inactive)
ROOT
ATOM      1  C1  BNZ d   1      -0.336  -3.474   0.845  0.00  0.00     0.000 A 
ATOM      2  C2  BNZ d   1      -1.086  -2.339   0.688  0.00  0.00     0.000 A 
ATOM      3  C3  BNZ d   1      -0.708  -1.163   1.274  0.00  0.00     0.000 A 
ATOM      4  C4  BNZ d   1       0.396  -1.133   2.048  0.00  0.00     0.000 A 
ATOM      5  C5  BNZ d   1       1.158  -2.271   2.223  0.00  0.00     0.000 A 
ATOM      6  C6  BNZ d   1       0.795  -3.443   1.600  0.00  0.00     0.000 A 
ENDROOT
TORSDOF 0
ENDMDL
