MODEL 1
REMARK minimizedAffinity -0.29741776
REMARK minimizedRMSD -1
REMARK  0 active torsions:
REMARK  status: ('A' for Active; 'I' for Inactive)
ROOT
ATOM      1  C   UNL d   1       0.287  -1.532  -0.327  0.00  0.00     0.077 C 
ATOM      2  C1  UNL d   1      -0.561  -1.365  -1.553  0.00  0.00    -0.074 A 
ATOM      3  C2  UNL d   1      -0.043  -0.776  -2.710  0.00  0.00    -0.005 A 
ATOM      4  C3  UNL d   1      -0.840  -0.636  -3.846  0.00  0.00     0.006 A 
ATOM      5  C4  UNL d   1      -2.162  -1.084  -3.836  0.00  0.00    -0.005 A 
ATOM      6  C5  UNL d   1      -2.697  -1.678  -2.688  0.00  0.00    -0.074 A 
ATOM      7  C6  UNL d   1      -4.112  -2.174  -2.664  0.00  0.00     0.077 C 
ATOM      8  C7  UNL d   1      -1.887  -1.820  -1.553  0.00  0.00    -0.001 A 
ENDROOT
TORSDOF 0
ENDMDL
