MODEL 1
REMARK minimizedAffinity -1.04481626
REMARK minimizedRMSD -1
REMARK  0 active torsions:
REMARK  status: ('A' for Active; 'I' for Inactive)
ROOT
ATOM      1  C   UNL d   1      -1.941  -2.462  -1.224  0.00  0.00     0.077 C 
ATOM      2  C1  UNL d   1      -0.938  -1.531  -0.609  0.00  0.00    -0.074 A 
ATOM      3  C2  UNL d   1       0.407  -1.572  -0.988  0.00  0.00    -0.005 A 
ATOM      4  C3  UNL d   1       1.327  -0.694  -0.414  0.00  0.00     0.006 A 
ATOM      5  C4  UNL d   1       0.910   0.233   0.543  0.00  0.00    -0.005 A 
ATOM      6  C5  UNL d   1      -0.431   0.289   0.934  0.00  0.00    -0.074 A 
ATOM      7  C6  UNL d   1      -0.897   1.285   1.954  0.00  0.00     0.077 C 
ATOM      8  C7  UNL d   1      -1.350  -0.593   0.347  0.00  0.00    -0.001 A 
ENDROOT
TORSDOF 0
ENDMDL
