MODEL 1
REMARK minimizedAffinity 3.44568539
REMARK minimizedRMSD -1
REMARK  0 active torsions:
REMARK  status: ('A' for Active; 'I' for Inactive)
ROOT
ATOM      1  C   UNL d   1       1.758  -0.662  -1.162  0.00  0.00     0.077 C 
ATOM      2  C1  UNL d   1       1.234   0.186  -0.041  0.00  0.00    -0.074 A 
ATOM      3  C2  UNL d   1       2.057   1.118   0.601  0.00  0.00    -0.005 A 
ATOM      4  C3  UNL d   1       1.553   1.906   1.635  0.00  0.00     0.006 A 
ATOM      5  C4  UNL d   1       0.223   1.771   2.038  0.00  0.00    -0.005 A 
ATOM      6  C5  UNL d   1      -0.614   0.846   1.407  0.00  0.00    -0.074 A 
ATOM      7  C6  UNL d   1      -2.048   0.696   1.820  0.00  0.00     0.077 C 
ATOM      8  C7  UNL d   1      -0.102   0.063   0.364  0.00  0.00    -0.001 A 
ENDROOT
TORSDOF 0
ENDMDL
