MODEL 1
REMARK minimizedAffinity 1.60593081
REMARK minimizedRMSD -1
REMARK  0 active torsions:
REMARK  status: ('A' for Active; 'I' for Inactive)
ROOT
ATOM      1  C   UNL d   1      -3.729  -5.197  -0.817  0.00  0.00     0.077 C 
ATOM      2  C1  UNL d   1      -2.670  -4.904   0.202  0.00  0.00    -0.074 A 
ATOM      3  C2  UNL d   1      -2.129  -5.924   0.992  0.00  0.00    -0.005 A 
ATOM      4  C3  UNL d   1      -1.137  -5.638   1.929  0.00  0.00     0.006 A 
ATOM      5  C4  UNL d   1      -0.676  -4.330   2.087  0.00  0.00    -0.005 A 
ATOM      6  C5  UNL d   1      -1.204  -3.297   1.307  0.00  0.00    -0.074 A 
ATOM      7  C6  UNL d   1      -0.713  -1.888   1.457  0.00  0.00     0.077 C 
ATOM      8  C7  UNL d   1      -2.196  -3.594   0.361  0.00  0.00    -0.001 A 
ENDROOT
TORSDOF 0
ENDMDL
