MODEL 1
REMARK minimizedAffinity -0.545354664
REMARK minimizedRMSD -1
REMARK  0 active torsions:
REMARK  status: ('A' for Active; 'I' for Inactive)
ROOT
ATOM      1  C   UNL d   1       2.467  -0.182  -0.169  0.00  0.00     0.077 C 
ATOM      2  C1  UNL d   1       1.488   0.137  -1.260  0.00  0.00    -0.074 A 
ATOM      3  C2  UNL d   1       1.388   1.431  -1.780  0.00  0.00    -0.005 A 
ATOM      4  C3  UNL d   1       0.479   1.710  -2.801  0.00  0.00     0.006 A 
ATOM      5  C4  UNL d   1      -0.337   0.700  -3.311  0.00  0.00    -0.005 A 
ATOM      6  C5  UNL d   1      -0.250  -0.601  -2.804  0.00  0.00    -0.074 A 
ATOM      7  C6  UNL d   1      -1.112  -1.701  -3.348  0.00  0.00     0.077 C 
ATOM      8  C7  UNL d   1       0.671  -0.875  -1.783  0.00  0.00    -0.001 A 
ENDROOT
TORSDOF 0
ENDMDL
