MODEL 1
REMARK minimizedAffinity 2.31548071
REMARK minimizedRMSD -1
REMARK  0 active torsions:
REMARK  status: ('A' for Active; 'I' for Inactive)
ROOT
ATOM      1  C   UNL d   1      -2.428   0.841   3.069  0.00  0.00     0.077 C 
ATOM      2  C1  UNL d   1      -1.265   1.490   2.378  0.00  0.00    -0.074 A 
ATOM      3  C2  UNL d   1       0.050   1.167   2.727  0.00  0.00    -0.005 A 
ATOM      4  C3  UNL d   1       1.121   1.773   2.070  0.00  0.00     0.006 A 
ATOM      5  C4  UNL d   1       0.888   2.706   1.058  0.00  0.00    -0.005 A 
ATOM      6  C5  UNL d   1      -0.421   3.040   0.695  0.00  0.00    -0.074 A 
ATOM      7  C6  UNL d   1      -0.689   4.033  -0.396  0.00  0.00     0.077 C 
ATOM      8  C7  UNL d   1      -1.491   2.422   1.356  0.00  0.00    -0.001 A 
ENDROOT
TORSDOF 0
ENDMDL
