MODEL 1
REMARK minimizedAffinity 5.21049738
REMARK minimizedRMSD -1
REMARK  0 active torsions:
REMARK  status: ('A' for Active; 'I' for Inactive)
ROOT
ATOM      1  C   UNL d   1      -3.704   1.485   1.241  0.00  0.00     0.077 C 
ATOM      2  C1  UNL d   1      -2.304   0.947   1.231  0.00  0.00    -0.074 A 
ATOM      3  C2  UNL d   1      -2.011  -0.284   0.637  0.00  0.00    -0.005 A 
ATOM      4  C3  UNL d   1      -0.702  -0.767   0.627  0.00  0.00     0.006 A 
ATOM      5  C4  UNL d   1       0.325  -0.025   1.210  0.00  0.00    -0.005 A 
ATOM      6  C5  UNL d   1       0.051   1.210   1.809  0.00  0.00    -0.074 A 
ATOM      7  C6  UNL d   1       1.145   2.025   2.432  0.00  0.00     0.077 C 
ATOM      8  C7  UNL d   1      -1.265   1.691   1.808  0.00  0.00    -0.001 A 
ENDROOT
TORSDOF 0
ENDMDL
