MODEL 1
REMARK minimizedAffinity 3.31381702
REMARK minimizedRMSD -1
REMARK  0 active torsions:
REMARK  status: ('A' for Active; 'I' for Inactive)
ROOT
ATOM      1  C   UNL d   1      -0.111   0.609  -3.241  0.00  0.00     0.077 C 
ATOM      2  C1  UNL d   1       0.977   0.289  -2.260  0.00  0.00    -0.074 A 
ATOM      3  C2  UNL d   1       2.156  -0.341  -2.674  0.00  0.00    -0.005 A 
ATOM      4  C3  UNL d   1       3.163  -0.625  -1.752  0.00  0.00     0.006 A 
ATOM      5  C4  UNL d   1       3.002  -0.282  -0.408  0.00  0.00    -0.005 A 
ATOM      6  C5  UNL d   1       1.832   0.349   0.024  0.00  0.00    -0.074 A 
ATOM      7  C6  UNL d   1       1.647   0.733   1.462  0.00  0.00     0.077 C 
ATOM      8  C7  UNL d   1       0.827   0.637  -0.911  0.00  0.00    -0.001 A 
ENDROOT
TORSDOF 0
ENDMDL
