MODEL 1
REMARK minimizedAffinity 13.21702
REMARK minimizedRMSD -1
REMARK  0 active torsions:
REMARK  status: ('A' for Active; 'I' for Inactive)
ROOT
ATOM      1  C   UNL d   1      -2.171   3.783  -0.603  0.00  0.00     0.077 C 
ATOM      2  C1  UNL d   1      -1.819   2.945   0.590  0.00  0.00    -0.074 A 
ATOM      3  C2  UNL d   1      -2.795   2.200   1.259  0.00  0.00    -0.005 A 
ATOM      4  C3  UNL d   1      -2.451   1.418   2.362  0.00  0.00     0.006 A 
ATOM      5  C4  UNL d   1      -1.129   1.373   2.806  0.00  0.00    -0.005 A 
ATOM      6  C5  UNL d   1      -0.139   2.111   2.149  0.00  0.00    -0.074 A 
ATOM      7  C6  UNL d   1       1.289   2.066   2.608  0.00  0.00     0.077 C 
ATOM      8  C7  UNL d   1      -0.491   2.889   1.038  0.00  0.00    -0.001 A 
ENDROOT
TORSDOF 0
ENDMDL
