MODEL 1
REMARK minimizedAffinity 1.26469755
REMARK minimizedRMSD -1
REMARK  0 active torsions:
REMARK  status: ('A' for Active; 'I' for Inactive)
ROOT
ATOM      1  C   UNL d   1      -3.808  -2.780  -2.831  0.00  0.00     0.077 C 
ATOM      2  C1  UNL d   1      -3.271  -3.664  -1.745  0.00  0.00    -0.074 A 
ATOM      3  C2  UNL d   1      -3.574  -5.029  -1.714  0.00  0.00    -0.005 A 
ATOM      4  C3  UNL d   1      -3.060  -5.841  -0.703  0.00  0.00     0.006 A 
ATOM      5  C4  UNL d   1      -2.239  -5.297   0.286  0.00  0.00    -0.005 A 
ATOM      6  C5  UNL d   1      -1.925  -3.934   0.271  0.00  0.00    -0.074 A 
ATOM      7  C6  UNL d   1      -1.036  -3.336   1.320  0.00  0.00     0.077 C 
ATOM      8  C7  UNL d   1      -2.440  -3.126  -0.753  0.00  0.00    -0.001 A 
ENDROOT
TORSDOF 0
ENDMDL
