MODEL 1
REMARK minimizedAffinity 1.69215107
REMARK minimizedRMSD -1
REMARK  0 active torsions:
REMARK  status: ('A' for Active; 'I' for Inactive)
ROOT
ATOM      1  C   UNL d   1       1.712  -1.462  -1.604  0.00  0.00     0.077 C 
ATOM      2  C1  UNL d   1       1.857  -0.528  -0.439  0.00  0.00    -0.074 A 
ATOM      3  C2  UNL d   1       3.094   0.047  -0.128  0.00  0.00    -0.005 A 
ATOM      4  C3  UNL d   1       3.211   0.921   0.952  0.00  0.00     0.006 A 
ATOM      5  C4  UNL d   1       2.095   1.229   1.731  0.00  0.00    -0.005 A 
ATOM      6  C5  UNL d   1       0.850   0.665   1.435  0.00  0.00    -0.074 A 
ATOM      7  C6  UNL d   1      -0.361   0.994   2.256  0.00  0.00     0.077 C 
ATOM      8  C7  UNL d   1       0.739  -0.207   0.343  0.00  0.00    -0.001 A 
ENDROOT
TORSDOF 0
ENDMDL
