MODEL 1
REMARK minimizedAffinity 5.80797338
REMARK minimizedRMSD -1
REMARK  0 active torsions:
REMARK  status: ('A' for Active; 'I' for Inactive)
ROOT
ATOM      1  C   UNL d   1       2.385   0.031  -0.507  0.00  0.00     0.077 C 
ATOM      2  C1  UNL d   1       1.352   0.362   0.527  0.00  0.00    -0.074 A 
ATOM      3  C2  UNL d   1       0.512  -0.627   1.047  0.00  0.00    -0.005 A 
ATOM      4  C3  UNL d   1      -0.439  -0.306   2.016  0.00  0.00     0.006 A 
ATOM      5  C4  UNL d   1      -0.559   1.007   2.474  0.00  0.00    -0.005 A 
ATOM      6  C5  UNL d   1       0.273   2.010   1.967  0.00  0.00    -0.074 A 
ATOM      7  C6  UNL d   1       0.164   3.424   2.455  0.00  0.00     0.077 C 
ATOM      8  C7  UNL d   1       1.230   1.677   0.998  0.00  0.00    -0.001 A 
ENDROOT
TORSDOF 0
ENDMDL
