MODEL 1
REMARK minimizedAffinity -3.57187247
REMARK minimizedRMSD -1
REMARK  0 active torsions:
REMARK  status: ('A' for Active; 'I' for Inactive)
ROOT
ATOM      1  C   UNL d   1       2.271   0.374  -0.022  0.00  0.00     0.077 C 
ATOM      2  C1  UNL d   1       1.213   1.181   0.671  0.00  0.00    -0.074 A 
ATOM      3  C2  UNL d   1       1.412   2.536   0.954  0.00  0.00    -0.005 A 
ATOM      4  C3  UNL d   1       0.415   3.275   1.590  0.00  0.00     0.006 A 
ATOM      5  C4  UNL d   1      -0.789   2.669   1.948  0.00  0.00    -0.005 A 
ATOM      6  C5  UNL d   1      -1.007   1.315   1.672  0.00  0.00    -0.074 A 
ATOM      7  C6  UNL d   1      -2.299   0.650   2.042  0.00  0.00     0.077 C 
ATOM      8  C7  UNL d   1      -0.003   0.580   1.027  0.00  0.00    -0.001 A 
ENDROOT
TORSDOF 0
ENDMDL
