MODEL 1
REMARK minimizedAffinity 11.9855785
REMARK minimizedRMSD -1
REMARK  0 active torsions:
REMARK  status: ('A' for Active; 'I' for Inactive)
ROOT
ATOM      1  C   UNL d   1      -2.751   0.035   2.595  0.00  0.00     0.077 C 
ATOM      2  C1  UNL d   1      -1.484   0.838   2.606  0.00  0.00    -0.074 A 
ATOM      3  C2  UNL d   1      -1.248   1.821   1.639  0.00  0.00    -0.005 A 
ATOM      4  C3  UNL d   1      -0.069   2.566   1.668  0.00  0.00     0.006 A 
ATOM      5  C4  UNL d   1       0.883   2.337   2.662  0.00  0.00    -0.005 A 
ATOM      6  C5  UNL d   1       0.664   1.359   3.637  0.00  0.00    -0.074 A 
ATOM      7  C6  UNL d   1       1.672   1.107   4.718  0.00  0.00     0.077 C 
ATOM      8  C7  UNL d   1      -0.526   0.619   3.606  0.00  0.00    -0.001 A 
ENDROOT
TORSDOF 0
ENDMDL
