MODEL 1
REMARK minimizedAffinity -0.408662736
REMARK minimizedRMSD -1
REMARK  0 active torsions:
REMARK  status: ('A' for Active; 'I' for Inactive)
ROOT
ATOM      1  C   UNL d   1      -4.937   6.000  -0.267  0.00  0.00     0.077 C 
ATOM      2  C1  UNL d   1      -4.880   5.316   1.067  0.00  0.00    -0.074 A 
ATOM      3  C2  UNL d   1      -4.261   4.070   1.209  0.00  0.00    -0.005 A 
ATOM      4  C3  UNL d   1      -4.208   3.450   2.458  0.00  0.00     0.006 A 
ATOM      5  C4  UNL d   1      -4.773   4.068   3.574  0.00  0.00    -0.005 A 
ATOM      6  C5  UNL d   1      -5.395   5.314   3.450  0.00  0.00    -0.074 A 
ATOM      7  C6  UNL d   1      -5.999   5.997   4.642  0.00  0.00     0.077 C 
ATOM      8  C7  UNL d   1      -5.438   5.934   2.194  0.00  0.00    -0.001 A 
ENDROOT
TORSDOF 0
ENDMDL
