MODEL 1
REMARK minimizedAffinity 9.16553497
REMARK minimizedRMSD -1
REMARK  0 active torsions:
REMARK  status: ('A' for Active; 'I' for Inactive)
ROOT
ATOM      1  C   UNL d   1       1.972  -1.418  -1.375  0.00  0.00     0.077 C 
ATOM      2  C1  UNL d   1       2.200  -0.292  -0.411  0.00  0.00    -0.074 A 
ATOM      3  C2  UNL d   1       3.448   0.331  -0.317  0.00  0.00    -0.005 A 
ATOM      4  C3  UNL d   1       3.643   1.383   0.578  0.00  0.00     0.006 A 
ATOM      5  C4  UNL d   1       2.594   1.822   1.386  0.00  0.00    -0.005 A 
ATOM      6  C5  UNL d   1       1.338   1.211   1.306  0.00  0.00    -0.074 A 
ATOM      7  C6  UNL d   1       0.197   1.676   2.160  0.00  0.00     0.077 C 
ATOM      8  C7  UNL d   1       1.149   0.159   0.399  0.00  0.00    -0.001 A 
ENDROOT
TORSDOF 0
ENDMDL
