MODEL 1
REMARK minimizedAffinity 6.91028786
REMARK minimizedRMSD -1
REMARK  0 active torsions:
REMARK  status: ('A' for Active; 'I' for Inactive)
ROOT
ATOM      1  C   UNL d   1      -0.012   2.525   2.012  0.00  0.00     0.077 C 
ATOM      2  C1  UNL d   1       0.932   1.665   1.226  0.00  0.00    -0.074 A 
ATOM      3  C2  UNL d   1       2.304   1.935   1.209  0.00  0.00    -0.005 A 
ATOM      4  C3  UNL d   1       3.172   1.120   0.481  0.00  0.00     0.006 A 
ATOM      5  C4  UNL d   1       2.677   0.030  -0.236  0.00  0.00    -0.005 A 
ATOM      6  C5  UNL d   1       1.308  -0.255  -0.230  0.00  0.00    -0.074 A 
ATOM      7  C6  UNL d   1       0.761  -1.428  -0.987  0.00  0.00     0.077 C 
ATOM      8  C7  UNL d   1       0.443   0.564   0.510  0.00  0.00    -0.001 A 
ENDROOT
TORSDOF 0
ENDMDL
