MODEL 1
REMARK minimizedAffinity -2.19497013
REMARK minimizedRMSD -1
REMARK  0 active torsions:
REMARK  status: ('A' for Active; 'I' for Inactive)
ROOT
ATOM      1  C   UNL d   1      -2.655   0.815   1.804  0.00  0.00     0.077 C 
ATOM      2  C1  UNL d   1      -1.167   0.943   1.663  0.00  0.00    -0.074 A 
ATOM      3  C2  UNL d   1      -0.447   1.854   2.443  0.00  0.00    -0.005 A 
ATOM      4  C3  UNL d   1       0.937   1.956   2.307  0.00  0.00     0.006 A 
ATOM      5  C4  UNL d   1       1.615   1.149   1.392  0.00  0.00    -0.005 A 
ATOM      6  C5  UNL d   1       0.912   0.231   0.605  0.00  0.00    -0.074 A 
ATOM      7  C6  UNL d   1       1.625  -0.650  -0.376  0.00  0.00     0.077 C 
ATOM      8  C7  UNL d   1      -0.479   0.130   0.752  0.00  0.00    -0.001 A 
ENDROOT
TORSDOF 0
ENDMDL
