MODEL 1
REMARK minimizedAffinity -0.249746844
REMARK minimizedRMSD -1
REMARK  0 active torsions:
REMARK  status: ('A' for Active; 'I' for Inactive)
ROOT
ATOM      1  C   UNL d   1       1.851  -0.719  -0.876  0.00  0.00     0.077 C 
ATOM      2  C1  UNL d   1       1.006   0.196  -0.040  0.00  0.00    -0.074 A 
ATOM      3  C2  UNL d   1      -0.261  -0.198   0.400  0.00  0.00    -0.005 A 
ATOM      4  C3  UNL d   1      -1.032   0.660   1.185  0.00  0.00     0.006 A 
ATOM      5  C4  UNL d   1      -0.543   1.919   1.537  0.00  0.00    -0.005 A 
ATOM      6  C5  UNL d   1       0.722   2.330   1.107  0.00  0.00    -0.074 A 
ATOM      7  C6  UNL d   1       1.266   3.676   1.484  0.00  0.00     0.077 C 
ATOM      8  C7  UNL d   1       1.493   1.459   0.324  0.00  0.00    -0.001 A 
ENDROOT
TORSDOF 0
ENDMDL
