MODEL 1
REMARK minimizedAffinity -4.16795969
REMARK minimizedRMSD -1
REMARK  1 active torsions:
REMARK  status: ('A' for Active; 'I' for Inactive)
REMARK    1  A    between atoms: C1_2  and  C2_3 
ROOT
ATOM      1  C2  UNL d   1      -0.115   0.180   0.110  0.00  0.00    -0.077 A 
ATOM      2  C3  UNL d   1      -1.276   0.877  -0.255  0.00  0.00     0.002 A 
ATOM      3  C4  UNL d   1      -1.896   1.739   0.651  0.00  0.00     0.002 A 
ATOM      4  C5  UNL d   1      -1.362   1.915   1.926  0.00  0.00    -0.004 A 
ATOM      5  C6  UNL d   1      -0.209   1.225   2.299  0.00  0.00     0.002 A 
ATOM      6  C7  UNL d   1       0.412   0.362   1.395  0.00  0.00     0.002 A 
ENDROOT
BRANCH   1   7
ATOM      7  C1  UNL d   1       0.583  -0.712  -0.882  0.00  0.00     0.055 C 
ATOM      8  C   UNL d   1      -0.242  -1.954  -1.187  0.00  0.00     0.019 C 
ENDBRANCH   1   7
TORSDOF 1
ENDMDL
