MODEL 1
REMARK minimizedAffinity -2.27741218
REMARK minimizedRMSD -1
REMARK  1 active torsions:
REMARK  status: ('A' for Active; 'I' for Inactive)
REMARK    1  A    between atoms: C1_2  and  C2_3 
ROOT
ATOM      1  C2  UNL d   1      -0.362   0.401   0.494  0.00  0.00    -0.077 A 
ATOM      2  C3  UNL d   1       0.404   0.680   1.635  0.00  0.00     0.002 A 
ATOM      3  C4  UNL d   1       0.424   1.968   2.174  0.00  0.00     0.002 A 
ATOM      4  C5  UNL d   1      -0.322   2.985   1.581  0.00  0.00    -0.004 A 
ATOM      5  C6  UNL d   1      -1.085   2.718   0.445  0.00  0.00     0.002 A 
ATOM      6  C7  UNL d   1      -1.106   1.431  -0.095  0.00  0.00     0.002 A 
ENDROOT
BRANCH   1   7
ATOM      7  C1  UNL d   1      -0.425  -0.999  -0.059  0.00  0.00     0.055 C 
ATOM      8  C   UNL d   1       0.846  -1.352  -0.818  0.00  0.00     0.019 C 
ENDBRANCH   1   7
TORSDOF 1
ENDMDL
