MODEL 1
REMARK minimizedAffinity -4.51776695
REMARK minimizedRMSD -1
REMARK  1 active torsions:
REMARK  status: ('A' for Active; 'I' for Inactive)
REMARK    1  A    between atoms: C1_2  and  C2_3 
ROOT
ATOM      1  C2  UNL d   1      -0.164  -0.373   0.059  0.00  0.00    -0.077 A 
ATOM      2  C3  UNL d   1      -1.105   0.616  -0.257  0.00  0.00     0.002 A 
ATOM      3  C4  UNL d   1      -1.391   1.636   0.652  0.00  0.00     0.002 A 
ATOM      4  C5  UNL d   1      -0.737   1.679   1.882  0.00  0.00    -0.004 A 
ATOM      5  C6  UNL d   1       0.200   0.698   2.207  0.00  0.00     0.002 A 
ATOM      6  C7  UNL d   1       0.486  -0.323   1.299  0.00  0.00     0.002 A 
ENDROOT
BRANCH   1   7
ATOM      7  C1  UNL d   1       0.182  -1.446  -0.940  0.00  0.00     0.055 C 
ATOM      8  C   UNL d   1      -0.993  -2.384  -1.174  0.00  0.00     0.019 C 
ENDBRANCH   1   7
TORSDOF 1
ENDMDL
