MODEL 1
REMARK minimizedAffinity -4.58177805
REMARK minimizedRMSD -1
REMARK  1 active torsions:
REMARK  status: ('A' for Active; 'I' for Inactive)
REMARK    1  A    between atoms: C1_2  and  C2_3 
ROOT
ATOM      1  C2  UNL d   1      -0.090  -0.754  -0.566  0.00  0.00    -0.077 A 
ATOM      2  C3  UNL d   1       1.016  -1.192  -1.308  0.00  0.00     0.002 A 
ATOM      3  C4  UNL d   1       0.996  -2.438  -1.937  0.00  0.00     0.002 A 
ATOM      4  C5  UNL d   1      -0.128  -3.255  -1.833  0.00  0.00    -0.004 A 
ATOM      5  C6  UNL d   1      -1.232  -2.830  -1.095  0.00  0.00     0.002 A 
ATOM      6  C7  UNL d   1      -1.214  -1.585  -0.465  0.00  0.00     0.002 A 
ENDROOT
BRANCH   1   7
ATOM      7  C1  UNL d   1      -0.090   0.611   0.072  0.00  0.00     0.055 C 
ATOM      8  C   UNL d   1      -0.263   0.516   1.581  0.00  0.00     0.019 C 
ENDBRANCH   1   7
TORSDOF 1
ENDMDL
