MODEL 1
REMARK minimizedAffinity -4.84597206
REMARK minimizedRMSD -1
REMARK  1 active torsions:
REMARK  status: ('A' for Active; 'I' for Inactive)
REMARK    1  A    between atoms: C1_2  and  C2_3 
ROOT
ATOM      1  C2  UNL d   1      -0.091   0.227   0.256  0.00  0.00    -0.077 A 
ATOM      2  C3  UNL d   1       0.400   0.310   1.567  0.00  0.00     0.002 A 
ATOM      3  C4  UNL d   1      -0.047   1.315   2.426  0.00  0.00     0.002 A 
ATOM      4  C5  UNL d   1      -0.990   2.242   1.986  0.00  0.00    -0.004 A 
ATOM      5  C6  UNL d   1      -1.483   2.169   0.684  0.00  0.00     0.002 A 
ATOM      6  C7  UNL d   1      -1.036   1.165  -0.177  0.00  0.00     0.002 A 
ENDROOT
BRANCH   1   7
ATOM      7  C1  UNL d   1       0.354  -0.886  -0.656  0.00  0.00     0.055 C 
ATOM      8  C   UNL d   1       1.147  -0.349  -1.838  0.00  0.00     0.019 C 
ENDBRANCH   1   7
TORSDOF 1
ENDMDL
