MODEL 1
REMARK minimizedAffinity -2.65747809
REMARK minimizedRMSD -1
REMARK  1 active torsions:
REMARK  status: ('A' for Active; 'I' for Inactive)
REMARK    1  A    between atoms: C1_2  and  C2_3 
ROOT
ATOM      1  C2  UNL d   1       0.140   0.787   0.604  0.00  0.00    -0.077 A 
ATOM      2  C3  UNL d   1       0.045   1.775   1.594  0.00  0.00     0.002 A 
ATOM      3  C4  UNL d   1      -0.906   2.792   1.488  0.00  0.00     0.002 A 
ATOM      4  C5  UNL d   1      -1.771   2.828   0.397  0.00  0.00    -0.004 A 
ATOM      5  C6  UNL d   1      -1.684   1.851  -0.594  0.00  0.00     0.002 A 
ATOM      6  C7  UNL d   1      -0.733   0.834  -0.490  0.00  0.00     0.002 A 
ENDROOT
BRANCH   1   7
ATOM      7  C1  UNL d   1       1.132  -0.338   0.742  0.00  0.00     0.055 C 
ATOM      8  C   UNL d   1       1.251  -1.132  -0.551  0.00  0.00     0.019 C 
ENDBRANCH   1   7
TORSDOF 1
ENDMDL
