MODEL 1
REMARK minimizedAffinity -3.99370098
REMARK minimizedRMSD -1
REMARK  0 active torsions:
REMARK  status: ('A' for Active; 'I' for Inactive)
ROOT
ATOM      1  C   UNL d   1       2.479  -1.540  -0.008  0.00  0.00    -0.002 A 
ATOM      2  C1  UNL d   1       3.181  -0.349  -0.127  0.00  0.00     0.010 A 
ATOM      3  C2  UNL d   1       2.504   0.864  -0.267  0.00  0.00     0.041 A 
ATOM      4  C3  UNL d   1       1.096   0.861  -0.283  0.00  0.00    -0.075 A 
ATOM      5  S   UNL d   1       0.054   2.225  -0.443  0.00  0.00     0.015 SA
ATOM      6  C4  UNL d   1      -1.348   1.260  -0.355  0.00  0.00     0.022 A 
ATOM      7  C5  UNL d   1      -1.047  -0.073  -0.207  0.00  0.00     0.026 A 
ATOM      8  C6  UNL d   1       0.366  -0.326  -0.163  0.00  0.00    -0.082 A 
ATOM      9  C7  UNL d   1       1.081  -1.539  -0.024  0.00  0.00     0.045 A 
ENDROOT
TORSDOF 0
ENDMDL
