MODEL 1
REMARK minimizedAffinity -3.39588976
REMARK minimizedRMSD -1
REMARK  0 active torsions:
REMARK  status: ('A' for Active; 'I' for Inactive)
ROOT
ATOM      1  C   UNL d   1       2.153  -1.924   0.145  0.00  0.00    -0.002 A 
ATOM      2  C1  UNL d   1       2.279  -0.987   1.162  0.00  0.00     0.010 A 
ATOM      3  C2  UNL d   1       1.334   0.030   1.311  0.00  0.00     0.041 A 
ATOM      4  C3  UNL d   1       0.249   0.089   0.414  0.00  0.00    -0.075 A 
ATOM      5  S   UNL d   1      -1.030   1.246   0.405  0.00  0.00     0.015 SA
ATOM      6  C4  UNL d   1      -1.774   0.523  -0.948  0.00  0.00     0.022 A 
ATOM      7  C5  UNL d   1      -1.077  -0.575  -1.394  0.00  0.00     0.026 A 
ATOM      8  C6  UNL d   1       0.100  -0.843  -0.617  0.00  0.00    -0.082 A 
ATOM      9  C7  UNL d   1       1.075  -1.862  -0.742  0.00  0.00     0.045 A 
ENDROOT
TORSDOF 0
ENDMDL
