MODEL 1
REMARK minimizedAffinity -2.44408846
REMARK minimizedRMSD -1
REMARK  0 active torsions:
REMARK  status: ('A' for Active; 'I' for Inactive)
ROOT
ATOM      1  C   UNL d   1       2.759  -1.467   0.581  0.00  0.00    -0.002 A 
ATOM      2  C1  UNL d   1       2.599  -0.470   1.532  0.00  0.00     0.010 A 
ATOM      3  C2  UNL d   1       1.509   0.400   1.472  0.00  0.00     0.041 A 
ATOM      4  C3  UNL d   1       0.572   0.248   0.431  0.00  0.00    -0.075 A 
ATOM      5  S   UNL d   1      -0.842   1.197   0.158  0.00  0.00     0.015 SA
ATOM      6  C4  UNL d   1      -1.266   0.300  -1.228  0.00  0.00     0.022 A 
ATOM      7  C5  UNL d   1      -0.363  -0.702  -1.490  0.00  0.00     0.026 A 
ATOM      8  C6  UNL d   1       0.711  -0.749  -0.538  0.00  0.00    -0.082 A 
ATOM      9  C7  UNL d   1       1.828  -1.615  -0.451  0.00  0.00     0.045 A 
ENDROOT
TORSDOF 0
ENDMDL
