MODEL 1
REMARK minimizedAffinity -2.79438877
REMARK minimizedRMSD -1
REMARK  0 active torsions:
REMARK  status: ('A' for Active; 'I' for Inactive)
ROOT
ATOM      1  C   UNL d   1      -0.959  -0.889  -1.551  0.00  0.00    -0.002 A 
ATOM      2  C1  UNL d   1      -0.999   0.434  -1.132  0.00  0.00     0.010 A 
ATOM      3  C2  UNL d   1      -0.034   0.930  -0.254  0.00  0.00     0.041 A 
ATOM      4  C3  UNL d   1       0.983   0.067   0.199  0.00  0.00    -0.075 A 
ATOM      5  S   UNL d   1       2.271   0.455   1.277  0.00  0.00     0.015 SA
ATOM      6  C4  UNL d   1       2.906  -1.125   1.207  0.00  0.00     0.022 A 
ATOM      7  C5  UNL d   1       2.165  -1.942   0.386  0.00  0.00     0.026 A 
ATOM      8  C6  UNL d   1       1.045  -1.268  -0.209  0.00  0.00    -0.082 A 
ATOM      9  C7  UNL d   1       0.051  -1.742  -1.099  0.00  0.00     0.045 A 
ENDROOT
TORSDOF 0
ENDMDL
