MODEL 1
REMARK minimizedAffinity -1.79154301
REMARK minimizedRMSD -1
REMARK  0 active torsions:
REMARK  status: ('A' for Active; 'I' for Inactive)
ROOT
ATOM      1  C   UNL d   1       2.710   0.076   0.961  0.00  0.00    -0.002 A 
ATOM      2  C1  UNL d   1       2.851  -1.171   0.368  0.00  0.00     0.010 A 
ATOM      3  C2  UNL d   1       1.791  -1.747  -0.335  0.00  0.00     0.041 A 
ATOM      4  C3  UNL d   1       0.576  -1.041  -0.435  0.00  0.00    -0.075 A 
ATOM      5  S   UNL d   1      -0.858  -1.549  -1.246  0.00  0.00     0.015 SA
ATOM      6  C4  UNL d   1      -1.690  -0.122  -0.826  0.00  0.00     0.022 A 
ATOM      7  C5  UNL d   1      -0.909   0.732  -0.084  0.00  0.00     0.026 A 
ATOM      8  C6  UNL d   1       0.410   0.217   0.153  0.00  0.00    -0.082 A 
ATOM      9  C7  UNL d   1       1.503   0.773   0.860  0.00  0.00     0.045 A 
ENDROOT
TORSDOF 0
ENDMDL
