MODEL 1
REMARK minimizedAffinity -0.952657163
REMARK minimizedRMSD -1
REMARK  0 active torsions:
REMARK  status: ('A' for Active; 'I' for Inactive)
ROOT
ATOM      1  C   UNL d   1       2.440  -2.279   1.100  0.00  0.00    -0.002 A 
ATOM      2  C1  UNL d   1       3.129  -1.105   1.368  0.00  0.00     0.010 A 
ATOM      3  C2  UNL d   1       2.595   0.131   0.997  0.00  0.00     0.041 A 
ATOM      4  C3  UNL d   1       1.346   0.167   0.347  0.00  0.00    -0.075 A 
ATOM      5  S   UNL d   1       0.498   1.566  -0.199  0.00  0.00     0.015 SA
ATOM      6  C4  UNL d   1      -0.798   0.636  -0.800  0.00  0.00     0.022 A 
ATOM      7  C5  UNL d   1      -0.605  -0.710  -0.598  0.00  0.00     0.026 A 
ATOM      8  C6  UNL d   1       0.634  -1.002   0.067  0.00  0.00    -0.082 A 
ATOM      9  C7  UNL d   1       1.201  -2.240   0.455  0.00  0.00     0.045 A 
ENDROOT
TORSDOF 0
ENDMDL
