MODEL 1
REMARK minimizedAffinity -0.847171962
REMARK minimizedRMSD -1
REMARK  0 active torsions:
REMARK  status: ('A' for Active; 'I' for Inactive)
ROOT
ATOM      1  C   UNL d   1      -0.041  -1.505  -0.756  0.00  0.00    -0.002 A 
ATOM      2  C1  UNL d   1      -0.623  -0.247  -0.693  0.00  0.00     0.010 A 
ATOM      3  C2  UNL d   1       0.075   0.832  -0.148  0.00  0.00     0.041 A 
ATOM      4  C3  UNL d   1       1.381   0.624   0.337  0.00  0.00    -0.075 A 
ATOM      5  S   UNL d   1       2.426   1.797   1.047  0.00  0.00     0.015 SA
ATOM      6  C4  UNL d   1       3.670   0.656   1.283  0.00  0.00     0.022 A 
ATOM      7  C5  UNL d   1       3.313  -0.595   0.837  0.00  0.00     0.026 A 
ATOM      8  C6  UNL d   1       1.989  -0.634   0.284  0.00  0.00    -0.082 A 
ATOM      9  C7  UNL d   1       1.255  -1.708  -0.274  0.00  0.00     0.045 A 
ENDROOT
TORSDOF 0
ENDMDL
