MODEL 1
REMARK minimizedAffinity -3.55595112
REMARK minimizedRMSD -1
REMARK  3 active torsions:
REMARK  status: ('A' for Active; 'I' for Inactive)
REMARK    1  A    between atoms: C3'_2  and  C2'_3 
REMARK    2  A    between atoms: C2'_3  and  C1'_4 
REMARK    3  A    between atoms: C1'_4  and  C1_5 
ROOT
ATOM      1  C1  N4B d   1       0.292  -0.559   0.102  0.00  0.00    -0.075 A 
ATOM      2  C2  N4B d   1       0.444   0.672  -0.573  0.00  0.00     0.002 A 
ATOM      3  C3  N4B d   1       0.350   1.852   0.122  0.00  0.00     0.002 A 
ATOM      4  C4  N4B d   1       0.087   1.827   1.484  0.00  0.00    -0.004 A 
ATOM      5  C5  N4B d   1      -0.032   0.633   2.133  0.00  0.00     0.002 A 
ATOM      6  C6  N4B d   1       0.064  -0.561   1.447  0.00  0.00     0.002 A 
ENDROOT
BRANCH   1   7
ATOM      7  C1' N4B d   1       0.302  -1.873  -0.631  0.00  0.00     0.057 C 
BRANCH   7   8
ATOM      8  C2' N4B d   1      -0.966  -2.648  -0.285  0.00  0.00     0.009 C 
BRANCH   8   9
ATOM      9  C3' N4B d   1      -1.560  -3.338  -1.501  0.00  0.00     0.004 C 
ATOM     10  C4' N4B d   1      -0.745  -4.510  -1.961  0.00  0.00     0.003 C 
ENDBRANCH   8   9
ENDBRANCH   7   8
ENDBRANCH   1   7
TORSDOF 3
ENDMDL
