MODEL 1
REMARK minimizedAffinity -2.96971965
REMARK minimizedRMSD -1
REMARK  3 active torsions:
REMARK  status: ('A' for Active; 'I' for Inactive)
REMARK    1  A    between atoms: C3'_2  and  C2'_3 
REMARK    2  A    between atoms: C2'_3  and  C1'_4 
REMARK    3  A    between atoms: C1'_4  and  C1_5 
ROOT
ATOM      1  C1  N4B d   1       0.194  -1.847  -1.394  0.00  0.00    -0.075 A 
ATOM      2  C2  N4B d   1       0.786  -2.933  -0.713  0.00  0.00     0.002 A 
ATOM      3  C3  N4B d   1       0.177  -4.164  -0.724  0.00  0.00     0.002 A 
ATOM      4  C4  N4B d   1      -1.028  -4.327  -1.391  0.00  0.00    -0.004 A 
ATOM      5  C5  N4B d   1      -1.581  -3.279  -2.067  0.00  0.00     0.002 A 
ATOM      6  C6  N4B d   1      -0.978  -2.038  -2.068  0.00  0.00     0.002 A 
ENDROOT
BRANCH   1   7
ATOM      7  C1' N4B d   1       0.778  -0.462  -1.339  0.00  0.00     0.057 C 
BRANCH   7   8
ATOM      8  C2' N4B d   1      -0.078   0.406  -0.421  0.00  0.00     0.009 C 
BRANCH   8   9
ATOM      9  C3' N4B d   1       0.342   0.282   1.033  0.00  0.00     0.004 C 
ATOM     10  C4' N4B d   1      -0.276   1.331   1.908  0.00  0.00     0.003 C 
ENDBRANCH   8   9
ENDBRANCH   7   8
ENDBRANCH   1   7
TORSDOF 3
ENDMDL
