MODEL 1
REMARK minimizedAffinity 4.1512742
REMARK minimizedRMSD -1
REMARK  3 active torsions:
REMARK  status: ('A' for Active; 'I' for Inactive)
REMARK    1  A    between atoms: C3'_2  and  C2'_3 
REMARK    2  A    between atoms: C2'_3  and  C1'_4 
REMARK    3  A    between atoms: C1'_4  and  C1_5 
ROOT
ATOM      1  C1  N4B d   1       0.647  -4.654  -0.481  0.00  0.00    -0.075 A 
ATOM      2  C2  N4B d   1      -0.622  -5.044  -0.961  0.00  0.00     0.002 A 
ATOM      3  C3  N4B d   1      -1.548  -4.091  -1.309  0.00  0.00     0.002 A 
ATOM      4  C4  N4B d   1      -1.234  -2.747  -1.168  0.00  0.00    -0.004 A 
ATOM      5  C5  N4B d   1       0.003  -2.379  -0.728  0.00  0.00     0.002 A 
ATOM      6  C6  N4B d   1       0.945  -3.326  -0.379  0.00  0.00     0.002 A 
ENDROOT
BRANCH   1   7
ATOM      7  C1' N4B d   1       1.661  -5.660  -0.008  0.00  0.00     0.057 C 
BRANCH   7   8
ATOM      8  C2' N4B d   1       3.033  -4.995   0.056  0.00  0.00     0.009 C 
BRANCH   8   9
ATOM      9  C3' N4B d   1       4.138  -5.999   0.340  0.00  0.00     0.004 C 
ATOM     10  C4' N4B d   1       4.572  -5.994   1.776  0.00  0.00     0.003 C 
ENDBRANCH   8   9
ENDBRANCH   7   8
ENDBRANCH   1   7
TORSDOF 3
ENDMDL
