MODEL 1
REMARK minimizedAffinity -2.93806744
REMARK minimizedRMSD -1
REMARK  3 active torsions:
REMARK  status: ('A' for Active; 'I' for Inactive)
REMARK    1  A    between atoms: C3'_2  and  C2'_3 
REMARK    2  A    between atoms: C2'_3  and  C1'_4 
REMARK    3  A    between atoms: C1'_4  and  C1_5 
ROOT
ATOM      1  C1  N4B d   1       0.396  -0.302  -0.291  0.00  0.00    -0.075 A 
ATOM      2  C2  N4B d   1       0.452   0.094   1.064  0.00  0.00     0.002 A 
ATOM      3  C3  N4B d   1       0.462   1.428   1.389  0.00  0.00     0.002 A 
ATOM      4  C4  N4B d   1       0.435   2.380   0.381  0.00  0.00    -0.004 A 
ATOM      5  C5  N4B d   1       0.354   1.989  -0.924  0.00  0.00     0.002 A 
ATOM      6  C6  N4B d   1       0.340   0.652  -1.265  0.00  0.00     0.002 A 
ENDROOT
BRANCH   1   7
ATOM      7  C1' N4B d   1       0.470  -1.748  -0.699  0.00  0.00     0.057 C 
BRANCH   7   8
ATOM      8  C2' N4B d   1      -0.934  -2.250  -1.023  0.00  0.00     0.009 C 
BRANCH   8   9
ATOM      9  C3' N4B d   1      -0.935  -3.714  -1.428  0.00  0.00     0.004 C 
ATOM     10  C4' N4B d   1      -0.792  -4.641  -0.258  0.00  0.00     0.003 C 
ENDBRANCH   8   9
ENDBRANCH   7   8
ENDBRANCH   1   7
TORSDOF 3
ENDMDL
