MODEL 1
REMARK minimizedAffinity -2.21150398
REMARK minimizedRMSD -1
REMARK  3 active torsions:
REMARK  status: ('A' for Active; 'I' for Inactive)
REMARK    1  A    between atoms: C3'_2  and  C2'_3 
REMARK    2  A    between atoms: C2'_3  and  C1'_4 
REMARK    3  A    between atoms: C1'_4  and  C1_5 
ROOT
ATOM      1  C1  N4B d   1       0.346   0.009  -0.817  0.00  0.00    -0.075 A 
ATOM      2  C2  N4B d   1      -0.019   0.666   0.379  0.00  0.00     0.002 A 
ATOM      3  C3  N4B d   1      -0.649   1.885   0.329  0.00  0.00     0.002 A 
ATOM      4  C4  N4B d   1      -0.907   2.474  -0.900  0.00  0.00    -0.004 A 
ATOM      5  C5  N4B d   1      -0.574   1.821  -2.051  0.00  0.00     0.002 A 
ATOM      6  C6  N4B d   1       0.056   0.594  -2.016  0.00  0.00     0.002 A 
ENDROOT
BRANCH   1   7
ATOM      7  C1' N4B d   1       1.113  -1.284  -0.810  0.00  0.00     0.057 C 
BRANCH   7   8
ATOM      8  C2' N4B d   1       0.206  -2.407  -1.307  0.00  0.00     0.009 C 
BRANCH   8   9
ATOM      9  C3' N4B d   1       0.835  -3.775  -1.107  0.00  0.00     0.004 C 
ATOM     10  C4' N4B d   1      -0.072  -4.731  -0.390  0.00  0.00     0.003 C 
ENDBRANCH   8   9
ENDBRANCH   7   8
ENDBRANCH   1   7
TORSDOF 3
ENDMDL
