MODEL 1
REMARK minimizedAffinity -3.88669658
REMARK minimizedRMSD -1
REMARK  3 active torsions:
REMARK  status: ('A' for Active; 'I' for Inactive)
REMARK    1  A    between atoms: C3'_2  and  C2'_3 
REMARK    2  A    between atoms: C2'_3  and  C1'_4 
REMARK    3  A    between atoms: C1'_4  and  C1_5 
ROOT
ATOM      1  C1  N4B d   1       0.045   0.068  -0.100  0.00  0.00    -0.075 A 
ATOM      2  C2  N4B d   1       0.061   0.241   1.302  0.00  0.00     0.002 A 
ATOM      3  C3  N4B d   1      -0.116   1.491   1.841  0.00  0.00     0.002 A 
ATOM      4  C4  N4B d   1      -0.292   2.581   1.002  0.00  0.00    -0.004 A 
ATOM      5  C5  N4B d   1      -0.332   2.402  -0.349  0.00  0.00     0.002 A 
ATOM      6  C6  N4B d   1      -0.159   1.150  -0.905  0.00  0.00     0.002 A 
ENDROOT
BRANCH   1   7
ATOM      7  C1' N4B d   1       0.320  -1.266  -0.739  0.00  0.00     0.057 C 
BRANCH   7   8
ATOM      8  C2' N4B d   1      -0.965  -2.089  -0.754  0.00  0.00     0.009 C 
BRANCH   8   9
ATOM      9  C3' N4B d   1      -0.803  -3.382  -1.534  0.00  0.00     0.004 C 
ATOM     10  C4' N4B d   1      -1.011  -4.602  -0.687  0.00  0.00     0.003 C 
ENDBRANCH   8   9
ENDBRANCH   7   8
ENDBRANCH   1   7
TORSDOF 3
ENDMDL
