MODEL 1
REMARK minimizedAffinity 9.03353214
REMARK minimizedRMSD -1
REMARK  0 active torsions:
REMARK  status: ('A' for Active; 'I' for Inactive)
ROOT
ATOM      1  O1  BZF d   1       0.807  -0.326   0.328  0.00  0.00    -0.204 OA
ATOM      2  C2  BZF d   1       0.073  -0.002  -0.796  0.00  0.00     0.174 A 
ATOM      3  C3  BZF d   1      -1.211   0.253  -0.472  0.00  0.00    -0.012 A 
ATOM      4  C3A BZF d   1      -1.263   0.168   0.956  0.00  0.00    -0.107 A 
ATOM      5  C4  BZF d   1      -2.262   0.337   1.871  0.00  0.00     0.055 A 
ATOM      6  C5  BZF d   1      -2.000   0.110   3.185  0.00  0.00    -0.016 A 
ATOM      7  C6  BZF d   1      -0.753  -0.292   3.618  0.00  0.00     0.022 A 
ATOM      8  C7  BZF d   1       0.271  -0.468   2.748  0.00  0.00     0.029 A 
ATOM      9  C7A BZF d   1       0.018  -0.207   1.423  0.00  0.00     0.058 A 
ENDROOT
TORSDOF 0
ENDMDL
