MODEL 1
REMARK minimizedAffinity 5.95181847
REMARK minimizedRMSD -1
REMARK  0 active torsions:
REMARK  status: ('A' for Active; 'I' for Inactive)
ROOT
ATOM      1  O1  BZF d   1      -0.090  -0.528  -0.927  0.00  0.00    -0.204 OA
ATOM      2  C2  BZF d   1       1.164  -0.450  -0.352  0.00  0.00     0.174 A 
ATOM      3  C3  BZF d   1       1.085   0.047   0.900  0.00  0.00    -0.012 A 
ATOM      4  C3A BZF d   1      -0.314   0.208   1.154  0.00  0.00    -0.107 A 
ATOM      5  C4  BZF d   1      -1.028   0.648   2.231  0.00  0.00     0.055 A 
ATOM      6  C5  BZF d   1      -2.379   0.753   2.131  0.00  0.00    -0.016 A 
ATOM      7  C6  BZF d   1      -3.047   0.431   0.967  0.00  0.00     0.022 A 
ATOM      8  C7  BZF d   1      -2.382  -0.014  -0.127  0.00  0.00     0.029 A 
ATOM      9  C7A BZF d   1      -1.020  -0.152  -0.017  0.00  0.00     0.058 A 
ENDROOT
TORSDOF 0
ENDMDL
