MODEL 1
REMARK minimizedAffinity 3.77561808
REMARK minimizedRMSD -1
REMARK  0 active torsions:
REMARK  status: ('A' for Active; 'I' for Inactive)
ROOT
ATOM      1  O1  BZF d   1       0.030  -1.319   3.341  0.00  0.00    -0.204 OA
ATOM      2  C2  BZF d   1      -0.791  -1.454   4.443  0.00  0.00     0.174 A 
ATOM      3  C3  BZF d   1      -2.007  -0.923   4.202  0.00  0.00    -0.012 A 
ATOM      4  C3A BZF d   1      -1.972  -0.507   2.834  0.00  0.00    -0.107 A 
ATOM      5  C4  BZF d   1      -2.887   0.078   2.006  0.00  0.00     0.055 A 
ATOM      6  C5  BZF d   1      -2.513   0.422   0.746  0.00  0.00    -0.016 A 
ATOM      7  C6  BZF d   1      -1.233   0.199   0.282  0.00  0.00     0.022 A 
ATOM      8  C7  BZF d   1      -0.292  -0.384   1.064  0.00  0.00     0.029 A 
ATOM      9  C7A BZF d   1      -0.676  -0.762   2.328  0.00  0.00     0.058 A 
ENDROOT
TORSDOF 0
ENDMDL
