MODEL 1
REMARK minimizedAffinity 12.9705334
REMARK minimizedRMSD -1
REMARK  0 active torsions:
REMARK  status: ('A' for Active; 'I' for Inactive)
ROOT
ATOM      1  O1  BZF d   1       4.461   3.971   3.940  0.00  0.00    -0.204 OA
ATOM      2  C2  BZF d   1       4.911   2.761   4.431  0.00  0.00     0.174 A 
ATOM      3  C3  BZF d   1       4.679   1.769   3.547  0.00  0.00    -0.012 A 
ATOM      4  C3A BZF d   1       4.129   2.414   2.394  0.00  0.00    -0.107 A 
ATOM      5  C4  BZF d   1       3.709   1.962   1.176  0.00  0.00     0.055 A 
ATOM      6  C5  BZF d   1       3.154   2.841   0.301  0.00  0.00    -0.016 A 
ATOM      7  C6  BZF d   1       3.000   4.176   0.612  0.00  0.00     0.022 A 
ATOM      8  C7  BZF d   1       3.406   4.672   1.806  0.00  0.00     0.029 A 
ATOM      9  C7A BZF d   1       3.997   3.793   2.680  0.00  0.00     0.058 A 
ENDROOT
TORSDOF 0
ENDMDL
