MODEL 1
REMARK minimizedAffinity 19.7446232
REMARK minimizedRMSD -1
REMARK  0 active torsions:
REMARK  status: ('A' for Active; 'I' for Inactive)
ROOT
ATOM      1  O1  BZF d   1       4.026   4.192   4.011  0.00  0.00    -0.204 OA
ATOM      2  C2  BZF d   1       4.507   3.078   4.671  0.00  0.00     0.174 A 
ATOM      3  C3  BZF d   1       4.324   1.967   3.929  0.00  0.00    -0.012 A 
ATOM      4  C3A BZF d   1       3.771   2.427   2.692  0.00  0.00    -0.107 A 
ATOM      5  C4  BZF d   1       3.386   1.796   1.544  0.00  0.00     0.055 A 
ATOM      6  C5  BZF d   1       2.817   2.526   0.549  0.00  0.00    -0.016 A 
ATOM      7  C6  BZF d   1       2.613   3.885   0.670  0.00  0.00     0.022 A 
ATOM      8  C7  BZF d   1       2.983   4.555   1.788  0.00  0.00     0.029 A 
ATOM      9  C7A BZF d   1       3.588   3.826   2.783  0.00  0.00     0.058 A 
ENDROOT
TORSDOF 0
ENDMDL
