MODEL 1
REMARK minimizedAffinity 0.311483532
REMARK minimizedRMSD -1
REMARK  0 active torsions:
REMARK  status: ('A' for Active; 'I' for Inactive)
ROOT
ATOM      1  O1  BZF d   1       1.194  -0.886   2.358  0.00  0.00    -0.204 OA
ATOM      2  C2  BZF d   1       1.194  -1.207   3.701  0.00  0.00     0.174 A 
ATOM      3  C3  BZF d   1       0.032  -0.840   4.281  0.00  0.00    -0.012 A 
ATOM      4  C3A BZF d   1      -0.778  -0.338   3.214  0.00  0.00    -0.107 A 
ATOM      5  C4  BZF d   1      -2.047   0.163   3.154  0.00  0.00     0.055 A 
ATOM      6  C5  BZF d   1      -2.516   0.635   1.970  0.00  0.00    -0.016 A 
ATOM      7  C6  BZF d   1      -1.742   0.627   0.827  0.00  0.00     0.022 A 
ATOM      8  C7  BZF d   1      -0.479   0.136   0.836  0.00  0.00     0.029 A 
ATOM      9  C7A BZF d   1      -0.014  -0.372   2.024  0.00  0.00     0.058 A 
ENDROOT
TORSDOF 0
ENDMDL
