MODEL 1
REMARK minimizedAffinity -0.765051365
REMARK minimizedRMSD -1
REMARK  0 active torsions:
REMARK  status: ('A' for Active; 'I' for Inactive)
ROOT
ATOM      1  O1  BZF d   1       1.937  -1.549   3.492  0.00  0.00    -0.204 OA
ATOM      2  C2  BZF d   1       1.711  -1.975   4.787  0.00  0.00     0.174 A 
ATOM      3  C3  BZF d   1       0.412  -1.831   5.118  0.00  0.00    -0.012 A 
ATOM      4  C3A BZF d   1      -0.231  -1.366   3.927  0.00  0.00    -0.107 A 
ATOM      5  C4  BZF d   1      -1.524  -1.054   3.619  0.00  0.00     0.055 A 
ATOM      6  C5  BZF d   1      -1.808  -0.559   2.386  0.00  0.00    -0.016 A 
ATOM      7  C6  BZF d   1      -0.825  -0.360   1.439  0.00  0.00     0.022 A 
ATOM      8  C7  BZF d   1       0.471  -0.661   1.696  0.00  0.00     0.029 A 
ATOM      9  C7A BZF d   1       0.757  -1.191   2.931  0.00  0.00     0.058 A 
ENDROOT
TORSDOF 0
ENDMDL
