MODEL 1
REMARK minimizedAffinity 8.84441853
REMARK minimizedRMSD -1
REMARK  0 active torsions:
REMARK  status: ('A' for Active; 'I' for Inactive)
ROOT
ATOM      1  O1  BZF d   1       0.558  -0.378   2.858  0.00  0.00    -0.204 OA
ATOM      2  C2  BZF d   1       0.979  -1.147   3.926  0.00  0.00     0.174 A 
ATOM      3  C3  BZF d   1      -0.076  -1.630   4.613  0.00  0.00    -0.012 A 
ATOM      4  C3A BZF d   1      -1.229  -1.208   3.877  0.00  0.00    -0.107 A 
ATOM      5  C4  BZF d   1      -2.571  -1.391   4.049  0.00  0.00     0.055 A 
ATOM      6  C5  BZF d   1      -3.436  -0.785   3.193  0.00  0.00    -0.016 A 
ATOM      7  C6  BZF d   1      -2.993   0.013   2.159  0.00  0.00     0.022 A 
ATOM      8  C7  BZF d   1      -1.671   0.221   1.945  0.00  0.00     0.029 A 
ATOM      9  C7A BZF d   1      -0.794  -0.417   2.789  0.00  0.00     0.058 A 
ENDROOT
TORSDOF 0
ENDMDL
