MODEL 1
REMARK minimizedAffinity -4.95640707
REMARK minimizedRMSD -1
REMARK  1 active torsions:
REMARK  status: ('A' for Active; 'I' for Inactive)
REMARK    1  A    between atoms: C1_2  and  C2_3 
ROOT
ATOM      1  C2  UNL d   1      -0.083  -0.574  -0.564  0.00  0.00    -0.081 A 
ATOM      2  C3  UNL d   1       0.976   0.261  -0.941  0.00  0.00     0.006 A 
ATOM      3  C4  UNL d   1       0.884   1.644  -0.767  0.00  0.00     0.002 A 
ATOM      4  C5  UNL d   1      -0.264   2.214  -0.207  0.00  0.00    -0.080 A 
ATOM      5  C6  UNL d   1      -0.364   3.694   0.013  0.00  0.00     0.076 C 
ATOM      6  C7  UNL d   1      -1.329   1.381   0.153  0.00  0.00     0.002 A 
ATOM      7  C8  UNL d   1      -1.238  -0.001  -0.021  0.00  0.00     0.006 A 
ENDROOT
BRANCH   1   8
ATOM      8  C1  UNL d   1       0.039  -2.071  -0.690  0.00  0.00     0.054 C 
ATOM      9  C   UNL d   1       0.091  -2.501  -2.149  0.00  0.00     0.018 C 
ENDBRANCH   1   8
TORSDOF 1
ENDMDL
