MODEL 1
REMARK minimizedAffinity -1.19965863
REMARK minimizedRMSD -1
REMARK  1 active torsions:
REMARK  status: ('A' for Active; 'I' for Inactive)
REMARK    1  A    between atoms: C1_2  and  C2_3 
ROOT
ATOM      1  C2  UNL d   1      -0.390   1.981   0.984  0.00  0.00    -0.081 A 
ATOM      2  C3  UNL d   1       0.607   1.522   0.114  0.00  0.00     0.006 A 
ATOM      3  C4  UNL d   1       0.521   0.248  -0.451  0.00  0.00     0.002 A 
ATOM      4  C5  UNL d   1      -0.565  -0.585  -0.163  0.00  0.00    -0.080 A 
ATOM      5  C6  UNL d   1      -0.685  -1.943  -0.788  0.00  0.00     0.076 C 
ATOM      6  C7  UNL d   1      -1.552  -0.133   0.719  0.00  0.00     0.002 A 
ATOM      7  C8  UNL d   1      -1.467   1.141   1.286  0.00  0.00     0.006 A 
ENDROOT
BRANCH   1   8
ATOM      8  C1  UNL d   1      -0.333   3.380   1.545  0.00  0.00     0.054 C 
ATOM      9  C   UNL d   1      -0.764   3.408   3.004  0.00  0.00     0.018 C 
ENDBRANCH   1   8
TORSDOF 1
ENDMDL
