MODEL 1
REMARK minimizedAffinity -2.14536953
REMARK minimizedRMSD -1
REMARK  1 active torsions:
REMARK  status: ('A' for Active; 'I' for Inactive)
REMARK    1  A    between atoms: C1_2  and  C2_3 
ROOT
ATOM      1  C2  UNL d   1      -0.158  -1.535   0.217  0.00  0.00    -0.081 A 
ATOM      2  C3  UNL d   1      -0.908  -0.355   0.146  0.00  0.00     0.006 A 
ATOM      3  C4  UNL d   1      -0.279   0.870  -0.091  0.00  0.00     0.002 A 
ATOM      4  C5  UNL d   1       1.107   0.933  -0.269  0.00  0.00    -0.080 A 
ATOM      5  C6  UNL d   1       1.791   2.237  -0.554  0.00  0.00     0.076 C 
ATOM      6  C7  UNL d   1       1.858  -0.244  -0.180  0.00  0.00     0.002 A 
ATOM      7  C8  UNL d   1       1.230  -1.468   0.057  0.00  0.00     0.006 A 
ENDROOT
BRANCH   1   8
ATOM      8  C1  UNL d   1      -0.841  -2.866   0.408  0.00  0.00     0.054 C 
ATOM      9  C   UNL d   1      -1.312  -3.442  -0.919  0.00  0.00     0.018 C 
ENDBRANCH   1   8
TORSDOF 1
ENDMDL
