MODEL 1
REMARK minimizedAffinity -5.63973331
REMARK minimizedRMSD -1
REMARK  1 active torsions:
REMARK  status: ('A' for Active; 'I' for Inactive)
REMARK    1  A    between atoms: C1_2  and  C2_3 
ROOT
ATOM      1  C2  UNL d   1       0.097  -0.535  -0.040  0.00  0.00    -0.081 A 
ATOM      2  C3  UNL d   1      -0.991   0.302   0.234  0.00  0.00     0.006 A 
ATOM      3  C4  UNL d   1      -0.848   1.691   0.176  0.00  0.00     0.002 A 
ATOM      4  C5  UNL d   1       0.382   2.264  -0.164  0.00  0.00    -0.080 A 
ATOM      5  C6  UNL d   1       0.541   3.752  -0.258  0.00  0.00     0.076 C 
ATOM      6  C7  UNL d   1       1.473   1.428  -0.420  0.00  0.00     0.002 A 
ATOM      7  C8  UNL d   1       1.331   0.039  -0.362  0.00  0.00     0.006 A 
ENDROOT
BRANCH   1   8
ATOM      8  C1  UNL d   1      -0.071  -2.033  -0.042  0.00  0.00     0.054 C 
ATOM      9  C   UNL d   1      -0.218  -2.572  -1.458  0.00  0.00     0.018 C 
ENDBRANCH   1   8
TORSDOF 1
ENDMDL
