MODEL 1
REMARK minimizedAffinity -2.21779251
REMARK minimizedRMSD -1
REMARK  1 active torsions:
REMARK  status: ('A' for Active; 'I' for Inactive)
REMARK    1  A    between atoms: C1_2  and  C2_3 
ROOT
ATOM      1  C2  UNL d   1      -2.564  -4.514  -0.686  0.00  0.00    -0.081 A 
ATOM      2  C3  UNL d   1      -2.226  -3.256  -1.199  0.00  0.00     0.006 A 
ATOM      3  C4  UNL d   1      -1.220  -3.130  -2.160  0.00  0.00     0.002 A 
ATOM      4  C5  UNL d   1      -0.542  -4.260  -2.630  0.00  0.00    -0.080 A 
ATOM      5  C6  UNL d   1       0.519  -4.142  -3.684  0.00  0.00     0.076 C 
ATOM      6  C7  UNL d   1      -0.867  -5.515  -2.104  0.00  0.00     0.002 A 
ATOM      7  C8  UNL d   1      -1.872  -5.641  -1.143  0.00  0.00     0.006 A 
ENDROOT
BRANCH   1   8
ATOM      8  C1  UNL d   1      -3.692  -4.661   0.303  0.00  0.00     0.054 C 
ATOM      9  C   UNL d   1      -3.623  -5.998   1.028  0.00  0.00     0.018 C 
ENDBRANCH   1   8
TORSDOF 1
ENDMDL
