MODEL 1
REMARK minimizedAffinity -5.17361403
REMARK minimizedRMSD -1
REMARK  1 active torsions:
REMARK  status: ('A' for Active; 'I' for Inactive)
REMARK    1  A    between atoms: C1_2  and  C2_3 
ROOT
ATOM      1  C2  UNL d   1      -0.480  -0.882  -0.021  0.00  0.00    -0.081 A 
ATOM      2  C3  UNL d   1      -1.448  -0.201   0.727  0.00  0.00     0.006 A 
ATOM      3  C4  UNL d   1      -1.323   1.170   0.967  0.00  0.00     0.002 A 
ATOM      4  C5  UNL d   1      -0.233   1.883   0.456  0.00  0.00    -0.080 A 
ATOM      5  C6  UNL d   1      -0.102   3.360   0.681  0.00  0.00     0.076 C 
ATOM      6  C7  UNL d   1       0.743   1.199  -0.276  0.00  0.00     0.002 A 
ATOM      7  C8  UNL d   1       0.619  -0.172  -0.516  0.00  0.00     0.006 A 
ENDROOT
BRANCH   1   8
ATOM      8  C1  UNL d   1      -0.646  -2.347  -0.335  0.00  0.00     0.054 C 
ATOM      9  C   UNL d   1       0.113  -2.731  -1.597  0.00  0.00     0.018 C 
ENDBRANCH   1   8
TORSDOF 1
ENDMDL
