MODEL 1
REMARK minimizedAffinity -4.43886805
REMARK minimizedRMSD -1
REMARK  1 active torsions:
REMARK  status: ('A' for Active; 'I' for Inactive)
REMARK    1  A    between atoms: C1_2  and  C2_3 
ROOT
ATOM      1  C2  UNL d   1       0.025  -1.089  -0.192  0.00  0.00    -0.081 A 
ATOM      2  C3  UNL d   1      -1.121  -0.398   0.219  0.00  0.00     0.006 A 
ATOM      3  C4  UNL d   1      -1.123   0.998   0.276  0.00  0.00     0.002 A 
ATOM      4  C5  UNL d   1       0.016   1.725  -0.084  0.00  0.00    -0.080 A 
ATOM      5  C6  UNL d   1       0.017   3.225  -0.056  0.00  0.00     0.076 C 
ATOM      6  C7  UNL d   1       1.167   1.034  -0.478  0.00  0.00     0.002 A 
ATOM      7  C8  UNL d   1       1.170  -0.362  -0.534  0.00  0.00     0.006 A 
ENDROOT
BRANCH   1   8
ATOM      8  C1  UNL d   1       0.011  -2.591  -0.316  0.00  0.00     0.054 C 
ATOM      9  C   UNL d   1      -0.465  -3.028  -1.695  0.00  0.00     0.018 C 
ENDBRANCH   1   8
TORSDOF 1
ENDMDL
