MODEL 1
REMARK minimizedAffinity -4.28388548
REMARK minimizedRMSD -1
REMARK  1 active torsions:
REMARK  status: ('A' for Active; 'I' for Inactive)
REMARK    1  A    between atoms: C1_2  and  C2_3 
ROOT
ATOM      1  C2  UNL d   1      -0.011  -2.287  -0.606  0.00  0.00    -0.081 A 
ATOM      2  C3  UNL d   1      -0.312  -0.972  -0.981  0.00  0.00     0.006 A 
ATOM      3  C4  UNL d   1       0.444   0.095  -0.490  0.00  0.00     0.002 A 
ATOM      4  C5  UNL d   1       1.517  -0.135   0.378  0.00  0.00    -0.080 A 
ATOM      5  C6  UNL d   1       2.355   1.000   0.888  0.00  0.00     0.076 C 
ATOM      6  C7  UNL d   1       1.807  -1.447   0.766  0.00  0.00     0.002 A 
ATOM      7  C8  UNL d   1       1.051  -2.514   0.276  0.00  0.00     0.006 A 
ENDROOT
BRANCH   1   8
ATOM      8  C1  UNL d   1      -0.783  -3.445  -1.185  0.00  0.00     0.054 C 
ATOM      9  C   UNL d   1      -1.129  -3.203  -2.648  0.00  0.00     0.018 C 
ENDBRANCH   1   8
TORSDOF 1
ENDMDL
