MODEL 1
REMARK minimizedAffinity -3.92749739
REMARK minimizedRMSD -1
REMARK  1 active torsions:
REMARK  status: ('A' for Active; 'I' for Inactive)
REMARK    1  A    between atoms: C1_2  and  C2_3 
ROOT
ATOM      1  C2  UNL d   1      -0.256  -1.192  -0.447  0.00  0.00    -0.081 A 
ATOM      2  C3  UNL d   1      -1.488  -0.535  -0.544  0.00  0.00     0.006 A 
ATOM      3  C4  UNL d   1      -1.570   0.847  -0.357  0.00  0.00     0.002 A 
ATOM      4  C5  UNL d   1      -0.421   1.595  -0.077  0.00  0.00    -0.080 A 
ATOM      5  C6  UNL d   1      -0.491   3.083   0.096  0.00  0.00     0.076 C 
ATOM      6  C7  UNL d   1       0.807   0.936   0.037  0.00  0.00     0.002 A 
ATOM      7  C8  UNL d   1       0.890  -0.446  -0.149  0.00  0.00     0.006 A 
ENDROOT
BRANCH   1   8
ATOM      8  C1  UNL d   1      -0.154  -2.673  -0.712  0.00  0.00     0.054 C 
ATOM      9  C   UNL d   1       0.952  -2.981  -1.711  0.00  0.00     0.018 C 
ENDBRANCH   1   8
TORSDOF 1
ENDMDL
