MODEL 1
REMARK minimizedAffinity -1.81068051
REMARK minimizedRMSD -1
REMARK  1 active torsions:
REMARK  status: ('A' for Active; 'I' for Inactive)
REMARK    1  A    between atoms: C1_2  and  C2_3 
ROOT
ATOM      1  C2  UNL d   1      -0.647  -0.879  -0.007  0.00  0.00    -0.081 A 
ATOM      2  C3  UNL d   1      -1.222  -1.436  -1.156  0.00  0.00     0.006 A 
ATOM      3  C4  UNL d   1      -0.598  -2.496  -1.817  0.00  0.00     0.002 A 
ATOM      4  C5  UNL d   1       0.606  -3.021  -1.337  0.00  0.00    -0.080 A 
ATOM      5  C6  UNL d   1       1.272  -4.179  -2.020  0.00  0.00     0.076 C 
ATOM      6  C7  UNL d   1       1.190  -2.453  -0.199  0.00  0.00     0.002 A 
ATOM      7  C8  UNL d   1       0.566  -1.393   0.462  0.00  0.00     0.006 A 
ENDROOT
BRANCH   1   8
ATOM      8  C1  UNL d   1      -1.351   0.222   0.746  0.00  0.00     0.054 C 
ATOM      9  C   UNL d   1      -0.721   1.577   0.461  0.00  0.00     0.018 C 
ENDBRANCH   1   8
TORSDOF 1
ENDMDL
