MODEL 1
REMARK minimizedAffinity -2.53670096
REMARK minimizedRMSD -1
REMARK  1 active torsions:
REMARK  status: ('A' for Active; 'I' for Inactive)
REMARK    1  A    between atoms: C1_2  and  C2_3 
ROOT
ATOM      1  C2  UNL d   1       0.119  -0.739   0.060  0.00  0.00    -0.081 A 
ATOM      2  C3  UNL d   1      -0.978   0.073   0.370  0.00  0.00     0.006 A 
ATOM      3  C4  UNL d   1      -0.887   1.462   0.248  0.00  0.00     0.002 A 
ATOM      4  C5  UNL d   1       0.298   2.060  -0.192  0.00  0.00    -0.080 A 
ATOM      5  C6  UNL d   1       0.399   3.547  -0.356  0.00  0.00     0.076 C 
ATOM      6  C7  UNL d   1       1.400   1.249  -0.485  0.00  0.00     0.002 A 
ATOM      7  C8  UNL d   1       1.310  -0.139  -0.363  0.00  0.00     0.006 A 
ENDROOT
BRANCH   1   8
ATOM      8  C1  UNL d   1       0.004  -2.241   0.128  0.00  0.00     0.054 C 
ATOM      9  C   UNL d   1      -1.196  -2.740  -0.664  0.00  0.00     0.018 C 
ENDBRANCH   1   8
TORSDOF 1
ENDMDL
