MODEL 1
REMARK minimizedAffinity 17.0107212
REMARK minimizedRMSD -1
REMARK  0 active torsions:
REMARK  status: ('A' for Active; 'I' for Inactive)
ROOT
ATOM      1  C   UNL d   1      -0.030   0.356   2.663  0.00  0.00     0.124 A 
ATOM      2  C1  UNL d   1       1.100  -0.213   2.092  0.00  0.00     0.062 A 
ATOM      3  C2  UNL d   1       1.032  -0.787   0.826  0.00  0.00     0.162 A 
ATOM      4  C3  UNL d   1      -0.171  -0.793   0.120  0.00  0.00    -0.034 A 
ATOM      5  C4  UNL d   1      -1.304  -0.220   0.701  0.00  0.00     0.162 A 
ATOM      6  C5  UNL d   1      -1.231   0.352   1.967  0.00  0.00     0.062 A 
ATOM      7  F   UNL d   1      -2.324   0.902   2.516  0.00  0.00    -0.097 F 
ATOM      8  F1  UNL d   1      -2.477  -0.209   0.050  0.00  0.00    -0.096 F 
ATOM      9  I   UNL d   1      -0.277  -1.650  -1.773  0.00  0.00    -0.060 I 
ATOM     10  F2  UNL d   1       2.140  -1.330   0.300  0.00  0.00    -0.096 F 
ATOM     11  F3  UNL d   1       2.261  -0.212   2.763  0.00  0.00    -0.097 F 
ATOM     12  F4  UNL d   1       0.038   0.906   3.882  0.00  0.00    -0.092 F 
ENDROOT
TORSDOF 0
ENDMDL
