MODEL 1
REMARK minimizedAffinity 4.43264246
REMARK minimizedRMSD -1
REMARK  0 active torsions:
REMARK  status: ('A' for Active; 'I' for Inactive)
ROOT
ATOM      1  C   UNL d   1       2.681   1.077   3.070  0.00  0.00     0.124 A 
ATOM      2  C1  UNL d   1       1.662   1.907   3.516  0.00  0.00     0.062 A 
ATOM      3  C2  UNL d   1       0.360   1.725   3.058  0.00  0.00     0.162 A 
ATOM      4  C3  UNL d   1       0.070   0.708   2.148  0.00  0.00    -0.034 A 
ATOM      5  C4  UNL d   1       1.100  -0.122   1.704  0.00  0.00     0.162 A 
ATOM      6  C5  UNL d   1       2.400   0.064   2.165  0.00  0.00     0.062 A 
ATOM      7  F   UNL d   1       3.383  -0.739   1.733  0.00  0.00    -0.097 F 
ATOM      8  F1  UNL d   1       0.856  -1.110   0.830  0.00  0.00    -0.096 F 
ATOM      9  I   UNL d   1      -1.875   0.433   1.461  0.00  0.00    -0.060 I 
ATOM     10  F2  UNL d   1      -0.605   2.542   3.505  0.00  0.00    -0.096 F 
ATOM     11  F3  UNL d   1       1.931   2.888   4.390  0.00  0.00    -0.097 F 
ATOM     12  F4  UNL d   1       3.933   1.255   3.512  0.00  0.00    -0.092 F 
ENDROOT
TORSDOF 0
ENDMDL
