MODEL 1
REMARK minimizedAffinity 23.8817978
REMARK minimizedRMSD -1
REMARK  0 active torsions:
REMARK  status: ('A' for Active; 'I' for Inactive)
ROOT
ATOM      1  C   UNL d   1       3.825  -0.643   0.918  0.00  0.00     0.124 A 
ATOM      2  C1  UNL d   1       3.144  -1.410   1.854  0.00  0.00     0.062 A 
ATOM      3  C2  UNL d   1       1.806  -1.148   2.132  0.00  0.00     0.162 A 
ATOM      4  C3  UNL d   1       1.138  -0.116   1.474  0.00  0.00    -0.034 A 
ATOM      5  C4  UNL d   1       1.830   0.652   0.534  0.00  0.00     0.162 A 
ATOM      6  C5  UNL d   1       3.167   0.386   0.259  0.00  0.00     0.062 A 
ATOM      7  F   UNL d   1       3.823   1.128  -0.645  0.00  0.00    -0.097 F 
ATOM      8  F1  UNL d   1       1.219   1.652  -0.117  0.00  0.00    -0.096 F 
ATOM      9  I   UNL d   1      -0.863   0.278   1.887  0.00  0.00    -0.060 I 
ATOM     10  F2  UNL d   1       1.173  -1.905   3.041  0.00  0.00    -0.096 F 
ATOM     11  F3  UNL d   1       3.777  -2.404   2.492  0.00  0.00    -0.097 F 
ATOM     12  F4  UNL d   1       5.113  -0.896   0.652  0.00  0.00    -0.092 F 
ENDROOT
TORSDOF 0
ENDMDL
