MODEL 1
REMARK minimizedAffinity 7.32483387
REMARK minimizedRMSD -1
REMARK  0 active torsions:
REMARK  status: ('A' for Active; 'I' for Inactive)
ROOT
ATOM      1  C   UNL d   1       1.754  -0.513   2.803  0.00  0.00     0.124 A 
ATOM      2  C1  UNL d   1       1.658  -0.799   1.448  0.00  0.00     0.062 A 
ATOM      3  C2  UNL d   1       0.459  -0.590   0.772  0.00  0.00     0.162 A 
ATOM      4  C3  UNL d   1      -0.653  -0.090   1.450  0.00  0.00    -0.034 A 
ATOM      5  C4  UNL d   1      -0.548   0.194   2.812  0.00  0.00     0.162 A 
ATOM      6  C5  UNL d   1       0.652  -0.017   3.483  0.00  0.00     0.062 A 
ATOM      7  F   UNL d   1       0.743   0.260   4.792  0.00  0.00    -0.097 F 
ATOM      8  F1  UNL d   1      -1.598   0.676   3.495  0.00  0.00    -0.096 F 
ATOM      9  I   UNL d   1      -2.447   0.224   0.443  0.00  0.00    -0.060 I 
ATOM     10  F2  UNL d   1       0.395  -0.875  -0.537  0.00  0.00    -0.096 F 
ATOM     11  F3  UNL d   1       2.722  -1.280   0.788  0.00  0.00    -0.097 F 
ATOM     12  F4  UNL d   1       2.909  -0.717   3.451  0.00  0.00    -0.092 F 
ENDROOT
TORSDOF 0
ENDMDL
