MODEL 1
REMARK minimizedAffinity 12.341115
REMARK minimizedRMSD -1
REMARK  0 active torsions:
REMARK  status: ('A' for Active; 'I' for Inactive)
ROOT
ATOM      1  C   UNL d   1       2.765  -0.810   1.192  0.00  0.00     0.124 A 
ATOM      2  C1  UNL d   1       2.454  -0.379   2.474  0.00  0.00     0.062 A 
ATOM      3  C2  UNL d   1       1.141  -0.058   2.806  0.00  0.00     0.162 A 
ATOM      4  C3  UNL d   1       0.128  -0.167   1.853  0.00  0.00    -0.034 A 
ATOM      5  C4  UNL d   1       0.448  -0.601   0.566  0.00  0.00     0.162 A 
ATOM      6  C5  UNL d   1       1.762  -0.921   0.239  0.00  0.00     0.062 A 
ATOM      7  F   UNL d   1       2.060  -1.337  -1.000  0.00  0.00    -0.097 F 
ATOM      8  F1  UNL d   1      -0.502  -0.717  -0.374  0.00  0.00    -0.096 F 
ATOM      9  I   UNL d   1      -1.837   0.312   2.345  0.00  0.00    -0.060 I 
ATOM     10  F2  UNL d   1       0.869   0.356   4.053  0.00  0.00    -0.096 F 
ATOM     11  F3  UNL d   1       3.421  -0.271   3.397  0.00  0.00    -0.097 F 
ATOM     12  F4  UNL d   1       4.029  -1.118   0.876  0.00  0.00    -0.092 F 
ENDROOT
TORSDOF 0
ENDMDL
