MODEL 1
REMARK minimizedAffinity 0.988943219
REMARK minimizedRMSD -1
REMARK  1 active torsions:
REMARK  status: ('A' for Active; 'I' for Inactive)
REMARK    1  A    between atoms: C1_2  and  C2_3 
ROOT
ATOM      1  C2  UNL d   1       1.706   1.310  -3.773  0.00  0.00    -0.076 A 
ATOM      2  C3  UNL d   1       0.976   1.254  -2.573  0.00  0.00     0.004 A 
ATOM      3  C4  UNL d   1       0.186   2.327  -2.162  0.00  0.00    -0.003 A 
ATOM      4  C5  UNL d   1       0.113   3.473  -2.946  0.00  0.00     0.000 A 
ATOM      5  C6  UNL d   1       0.816   3.539  -4.148  0.00  0.00     0.000 A 
ATOM      6  C7  UNL d   1       1.604   2.460  -4.584  0.00  0.00    -0.073 A 
ATOM      7  C8  UNL d   1       2.346   2.588  -5.887  0.00  0.00     0.078 C 
ENDROOT
BRANCH   1   8
ATOM      8  C1  UNL d   1       2.566   0.127  -4.153  0.00  0.00     0.053 C 
ATOM      9  C   UNL d   1       1.820  -1.194  -4.048  0.00  0.00     0.018 C 
ENDBRANCH   1   8
TORSDOF 1
ENDMDL
