MODEL 1
REMARK minimizedAffinity -1.34821999
REMARK minimizedRMSD -1
REMARK  1 active torsions:
REMARK  status: ('A' for Active; 'I' for Inactive)
REMARK    1  A    between atoms: C1_2  and  C2_3 
ROOT
ATOM      1  C2  UNL d   1       0.126  -0.124   0.108  0.00  0.00    -0.076 A 
ATOM      2  C3  UNL d   1      -0.960  -0.884   0.575  0.00  0.00     0.004 A 
ATOM      3  C4  UNL d   1      -1.234  -0.982   1.938  0.00  0.00    -0.003 A 
ATOM      4  C5  UNL d   1      -0.426  -0.320   2.856  0.00  0.00     0.000 A 
ATOM      5  C6  UNL d   1       0.646   0.452   2.410  0.00  0.00     0.000 A 
ATOM      6  C7  UNL d   1       0.925   0.575   1.038  0.00  0.00    -0.073 A 
ATOM      7  C8  UNL d   1       2.097   1.416   0.612  0.00  0.00     0.078 C 
ENDROOT
BRANCH   1   8
ATOM      8  C1  UNL d   1       0.390  -0.077  -1.380  0.00  0.00     0.053 C 
ATOM      9  C   UNL d   1       0.256  -1.441  -2.040  0.00  0.00     0.018 C 
ENDBRANCH   1   8
TORSDOF 1
ENDMDL
