MODEL 1
REMARK minimizedAffinity -0.348170936
REMARK minimizedRMSD -1
REMARK  1 active torsions:
REMARK  status: ('A' for Active; 'I' for Inactive)
REMARK    1  A    between atoms: C1_2  and  C2_3 
ROOT
ATOM      1  C2  UNL d   1      -0.094   0.285  -1.292  0.00  0.00    -0.076 A 
ATOM      2  C3  UNL d   1      -1.454   0.612  -1.429  0.00  0.00     0.004 A 
ATOM      3  C4  UNL d   1      -2.346   0.426  -0.375  0.00  0.00    -0.003 A 
ATOM      4  C5  UNL d   1      -1.893  -0.091   0.834  0.00  0.00     0.000 A 
ATOM      5  C6  UNL d   1      -0.544  -0.405   0.993  0.00  0.00     0.000 A 
ATOM      6  C7  UNL d   1       0.372  -0.207  -0.055  0.00  0.00    -0.073 A 
ATOM      7  C8  UNL d   1       1.815  -0.569   0.170  0.00  0.00     0.078 C 
ENDROOT
BRANCH   1   8
ATOM      8  C1  UNL d   1       0.822   0.484  -2.479  0.00  0.00     0.053 C 
ATOM      9  C   UNL d   1       0.829  -0.714  -3.416  0.00  0.00     0.018 C 
ENDBRANCH   1   8
TORSDOF 1
ENDMDL
