MODEL 1
REMARK minimizedAffinity -2.15046978
REMARK minimizedRMSD -1
REMARK  1 active torsions:
REMARK  status: ('A' for Active; 'I' for Inactive)
REMARK    1  A    between atoms: C1_2  and  C2_3 
ROOT
ATOM      1  C2  UNL d   1       0.078   0.202  -0.058  0.00  0.00    -0.076 A 
ATOM      2  C3  UNL d   1       1.366   0.155   0.502  0.00  0.00     0.004 A 
ATOM      3  C4  UNL d   1       1.549  -0.110   1.858  0.00  0.00    -0.003 A 
ATOM      4  C5  UNL d   1       0.447  -0.333   2.676  0.00  0.00     0.000 A 
ATOM      5  C6  UNL d   1      -0.837  -0.307   2.133  0.00  0.00     0.000 A 
ATOM      6  C7  UNL d   1      -1.039  -0.057   0.765  0.00  0.00    -0.073 A 
ATOM      7  C8  UNL d   1      -2.446  -0.035   0.235  0.00  0.00     0.078 C 
ENDROOT
BRANCH   1   8
ATOM      8  C1  UNL d   1      -0.061   0.521  -1.530  0.00  0.00     0.053 C 
ATOM      9  C   UNL d   1       0.745  -0.422  -2.409  0.00  0.00     0.018 C 
ENDBRANCH   1   8
TORSDOF 1
ENDMDL
