MODEL 1
REMARK minimizedAffinity -5.10022974
REMARK minimizedRMSD -1
REMARK  1 active torsions:
REMARK  status: ('A' for Active; 'I' for Inactive)
REMARK    1  A    between atoms: C1_2  and  C2_3 
ROOT
ATOM      1  C2  UNL d   1       0.135  -0.266   0.267  0.00  0.00    -0.076 A 
ATOM      2  C3  UNL d   1      -0.996  -0.985   0.691  0.00  0.00     0.004 A 
ATOM      3  C4  UNL d   1      -1.267  -1.162   2.046  0.00  0.00    -0.003 A 
ATOM      4  C5  UNL d   1      -0.411  -0.623   3.001  0.00  0.00     0.000 A 
ATOM      5  C6  UNL d   1       0.706   0.107   2.598  0.00  0.00     0.000 A 
ATOM      6  C7  UNL d   1       0.985   0.309   1.236  0.00  0.00    -0.073 A 
ATOM      7  C8  UNL d   1       2.207   1.100   0.858  0.00  0.00     0.078 C 
ENDROOT
BRANCH   1   8
ATOM      8  C1  UNL d   1       0.393  -0.130  -1.217  0.00  0.00     0.053 C 
ATOM      9  C   UNL d   1       0.720  -1.461  -1.876  0.00  0.00     0.018 C 
ENDBRANCH   1   8
TORSDOF 1
ENDMDL
