MODEL 1
REMARK minimizedAffinity -3.07737112
REMARK minimizedRMSD -1
REMARK  1 active torsions:
REMARK  status: ('A' for Active; 'I' for Inactive)
REMARK    1  A    between atoms: C1_2  and  C2_3 
ROOT
ATOM      1  C2  UNL d   1      -0.884  -0.317   1.199  0.00  0.00    -0.076 A 
ATOM      2  C3  UNL d   1       0.394   0.218   0.963  0.00  0.00     0.004 A 
ATOM      3  C4  UNL d   1       0.653   0.980  -0.175  0.00  0.00    -0.003 A 
ATOM      4  C5  UNL d   1      -0.362   1.222  -1.094  0.00  0.00     0.000 A 
ATOM      5  C6  UNL d   1      -1.640   0.714  -0.866  0.00  0.00     0.000 A 
ATOM      6  C7  UNL d   1      -1.923  -0.044   0.284  0.00  0.00    -0.073 A 
ATOM      7  C8  UNL d   1      -3.318  -0.572   0.475  0.00  0.00     0.078 C 
ENDROOT
BRANCH   1   8
ATOM      8  C1  UNL d   1      -1.099  -1.160   2.436  0.00  0.00     0.053 C 
ATOM      9  C   UNL d   1      -1.020  -0.344   3.718  0.00  0.00     0.018 C 
ENDBRANCH   1   8
TORSDOF 1
ENDMDL
