MODEL 1
REMARK minimizedAffinity -4.04384279
REMARK minimizedRMSD -1
REMARK  1 active torsions:
REMARK  status: ('A' for Active; 'I' for Inactive)
REMARK    1  A    between atoms: C1_2  and  C2_3 
ROOT
ATOM      1  C2  UNL d   1      -0.336  -0.529   0.891  0.00  0.00    -0.076 A 
ATOM      2  C3  UNL d   1       0.929   0.049   0.687  0.00  0.00     0.004 A 
ATOM      3  C4  UNL d   1       1.143   0.961  -0.345  0.00  0.00    -0.003 A 
ATOM      4  C5  UNL d   1       0.095   1.310  -1.190  0.00  0.00     0.000 A 
ATOM      5  C6  UNL d   1      -1.171   0.759  -0.991  0.00  0.00     0.000 A 
ATOM      6  C7  UNL d   1      -1.407  -0.149   0.055  0.00  0.00    -0.073 A 
ATOM      7  C8  UNL d   1      -2.791  -0.717   0.220  0.00  0.00     0.078 C 
ENDROOT
BRANCH   1   8
ATOM      8  C1  UNL d   1      -0.501  -1.532   2.010  0.00  0.00     0.053 C 
ATOM      9  C   UNL d   1      -0.743  -0.869   3.357  0.00  0.00     0.018 C 
ENDBRANCH   1   8
TORSDOF 1
ENDMDL
