MODEL 1
REMARK minimizedAffinity -5.54914236
REMARK minimizedRMSD -1
REMARK  1 active torsions:
REMARK  status: ('A' for Active; 'I' for Inactive)
REMARK    1  A    between atoms: C1_2  and  C2_3 
ROOT
ATOM      1  C2  UNL d   1      -1.883   0.494   1.351  0.00  0.00    -0.076 A 
ATOM      2  C3  UNL d   1      -1.859   0.922   0.012  0.00  0.00     0.004 A 
ATOM      3  C4  UNL d   1      -0.797   0.590  -0.828  0.00  0.00    -0.003 A 
ATOM      4  C5  UNL d   1       0.257  -0.176  -0.343  0.00  0.00     0.000 A 
ATOM      5  C6  UNL d   1       0.241  -0.624   0.977  0.00  0.00     0.000 A 
ATOM      6  C7  UNL d   1      -0.830  -0.312   1.833  0.00  0.00    -0.073 A 
ATOM      7  C8  UNL d   1      -0.793  -0.817   3.249  0.00  0.00     0.078 C 
ENDROOT
BRANCH   1   8
ATOM      8  C1  UNL d   1      -3.048   0.907   2.222  0.00  0.00     0.053 C 
ATOM      9  C   UNL d   1      -2.828   2.257   2.887  0.00  0.00     0.018 C 
ENDBRANCH   1   8
TORSDOF 1
ENDMDL
