MODEL 1
REMARK minimizedAffinity -5.59175253
REMARK minimizedRMSD -1
REMARK  1 active torsions:
REMARK  status: ('A' for Active; 'I' for Inactive)
REMARK    1  A    between atoms: C1_2  and  C2_3 
ROOT
ATOM      1  C2  UNL d   1      -0.194   0.167   0.471  0.00  0.00    -0.076 A 
ATOM      2  C3  UNL d   1      -1.420  -0.407   0.849  0.00  0.00     0.004 A 
ATOM      3  C4  UNL d   1      -1.642  -0.828   2.159  0.00  0.00    -0.003 A 
ATOM      4  C5  UNL d   1      -0.640  -0.681   3.113  0.00  0.00     0.000 A 
ATOM      5  C6  UNL d   1       0.576  -0.098   2.759  0.00  0.00     0.000 A 
ATOM      6  C7  UNL d   1       0.810   0.347   1.447  0.00  0.00    -0.073 A 
ATOM      7  C8  UNL d   1       2.142   0.963   1.120  0.00  0.00     0.078 C 
ENDROOT
BRANCH   1   8
ATOM      8  C1  UNL d   1      -0.001   0.580  -0.971  0.00  0.00     0.053 C 
ATOM      9  C   UNL d   1       0.641  -0.515  -1.810  0.00  0.00     0.018 C 
ENDBRANCH   1   8
TORSDOF 1
ENDMDL
