MODEL 1
REMARK minimizedAffinity -4.35998058
REMARK minimizedRMSD -1
REMARK  1 active torsions:
REMARK  status: ('A' for Active; 'I' for Inactive)
REMARK    1  A    between atoms: C1_2  and  C2_3 
ROOT
ATOM      1  C2  UNL d   1       0.022   0.246   0.176  0.00  0.00    -0.076 A 
ATOM      2  C3  UNL d   1       1.295   0.252   0.772  0.00  0.00     0.004 A 
ATOM      3  C4  UNL d   1       1.443   0.105   2.150  0.00  0.00    -0.003 A 
ATOM      4  C5  UNL d   1       0.319  -0.050   2.955  0.00  0.00     0.000 A 
ATOM      5  C6  UNL d   1      -0.950  -0.076   2.379  0.00  0.00     0.000 A 
ATOM      6  C7  UNL d   1      -1.115   0.054   0.989  0.00  0.00    -0.073 A 
ATOM      7  C8  UNL d   1      -2.508   0.025   0.422  0.00  0.00     0.078 C 
ENDROOT
BRANCH   1   8
ATOM      8  C1  UNL d   1      -0.078   0.437  -1.321  0.00  0.00     0.053 C 
ATOM      9  C   UNL d   1       0.998  -0.326  -2.078  0.00  0.00     0.018 C 
ENDBRANCH   1   8
TORSDOF 1
ENDMDL
