MODEL 1
REMARK minimizedAffinity 0.149377391
REMARK minimizedRMSD -1
REMARK  1 active torsions:
REMARK  status: ('A' for Active; 'I' for Inactive)
REMARK    1  A    between atoms: C3_4  and  O_7 
ROOT
ATOM      1  C   UNL d   1       2.344  -5.952   3.865  0.00  0.00    -0.033 A 
ATOM      2  C1  UNL d   1       3.529  -5.978   3.126  0.00  0.00     0.039 A 
ATOM      3  C2  UNL d   1       4.762  -5.994   3.782  0.00  0.00    -0.080 A 
ATOM      4  C3  UNL d   1       4.796  -5.984   5.174  0.00  0.00     0.150 A 
ATOM      5  C4  UNL d   1       3.620  -5.962   5.915  0.00  0.00    -0.007 A 
ATOM      6  C5  UNL d   1       2.390  -5.945   5.259  0.00  0.00     0.039 A 
ENDROOT
BRANCH   4   7
ATOM      7  O   UNL d   1       5.975  -5.993   5.858  0.00  0.00    -0.526 OA
ATOM      8  H5  UNL d   1       6.704  -5.979   5.215  0.00  0.00     0.418 HD
ENDBRANCH   4   7
TORSDOF 1
ENDMDL
