MODEL 1
REMARK minimizedAffinity -0.988872468
REMARK minimizedRMSD -1
REMARK  1 active torsions:
REMARK  status: ('A' for Active; 'I' for Inactive)
REMARK    1  A    between atoms: C3_4  and  O_7 
ROOT
ATOM      1  C   UNL d   1       5.282  -0.060  -5.252  0.00  0.00    -0.033 A 
ATOM      2  C1  UNL d   1       6.000   0.351  -4.127  0.00  0.00     0.039 A 
ATOM      3  C2  UNL d   1       6.000   1.695  -3.749  0.00  0.00    -0.080 A 
ATOM      4  C3  UNL d   1       5.278   2.617  -4.503  0.00  0.00     0.150 A 
ATOM      5  C4  UNL d   1       4.558   2.214  -5.623  0.00  0.00    -0.007 A 
ATOM      6  C5  UNL d   1       4.560   0.872  -5.999  0.00  0.00     0.039 A 
ENDROOT
BRANCH   4   7
ATOM      7  O   UNL d   1       5.252   3.940  -4.176  0.00  0.00    -0.526 OA
ATOM      8  H5  UNL d   1       5.818   4.076  -3.398  0.00  0.00     0.418 HD
ENDBRANCH   4   7
TORSDOF 1
ENDMDL
