MODEL 1
REMARK minimizedAffinity -1.4256196
REMARK minimizedRMSD -1
REMARK  1 active torsions:
REMARK  status: ('A' for Active; 'I' for Inactive)
REMARK    1  A    between atoms: C3_4  and  O_7 
ROOT
ATOM      1  C   UNL d   1       5.530   0.527  -5.602  0.00  0.00    -0.033 A 
ATOM      2  C1  UNL d   1       5.969   1.798  -5.226  0.00  0.00     0.039 A 
ATOM      3  C2  UNL d   1       5.084   2.877  -5.238  0.00  0.00    -0.080 A 
ATOM      4  C3  UNL d   1       3.763   2.673  -5.628  0.00  0.00     0.150 A 
ATOM      5  C4  UNL d   1       3.317   1.409  -6.000  0.00  0.00    -0.007 A 
ATOM      6  C5  UNL d   1       4.203   0.332  -5.987  0.00  0.00     0.039 A 
ENDROOT
BRANCH   4   7
ATOM      7  O   UNL d   1       2.863   3.696  -5.661  0.00  0.00    -0.526 OA
ATOM      8  H5  UNL d   1       3.319   4.515  -5.406  0.00  0.00     0.418 HD
ENDBRANCH   4   7
TORSDOF 1
ENDMDL
