MODEL 1
REMARK minimizedAffinity 1.23751187
REMARK minimizedRMSD -1
REMARK  1 active torsions:
REMARK  status: ('A' for Active; 'I' for Inactive)
REMARK    1  A    between atoms: C3_4  and  O_7 
ROOT
ATOM      1  C   UNL d   1      -1.106  -4.822   1.123  0.00  0.00    -0.033 A 
ATOM      2  C1  UNL d   1       0.177  -5.101   1.596  0.00  0.00     0.039 A 
ATOM      3  C2  UNL d   1       1.258  -4.315   1.192  0.00  0.00    -0.080 A 
ATOM      4  C3  UNL d   1       1.043  -3.254   0.317  0.00  0.00     0.150 A 
ATOM      5  C4  UNL d   1      -0.234  -2.968  -0.155  0.00  0.00    -0.007 A 
ATOM      6  C5  UNL d   1      -1.312  -3.754   0.248  0.00  0.00     0.039 A 
ENDROOT
BRANCH   4   7
ATOM      7  O   UNL d   1       2.067  -2.462  -0.109  0.00  0.00    -0.526 OA
ATOM      8  H5  UNL d   1       2.895  -2.795   0.277  0.00  0.00     0.418 HD
ENDBRANCH   4   7
TORSDOF 1
ENDMDL
