MODEL 1
REMARK minimizedAffinity -0.706722975
REMARK minimizedRMSD -1
REMARK  1 active torsions:
REMARK  status: ('A' for Active; 'I' for Inactive)
REMARK    1  A    between atoms: C3_4  and  O_7 
ROOT
ATOM      1  C   UNL d   1       0.965   1.646  -2.583  0.00  0.00    -0.033 A 
ATOM      2  C1  UNL d   1       0.734   1.330  -1.242  0.00  0.00     0.039 A 
ATOM      3  C2  UNL d   1       0.833   0.006  -0.808  0.00  0.00    -0.080 A 
ATOM      4  C3  UNL d   1       1.165  -0.990  -1.723  0.00  0.00     0.150 A 
ATOM      5  C4  UNL d   1       1.400  -0.681  -3.059  0.00  0.00    -0.007 A 
ATOM      6  C5  UNL d   1       1.299   0.641  -3.490  0.00  0.00     0.039 A 
ENDROOT
BRANCH   4   7
ATOM      7  O   UNL d   1       1.269  -2.296  -1.347  0.00  0.00    -0.526 OA
ATOM      8  H5  UNL d   1       1.052  -2.363  -0.402  0.00  0.00     0.418 HD
ENDBRANCH   4   7
TORSDOF 1
ENDMDL
