MODEL 1
REMARK minimizedAffinity -3.75803304
REMARK minimizedRMSD -1
REMARK  1 active torsions:
REMARK  status: ('A' for Active; 'I' for Inactive)
REMARK    1  A    between atoms: C3_4  and  O_7 
ROOT
ATOM      1  C   UNL d   1       1.157   0.057  -0.522  0.00  0.00    -0.033 A 
ATOM      2  C1  UNL d   1       1.538  -1.164  -1.083  0.00  0.00     0.039 A 
ATOM      3  C2  UNL d   1       1.531  -1.330  -2.469  0.00  0.00    -0.080 A 
ATOM      4  C3  UNL d   1       1.141  -0.269  -3.282  0.00  0.00     0.150 A 
ATOM      5  C4  UNL d   1       0.763   0.951  -2.731  0.00  0.00    -0.007 A 
ATOM      6  C5  UNL d   1       0.771   1.114  -1.346  0.00  0.00     0.039 A 
ENDROOT
BRANCH   4   7
ATOM      7  O   UNL d   1       1.113  -0.386  -4.640  0.00  0.00    -0.526 OA
ATOM      8  H5  UNL d   1       1.371  -1.292  -4.877  0.00  0.00     0.418 HD
ENDBRANCH   4   7
TORSDOF 1
ENDMDL
