MODEL 1
REMARK minimizedAffinity -0.318293601
REMARK minimizedRMSD -1
REMARK  1 active torsions:
REMARK  status: ('A' for Active; 'I' for Inactive)
REMARK    1  A    between atoms: C3_4  and  O_7 
ROOT
ATOM      1  C   UNL d   1       5.989   0.855  -4.531  0.00  0.00    -0.033 A 
ATOM      2  C1  UNL d   1       5.155   0.756  -5.647  0.00  0.00     0.039 A 
ATOM      3  C2  UNL d   1       4.328   1.825  -5.999  0.00  0.00    -0.080 A 
ATOM      4  C3  UNL d   1       4.345   2.985  -5.229  0.00  0.00     0.150 A 
ATOM      5  C4  UNL d   1       5.176   3.091  -4.119  0.00  0.00    -0.007 A 
ATOM      6  C5  UNL d   1       6.000   2.023  -3.768  0.00  0.00     0.039 A 
ENDROOT
BRANCH   4   7
ATOM      7  O   UNL d   1       3.552   4.052  -5.531  0.00  0.00    -0.526 OA
ATOM      8  H5  UNL d   1       3.012   3.824  -6.306  0.00  0.00     0.418 HD
ENDBRANCH   4   7
TORSDOF 1
ENDMDL
