MODEL 1
REMARK minimizedAffinity 0.487949967
REMARK minimizedRMSD -1
REMARK  1 active torsions:
REMARK  status: ('A' for Active; 'I' for Inactive)
REMARK    1  A    between atoms: C3_4  and  O_7 
ROOT
ATOM      1  C   UNL d   1       1.311   0.310  -2.699  0.00  0.00    -0.033 A 
ATOM      2  C1  UNL d   1       1.523  -0.401  -3.883  0.00  0.00     0.039 A 
ATOM      3  C2  UNL d   1       1.542  -1.797  -3.867  0.00  0.00    -0.080 A 
ATOM      4  C3  UNL d   1       1.346  -2.469  -2.664  0.00  0.00     0.150 A 
ATOM      5  C4  UNL d   1       1.130  -1.768  -1.482  0.00  0.00    -0.007 A 
ATOM      6  C5  UNL d   1       1.113  -0.374  -1.499  0.00  0.00     0.039 A 
ENDROOT
BRANCH   4   7
ATOM      7  O   UNL d   1       1.360  -3.831  -2.598  0.00  0.00    -0.526 OA
ATOM      8  H5  UNL d   1       1.549  -4.180  -3.485  0.00  0.00     0.418 HD
ENDBRANCH   4   7
TORSDOF 1
ENDMDL
