MODEL 1
REMARK minimizedAffinity 1.27996576
REMARK minimizedRMSD -1
REMARK  1 active torsions:
REMARK  status: ('A' for Active; 'I' for Inactive)
REMARK    1  A    between atoms: C3_4  and  O_7 
ROOT
ATOM      1  C   UNL d   1       0.664   1.043  -2.100  0.00  0.00    -0.033 A 
ATOM      2  C1  UNL d   1       1.220   0.660  -3.322  0.00  0.00     0.039 A 
ATOM      3  C2  UNL d   1       1.571  -0.673  -3.545  0.00  0.00    -0.080 A 
ATOM      4  C3  UNL d   1       1.360  -1.612  -2.540  0.00  0.00     0.150 A 
ATOM      5  C4  UNL d   1       0.803  -1.238  -1.321  0.00  0.00    -0.007 A 
ATOM      6  C5  UNL d   1       0.454   0.093  -1.100  0.00  0.00     0.039 A 
ENDROOT
BRANCH   4   7
ATOM      7  O   UNL d   1       1.691  -2.924  -2.709  0.00  0.00    -0.526 OA
ATOM      8  H5  UNL d   1       2.091  -3.029  -3.588  0.00  0.00     0.418 HD
ENDBRANCH   4   7
TORSDOF 1
ENDMDL
