MODEL 1
REMARK minimizedAffinity 0.965190709
REMARK minimizedRMSD -1
REMARK  1 active torsions:
REMARK  status: ('A' for Active; 'I' for Inactive)
REMARK    1  A    between atoms: C3_4  and  O_7 
ROOT
ATOM      1  C   UNL d   1       5.999   1.156  -4.855  0.00  0.00    -0.033 A 
ATOM      2  C1  UNL d   1       4.953   0.765  -5.692  0.00  0.00     0.039 A 
ATOM      3  C2  UNL d   1       3.897   1.641  -5.949  0.00  0.00    -0.080 A 
ATOM      4  C3  UNL d   1       3.900   2.905  -5.365  0.00  0.00     0.150 A 
ATOM      5  C4  UNL d   1       4.941   3.303  -4.533  0.00  0.00    -0.007 A 
ATOM      6  C5  UNL d   1       5.994   2.426  -4.277  0.00  0.00     0.039 A 
ENDROOT
BRANCH   4   7
ATOM      7  O   UNL d   1       2.889   3.793  -5.583  0.00  0.00    -0.526 OA
ATOM      8  H5  UNL d   1       2.226   3.371  -6.154  0.00  0.00     0.418 HD
ENDBRANCH   4   7
TORSDOF 1
ENDMDL
