MODEL 1
REMARK minimizedAffinity -4.09970951
REMARK minimizedRMSD -1
REMARK  1 active torsions:
REMARK  status: ('A' for Active; 'I' for Inactive)
REMARK    1  A    between atoms: C3_4  and  O_7 
ROOT
ATOM      1  C   UNL d   1       0.780   0.029  -0.572  0.00  0.00    -0.033 A 
ATOM      2  C1  UNL d   1       1.253  -1.139  -1.174  0.00  0.00     0.039 A 
ATOM      3  C2  UNL d   1       1.602  -1.138  -2.526  0.00  0.00    -0.080 A 
ATOM      4  C3  UNL d   1       1.477   0.036  -3.263  0.00  0.00     0.150 A 
ATOM      5  C4  UNL d   1       1.011   1.204  -2.670  0.00  0.00    -0.007 A 
ATOM      6  C5  UNL d   1       0.661   1.201  -1.320  0.00  0.00     0.039 A 
ENDROOT
BRANCH   4   7
ATOM      7  O   UNL d   1       1.801   0.084  -4.586  0.00  0.00    -0.526 OA
ATOM      8  H5  UNL d   1       2.081  -0.803  -4.867  0.00  0.00     0.418 HD
ENDBRANCH   4   7
TORSDOF 1
ENDMDL
