MODEL 1
REMARK minimizedAffinity 0.60557121
REMARK minimizedRMSD -1
REMARK  1 active torsions:
REMARK  status: ('A' for Active; 'I' for Inactive)
REMARK    1  A    between atoms: C3_4  and  O_7 
ROOT
ATOM      1  C   UNL d   1       1.004  -1.242  -0.603  0.00  0.00    -0.033 A 
ATOM      2  C1  UNL d   1       1.157   0.116  -0.318  0.00  0.00     0.039 A 
ATOM      3  C2  UNL d   1       1.143   1.054  -1.353  0.00  0.00    -0.080 A 
ATOM      4  C3  UNL d   1       0.974   0.622  -2.665  0.00  0.00     0.150 A 
ATOM      5  C4  UNL d   1       0.817  -0.730  -2.956  0.00  0.00    -0.007 A 
ATOM      6  C5  UNL d   1       0.832  -1.665  -1.922  0.00  0.00     0.039 A 
ENDROOT
BRANCH   4   7
ATOM      7  O   UNL d   1       0.958   1.499  -3.708  0.00  0.00    -0.526 OA
ATOM      8  H5  UNL d   1       1.107   2.394  -3.359  0.00  0.00     0.418 HD
ENDBRANCH   4   7
TORSDOF 1
ENDMDL
