MODEL 1
REMARK minimizedAffinity -0.167519882
REMARK minimizedRMSD -1
REMARK  1 active torsions:
REMARK  status: ('A' for Active; 'I' for Inactive)
REMARK    1  A    between atoms: C3_4  and  O_7 
ROOT
ATOM      1  C   UNL d   1       0.795   1.439  -2.540  0.00  0.00    -0.033 A 
ATOM      2  C1  UNL d   1       1.322   0.849  -3.691  0.00  0.00     0.039 A 
ATOM      3  C2  UNL d   1       1.556  -0.527  -3.728  0.00  0.00    -0.080 A 
ATOM      4  C3  UNL d   1       1.257  -1.301  -2.610  0.00  0.00     0.150 A 
ATOM      5  C4  UNL d   1       0.728  -0.721  -1.462  0.00  0.00    -0.007 A 
ATOM      6  C5  UNL d   1       0.496   0.653  -1.426  0.00  0.00     0.039 A 
ENDROOT
BRANCH   4   7
ATOM      7  O   UNL d   1       1.472  -2.647  -2.597  0.00  0.00    -0.526 OA
ATOM      8  H5  UNL d   1       1.867  -2.904  -3.447  0.00  0.00     0.418 HD
ENDBRANCH   4   7
TORSDOF 1
ENDMDL
