MODEL 1
REMARK minimizedAffinity 0.453616709
REMARK minimizedRMSD -1
REMARK  1 active torsions:
REMARK  status: ('A' for Active; 'I' for Inactive)
REMARK    1  A    between atoms: C3_4  and  O_7 
ROOT
ATOM      1  C   UNL d   1      -3.023   3.587   4.023  0.00  0.00    -0.033 A 
ATOM      2  C1  UNL d   1      -3.234   4.892   3.572  0.00  0.00     0.039 A 
ATOM      3  C2  UNL d   1      -4.149   5.719   4.226  0.00  0.00    -0.080 A 
ATOM      4  C3  UNL d   1      -4.844   5.231   5.329  0.00  0.00     0.150 A 
ATOM      5  C4  UNL d   1      -4.636   3.934   5.786  0.00  0.00    -0.007 A 
ATOM      6  C5  UNL d   1      -3.723   3.109   5.131  0.00  0.00     0.039 A 
ENDROOT
BRANCH   4   7
ATOM      7  O   UNL d   1      -5.750   6.000   5.997  0.00  0.00    -0.526 OA
ATOM      8  H5  UNL d   1      -5.810   6.862   5.552  0.00  0.00     0.418 HD
ENDBRANCH   4   7
TORSDOF 1
ENDMDL
