MODEL 1
REMARK minimizedAffinity -1.58877671
REMARK minimizedRMSD -1
REMARK  1 active torsions:
REMARK  status: ('A' for Active; 'I' for Inactive)
REMARK    1  A    between atoms: C3_4  and  O_7 
ROOT
ATOM      1  C   UNL d   1       1.819  -1.347  -4.383  0.00  0.00    -0.033 A 
ATOM      2  C1  UNL d   1       1.296  -1.907  -3.216  0.00  0.00     0.039 A 
ATOM      3  C2  UNL d   1       0.828  -1.080  -2.193  0.00  0.00    -0.080 A 
ATOM      4  C3  UNL d   1       0.886   0.302  -2.349  0.00  0.00     0.150 A 
ATOM      5  C4  UNL d   1       1.402   0.866  -3.511  0.00  0.00    -0.007 A 
ATOM      6  C5  UNL d   1       1.871   0.039  -4.531  0.00  0.00     0.039 A 
ENDROOT
BRANCH   4   7
ATOM      7  O   UNL d   1       0.445   1.149  -1.376  0.00  0.00    -0.526 OA
ATOM      8  H5  UNL d   1       0.143   0.618  -0.620  0.00  0.00     0.418 HD
ENDBRANCH   4   7
TORSDOF 1
ENDMDL
