MODEL 1
REMARK minimizedAffinity -0.968174696
REMARK minimizedRMSD -1
REMARK  1 active torsions:
REMARK  status: ('A' for Active; 'I' for Inactive)
REMARK    1  A    between atoms: C3_4  and  O_7 
ROOT
ATOM      1  C   UNL d   1       0.784   1.654  -1.876  0.00  0.00    -0.033 A 
ATOM      2  C1  UNL d   1       1.356   1.267  -3.090  0.00  0.00     0.039 A 
ATOM      3  C2  UNL d   1       1.626  -0.080  -3.338  0.00  0.00    -0.080 A 
ATOM      4  C3  UNL d   1       1.318  -1.029  -2.367  0.00  0.00     0.150 A 
ATOM      5  C4  UNL d   1       0.745  -0.651  -1.158  0.00  0.00    -0.007 A 
ATOM      6  C5  UNL d   1       0.477   0.694  -0.911  0.00  0.00     0.039 A 
ENDROOT
BRANCH   4   7
ATOM      7  O   UNL d   1       1.568  -2.355  -2.563  0.00  0.00    -0.526 OA
ATOM      8  H5  UNL d   1       1.991  -2.464  -3.431  0.00  0.00     0.418 HD
ENDBRANCH   4   7
TORSDOF 1
ENDMDL
