MODEL 1
REMARK minimizedAffinity 4.46281242
REMARK minimizedRMSD -1
REMARK  0 active torsions:
REMARK  status: ('A' for Active; 'I' for Inactive)
ROOT
ATOM      1  O1  BZF d   1       4.148   0.761  -2.255  0.00  0.00    -0.204 OA
ATOM      2  C2  BZF d   1       4.203   1.520  -1.103  0.00  0.00     0.174 A 
ATOM      3  C3  BZF d   1       3.587   0.889  -0.083  0.00  0.00    -0.012 A 
ATOM      4  C3A BZF d   1       3.197  -0.384  -0.609  0.00  0.00    -0.107 A 
ATOM      5  C4  BZF d   1       2.558  -1.465  -0.074  0.00  0.00     0.055 A 
ATOM      6  C5  BZF d   1       2.264  -2.522  -0.876  0.00  0.00    -0.016 A 
ATOM      7  C6  BZF d   1       2.589  -2.529  -2.216  0.00  0.00     0.022 A 
ATOM      8  C7  BZF d   1       3.227  -1.481  -2.792  0.00  0.00     0.029 A 
ATOM      9  C7A BZF d   1       3.555  -0.426  -1.977  0.00  0.00     0.058 A 
ENDROOT
TORSDOF 0
ENDMDL
