MODEL 1
REMARK minimizedAffinity 0.814926982
REMARK minimizedRMSD -1
REMARK  0 active torsions:
REMARK  status: ('A' for Active; 'I' for Inactive)
ROOT
ATOM      1  O1  BZF d   1       2.186   1.915   5.992  0.00  0.00    -0.204 OA
ATOM      2  C2  BZF d   1       3.384   1.227   5.998  0.00  0.00     0.174 A 
ATOM      3  C3  BZF d   1       4.426   2.080   5.931  0.00  0.00    -0.012 A 
ATOM      4  C3A BZF d   1       3.845   3.387   5.972  0.00  0.00    -0.107 A 
ATOM      5  C4  BZF d   1       4.369   4.648   5.954  0.00  0.00     0.055 A 
ATOM      6  C5  BZF d   1       3.525   5.714   5.933  0.00  0.00    -0.016 A 
ATOM      7  C6  BZF d   1       2.155   5.555   5.923  0.00  0.00     0.022 A 
ATOM      8  C7  BZF d   1       1.589   4.324   5.945  0.00  0.00     0.029 A 
ATOM      9  C7A BZF d   1       2.438   3.246   6.000  0.00  0.00     0.058 A 
ENDROOT
TORSDOF 0
ENDMDL
