MODEL 1
REMARK minimizedAffinity 8.64006329
REMARK minimizedRMSD -1
REMARK  0 active torsions:
REMARK  status: ('A' for Active; 'I' for Inactive)
ROOT
ATOM      1  O1  BZF d   1      -0.342  -5.367   5.214  0.00  0.00    -0.204 OA
ATOM      2  C2  BZF d   1       0.603  -5.999   5.999  0.00  0.00     0.174 A 
ATOM      3  C3  BZF d   1       1.763  -5.311   6.000  0.00  0.00    -0.012 A 
ATOM      4  C3A BZF d   1       1.500  -4.130   5.237  0.00  0.00    -0.107 A 
ATOM      5  C4  BZF d   1       2.257  -3.046   4.894  0.00  0.00     0.055 A 
ATOM      6  C5  BZF d   1       1.724  -2.100   4.078  0.00  0.00    -0.016 A 
ATOM      7  C6  BZF d   1       0.440  -2.207   3.584  0.00  0.00     0.022 A 
ATOM      8  C7  BZF d   1      -0.351  -3.261   3.901  0.00  0.00     0.029 A 
ATOM      9  C7A BZF d   1       0.174  -4.202   4.752  0.00  0.00     0.058 A 
ENDROOT
TORSDOF 0
ENDMDL
