MODEL 1
REMARK minimizedAffinity 5.23196125
REMARK minimizedRMSD -1
REMARK  0 active torsions:
REMARK  status: ('A' for Active; 'I' for Inactive)
ROOT
ATOM      1  O1  BZF d   1      -4.682   0.113   0.036  0.00  0.00    -0.204 OA
ATOM      2  C2  BZF d   1      -4.657   1.097   1.006  0.00  0.00     0.174 A 
ATOM      3  C3  BZF d   1      -3.518   1.814   0.931  0.00  0.00    -0.012 A 
ATOM      4  C3A BZF d   1      -2.825   1.302  -0.212  0.00  0.00    -0.107 A 
ATOM      5  C4  BZF d   1      -1.640   1.619  -0.811  0.00  0.00     0.055 A 
ATOM      6  C5  BZF d   1      -1.216   0.879  -1.869  0.00  0.00    -0.016 A 
ATOM      7  C6  BZF d   1      -1.948  -0.187  -2.349  0.00  0.00     0.022 A 
ATOM      8  C7  BZF d   1      -3.132  -0.537  -1.790  0.00  0.00     0.029 A 
ATOM      9  C7A BZF d   1      -3.579   0.230  -0.742  0.00  0.00     0.058 A 
ENDROOT
TORSDOF 0
ENDMDL
