MODEL 1
REMARK minimizedAffinity 10.7543449
REMARK minimizedRMSD -1
REMARK  0 active torsions:
REMARK  status: ('A' for Active; 'I' for Inactive)
ROOT
ATOM      1  O1  BZF d   1      -1.469   0.234  -3.642  0.00  0.00    -0.204 OA
ATOM      2  C2  BZF d   1      -1.551  -0.612  -2.554  0.00  0.00     0.174 A 
ATOM      3  C3  BZF d   1      -2.838  -0.891  -2.261  0.00  0.00    -0.012 A 
ATOM      4  C3A BZF d   1      -3.604  -0.247  -3.283  0.00  0.00    -0.107 A 
ATOM      5  C4  BZF d   1      -4.942  -0.171  -3.546  0.00  0.00     0.055 A 
ATOM      6  C5  BZF d   1      -5.370   0.598  -4.581  0.00  0.00    -0.016 A 
ATOM      7  C6  BZF d   1      -4.488   1.309  -5.370  0.00  0.00     0.022 A 
ATOM      8  C7  BZF d   1      -3.152   1.260  -5.151  0.00  0.00     0.029 A 
ATOM      9  C7A BZF d   1      -2.714   0.457  -4.126  0.00  0.00     0.058 A 
ENDROOT
TORSDOF 0
ENDMDL
