MODEL 1
REMARK minimizedAffinity 5.97212505
REMARK minimizedRMSD -1
REMARK  0 active torsions:
REMARK  status: ('A' for Active; 'I' for Inactive)
ROOT
ATOM      1  O1  BZF d   1       0.194   4.572   2.093  0.00  0.00    -0.204 OA
ATOM      2  C2  BZF d   1      -0.382   3.344   1.827  0.00  0.00     0.174 A 
ATOM      3  C3  BZF d   1      -0.919   2.816   2.946  0.00  0.00    -0.012 A 
ATOM      4  C3A BZF d   1      -0.744   3.814   3.955  0.00  0.00    -0.107 A 
ATOM      5  C4  BZF d   1      -1.085   3.884   5.276  0.00  0.00     0.055 A 
ATOM      6  C5  BZF d   1      -0.705   4.969   6.000  0.00  0.00    -0.016 A 
ATOM      7  C6  BZF d   1       0.020   6.000   5.437  0.00  0.00     0.022 A 
ATOM      8  C7  BZF d   1       0.377   5.978   4.130  0.00  0.00     0.029 A 
ATOM      9  C7A BZF d   1      -0.034   4.898   3.388  0.00  0.00     0.058 A 
ENDROOT
TORSDOF 0
ENDMDL
