MODEL 1
REMARK minimizedAffinity 2.25833392
REMARK minimizedRMSD -1
REMARK  1 active torsions:
REMARK  status: ('A' for Active; 'I' for Inactive)
REMARK    1  A    between atoms: C1_2  and  C2_3 
ROOT
ATOM      1  C2  UNL d   1       5.226  -3.498  -5.362  0.00  0.00    -0.073 A 
ATOM      2  C3  UNL d   1       5.962  -2.333  -5.605  0.00  0.00    -0.002 A 
ATOM      3  C4  UNL d   1       5.591  -1.127  -5.008  0.00  0.00     0.004 A 
ATOM      4  C5  UNL d   1       4.486  -1.076  -4.158  0.00  0.00    -0.004 A 
ATOM      5  C6  UNL d   1       3.744  -2.232  -3.894  0.00  0.00    -0.075 A 
ATOM      6  C7  UNL d   1       2.552  -2.193  -2.985  0.00  0.00     0.076 C 
ATOM      7  C8  UNL d   1       4.122  -3.438  -4.500  0.00  0.00     0.001 A 
ENDROOT
BRANCH   1   8
ATOM      8  C1  UNL d   1       5.627  -4.803  -6.000  0.00  0.00     0.053 C 
ATOM      9  C   UNL d   1       5.208  -6.000  -5.161  0.00  0.00     0.018 C 
ENDBRANCH   1   8
TORSDOF 1
ENDMDL
