MODEL 1
REMARK minimizedAffinity 9.97672462
REMARK minimizedRMSD -1
REMARK  1 active torsions:
REMARK  status: ('A' for Active; 'I' for Inactive)
REMARK    1  A    between atoms: C1_2  and  C2_3 
ROOT
ATOM      1  C2  UNL d   1       3.549  -3.377   2.795  0.00  0.00    -0.073 A 
ATOM      2  C3  UNL d   1       3.409  -3.685   4.153  0.00  0.00    -0.002 A 
ATOM      3  C4  UNL d   1       2.538  -2.947   4.956  0.00  0.00     0.004 A 
ATOM      4  C5  UNL d   1       1.795  -1.901   4.410  0.00  0.00    -0.004 A 
ATOM      5  C6  UNL d   1       1.913  -1.586   3.052  0.00  0.00    -0.075 A 
ATOM      6  C7  UNL d   1       1.122  -0.462   2.449  0.00  0.00     0.076 C 
ATOM      7  C8  UNL d   1       2.791  -2.330   2.253  0.00  0.00     0.001 A 
ENDROOT
BRANCH   1   8
ATOM      8  C1  UNL d   1       4.484  -4.175   1.923  0.00  0.00     0.053 C 
ATOM      9  C   UNL d   1       5.943  -3.910   2.258  0.00  0.00     0.018 C 
ENDBRANCH   1   8
TORSDOF 1
ENDMDL
