MODEL 1
REMARK minimizedAffinity 10.6836061
REMARK minimizedRMSD -1
REMARK  1 active torsions:
REMARK  status: ('A' for Active; 'I' for Inactive)
REMARK    1  A    between atoms: C1_2  and  C2_3 
ROOT
ATOM      1  C2  UNL d   1      -1.846   2.170  -0.782  0.00  0.00    -0.073 A 
ATOM      2  C3  UNL d   1      -3.163   1.998  -1.225  0.00  0.00    -0.002 A 
ATOM      3  C4  UNL d   1      -3.420   1.377  -2.448  0.00  0.00     0.004 A 
ATOM      4  C5  UNL d   1      -2.365   0.916  -3.236  0.00  0.00    -0.004 A 
ATOM      5  C6  UNL d   1      -1.044   1.068  -2.806  0.00  0.00    -0.075 A 
ATOM      6  C7  UNL d   1       0.102   0.581  -3.643  0.00  0.00     0.076 C 
ATOM      7  C8  UNL d   1      -0.794   1.695  -1.578  0.00  0.00     0.001 A 
ENDROOT
BRANCH   1   8
ATOM      8  C1  UNL d   1      -1.564   2.834   0.541  0.00  0.00     0.053 C 
ATOM      9  C   UNL d   1      -0.886   4.184   0.368  0.00  0.00     0.018 C 
ENDBRANCH   1   8
TORSDOF 1
ENDMDL
