MODEL 1
REMARK minimizedAffinity 11.4915743
REMARK minimizedRMSD -1
REMARK  1 active torsions:
REMARK  status: ('A' for Active; 'I' for Inactive)
REMARK    1  A    between atoms: C1_2  and  C2_3 
ROOT
ATOM      1  C2  UNL d   1       3.245  -5.288  -4.311  0.00  0.00    -0.073 A 
ATOM      2  C3  UNL d   1       4.304  -6.000  -4.887  0.00  0.00    -0.002 A 
ATOM      3  C4  UNL d   1       5.271  -5.336  -5.642  0.00  0.00     0.004 A 
ATOM      4  C5  UNL d   1       5.194  -3.955  -5.824  0.00  0.00    -0.004 A 
ATOM      5  C6  UNL d   1       4.151  -3.225  -5.246  0.00  0.00    -0.075 A 
ATOM      6  C7  UNL d   1       4.053  -1.739  -5.434  0.00  0.00     0.076 C 
ATOM      7  C8  UNL d   1       3.182  -3.899  -4.491  0.00  0.00     0.001 A 
ENDROOT
BRANCH   1   8
ATOM      8  C1  UNL d   1       2.202  -6.000  -3.488  0.00  0.00     0.053 C 
ATOM      9  C   UNL d   1       1.129  -5.049  -2.983  0.00  0.00     0.018 C 
ENDBRANCH   1   8
TORSDOF 1
ENDMDL
