MODEL 1
REMARK minimizedAffinity 12.8286715
REMARK minimizedRMSD -1
REMARK  1 active torsions:
REMARK  status: ('A' for Active; 'I' for Inactive)
REMARK    1  A    between atoms: C1_2  and  C2_3 
ROOT
ATOM      1  C2  UNL d   1       3.426  -3.216  -4.589  0.00  0.00    -0.073 A 
ATOM      2  C3  UNL d   1       2.458  -4.098  -4.094  0.00  0.00    -0.002 A 
ATOM      3  C4  UNL d   1       2.632  -5.477  -4.218  0.00  0.00     0.004 A 
ATOM      4  C5  UNL d   1       3.776  -5.988  -4.830  0.00  0.00    -0.004 A 
ATOM      5  C6  UNL d   1       4.760  -5.124  -5.320  0.00  0.00    -0.075 A 
ATOM      6  C7  UNL d   1       5.995  -5.658  -5.983  0.00  0.00     0.076 C 
ATOM      7  C8  UNL d   1       4.577  -3.740  -5.195  0.00  0.00     0.001 A 
ENDROOT
BRANCH   1   8
ATOM      8  C1  UNL d   1       3.246  -1.726  -4.452  0.00  0.00     0.053 C 
ATOM      9  C   UNL d   1       1.876  -1.366  -3.901  0.00  0.00     0.018 C 
ENDBRANCH   1   8
TORSDOF 1
ENDMDL
