MODEL 1
REMARK minimizedAffinity 9.07288361
REMARK minimizedRMSD -1
REMARK  1 active torsions:
REMARK  status: ('A' for Active; 'I' for Inactive)
REMARK    1  A    between atoms: C1_2  and  C2_3 
ROOT
ATOM      1  C2  UNL d   1       5.010  -3.688  -5.388  0.00  0.00    -0.073 A 
ATOM      2  C3  UNL d   1       5.775  -4.850  -5.241  0.00  0.00    -0.002 A 
ATOM      3  C4  UNL d   1       5.211  -5.999  -4.684  0.00  0.00     0.004 A 
ATOM      4  C5  UNL d   1       3.878  -6.000  -4.276  0.00  0.00    -0.004 A 
ATOM      5  C6  UNL d   1       3.094  -4.851  -4.425  0.00  0.00    -0.075 A 
ATOM      6  C7  UNL d   1       1.658  -4.835  -3.989  0.00  0.00     0.076 C 
ATOM      7  C8  UNL d   1       3.667  -3.701  -4.983  0.00  0.00     0.001 A 
ENDROOT
BRANCH   1   8
ATOM      8  C1  UNL d   1       5.612  -2.447  -5.994  0.00  0.00     0.053 C 
ATOM      9  C   UNL d   1       4.635  -1.282  -5.998  0.00  0.00     0.018 C 
ENDBRANCH   1   8
TORSDOF 1
ENDMDL
