MODEL 1
REMARK minimizedAffinity 9.84989738
REMARK minimizedRMSD -1
REMARK  1 active torsions:
REMARK  status: ('A' for Active; 'I' for Inactive)
REMARK    1  A    between atoms: C1_2  and  C2_3 
ROOT
ATOM      1  C2  UNL d   1      -3.197   2.015  -2.630  0.00  0.00    -0.073 A 
ATOM      2  C3  UNL d   1      -2.255   1.362  -3.432  0.00  0.00    -0.002 A 
ATOM      3  C4  UNL d   1      -0.967   1.119  -2.951  0.00  0.00     0.004 A 
ATOM      4  C5  UNL d   1      -0.612   1.519  -1.663  0.00  0.00    -0.004 A 
ATOM      5  C6  UNL d   1      -1.543   2.162  -0.842  0.00  0.00    -0.075 A 
ATOM      6  C7  UNL d   1      -1.176   2.601   0.545  0.00  0.00     0.076 C 
ATOM      7  C8  UNL d   1      -2.833   2.405  -1.333  0.00  0.00     0.001 A 
ENDROOT
BRANCH   1   8
ATOM      8  C1  UNL d   1      -4.591   2.274  -3.142  0.00  0.00     0.053 C 
ATOM      9  C   UNL d   1      -4.926   3.757  -3.157  0.00  0.00     0.018 C 
ENDBRANCH   1   8
TORSDOF 1
ENDMDL
