MODEL 1
REMARK minimizedAffinity 12.1927395
REMARK minimizedRMSD -1
REMARK  1 active torsions:
REMARK  status: ('A' for Active; 'I' for Inactive)
REMARK    1  A    between atoms: C1_2  and  C2_3 
ROOT
ATOM      1  C2  UNL d   1      -0.660  -1.120  -0.118  0.00  0.00    -0.073 A 
ATOM      2  C3  UNL d   1      -0.201  -0.728  -1.380  0.00  0.00    -0.002 A 
ATOM      3  C4  UNL d   1       0.431  -1.648  -2.217  0.00  0.00     0.004 A 
ATOM      4  C5  UNL d   1       0.604  -2.970  -1.805  0.00  0.00    -0.004 A 
ATOM      5  C6  UNL d   1       0.141  -3.384  -0.552  0.00  0.00    -0.075 A 
ATOM      6  C7  UNL d   1       0.321  -4.801  -0.093  0.00  0.00     0.076 C 
ATOM      7  C8  UNL d   1      -0.490  -2.453   0.284  0.00  0.00     0.001 A 
ENDROOT
BRANCH   1   8
ATOM      8  C1  UNL d   1      -1.349  -0.132   0.787  0.00  0.00     0.053 C 
ATOM      9  C   UNL d   1      -1.078   1.306   0.372  0.00  0.00     0.018 C 
ENDBRANCH   1   8
TORSDOF 1
ENDMDL
