MODEL 1
REMARK minimizedAffinity 6.0198369
REMARK minimizedRMSD -1
REMARK  1 active torsions:
REMARK  status: ('A' for Active; 'I' for Inactive)
REMARK    1  A    between atoms: C1_2  and  C2_3 
ROOT
ATOM      1  C2  UNL d   1      -4.386  -0.449  -3.442  0.00  0.00    -0.073 A 
ATOM      2  C3  UNL d   1      -3.129  -0.734  -2.896  0.00  0.00    -0.002 A 
ATOM      3  C4  UNL d   1      -2.359   0.284  -2.331  0.00  0.00     0.004 A 
ATOM      4  C5  UNL d   1      -2.840   1.593  -2.298  0.00  0.00    -0.004 A 
ATOM      5  C6  UNL d   1      -4.099   1.895  -2.828  0.00  0.00    -0.075 A 
ATOM      6  C7  UNL d   1      -4.630   3.298  -2.803  0.00  0.00     0.076 C 
ATOM      7  C8  UNL d   1      -4.865   0.868  -3.396  0.00  0.00     0.001 A 
ENDROOT
BRANCH   1   8
ATOM      8  C1  UNL d   1      -5.224  -1.546  -4.048  0.00  0.00     0.053 C 
ATOM      9  C   UNL d   1      -5.963  -1.077  -5.290  0.00  0.00     0.018 C 
ENDBRANCH   1   8
TORSDOF 1
ENDMDL
