MODEL 1
REMARK minimizedAffinity 7.58809948
REMARK minimizedRMSD -1
REMARK  0 active torsions:
REMARK  status: ('A' for Active; 'I' for Inactive)
ROOT
ATOM      1  O1  BZF d   1       1.789   1.489   0.271  0.00  0.00    -0.204 OA
ATOM      2  C2  BZF d   1       2.447   2.653   0.620  0.00  0.00     0.174 A 
ATOM      3  C3  BZF d   1       3.553   2.380   1.342  0.00  0.00    -0.012 A 
ATOM      4  C3A BZF d   1       3.639   0.952   1.373  0.00  0.00    -0.107 A 
ATOM      5  C4  BZF d   1       4.530   0.076   1.925  0.00  0.00     0.055 A 
ATOM      6  C5  BZF d   1       4.286  -1.258   1.836  0.00  0.00    -0.016 A 
ATOM      7  C6  BZF d   1       3.161  -1.750   1.209  0.00  0.00     0.022 A 
ATOM      8  C7  BZF d   1       2.251  -0.921   0.642  0.00  0.00     0.029 A 
ATOM      9  C7A BZF d   1       2.511   0.426   0.700  0.00  0.00     0.058 A 
ENDROOT
TORSDOF 0
ENDMDL
