MODEL 1
REMARK minimizedAffinity 4.6279645
REMARK minimizedRMSD -1
REMARK  0 active torsions:
REMARK  status: ('A' for Active; 'I' for Inactive)
ROOT
ATOM      1  O1  BZF d   1       1.513  -0.920   0.348  0.00  0.00    -0.204 OA
ATOM      2  C2  BZF d   1       2.099  -2.067  -0.152  0.00  0.00     0.174 A 
ATOM      3  C3  BZF d   1       3.335  -1.806  -0.625  0.00  0.00    -0.012 A 
ATOM      4  C3A BZF d   1       3.569  -0.426  -0.325  0.00  0.00    -0.107 A 
ATOM      5  C4  BZF d   1       4.625   0.413  -0.533  0.00  0.00     0.055 A 
ATOM      6  C5  BZF d   1       4.507   1.722  -0.186  0.00  0.00    -0.016 A 
ATOM      7  C6  BZF d   1       3.347   2.225   0.365  0.00  0.00     0.022 A 
ATOM      8  C7  BZF d   1       2.274   1.430   0.594  0.00  0.00     0.029 A 
ATOM      9  C7A BZF d   1       2.402   0.100   0.276  0.00  0.00     0.058 A 
ENDROOT
TORSDOF 0
ENDMDL
