MODEL 1
REMARK minimizedAffinity 2.25804663
REMARK minimizedRMSD -1
REMARK  0 active torsions:
REMARK  status: ('A' for Active; 'I' for Inactive)
ROOT
ATOM      1  O1  BZF d   1       1.109   3.038  -0.157  0.00  0.00    -0.204 OA
ATOM      2  C2  BZF d   1      -0.172   2.552  -0.331  0.00  0.00     0.174 A 
ATOM      3  C3  BZF d   1      -0.168   1.204  -0.389  0.00  0.00    -0.012 A 
ATOM      4  C3A BZF d   1       1.189   0.821  -0.149  0.00  0.00    -0.107 A 
ATOM      5  C4  BZF d   1       1.824  -0.385  -0.067  0.00  0.00     0.055 A 
ATOM      6  C5  BZF d   1       3.171  -0.412   0.105  0.00  0.00    -0.016 A 
ATOM      7  C6  BZF d   1       3.916   0.746   0.193  0.00  0.00     0.022 A 
ATOM      8  C7  BZF d   1       3.330   1.966   0.122  0.00  0.00     0.029 A 
ATOM      9  C7A BZF d   1       1.964   1.997  -0.019  0.00  0.00     0.058 A 
ENDROOT
TORSDOF 0
ENDMDL
