MODEL 1
REMARK minimizedAffinity 4.26509953
REMARK minimizedRMSD -1
REMARK  0 active torsions:
REMARK  status: ('A' for Active; 'I' for Inactive)
ROOT
ATOM      1  O1  BZF d   1       1.464   2.470  -0.076  0.00  0.00    -0.204 OA
ATOM      2  C2  BZF d   1       0.206   2.059  -0.473  0.00  0.00     0.174 A 
ATOM      3  C3  BZF d   1       0.176   0.724  -0.661  0.00  0.00    -0.012 A 
ATOM      4  C3A BZF d   1       1.473   0.260  -0.275  0.00  0.00    -0.107 A 
ATOM      5  C4  BZF d   1       2.052  -0.975  -0.224  0.00  0.00     0.055 A 
ATOM      6  C5  BZF d   1       3.360  -1.078   0.129  0.00  0.00    -0.016 A 
ATOM      7  C6  BZF d   1       4.120   0.032   0.433  0.00  0.00     0.022 A 
ATOM      8  C7  BZF d   1       3.588   1.279   0.402  0.00  0.00     0.029 A 
ATOM      9  C7A BZF d   1       2.258   1.383   0.077  0.00  0.00     0.058 A 
ENDROOT
TORSDOF 0
ENDMDL
