MODEL 1
REMARK minimizedAffinity -1.01465011
REMARK minimizedRMSD -1
REMARK  0 active torsions:
REMARK  status: ('A' for Active; 'I' for Inactive)
ROOT
ATOM      1  O1  BZF d   1       2.535   1.817  -0.678  0.00  0.00    -0.204 OA
ATOM      2  C2  BZF d   1       3.592   1.023  -0.279  0.00  0.00     0.174 A 
ATOM      3  C3  BZF d   1       3.300   0.379   0.870  0.00  0.00    -0.012 A 
ATOM      4  C3A BZF d   1       1.943   0.727   1.161  0.00  0.00    -0.107 A 
ATOM      5  C4  BZF d   1       1.082   0.387   2.165  0.00  0.00     0.055 A 
ATOM      6  C5  BZF d   1      -0.152   0.956   2.198  0.00  0.00    -0.016 A 
ATOM      7  C6  BZF d   1      -0.554   1.872   1.248  0.00  0.00     0.022 A 
ATOM      8  C7  BZF d   1       0.263   2.236   0.230  0.00  0.00     0.029 A 
ATOM      9  C7A BZF d   1       1.498   1.638   0.175  0.00  0.00     0.058 A 
ENDROOT
TORSDOF 0
ENDMDL
