MODEL 1
REMARK minimizedAffinity -0.536306083
REMARK minimizedRMSD -1
REMARK  0 active torsions:
REMARK  status: ('A' for Active; 'I' for Inactive)
ROOT
ATOM      1  O1  BZF d   1       0.199   1.012  -0.944  0.00  0.00    -0.204 OA
ATOM      2  C2  BZF d   1       0.481   2.138  -0.194  0.00  0.00     0.174 A 
ATOM      3  C3  BZF d   1       1.586   1.948   0.557  0.00  0.00    -0.012 A 
ATOM      4  C3A BZF d   1       2.074   0.654   0.188  0.00  0.00    -0.107 A 
ATOM      5  C4  BZF d   1       3.151  -0.089   0.577  0.00  0.00     0.055 A 
ATOM      6  C5  BZF d   1       3.303  -1.344   0.079  0.00  0.00    -0.016 A 
ATOM      7  C6  BZF d   1       2.394  -1.889  -0.804  0.00  0.00     0.022 A 
ATOM      8  C7  BZF d   1       1.312  -1.188  -1.223  0.00  0.00     0.029 A 
ATOM      9  C7A BZF d   1       1.174   0.093  -0.747  0.00  0.00     0.058 A 
ENDROOT
TORSDOF 0
ENDMDL
