MODEL 1
REMARK minimizedAffinity 4.90562201
REMARK minimizedRMSD -1
REMARK  0 active torsions:
REMARK  status: ('A' for Active; 'I' for Inactive)
ROOT
ATOM      1  O1  BZF d   1      -0.309  -1.142  -2.230  0.00  0.00    -0.204 OA
ATOM      2  C2  BZF d   1      -1.048  -0.698  -1.151  0.00  0.00     0.174 A 
ATOM      3  C3  BZF d   1      -0.478  -1.083   0.010  0.00  0.00    -0.012 A 
ATOM      4  C3A BZF d   1       0.740  -1.733  -0.367  0.00  0.00    -0.107 A 
ATOM      5  C4  BZF d   1       1.750  -2.318   0.342  0.00  0.00     0.055 A 
ATOM      6  C5  BZF d   1       2.761  -2.928  -0.330  0.00  0.00    -0.016 A 
ATOM      7  C6  BZF d   1       2.791  -2.977  -1.708  0.00  0.00     0.022 A 
ATOM      8  C7  BZF d   1       1.814  -2.407  -2.455  0.00  0.00     0.029 A 
ATOM      9  C7A BZF d   1       0.808  -1.761  -1.779  0.00  0.00     0.058 A 
ENDROOT
TORSDOF 0
ENDMDL
