MODEL 1
REMARK minimizedAffinity 0.174445644
REMARK minimizedRMSD -1
REMARK  0 active torsions:
REMARK  status: ('A' for Active; 'I' for Inactive)
ROOT
ATOM      1  O1  BZF d   1       4.481   0.737   3.273  0.00  0.00    -0.204 OA
ATOM      2  C2  BZF d   1       5.247   0.260   4.320  0.00  0.00     0.174 A 
ATOM      3  C3  BZF d   1       6.000   1.246   4.850  0.00  0.00    -0.012 A 
ATOM      4  C3A BZF d   1       5.616   2.432   4.146  0.00  0.00    -0.107 A 
ATOM      5  C4  BZF d   1       6.000   3.739   4.231  0.00  0.00     0.055 A 
ATOM      6  C5  BZF d   1       5.486   4.637   3.350  0.00  0.00    -0.016 A 
ATOM      7  C6  BZF d   1       4.592   4.262   2.369  0.00  0.00     0.022 A 
ATOM      8  C7  BZF d   1       4.178   2.977   2.248  0.00  0.00     0.029 A 
ATOM      9  C7A BZF d   1       4.670   2.073   3.159  0.00  0.00     0.058 A 
ENDROOT
TORSDOF 0
ENDMDL
