MODEL 1
REMARK minimizedAffinity -0.768996954
REMARK minimizedRMSD -1
REMARK  0 active torsions:
REMARK  status: ('A' for Active; 'I' for Inactive)
ROOT
ATOM      1  O1  BZF d   1       5.909  -1.578   3.745  0.00  0.00    -0.204 OA
ATOM      2  C2  BZF d   1       5.846  -2.285   4.930  0.00  0.00     0.174 A 
ATOM      3  C3  BZF d   1       5.872  -1.449   5.988  0.00  0.00    -0.012 A 
ATOM      4  C3A BZF d   1       5.864  -0.133   5.428  0.00  0.00    -0.107 A 
ATOM      5  C4  BZF d   1       5.865   1.120   5.973  0.00  0.00     0.055 A 
ATOM      6  C5  BZF d   1       5.929   2.198   5.149  0.00  0.00    -0.016 A 
ATOM      7  C6  BZF d   1       5.999   2.062   3.778  0.00  0.00     0.022 A 
ATOM      8  C7  BZF d   1       5.996   0.840   3.191  0.00  0.00     0.029 A 
ATOM      9  C7A BZF d   1       5.897  -0.251   4.019  0.00  0.00     0.058 A 
ENDROOT
TORSDOF 0
ENDMDL
