MODEL 1
REMARK minimizedAffinity 0.86005193
REMARK minimizedRMSD -1
REMARK  0 active torsions:
REMARK  status: ('A' for Active; 'I' for Inactive)
ROOT
ATOM      1  O1  BZF d   1       5.970   2.517   5.115  0.00  0.00    -0.204 OA
ATOM      2  C2  BZF d   1       5.984   1.486   4.196  0.00  0.00     0.174 A 
ATOM      3  C3  BZF d   1       5.942   1.967   2.937  0.00  0.00    -0.012 A 
ATOM      4  C3A BZF d   1       5.993   3.391   3.076  0.00  0.00    -0.107 A 
ATOM      5  C4  BZF d   1       6.000   4.422   2.181  0.00  0.00     0.055 A 
ATOM      6  C5  BZF d   1       5.981   5.699   2.645  0.00  0.00    -0.016 A 
ATOM      7  C6  BZF d   1       5.950   5.981   3.995  0.00  0.00     0.022 A 
ATOM      8  C7  BZF d   1       5.948   4.991   4.921  0.00  0.00     0.029 A 
ATOM      9  C7A BZF d   1       6.000   3.700   4.456  0.00  0.00     0.058 A 
ENDROOT
TORSDOF 0
ENDMDL
