MODEL 1
REMARK minimizedAffinity -3.62484455
REMARK minimizedRMSD -1
REMARK  0 active torsions:
REMARK  status: ('A' for Active; 'I' for Inactive)
ROOT
ATOM      1  O1  BZF d   1       5.999   4.703   4.429  0.00  0.00    -0.204 OA
ATOM      2  C2  BZF d   1       5.976   5.151   3.123  0.00  0.00     0.174 A 
ATOM      3  C3  BZF d   1       5.987   4.114   2.260  0.00  0.00    -0.012 A 
ATOM      4  C3A BZF d   1       5.926   2.943   3.080  0.00  0.00    -0.107 A 
ATOM      5  C4  BZF d   1       5.892   1.606   2.805  0.00  0.00     0.055 A 
ATOM      6  C5  BZF d   1       5.908   0.719   3.834  0.00  0.00    -0.016 A 
ATOM      7  C6  BZF d   1       5.964   1.134   5.149  0.00  0.00     0.022 A 
ATOM      8  C7  BZF d   1       5.995   2.450   5.471  0.00  0.00     0.029 A 
ATOM      9  C7A BZF d   1       5.945   3.349   4.434  0.00  0.00     0.058 A 
ENDROOT
TORSDOF 0
ENDMDL
