MODEL 1
REMARK minimizedAffinity -0.300702244
REMARK minimizedRMSD -1
REMARK  0 active torsions:
REMARK  status: ('A' for Active; 'I' for Inactive)
ROOT
ATOM      1  O1  BZF d   1       5.963   5.739   4.133  0.00  0.00    -0.204 OA
ATOM      2  C2  BZF d   1       5.951   5.739   2.752  0.00  0.00     0.174 A 
ATOM      3  C3  BZF d   1       6.000   4.479   2.273  0.00  0.00    -0.012 A 
ATOM      4  C3A BZF d   1       5.952   3.636   3.428  0.00  0.00    -0.107 A 
ATOM      5  C4  BZF d   1       5.952   2.281   3.602  0.00  0.00     0.055 A 
ATOM      6  C5  BZF d   1       5.973   1.777   4.863  0.00  0.00    -0.016 A 
ATOM      7  C6  BZF d   1       5.998   2.597   5.972  0.00  0.00     0.022 A 
ATOM      8  C7  BZF d   1       5.994   3.947   5.850  0.00  0.00     0.029 A 
ATOM      9  C7A BZF d   1       5.940   4.460   4.577  0.00  0.00     0.058 A 
ENDROOT
TORSDOF 0
ENDMDL
