MODEL 1
REMARK minimizedAffinity -0.953269958
REMARK minimizedRMSD -1
REMARK  0 active torsions:
REMARK  status: ('A' for Active; 'I' for Inactive)
ROOT
ATOM      1  O1  BZF d   1       5.998   3.774   4.875  0.00  0.00    -0.204 OA
ATOM      2  C2  BZF d   1       6.000   4.473   3.684  0.00  0.00     0.174 A 
ATOM      3  C3  BZF d   1       6.000   3.628   2.633  0.00  0.00    -0.012 A 
ATOM      4  C3A BZF d   1       5.904   2.319   3.202  0.00  0.00    -0.107 A 
ATOM      5  C4  BZF d   1       5.845   1.064   2.667  0.00  0.00     0.055 A 
ATOM      6  C5  BZF d   1       5.831  -0.009   3.500  0.00  0.00    -0.016 A 
ATOM      7  C6  BZF d   1       5.880   0.135   4.871  0.00  0.00     0.022 A 
ATOM      8  C7  BZF d   1       5.935   1.360   5.449  0.00  0.00     0.029 A 
ATOM      9  C7A BZF d   1       5.916   2.448   4.611  0.00  0.00     0.058 A 
ENDROOT
TORSDOF 0
ENDMDL
