MODEL 1
REMARK minimizedAffinity 14.7159395
REMARK minimizedRMSD -1
REMARK  0 active torsions:
REMARK  status: ('A' for Active; 'I' for Inactive)
ROOT
ATOM      1  O1  BZF d   1       0.514   4.299   3.921  0.00  0.00    -0.204 OA
ATOM      2  C2  BZF d   1      -0.476   4.965   4.618  0.00  0.00     0.174 A 
ATOM      3  C3  BZF d   1      -1.649   4.909   3.955  0.00  0.00    -0.012 A 
ATOM      4  C3A BZF d   1      -1.397   4.082   2.814  0.00  0.00    -0.107 A 
ATOM      5  C4  BZF d   1      -2.176   3.642   1.783  0.00  0.00     0.055 A 
ATOM      6  C5  BZF d   1      -1.606   2.909   0.791  0.00  0.00    -0.016 A 
ATOM      7  C6  BZF d   1      -0.261   2.603   0.795  0.00  0.00     0.022 A 
ATOM      8  C7  BZF d   1       0.551   3.014   1.798  0.00  0.00     0.029 A 
ATOM      9  C7A BZF d   1      -0.028   3.726   2.820  0.00  0.00     0.058 A 
ENDROOT
TORSDOF 0
ENDMDL
