MODEL 1
REMARK minimizedAffinity -1.75200307
REMARK minimizedRMSD -1
REMARK  0 active torsions:
REMARK  status: ('A' for Active; 'I' for Inactive)
ROOT
ATOM      1  O1  BZF d   1       5.976  -1.125   3.861  0.00  0.00    -0.204 OA
ATOM      2  C2  BZF d   1       5.960  -1.513   5.187  0.00  0.00     0.174 A 
ATOM      3  C3  BZF d   1       5.999  -0.437   6.000  0.00  0.00    -0.012 A 
ATOM      4  C3A BZF d   1       5.949   0.696   5.128  0.00  0.00    -0.107 A 
ATOM      5  C4  BZF d   1       5.940   2.045   5.341  0.00  0.00     0.055 A 
ATOM      6  C5  BZF d   1       5.960   2.883   4.272  0.00  0.00    -0.016 A 
ATOM      7  C6  BZF d   1       5.994   2.407   2.977  0.00  0.00     0.022 A 
ATOM      8  C7  BZF d   1       5.999   1.077   2.716  0.00  0.00     0.029 A 
ATOM      9  C7A BZF d   1       5.945   0.228   3.794  0.00  0.00     0.058 A 
ENDROOT
TORSDOF 0
ENDMDL
