MODEL 1
REMARK minimizedAffinity 3.19758582
REMARK minimizedRMSD -1
REMARK  0 active torsions:
REMARK  status: ('A' for Active; 'I' for Inactive)
ROOT
ATOM      1  O1  BZF d   1       5.994   2.237   2.258  0.00  0.00    -0.204 OA
ATOM      2  C2  BZF d   1       5.976   1.418   3.371  0.00  0.00     0.174 A 
ATOM      3  C3  BZF d   1       6.000   2.149   4.503  0.00  0.00    -0.012 A 
ATOM      4  C3A BZF d   1       5.942   3.512   4.073  0.00  0.00    -0.107 A 
ATOM      5  C4  BZF d   1       5.918   4.706   4.735  0.00  0.00     0.055 A 
ATOM      6  C5  BZF d   1       5.934   5.860   4.018  0.00  0.00    -0.016 A 
ATOM      7  C6  BZF d   1       5.979   5.858   2.639  0.00  0.00     0.022 A 
ATOM      8  C7  BZF d   1       5.999   4.698   1.938  0.00  0.00     0.029 A 
ATOM      9  C7A BZF d   1       5.949   3.530   2.659  0.00  0.00     0.058 A 
ENDROOT
TORSDOF 0
ENDMDL
