MODEL 1
REMARK minimizedAffinity 2.70781469
REMARK minimizedRMSD -1
REMARK  0 active torsions:
REMARK  status: ('A' for Active; 'I' for Inactive)
ROOT
ATOM      1  O1  BZF d   1       5.958   2.162   5.978  0.00  0.00    -0.204 OA
ATOM      2  C2  BZF d   1       5.913   0.798   5.761  0.00  0.00     0.174 A 
ATOM      3  C3  BZF d   1       5.845   0.526   4.442  0.00  0.00    -0.012 A 
ATOM      4  C3A BZF d   1       5.940   1.796   3.790  0.00  0.00    -0.107 A 
ATOM      5  C4  BZF d   1       5.947   2.180   2.479  0.00  0.00     0.055 A 
ATOM      6  C5  BZF d   1       5.979   3.505   2.180  0.00  0.00    -0.016 A 
ATOM      7  C6  BZF d   1       6.000   4.472   3.164  0.00  0.00     0.022 A 
ATOM      8  C7  BZF d   1       5.999   4.139   4.478  0.00  0.00     0.029 A 
ATOM      9  C7A BZF d   1       6.000   2.800   4.783  0.00  0.00     0.058 A 
ENDROOT
TORSDOF 0
ENDMDL
