MODEL 1
REMARK minimizedAffinity -2.21125245
REMARK minimizedRMSD -1
REMARK  0 active torsions:
REMARK  status: ('A' for Active; 'I' for Inactive)
ROOT
ATOM      1  O1  BZF d   1       5.061   3.478   4.503  0.00  0.00    -0.204 OA
ATOM      2  C2  BZF d   1       5.256   4.119   3.295  0.00  0.00     0.174 A 
ATOM      3  C3  BZF d   1       5.691   3.252   2.358  0.00  0.00    -0.012 A 
ATOM      4  C3A BZF d   1       5.685   1.972   2.998  0.00  0.00    -0.107 A 
ATOM      5  C4  BZF d   1       6.000   0.711   2.578  0.00  0.00     0.055 A 
ATOM      6  C5  BZF d   1       5.956  -0.312   3.471  0.00  0.00    -0.016 A 
ATOM      7  C6  BZF d   1       5.608  -0.110   4.790  0.00  0.00     0.022 A 
ATOM      8  C7  BZF d   1       5.283   1.122   5.252  0.00  0.00     0.029 A 
ATOM      9  C7A BZF d   1       5.294   2.153   4.344  0.00  0.00     0.058 A 
ENDROOT
TORSDOF 0
ENDMDL
