MODEL 1
REMARK minimizedAffinity -1.6221143
REMARK minimizedRMSD -1
REMARK  0 active torsions:
REMARK  status: ('A' for Active; 'I' for Inactive)
ROOT
ATOM      1  O1  BZF d   1       5.963   4.141   4.305  0.00  0.00    -0.204 OA
ATOM      2  C2  BZF d   1       5.946   4.621   3.009  0.00  0.00     0.174 A 
ATOM      3  C3  BZF d   1       5.990   3.606   2.123  0.00  0.00    -0.012 A 
ATOM      4  C3A BZF d   1       5.944   2.414   2.913  0.00  0.00    -0.107 A 
ATOM      5  C4  BZF d   1       5.942   1.083   2.605  0.00  0.00     0.055 A 
ATOM      6  C5  BZF d   1       5.964   0.172   3.614  0.00  0.00    -0.016 A 
ATOM      7  C6  BZF d   1       5.995   0.556   4.938  0.00  0.00     0.022 A 
ATOM      8  C7  BZF d   1       5.994   1.864   5.293  0.00  0.00     0.029 A 
ATOM      9  C7A BZF d   1       5.938   2.787   4.277  0.00  0.00     0.058 A 
ENDROOT
TORSDOF 0
ENDMDL
