MODEL 1
REMARK minimizedAffinity 2.3388133
REMARK minimizedRMSD -1
REMARK  0 active torsions:
REMARK  status: ('A' for Active; 'I' for Inactive)
ROOT
ATOM      1  O1  BZF d   1       5.899   0.146   5.323  0.00  0.00    -0.204 OA
ATOM      2  C2  BZF d   1       5.895  -0.501   4.102  0.00  0.00     0.174 A 
ATOM      3  C3  BZF d   1       5.872   0.389   3.089  0.00  0.00    -0.012 A 
ATOM      4  C3A BZF d   1       5.954   1.673   3.714  0.00  0.00    -0.107 A 
ATOM      5  C4  BZF d   1       5.990   2.951   3.233  0.00  0.00     0.055 A 
ATOM      6  C5  BZF d   1       5.997   3.987   4.111  0.00  0.00    -0.016 A 
ATOM      7  C6  BZF d   1       5.964   3.783   5.475  0.00  0.00     0.022 A 
ATOM      8  C7  BZF d   1       5.933   2.534   6.000  0.00  0.00     0.029 A 
ATOM      9  C7A BZF d   1       5.959   1.484   5.115  0.00  0.00     0.058 A 
ENDROOT
TORSDOF 0
ENDMDL
