MODEL 1
REMARK minimizedAffinity -0.710353434
REMARK minimizedRMSD -1
REMARK  0 active torsions:
REMARK  status: ('A' for Active; 'I' for Inactive)
ROOT
ATOM      1  O1  BZF d   1       5.999   3.742   4.856  0.00  0.00    -0.204 OA
ATOM      2  C2  BZF d   1       5.991   4.342   3.612  0.00  0.00     0.174 A 
ATOM      3  C3  BZF d   1       5.995   3.414   2.633  0.00  0.00    -0.012 A 
ATOM      4  C3A BZF d   1       5.913   2.155   3.308  0.00  0.00    -0.107 A 
ATOM      5  C4  BZF d   1       5.864   0.861   2.876  0.00  0.00     0.055 A 
ATOM      6  C5  BZF d   1       5.861  -0.142   3.794  0.00  0.00    -0.016 A 
ATOM      7  C6  BZF d   1       5.913   0.114   5.149  0.00  0.00     0.022 A 
ATOM      8  C7  BZF d   1       5.958   1.383   5.625  0.00  0.00     0.029 A 
ATOM      9  C7A BZF d   1       5.927   2.398   4.701  0.00  0.00     0.058 A 
ENDROOT
TORSDOF 0
ENDMDL
