MODEL 1
REMARK minimizedAffinity -2.23215175
REMARK minimizedRMSD -1
REMARK  0 active torsions:
REMARK  status: ('A' for Active; 'I' for Inactive)
ROOT
ATOM      1  O1  BZF d   1       5.110   1.740   4.800  0.00  0.00    -0.204 OA
ATOM      2  C2  BZF d   1       5.621   0.622   4.170  0.00  0.00     0.174 A 
ATOM      3  C3  BZF d   1       6.000   0.913   2.909  0.00  0.00    -0.012 A 
ATOM      4  C3A BZF d   1       5.793   2.322   2.770  0.00  0.00    -0.107 A 
ATOM      5  C4  BZF d   1       5.999   3.205   1.749  0.00  0.00     0.055 A 
ATOM      6  C5  BZF d   1       5.625   4.501   1.911  0.00  0.00    -0.016 A 
ATOM      7  C6  BZF d   1       5.037   4.947   3.077  0.00  0.00     0.022 A 
ATOM      8  C7  BZF d   1       4.817   4.109   4.119  0.00  0.00     0.029 A 
ATOM      9  C7A BZF d   1       5.225   2.806   3.971  0.00  0.00     0.058 A 
ENDROOT
TORSDOF 0
ENDMDL
