MODEL 1
REMARK minimizedAffinity -1.3123256
REMARK minimizedRMSD -1
REMARK  0 active torsions:
REMARK  status: ('A' for Active; 'I' for Inactive)
ROOT
ATOM      1  O1  BZF d   1       5.955   1.597   2.451  0.00  0.00    -0.204 OA
ATOM      2  C2  BZF d   1       5.925   2.912   2.873  0.00  0.00     0.174 A 
ATOM      3  C3  BZF d   1       5.869   2.982   4.218  0.00  0.00    -0.012 A 
ATOM      4  C3A BZF d   1       5.957   1.627   4.669  0.00  0.00    -0.107 A 
ATOM      5  C4  BZF d   1       5.970   1.047   5.906  0.00  0.00     0.055 A 
ATOM      6  C5  BZF d   1       5.991  -0.308   6.000  0.00  0.00    -0.016 A 
ATOM      7  C6  BZF d   1       5.995  -1.114   4.880  0.00  0.00     0.022 A 
ATOM      8  C7  BZF d   1       5.988  -0.585   3.632  0.00  0.00     0.029 A 
ATOM      9  C7A BZF d   1       6.000   0.785   3.534  0.00  0.00     0.058 A 
ENDROOT
TORSDOF 0
ENDMDL
