MODEL 1
REMARK minimizedAffinity -0.162751824
REMARK minimizedRMSD -1
REMARK  0 active torsions:
REMARK  status: ('A' for Active; 'I' for Inactive)
ROOT
ATOM      1  O1  BZF d   1       5.999   1.250   6.000  0.00  0.00    -0.204 OA
ATOM      2  C2  BZF d   1       5.645  -0.027   5.611  0.00  0.00     0.174 A 
ATOM      3  C3  BZF d   1       5.174  -0.030   4.348  0.00  0.00    -0.012 A 
ATOM      4  C3A BZF d   1       5.324   1.317   3.888  0.00  0.00    -0.107 A 
ATOM      5  C4  BZF d   1       5.048   1.941   2.705  0.00  0.00     0.055 A 
ATOM      6  C5  BZF d   1       5.243   3.282   2.604  0.00  0.00    -0.016 A 
ATOM      7  C6  BZF d   1       5.708   4.030   3.667  0.00  0.00     0.022 A 
ATOM      8  C7  BZF d   1       6.000   3.454   4.858  0.00  0.00     0.029 A 
ATOM      9  C7A BZF d   1       5.835   2.094   4.953  0.00  0.00     0.058 A 
ENDROOT
TORSDOF 0
ENDMDL
