MODEL 1
REMARK minimizedAffinity 4.34819412
REMARK minimizedRMSD -1
REMARK  0 active torsions:
REMARK  status: ('A' for Active; 'I' for Inactive)
ROOT
ATOM      1  O1  BZF d   1       5.979  -2.335   4.333  0.00  0.00    -0.204 OA
ATOM      2  C2  BZF d   1       6.000  -2.622   2.982  0.00  0.00     0.174 A 
ATOM      3  C3  BZF d   1       5.954  -1.489   2.251  0.00  0.00    -0.012 A 
ATOM      4  C3A BZF d   1       5.995  -0.424   3.206  0.00  0.00    -0.107 A 
ATOM      5  C4  BZF d   1       5.994   0.937   3.094  0.00  0.00     0.055 A 
ATOM      6  C5  BZF d   1       5.966   1.692   4.224  0.00  0.00    -0.016 A 
ATOM      7  C6  BZF d   1       5.934   1.120   5.479  0.00  0.00     0.022 A 
ATOM      8  C7  BZF d   1       5.939  -0.225   5.640  0.00  0.00     0.029 A 
ATOM      9  C7A BZF d   1       6.000  -0.991   4.501  0.00  0.00     0.058 A 
ENDROOT
TORSDOF 0
ENDMDL
