MODEL 1
REMARK minimizedAffinity 3.11977696
REMARK minimizedRMSD -1
REMARK  1 active torsions:
REMARK  status: ('A' for Active; 'I' for Inactive)
REMARK    1  A    between atoms: C3_4  and  O_7 
ROOT
ATOM      1  C   UNL d   1       0.333  -2.198   1.290  0.00  0.00    -0.033 A 
ATOM      2  C1  UNL d   1       1.180  -1.317   1.965  0.00  0.00     0.039 A 
ATOM      3  C2  UNL d   1       0.776  -0.743   3.172  0.00  0.00    -0.080 A 
ATOM      4  C3  UNL d   1      -0.475  -1.060   3.694  0.00  0.00     0.150 A 
ATOM      5  C4  UNL d   1      -1.322  -1.940   3.029  0.00  0.00    -0.007 A 
ATOM      6  C5  UNL d   1      -0.917  -2.511   1.823  0.00  0.00     0.039 A 
ENDROOT
BRANCH   4   7
ATOM      7  O   UNL d   1      -0.915  -0.521   4.866  0.00  0.00    -0.526 OA
ATOM      8  H5  UNL d   1      -0.237   0.091   5.198  0.00  0.00     0.418 HD
ENDBRANCH   4   7
TORSDOF 1
ENDMDL
