MODEL 1
REMARK minimizedAffinity 8.74101639
REMARK minimizedRMSD -1
REMARK  1 active torsions:
REMARK  status: ('A' for Active; 'I' for Inactive)
REMARK    1  A    between atoms: C3_4  and  O_7 
ROOT
ATOM      1  C   UNL d   1       4.279  -5.632   5.999  0.00  0.00    -0.033 A 
ATOM      2  C1  UNL d   1       4.940  -5.988   4.821  0.00  0.00     0.039 A 
ATOM      3  C2  UNL d   1       4.251  -5.997   3.607  0.00  0.00    -0.080 A 
ATOM      4  C3  UNL d   1       2.903  -5.648   3.584  0.00  0.00     0.150 A 
ATOM      5  C4  UNL d   1       2.240  -5.289   4.752  0.00  0.00    -0.007 A 
ATOM      6  C5  UNL d   1       2.929  -5.281   5.964  0.00  0.00     0.039 A 
ENDROOT
BRANCH   4   7
ATOM      7  O   UNL d   1       2.188  -5.647   2.423  0.00  0.00    -0.526 OA
ATOM      8  H5  UNL d   1       2.769  -5.944   1.703  0.00  0.00     0.418 HD
ENDBRANCH   4   7
TORSDOF 1
ENDMDL
