MODEL 1
REMARK minimizedAffinity 8.66808128
REMARK minimizedRMSD -1
REMARK  1 active torsions:
REMARK  status: ('A' for Active; 'I' for Inactive)
REMARK    1  A    between atoms: C3_4  and  O_7 
ROOT
ATOM      1  C   UNL d   1       5.931  -2.917  -5.310  0.00  0.00    -0.033 A 
ATOM      2  C1  UNL d   1       5.366  -1.826  -5.973  0.00  0.00     0.039 A 
ATOM      3  C2  UNL d   1       4.865  -0.746  -5.243  0.00  0.00    -0.080 A 
ATOM      4  C3  UNL d   1       4.936  -0.770  -3.852  0.00  0.00     0.150 A 
ATOM      5  C4  UNL d   1       5.501  -1.853  -3.186  0.00  0.00    -0.007 A 
ATOM      6  C5  UNL d   1       6.000  -2.930  -3.917  0.00  0.00     0.039 A 
ENDROOT
BRANCH   4   7
ATOM      7  O   UNL d   1       4.456   0.258  -3.097  0.00  0.00    -0.526 OA
ATOM      8  H5  UNL d   1       4.068   0.922  -3.691  0.00  0.00     0.418 HD
ENDBRANCH   4   7
TORSDOF 1
ENDMDL
