MODEL 1
REMARK minimizedAffinity 4.41040516
REMARK minimizedRMSD -1
REMARK  1 active torsions:
REMARK  status: ('A' for Active; 'I' for Inactive)
REMARK    1  A    between atoms: C3_4  and  O_7 
ROOT
ATOM      1  C   UNL d   1       3.142  -0.906   2.170  0.00  0.00    -0.033 A 
ATOM      2  C1  UNL d   1       2.031  -1.412   1.494  0.00  0.00     0.039 A 
ATOM      3  C2  UNL d   1       0.748  -1.207   2.004  0.00  0.00    -0.080 A 
ATOM      4  C3  UNL d   1       0.589  -0.494   3.189  0.00  0.00     0.150 A 
ATOM      5  C4  UNL d   1       1.692   0.016   3.867  0.00  0.00    -0.007 A 
ATOM      6  C5  UNL d   1       2.973  -0.190   3.356  0.00  0.00     0.039 A 
ENDROOT
BRANCH   4   7
ATOM      7  O   UNL d   1      -0.643  -0.273   3.729  0.00  0.00    -0.526 OA
ATOM      8  H5  UNL d   1      -1.307  -0.708   3.168  0.00  0.00     0.418 HD
ENDBRANCH   4   7
TORSDOF 1
ENDMDL
