MODEL 1
REMARK minimizedAffinity 9.8627367
REMARK minimizedRMSD -1
REMARK  1 active torsions:
REMARK  status: ('A' for Active; 'I' for Inactive)
REMARK    1  A    between atoms: C3_4  and  O_7 
ROOT
ATOM      1  C   UNL d   1       1.874  -0.345   2.752  0.00  0.00    -0.033 A 
ATOM      2  C1  UNL d   1       2.954  -0.213   1.877  0.00  0.00     0.039 A 
ATOM      3  C2  UNL d   1       3.126  -1.125   0.834  0.00  0.00    -0.080 A 
ATOM      4  C3  UNL d   1       2.212  -2.163   0.677  0.00  0.00     0.150 A 
ATOM      5  C4  UNL d   1       1.131  -2.299   1.543  0.00  0.00    -0.007 A 
ATOM      6  C5  UNL d   1       0.962  -1.388   2.584  0.00  0.00     0.039 A 
ENDROOT
BRANCH   4   7
ATOM      7  O   UNL d   1       2.340  -3.081  -0.323  0.00  0.00    -0.526 OA
ATOM      8  H5  UNL d   1       3.148  -2.878  -0.824  0.00  0.00     0.418 HD
ENDBRANCH   4   7
TORSDOF 1
ENDMDL
