MODEL 1
REMARK minimizedAffinity 9.61289692
REMARK minimizedRMSD -1
REMARK  1 active torsions:
REMARK  status: ('A' for Active; 'I' for Inactive)
REMARK    1  A    between atoms: C3_4  and  O_7 
ROOT
ATOM      1  C   UNL d   1       2.121  -1.519   1.224  0.00  0.00    -0.033 A 
ATOM      2  C1  UNL d   1       0.909  -2.123   1.564  0.00  0.00     0.039 A 
ATOM      3  C2  UNL d   1       0.208  -1.696   2.694  0.00  0.00    -0.080 A 
ATOM      4  C3  UNL d   1       0.728  -0.666   3.472  0.00  0.00     0.150 A 
ATOM      5  C4  UNL d   1       1.933  -0.058   3.137  0.00  0.00    -0.007 A 
ATOM      6  C5  UNL d   1       2.632  -0.485   2.009  0.00  0.00     0.039 A 
ENDROOT
BRANCH   4   7
ATOM      7  O   UNL d   1       0.082  -0.219   4.587  0.00  0.00    -0.526 OA
ATOM      8  H5  UNL d   1      -0.721  -0.751   4.711  0.00  0.00     0.418 HD
ENDBRANCH   4   7
TORSDOF 1
ENDMDL
