MODEL 1
REMARK minimizedAffinity 11.2647562
REMARK minimizedRMSD -1
REMARK  1 active torsions:
REMARK  status: ('A' for Active; 'I' for Inactive)
REMARK    1  A    between atoms: C3_4  and  O_7 
ROOT
ATOM      1  C   UNL d   1       5.998  -4.402  -5.777  0.00  0.00    -0.033 A 
ATOM      2  C1  UNL d   1       5.080  -3.354  -5.685  0.00  0.00     0.039 A 
ATOM      3  C2  UNL d   1       3.710  -3.616  -5.751  0.00  0.00    -0.080 A 
ATOM      4  C3  UNL d   1       3.272  -4.928  -5.908  0.00  0.00     0.150 A 
ATOM      5  C4  UNL d   1       4.181  -5.977  -5.996  0.00  0.00    -0.007 A 
ATOM      6  C5  UNL d   1       5.549  -5.714  -5.931  0.00  0.00     0.039 A 
ENDROOT
BRANCH   4   7
ATOM      7  O   UNL d   1       1.945  -5.232  -5.982  0.00  0.00    -0.526 OA
ATOM      8  H5  UNL d   1       1.437  -4.405  -5.935  0.00  0.00     0.418 HD
ENDBRANCH   4   7
TORSDOF 1
ENDMDL
