MODEL 1
REMARK minimizedAffinity 11.5574141
REMARK minimizedRMSD -1
REMARK  1 active torsions:
REMARK  status: ('A' for Active; 'I' for Inactive)
REMARK    1  A    between atoms: C3_4  and  O_7 
ROOT
ATOM      1  C   UNL d   1      -2.916   4.987  -2.134  0.00  0.00    -0.033 A 
ATOM      2  C1  UNL d   1      -2.579   6.000  -3.034  0.00  0.00     0.039 A 
ATOM      3  C2  UNL d   1      -2.208   5.680  -4.341  0.00  0.00    -0.080 A 
ATOM      4  C3  UNL d   1      -2.178   4.345  -4.735  0.00  0.00     0.150 A 
ATOM      5  C4  UNL d   1      -2.516   3.331  -3.845  0.00  0.00    -0.007 A 
ATOM      6  C5  UNL d   1      -2.886   3.653  -2.540  0.00  0.00     0.039 A 
ENDROOT
BRANCH   4   7
ATOM      7  O   UNL d   1      -1.818   3.983  -5.999  0.00  0.00    -0.526 OA
ATOM      8  H5  UNL d   1      -1.583   4.786  -6.494  0.00  0.00     0.418 HD
ENDBRANCH   4   7
TORSDOF 1
ENDMDL
