MODEL 1
REMARK minimizedAffinity 8.71795845
REMARK minimizedRMSD -1
REMARK  1 active torsions:
REMARK  status: ('A' for Active; 'I' for Inactive)
REMARK    1  A    between atoms: C3_4  and  O_7 
ROOT
ATOM      1  C   UNL d   1      -2.308   5.226  -2.290  0.00  0.00    -0.033 A 
ATOM      2  C1  UNL d   1      -2.592   3.861  -2.363  0.00  0.00     0.039 A 
ATOM      3  C2  UNL d   1      -2.805   3.256  -3.603  0.00  0.00    -0.080 A 
ATOM      4  C3  UNL d   1      -2.728   4.025  -4.761  0.00  0.00     0.150 A 
ATOM      5  C4  UNL d   1      -2.441   5.385  -4.696  0.00  0.00    -0.007 A 
ATOM      6  C5  UNL d   1      -2.231   5.988  -3.457  0.00  0.00     0.039 A 
ENDROOT
BRANCH   4   7
ATOM      7  O   UNL d   1      -2.932   3.480  -5.994  0.00  0.00    -0.526 OA
ATOM      8  H5  UNL d   1      -3.149   2.539  -5.882  0.00  0.00     0.418 HD
ENDBRANCH   4   7
TORSDOF 1
ENDMDL
