MODEL 1
REMARK minimizedAffinity 9.93043423
REMARK minimizedRMSD -1
REMARK  1 active torsions:
REMARK  status: ('A' for Active; 'I' for Inactive)
REMARK    1  A    between atoms: C3_4  and  O_7 
ROOT
ATOM      1  C   UNL d   1       0.430  -0.992   3.330  0.00  0.00    -0.033 A 
ATOM      2  C1  UNL d   1       1.175  -0.281   4.273  0.00  0.00     0.039 A 
ATOM      3  C2  UNL d   1       2.516   0.016   4.025  0.00  0.00    -0.080 A 
ATOM      4  C3  UNL d   1       3.100  -0.401   2.832  0.00  0.00     0.150 A 
ATOM      5  C4  UNL d   1       2.363  -1.106   1.886  0.00  0.00    -0.007 A 
ATOM      6  C5  UNL d   1       1.023  -1.403   2.136  0.00  0.00     0.039 A 
ENDROOT
BRANCH   4   7
ATOM      7  O   UNL d   1       4.407  -0.138   2.548  0.00  0.00    -0.526 OA
ATOM      8  H5  UNL d   1       4.798   0.331   3.304  0.00  0.00     0.418 HD
ENDBRANCH   4   7
TORSDOF 1
ENDMDL
