MODEL 1
REMARK minimizedAffinity 5.57244968
REMARK minimizedRMSD -1
REMARK  1 active torsions:
REMARK  status: ('A' for Active; 'I' for Inactive)
REMARK    1  A    between atoms: C3_4  and  O_7 
ROOT
ATOM      1  C   UNL d   1       0.385  -0.776   3.856  0.00  0.00    -0.033 A 
ATOM      2  C1  UNL d   1       1.136  -0.200   4.883  0.00  0.00     0.039 A 
ATOM      3  C2  UNL d   1       2.411   0.304   4.618  0.00  0.00    -0.080 A 
ATOM      4  C3  UNL d   1       2.922   0.227   3.325  0.00  0.00     0.150 A 
ATOM      5  C4  UNL d   1       2.177  -0.342   2.297  0.00  0.00    -0.007 A 
ATOM      6  C5  UNL d   1       0.904  -0.845   2.564  0.00  0.00     0.039 A 
ENDROOT
BRANCH   4   7
ATOM      7  O   UNL d   1       4.163   0.701   3.020  0.00  0.00    -0.526 OA
ATOM      8  H5  UNL d   1       4.572   1.040   3.834  0.00  0.00     0.418 HD
ENDBRANCH   4   7
TORSDOF 1
ENDMDL
