MODEL 1
REMARK minimizedAffinity 12.9530945
REMARK minimizedRMSD -1
REMARK  1 active torsions:
REMARK  status: ('A' for Active; 'I' for Inactive)
REMARK    1  A    between atoms: C3_4  and  O_7 
ROOT
ATOM      1  C   UNL d   1      -2.959   4.996  -2.046  0.00  0.00    -0.033 A 
ATOM      2  C1  UNL d   1      -3.041   3.674  -2.487  0.00  0.00     0.039 A 
ATOM      3  C2  UNL d   1      -2.709   3.354  -3.805  0.00  0.00    -0.080 A 
ATOM      4  C3  UNL d   1      -2.295   4.364  -4.670  0.00  0.00     0.150 A 
ATOM      5  C4  UNL d   1      -2.207   5.682  -4.236  0.00  0.00    -0.007 A 
ATOM      6  C5  UNL d   1      -2.540   6.000  -2.920  0.00  0.00     0.039 A 
ENDROOT
BRANCH   4   7
ATOM      7  O   UNL d   1      -1.965   4.101  -5.966  0.00  0.00    -0.526 OA
ATOM      8  H5  UNL d   1      -2.102   3.153  -6.132  0.00  0.00     0.418 HD
ENDBRANCH   4   7
TORSDOF 1
ENDMDL
