MODEL 1
REMARK minimizedAffinity 8.22309017
REMARK minimizedRMSD -1
REMARK  1 active torsions:
REMARK  status: ('A' for Active; 'I' for Inactive)
REMARK    1  A    between atoms: C3_4  and  O_7 
ROOT
ATOM      1  C   UNL d   1       1.110  -1.888   1.210  0.00  0.00    -0.033 A 
ATOM      2  C1  UNL d   1       0.399  -2.762   2.035  0.00  0.00     0.039 A 
ATOM      3  C2  UNL d   1      -0.147  -2.303   3.235  0.00  0.00    -0.080 A 
ATOM      4  C3  UNL d   1       0.024  -0.970   3.598  0.00  0.00     0.150 A 
ATOM      5  C4  UNL d   1       0.728  -0.093   2.780  0.00  0.00    -0.007 A 
ATOM      6  C5  UNL d   1       1.273  -0.553   1.582  0.00  0.00     0.039 A 
ENDROOT
BRANCH   4   7
ATOM      7  O   UNL d   1      -0.486  -0.477   4.763  0.00  0.00    -0.526 OA
ATOM      8  H5  UNL d   1      -0.922  -1.204   5.239  0.00  0.00     0.418 HD
ENDBRANCH   4   7
TORSDOF 1
ENDMDL
