MODEL 1
REMARK minimizedAffinity 16.9134007
REMARK minimizedRMSD -1
REMARK  1 active torsions:
REMARK  status: ('A' for Active; 'I' for Inactive)
REMARK    1  A    between atoms: C3_4  and  O_7 
ROOT
ATOM      1  C   UNL d   1      -1.879   5.495  -2.741  0.00  0.00    -0.033 A 
ATOM      2  C1  UNL d   1      -2.140   4.140  -2.528  0.00  0.00     0.039 A 
ATOM      3  C2  UNL d   1      -2.333   3.285  -3.615  0.00  0.00    -0.080 A 
ATOM      4  C3  UNL d   1      -2.260   3.796  -4.908  0.00  0.00     0.150 A 
ATOM      5  C4  UNL d   1      -1.996   5.144  -5.128  0.00  0.00    -0.007 A 
ATOM      6  C5  UNL d   1      -1.805   5.996  -4.041  0.00  0.00     0.039 A 
ENDROOT
BRANCH   4   7
ATOM      7  O   UNL d   1      -2.446   3.001  -6.000  0.00  0.00    -0.526 OA
ATOM      8  H5  UNL d   1      -2.648   2.101  -5.694  0.00  0.00     0.418 HD
ENDBRANCH   4   7
TORSDOF 1
ENDMDL
