MODEL 1
REMARK minimizedAffinity 2.46921754
REMARK minimizedRMSD -1
REMARK  1 active torsions:
REMARK  status: ('A' for Active; 'I' for Inactive)
REMARK    1  A    between atoms: C3_4  and  O_7 
ROOT
ATOM      1  C   UNL d   1      -1.337  -2.292   4.202  0.00  0.00    -0.033 A 
ATOM      2  C1  UNL d   1      -0.524  -1.224   4.584  0.00  0.00     0.039 A 
ATOM      3  C2  UNL d   1       0.468  -0.756   3.721  0.00  0.00    -0.080 A 
ATOM      4  C3  UNL d   1       0.637  -1.363   2.480  0.00  0.00     0.150 A 
ATOM      5  C4  UNL d   1      -0.172  -2.426   2.091  0.00  0.00    -0.007 A 
ATOM      6  C5  UNL d   1      -1.162  -2.892   2.954  0.00  0.00     0.039 A 
ENDROOT
BRANCH   4   7
ATOM      7  O   UNL d   1       1.596  -0.944   1.606  0.00  0.00    -0.526 OA
ATOM      8  H5  UNL d   1       2.096  -0.222   2.021  0.00  0.00     0.418 HD
ENDBRANCH   4   7
TORSDOF 1
ENDMDL
