MODEL 1
REMARK minimizedAffinity 4.20651293
REMARK minimizedRMSD -1
REMARK  1 active torsions:
REMARK  status: ('A' for Active; 'I' for Inactive)
REMARK    1  A    between atoms: C3_4  and  O_7 
ROOT
ATOM      1  C   UNL d   1      -2.574   5.103  -2.173  0.00  0.00    -0.033 A 
ATOM      2  C1  UNL d   1      -2.637   3.734  -2.442  0.00  0.00     0.039 A 
ATOM      3  C2  UNL d   1      -2.358   3.259  -3.725  0.00  0.00    -0.080 A 
ATOM      4  C3  UNL d   1      -2.018   4.162  -4.729  0.00  0.00     0.150 A 
ATOM      5  C4  UNL d   1      -1.950   5.527  -4.467  0.00  0.00    -0.007 A 
ATOM      6  C5  UNL d   1      -2.229   5.999  -3.185  0.00  0.00     0.039 A 
ENDROOT
BRANCH   4   7
ATOM      7  O   UNL d   1      -1.742   3.746  -5.997  0.00  0.00    -0.526 OA
ATOM      8  H5  UNL d   1      -1.856   2.782  -6.037  0.00  0.00     0.418 HD
ENDBRANCH   4   7
TORSDOF 1
ENDMDL
