MODEL 1
REMARK minimizedAffinity 5.40944767
REMARK minimizedRMSD -1
REMARK  1 active torsions:
REMARK  status: ('A' for Active; 'I' for Inactive)
REMARK    1  A    between atoms: C3_4  and  O_7 
ROOT
ATOM      1  C   UNL d   1      -1.841   5.998  -5.410  0.00  0.00    -0.033 A 
ATOM      2  C1  UNL d   1      -1.544   6.000  -4.046  0.00  0.00     0.039 A 
ATOM      3  C2  UNL d   1      -1.822   4.875  -3.267  0.00  0.00    -0.080 A 
ATOM      4  C3  UNL d   1      -2.396   3.756  -3.865  0.00  0.00     0.150 A 
ATOM      5  C4  UNL d   1      -2.691   3.746  -5.224  0.00  0.00    -0.007 A 
ATOM      6  C5  UNL d   1      -2.413   4.871  -5.999  0.00  0.00     0.039 A 
ENDROOT
BRANCH   4   7
ATOM      7  O   UNL d   1      -2.690   2.636  -3.145  0.00  0.00    -0.526 OA
ATOM      8  H5  UNL d   1      -2.458   2.798  -2.215  0.00  0.00     0.418 HD
ENDBRANCH   4   7
TORSDOF 1
ENDMDL
