MODEL 1
REMARK minimizedAffinity -2.65414834
REMARK minimizedRMSD -1
REMARK  0 active torsions:
REMARK  status: ('A' for Active; 'I' for Inactive)
ROOT
ATOM      1  C   UNL d   1       4.874   3.231  -5.353  0.00  0.00     0.023 A 
ATOM      2  C1  UNL d   1       4.893   4.507  -5.916  0.00  0.00     0.003 A 
ATOM      3  C2  UNL d   1       3.715   5.252  -6.000  0.00  0.00     0.048 A 
ATOM      4  C3  UNL d   1       2.522   4.716  -5.517  0.00  0.00     0.023 A 
ATOM      5  C4  UNL d   1       2.498   3.440  -4.952  0.00  0.00     0.048 A 
ATOM      6  C5  UNL d   1       3.678   2.698  -4.871  0.00  0.00     0.003 A 
ATOM      7  I   UNL d   1       0.768   5.824  -5.640  0.00  0.00    -0.146 I 
ENDROOT
TORSDOF 0
ENDMDL
