MODEL 1
REMARK minimizedAffinity -2.50486875
REMARK minimizedRMSD -1
REMARK  0 active torsions:
REMARK  status: ('A' for Active; 'I' for Inactive)
ROOT
ATOM      1  C   UNL d   1       5.369   3.360  -5.825  0.00  0.00     0.023 A 
ATOM      2  C1  UNL d   1       4.338   2.437  -5.647  0.00  0.00     0.003 A 
ATOM      3  C2  UNL d   1       3.009   2.864  -5.642  0.00  0.00     0.048 A 
ATOM      4  C3  UNL d   1       2.717   4.216  -5.816  0.00  0.00     0.023 A 
ATOM      5  C4  UNL d   1       3.744   5.144  -5.996  0.00  0.00     0.048 A 
ATOM      6  C5  UNL d   1       5.072   4.712  -6.000  0.00  0.00     0.003 A 
ATOM      7  I   UNL d   1       0.739   4.855  -5.809  0.00  0.00    -0.146 I 
ENDROOT
TORSDOF 0
ENDMDL
