MODEL 1
REMARK minimizedAffinity -1.09077132
REMARK minimizedRMSD -1
REMARK  0 active torsions:
REMARK  status: ('A' for Active; 'I' for Inactive)
ROOT
ATOM      1  C   UNL d   1       1.853   5.987  -5.742  0.00  0.00     0.023 A 
ATOM      2  C1  UNL d   1       1.006   4.887  -5.882  0.00  0.00     0.003 A 
ATOM      3  C2  UNL d   1       1.540   3.599  -5.956  0.00  0.00     0.048 A 
ATOM      4  C3  UNL d   1       2.921   3.418  -5.889  0.00  0.00     0.023 A 
ATOM      5  C4  UNL d   1       3.771   4.515  -5.749  0.00  0.00     0.048 A 
ATOM      6  C5  UNL d   1       3.233   5.801  -5.675  0.00  0.00     0.003 A 
ATOM      7  I   UNL d   1       3.717   1.501  -6.000  0.00  0.00    -0.146 I 
ENDROOT
TORSDOF 0
ENDMDL
