MODEL 1
REMARK minimizedAffinity 0.248342246
REMARK minimizedRMSD -1
REMARK  0 active torsions:
REMARK  status: ('A' for Active; 'I' for Inactive)
ROOT
ATOM      1  C   UNL d   1       5.718   3.292  -6.000  0.00  0.00     0.023 A 
ATOM      2  C1  UNL d   1       5.347   4.637  -5.999  0.00  0.00     0.003 A 
ATOM      3  C2  UNL d   1       3.997   4.990  -5.942  0.00  0.00     0.048 A 
ATOM      4  C3  UNL d   1       3.023   3.994  -5.885  0.00  0.00     0.023 A 
ATOM      5  C4  UNL d   1       3.390   2.647  -5.884  0.00  0.00     0.048 A 
ATOM      6  C5  UNL d   1       4.740   2.298  -5.942  0.00  0.00     0.003 A 
ATOM      7  I   UNL d   1       1.014   4.517  -5.800  0.00  0.00    -0.146 I 
ENDROOT
TORSDOF 0
ENDMDL
