MODEL 1
REMARK minimizedAffinity -2.99984169
REMARK minimizedRMSD -1
REMARK  0 active torsions:
REMARK  status: ('A' for Active; 'I' for Inactive)
ROOT
ATOM      1  C   UNL d   1       5.238   3.032  -5.208  0.00  0.00     0.023 A 
ATOM      2  C1  UNL d   1       4.170   2.200  -4.871  0.00  0.00     0.003 A 
ATOM      3  C2  UNL d   1       2.858   2.621  -5.098  0.00  0.00     0.048 A 
ATOM      4  C3  UNL d   1       2.621   3.874  -5.661  0.00  0.00     0.023 A 
ATOM      5  C4  UNL d   1       3.687   4.710  -6.000  0.00  0.00     0.048 A 
ATOM      6  C5  UNL d   1       4.997   4.285  -5.771  0.00  0.00     0.003 A 
ATOM      7  I   UNL d   1       0.669   4.502  -5.999  0.00  0.00    -0.146 I 
ENDROOT
TORSDOF 0
ENDMDL
