MODEL 1
REMARK minimizedAffinity -1.25213182
REMARK minimizedRMSD -1
REMARK  0 active torsions:
REMARK  status: ('A' for Active; 'I' for Inactive)
ROOT
ATOM      1  C   UNL d   1       1.513   5.953  -5.998  0.00  0.00     0.023 A 
ATOM      2  C1  UNL d   1       2.907   5.997  -5.998  0.00  0.00     0.003 A 
ATOM      3  C2  UNL d   1       3.643   4.840  -5.734  0.00  0.00     0.048 A 
ATOM      4  C3  UNL d   1       2.979   3.643  -5.472  0.00  0.00     0.023 A 
ATOM      5  C4  UNL d   1       1.584   3.594  -5.472  0.00  0.00     0.048 A 
ATOM      6  C5  UNL d   1       0.852   4.753  -5.736  0.00  0.00     0.003 A 
ATOM      7  I   UNL d   1       4.072   1.919  -5.079  0.00  0.00    -0.146 I 
ENDROOT
TORSDOF 0
ENDMDL
