MODEL 1
REMARK minimizedAffinity -1.76924706
REMARK minimizedRMSD -1
REMARK  0 active torsions:
REMARK  status: ('A' for Active; 'I' for Inactive)
ROOT
ATOM      1  C   UNL d   1       4.857   2.559  -5.997  0.00  0.00     0.023 A 
ATOM      2  C1  UNL d   1       5.216   3.907  -5.991  0.00  0.00     0.003 A 
ATOM      3  C2  UNL d   1       4.228   4.894  -5.975  0.00  0.00     0.048 A 
ATOM      4  C3  UNL d   1       2.883   4.526  -5.963  0.00  0.00     0.023 A 
ATOM      5  C4  UNL d   1       2.519   3.179  -5.967  0.00  0.00     0.048 A 
ATOM      6  C5  UNL d   1       3.511   2.195  -5.984  0.00  0.00     0.003 A 
ATOM      7  I   UNL d   1       1.411   5.993  -5.938  0.00  0.00    -0.146 I 
ENDROOT
TORSDOF 0
ENDMDL
