MODEL 1
REMARK minimizedAffinity -1.38448822
REMARK minimizedRMSD -1
REMARK  0 active torsions:
REMARK  status: ('A' for Active; 'I' for Inactive)
ROOT
ATOM      1  C   UNL d   1       4.992   3.396  -5.477  0.00  0.00     0.023 A 
ATOM      2  C1  UNL d   1       5.064   4.739  -5.847  0.00  0.00     0.003 A 
ATOM      3  C2  UNL d   1       3.894   5.486  -5.998  0.00  0.00     0.048 A 
ATOM      4  C3  UNL d   1       2.655   4.885  -5.776  0.00  0.00     0.023 A 
ATOM      5  C4  UNL d   1       2.579   3.541  -5.404  0.00  0.00     0.048 A 
ATOM      6  C5  UNL d   1       3.751   2.798  -5.255  0.00  0.00     0.003 A 
ATOM      7  I   UNL d   1       0.913   5.995  -6.000  0.00  0.00    -0.146 I 
ENDROOT
TORSDOF 0
ENDMDL
