MODEL 1
REMARK minimizedAffinity -1.36552823
REMARK minimizedRMSD -1
REMARK  0 active torsions:
REMARK  status: ('A' for Active; 'I' for Inactive)
ROOT
ATOM      1  C   UNL d   1       5.285   3.359  -5.634  0.00  0.00     0.023 A 
ATOM      2  C1  UNL d   1       5.000   4.675  -5.998  0.00  0.00     0.003 A 
ATOM      3  C2  UNL d   1       3.680   5.131  -5.994  0.00  0.00     0.048 A 
ATOM      4  C3  UNL d   1       2.651   4.267  -5.624  0.00  0.00     0.023 A 
ATOM      5  C4  UNL d   1       2.931   2.949  -5.258  0.00  0.00     0.048 A 
ATOM      6  C5  UNL d   1       4.252   2.497  -5.264  0.00  0.00     0.003 A 
ATOM      7  I   UNL d   1       0.686   4.944  -5.617  0.00  0.00    -0.146 I 
ENDROOT
TORSDOF 0
ENDMDL
