MODEL 1
REMARK minimizedAffinity -1.06764829
REMARK minimizedRMSD -1
REMARK  0 active torsions:
REMARK  status: ('A' for Active; 'I' for Inactive)
ROOT
ATOM      1  C   UNL d   1       5.466   3.250  -5.994  0.00  0.00     0.023 A 
ATOM      2  C1  UNL d   1       5.140   4.606  -5.999  0.00  0.00     0.003 A 
ATOM      3  C2  UNL d   1       3.801   5.004  -6.000  0.00  0.00     0.048 A 
ATOM      4  C3  UNL d   1       2.793   4.040  -5.994  0.00  0.00     0.023 A 
ATOM      5  C4  UNL d   1       3.115   2.682  -5.988  0.00  0.00     0.048 A 
ATOM      6  C5  UNL d   1       4.455   2.289  -5.988  0.00  0.00     0.003 A 
ATOM      7  I   UNL d   1       0.800   4.629  -5.994  0.00  0.00    -0.146 I 
ENDROOT
TORSDOF 0
ENDMDL
