MODEL 1
REMARK minimizedAffinity -2.45365763
REMARK minimizedRMSD -1
REMARK  0 active torsions:
REMARK  status: ('A' for Active; 'I' for Inactive)
ROOT
ATOM      1  C   UNL d   1       5.367   3.801  -5.971  0.00  0.00     0.023 A 
ATOM      2  C1  UNL d   1       5.236   5.190  -5.963  0.00  0.00     0.003 A 
ATOM      3  C2  UNL d   1       3.967   5.773  -5.972  0.00  0.00     0.048 A 
ATOM      4  C3  UNL d   1       2.833   4.961  -5.987  0.00  0.00     0.023 A 
ATOM      5  C4  UNL d   1       2.960   3.571  -5.993  0.00  0.00     0.048 A 
ATOM      6  C5  UNL d   1       4.231   2.992  -5.986  0.00  0.00     0.003 A 
ATOM      7  I   UNL d   1       0.943   5.825  -6.000  0.00  0.00    -0.146 I 
ENDROOT
TORSDOF 0
ENDMDL
