MODEL 1
REMARK minimizedAffinity -0.811022401
REMARK minimizedRMSD -1
REMARK  0 active torsions:
REMARK  status: ('A' for Active; 'I' for Inactive)
ROOT
ATOM      1  C   UNL d   1       1.381   3.856  -5.440  0.00  0.00     0.023 A 
ATOM      2  C1  UNL d   1       2.483   3.099  -5.838  0.00  0.00     0.003 A 
ATOM      3  C2  UNL d   1       3.728   3.709  -6.000  0.00  0.00     0.048 A 
ATOM      4  C3  UNL d   1       3.865   5.076  -5.760  0.00  0.00     0.023 A 
ATOM      5  C4  UNL d   1       2.766   5.837  -5.361  0.00  0.00     0.048 A 
ATOM      6  C5  UNL d   1       1.522   5.223  -5.202  0.00  0.00     0.003 A 
ATOM      7  I   UNL d   1       5.719   5.985  -5.999  0.00  0.00    -0.146 I 
ENDROOT
TORSDOF 0
ENDMDL
