MODEL 1
REMARK minimizedAffinity 6.18148851
REMARK minimizedRMSD -1
REMARK  0 active torsions:
REMARK  status: ('A' for Active; 'I' for Inactive)
ROOT
ATOM      1  C   UNL d   1      -0.918   2.835   2.735  0.00  0.00     0.023 A 
ATOM      2  C1  UNL d   1      -2.270   3.179   2.772  0.00  0.00     0.003 A 
ATOM      3  C2  UNL d   1      -2.813   3.988   1.772  0.00  0.00     0.048 A 
ATOM      4  C3  UNL d   1      -2.000   4.448   0.737  0.00  0.00     0.023 A 
ATOM      5  C4  UNL d   1      -0.648   4.106   0.695  0.00  0.00     0.048 A 
ATOM      6  C5  UNL d   1      -0.108   3.298   1.697  0.00  0.00     0.003 A 
ATOM      7  I   UNL d   1      -2.807   5.652  -0.753  0.00  0.00    -0.146 I 
ENDROOT
TORSDOF 0
ENDMDL
