MODEL 1
REMARK minimizedAffinity 5.37012625
REMARK minimizedRMSD -1
REMARK  0 active torsions:
REMARK  status: ('A' for Active; 'I' for Inactive)
ROOT
ATOM      1  C   UNL d   1       5.407  -0.410   4.142  0.00  0.00     0.023 A 
ATOM      2  C1  UNL d   1       6.000  -0.066   2.927  0.00  0.00     0.003 A 
ATOM      3  C2  UNL d   1       5.204   0.263   1.828  0.00  0.00     0.048 A 
ATOM      4  C3  UNL d   1       3.815   0.246   1.951  0.00  0.00     0.023 A 
ATOM      5  C4  UNL d   1       3.217  -0.097   3.164  0.00  0.00     0.048 A 
ATOM      6  C5  UNL d   1       4.017  -0.426   4.260  0.00  0.00     0.003 A 
ATOM      7  I   UNL d   1       2.627   0.734   0.316  0.00  0.00    -0.146 I 
ENDROOT
TORSDOF 0
ENDMDL
