MODEL 1
REMARK minimizedAffinity 4.70965099
REMARK minimizedRMSD -1
REMARK  0 active torsions:
REMARK  status: ('A' for Active; 'I' for Inactive)
ROOT
ATOM      1  C   UNL d   1      -0.307   2.854   2.409  0.00  0.00     0.023 A 
ATOM      2  C1  UNL d   1      -0.120   1.621   3.033  0.00  0.00     0.003 A 
ATOM      3  C2  UNL d   1       1.055   0.898   2.817  0.00  0.00     0.048 A 
ATOM      4  C3  UNL d   1       2.040   1.415   1.975  0.00  0.00     0.023 A 
ATOM      5  C4  UNL d   1       1.857   2.649   1.349  0.00  0.00     0.048 A 
ATOM      6  C5  UNL d   1       0.681   3.368   1.568  0.00  0.00     0.003 A 
ATOM      7  I   UNL d   1       3.789   0.341   1.652  0.00  0.00    -0.146 I 
ENDROOT
TORSDOF 0
ENDMDL
