MODEL 1
REMARK minimizedAffinity 5.32935476
REMARK minimizedRMSD -1
REMARK  0 active torsions:
REMARK  status: ('A' for Active; 'I' for Inactive)
ROOT
ATOM      1  C   UNL d   1       3.481   2.129   0.767  0.00  0.00     0.023 A 
ATOM      2  C1  UNL d   1       3.927   0.933   1.330  0.00  0.00     0.003 A 
ATOM      3  C2  UNL d   1       3.121  -0.207   1.280  0.00  0.00     0.048 A 
ATOM      4  C3  UNL d   1       1.872  -0.144   0.663  0.00  0.00     0.023 A 
ATOM      5  C4  UNL d   1       1.423   1.050   0.097  0.00  0.00     0.048 A 
ATOM      6  C5  UNL d   1       2.231   2.187   0.151  0.00  0.00     0.003 A 
ATOM      7  I   UNL d   1       0.672  -1.839   0.585  0.00  0.00    -0.146 I 
ENDROOT
TORSDOF 0
ENDMDL
