MODEL 1
REMARK minimizedAffinity 9.82700157
REMARK minimizedRMSD -1
REMARK  0 active torsions:
REMARK  status: ('A' for Active; 'I' for Inactive)
ROOT
ATOM      1  C   UNL d   1       0.926   4.041  -5.532  0.00  0.00     0.023 A 
ATOM      2  C1  UNL d   1       2.039   3.211  -5.665  0.00  0.00     0.003 A 
ATOM      3  C2  UNL d   1       3.314   3.767  -5.797  0.00  0.00     0.048 A 
ATOM      4  C3  UNL d   1       3.467   5.153  -5.795  0.00  0.00     0.023 A 
ATOM      5  C4  UNL d   1       2.356   5.987  -5.662  0.00  0.00     0.048 A 
ATOM      6  C5  UNL d   1       1.084   5.427  -5.531  0.00  0.00     0.003 A 
ATOM      7  I   UNL d   1       5.363   5.982  -5.991  0.00  0.00    -0.146 I 
ENDROOT
TORSDOF 0
ENDMDL
