MODEL 1
REMARK minimizedAffinity -2.38898563
REMARK minimizedRMSD -1
REMARK  0 active torsions:
REMARK  status: ('A' for Active; 'I' for Inactive)
ROOT
ATOM      1  C   UNL d   1       4.104   5.903  -5.549  0.00  0.00     0.023 A 
ATOM      2  C1  UNL d   1       5.469   5.686  -5.359  0.00  0.00     0.003 A 
ATOM      3  C2  UNL d   1       5.996   4.399  -5.487  0.00  0.00     0.048 A 
ATOM      4  C3  UNL d   1       5.154   3.335  -5.807  0.00  0.00     0.023 A 
ATOM      5  C4  UNL d   1       3.788   3.548  -5.999  0.00  0.00     0.048 A 
ATOM      6  C5  UNL d   1       3.264   4.836  -5.868  0.00  0.00     0.003 A 
ATOM      7  I   UNL d   1       5.937   1.420  -5.999  0.00  0.00    -0.146 I 
ENDROOT
TORSDOF 0
ENDMDL
