MODEL 1
REMARK minimizedAffinity 1.84710073
REMARK minimizedRMSD -1
REMARK  0 active torsions:
REMARK  status: ('A' for Active; 'I' for Inactive)
ROOT
ATOM      1  C   UNL d   1       2.800   0.058   1.526  0.00  0.00     0.023 A 
ATOM      2  C1  UNL d   1       1.752   0.902   1.895  0.00  0.00     0.003 A 
ATOM      3  C2  UNL d   1       0.431   0.527   1.643  0.00  0.00     0.048 A 
ATOM      4  C3  UNL d   1       0.164  -0.693   1.023  0.00  0.00     0.023 A 
ATOM      5  C4  UNL d   1       1.209  -1.541   0.653  0.00  0.00     0.048 A 
ATOM      6  C5  UNL d   1       2.529  -1.162   0.906  0.00  0.00     0.003 A 
ATOM      7  I   UNL d   1      -1.802  -1.252   0.647  0.00  0.00    -0.146 I 
ENDROOT
TORSDOF 0
ENDMDL
