MODEL 1
REMARK minimizedAffinity -4.27833176
REMARK minimizedRMSD -1
REMARK  0 active torsions:
REMARK  status: ('A' for Active; 'I' for Inactive)
ROOT
ATOM      1  N1  IND d   1       0.902  -0.016  -0.690  0.00  0.00    -0.196 N 
ATOM      2  C2  IND d   1       0.475   1.274  -0.543  0.00  0.00     0.054 A 
ATOM      3  C3  IND d   1      -0.504   1.343   0.387  0.00  0.00    -0.031 A 
ATOM      4  C4  IND d   1      -1.489  -0.522   1.864  0.00  0.00     0.051 A 
ATOM      5  C5  IND d   1      -1.444  -1.872   2.067  0.00  0.00    -0.031 A 
ATOM      6  C6  IND d   1      -0.595  -2.690   1.348  0.00  0.00     0.015 A 
ATOM      7  C7  IND d   1       0.252  -2.182   0.404  0.00  0.00    -0.016 A 
ATOM      8  C8  IND d   1       0.204  -0.812   0.190  0.00  0.00    -0.047 A 
ATOM      9  C9  IND d   1      -0.686   0.017   0.886  0.00  0.00    -0.096 A 
ATOM     10  HN1 IND d   1       1.506  -0.285  -1.241  0.00  0.00     0.298 HD
ENDROOT
TORSDOF 0
ENDMDL
