MODEL 1
REMARK minimizedAffinity -2.99381828
REMARK minimizedRMSD -1
REMARK  0 active torsions:
REMARK  status: ('A' for Active; 'I' for Inactive)
ROOT
ATOM      1  N1  IND d   1       1.490  -0.577  -0.450  0.00  0.00    -0.196 N 
ATOM      2  C2  IND d   1       0.838   0.620  -0.358  0.00  0.00     0.054 A 
ATOM      3  C3  IND d   1      -0.463   0.424  -0.047  0.00  0.00    -0.031 A 
ATOM      4  C4  IND d   1      -1.712  -1.770   0.456  0.00  0.00     0.051 A 
ATOM      5  C5  IND d   1      -1.546  -3.127   0.462  0.00  0.00    -0.031 A 
ATOM      6  C6  IND d   1      -0.335  -3.714   0.161  0.00  0.00     0.015 A 
ATOM      7  C7  IND d   1       0.764  -2.964  -0.148  0.00  0.00    -0.016 A 
ATOM      8  C8  IND d   1       0.598  -1.586  -0.162  0.00  0.00    -0.047 A 
ATOM      9  C9  IND d   1      -0.640  -0.985   0.101  0.00  0.00    -0.096 A 
ATOM     10  HN1 IND d   1       2.319  -0.682  -0.654  0.00  0.00     0.298 HD
ENDROOT
TORSDOF 0
ENDMDL
