MODEL 1
REMARK minimizedAffinity 0.585623085
REMARK minimizedRMSD -1
REMARK  0 active torsions:
REMARK  status: ('A' for Active; 'I' for Inactive)
ROOT
ATOM      1  N1  IND d   1      -0.124  -1.762  -2.241  0.00  0.00    -0.196 N 
ATOM      2  C2  IND d   1      -0.560  -2.996  -2.637  0.00  0.00     0.054 A 
ATOM      3  C3  IND d   1      -1.191  -3.621  -1.618  0.00  0.00    -0.031 A 
ATOM      4  C4  IND d   1      -1.713  -2.767   0.753  0.00  0.00     0.051 A 
ATOM      5  C5  IND d   1      -1.484  -1.714   1.594  0.00  0.00    -0.031 A 
ATOM      6  C6  IND d   1      -0.778  -0.599   1.190  0.00  0.00     0.015 A 
ATOM      7  C7  IND d   1      -0.282  -0.491  -0.079  0.00  0.00    -0.016 A 
ATOM      8  C8  IND d   1      -0.507  -1.562  -0.933  0.00  0.00    -0.047 A 
ATOM      9  C9  IND d   1      -1.186  -2.713  -0.515  0.00  0.00    -0.096 A 
ATOM     10  HN1 IND d   1       0.316  -1.205  -2.727  0.00  0.00     0.298 HD
ENDROOT
TORSDOF 0
ENDMDL
