MODEL 1
REMARK minimizedAffinity 1.2057786
REMARK minimizedRMSD -1
REMARK  0 active torsions:
REMARK  status: ('A' for Active; 'I' for Inactive)
ROOT
ATOM      1  N1  IND d   1       0.712  -0.846  -1.299  0.00  0.00    -0.196 N 
ATOM      2  C2  IND d   1       0.844   0.513  -1.372  0.00  0.00     0.054 A 
ATOM      3  C3  IND d   1       0.004   1.114  -0.500  0.00  0.00    -0.031 A 
ATOM      4  C4  IND d   1      -1.602   0.061   1.215  0.00  0.00     0.051 A 
ATOM      5  C5  IND d   1      -2.098  -1.143   1.629  0.00  0.00    -0.031 A 
ATOM      6  C6  IND d   1      -1.671  -2.335   1.078  0.00  0.00     0.015 A 
ATOM      7  C7  IND d   1      -0.721  -2.367   0.097  0.00  0.00    -0.016 A 
ATOM      8  C8  IND d   1      -0.221  -1.145  -0.330  0.00  0.00    -0.047 A 
ATOM      9  C9  IND d   1      -0.681   0.070   0.195  0.00  0.00    -0.096 A 
ATOM     10  HN1 IND d   1       1.139  -1.418  -1.779  0.00  0.00     0.298 HD
ENDROOT
TORSDOF 0
ENDMDL
