MODEL 1
REMARK minimizedAffinity -2.83507514
REMARK minimizedRMSD -1
REMARK  0 active torsions:
REMARK  status: ('A' for Active; 'I' for Inactive)
ROOT
ATOM      1  N1  IND d   1      -0.457   0.853  -1.096  0.00  0.00    -0.196 N 
ATOM      2  C2  IND d   1       0.352  -0.019  -1.770  0.00  0.00     0.054 A 
ATOM      3  C3  IND d   1       1.646   0.358  -1.660  0.00  0.00    -0.031 A 
ATOM      4  C4  IND d   1       2.672   2.313  -0.337  0.00  0.00     0.051 A 
ATOM      5  C5  IND d   1       2.330   3.407   0.408  0.00  0.00    -0.031 A 
ATOM      6  C6  IND d   1       1.015   3.710   0.697  0.00  0.00     0.015 A 
ATOM      7  C7  IND d   1      -0.011   2.920   0.261  0.00  0.00    -0.016 A 
ATOM      8  C8  IND d   1       0.333   1.813  -0.502  0.00  0.00    -0.047 A 
ATOM      9  C9  IND d   1       1.662   1.524  -0.835  0.00  0.00    -0.096 A 
ATOM     10  HN1 IND d   1      -1.314   0.809  -1.051  0.00  0.00     0.298 HD
ENDROOT
TORSDOF 0
ENDMDL
