MODEL 1
REMARK minimizedAffinity -4.98788452
REMARK minimizedRMSD -1
REMARK  0 active torsions:
REMARK  status: ('A' for Active; 'I' for Inactive)
ROOT
ATOM      1  N1  IND d   1      -0.710  -1.622   1.206  0.00  0.00    -0.196 N 
ATOM      2  C2  IND d   1      -0.740  -2.989   1.195  0.00  0.00     0.054 A 
ATOM      3  C3  IND d   1      -0.355  -3.459  -0.012  0.00  0.00    -0.031 A 
ATOM      4  C4  IND d   1       0.465  -2.169  -2.084  0.00  0.00     0.051 A 
ATOM      5  C5  IND d   1       0.631  -0.902  -2.567  0.00  0.00    -0.031 A 
ATOM      6  C6  IND d   1       0.357   0.213  -1.802  0.00  0.00     0.015 A 
ATOM      7  C7  IND d   1      -0.086   0.101  -0.514  0.00  0.00    -0.016 A 
ATOM      8  C8  IND d   1      -0.263  -1.185  -0.022  0.00  0.00    -0.047 A 
ATOM      9  C9  IND d   1      -0.027  -2.319  -0.809  0.00  0.00    -0.096 A 
ATOM     10  HN1 IND d   1      -0.932  -1.120   1.867  0.00  0.00     0.298 HD
ENDROOT
TORSDOF 0
ENDMDL
