MODEL 1
REMARK minimizedAffinity -3.21067977
REMARK minimizedRMSD -1
REMARK  0 active torsions:
REMARK  status: ('A' for Active; 'I' for Inactive)
ROOT
ATOM      1  N1  IND d   1       0.122  -1.372  -1.465  0.00  0.00    -0.196 N 
ATOM      2  C2  IND d   1       0.459  -0.052  -1.348  0.00  0.00     0.054 A 
ATOM      3  C3  IND d   1      -0.059   0.466  -0.212  0.00  0.00    -0.031 A 
ATOM      4  C4  IND d   1      -1.406  -0.694   1.650  0.00  0.00     0.051 A 
ATOM      5  C5  IND d   1      -1.992  -1.885   1.973  0.00  0.00    -0.031 A 
ATOM      6  C6  IND d   1      -1.901  -2.990   1.150  0.00  0.00     0.015 A 
ATOM      7  C7  IND d   1      -1.205  -2.946  -0.025  0.00  0.00    -0.016 A 
ATOM      8  C8  IND d   1      -0.614  -1.736  -0.359  0.00  0.00    -0.047 A 
ATOM      9  C9  IND d   1      -0.740  -0.600   0.451  0.00  0.00    -0.096 A 
ATOM     10  HN1 IND d   1       0.333  -1.888  -2.120  0.00  0.00     0.298 HD
ENDROOT
TORSDOF 0
ENDMDL
