MODEL 1
REMARK minimizedAffinity -4.80249548
REMARK minimizedRMSD -1
REMARK  0 active torsions:
REMARK  status: ('A' for Active; 'I' for Inactive)
ROOT
ATOM      1  N1  IND d   1       0.386   0.410  -0.544  0.00  0.00    -0.196 N 
ATOM      2  C2  IND d   1      -0.596   1.099   0.112  0.00  0.00     0.054 A 
ATOM      3  C3  IND d   1      -1.305   0.266   0.906  0.00  0.00    -0.031 A 
ATOM      4  C4  IND d   1      -0.964  -2.245   1.360  0.00  0.00     0.051 A 
ATOM      5  C5  IND d   1      -0.217  -3.320   0.965  0.00  0.00    -0.031 A 
ATOM      6  C6  IND d   1       0.791  -3.203   0.030  0.00  0.00     0.015 A 
ATOM      7  C7  IND d   1       1.099  -2.000  -0.539  0.00  0.00    -0.016 A 
ATOM      8  C8  IND d   1       0.338  -0.908  -0.145  0.00  0.00    -0.047 A 
ATOM      9  C9  IND d   1      -0.714  -1.028   0.772  0.00  0.00    -0.096 A 
ATOM     10  HN1 IND d   1       0.941   0.744  -1.109  0.00  0.00     0.298 HD
ENDROOT
TORSDOF 0
ENDMDL
