MODEL 1
REMARK minimizedAffinity -4.05893993
REMARK minimizedRMSD -1
REMARK  0 active torsions:
REMARK  status: ('A' for Active; 'I' for Inactive)
ROOT
ATOM      1  N1  IND d   1      -0.242   0.734  -0.506  0.00  0.00    -0.196 N 
ATOM      2  C2  IND d   1       0.037  -0.427   0.159  0.00  0.00     0.054 A 
ATOM      3  C3  IND d   1       1.096  -0.255   0.981  0.00  0.00    -0.031 A 
ATOM      4  C4  IND d   1       2.458   1.874   1.470  0.00  0.00     0.051 A 
ATOM      5  C5  IND d   1       2.601   3.175   1.077  0.00  0.00    -0.031 A 
ATOM      6  C6  IND d   1       1.785   3.741   0.119  0.00  0.00     0.015 A 
ATOM      7  C7  IND d   1       0.784   3.027  -0.476  0.00  0.00    -0.016 A 
ATOM      8  C8  IND d   1       0.641   1.704  -0.085  0.00  0.00    -0.047 A 
ATOM      9  C9  IND d   1       1.493   1.112   0.856  0.00  0.00    -0.096 A 
ATOM     10  HN1 IND d   1      -0.865   0.841  -1.089  0.00  0.00     0.298 HD
ENDROOT
TORSDOF 0
ENDMDL
