MODEL 1
REMARK minimizedAffinity -3.82335711
REMARK minimizedRMSD -1
REMARK  0 active torsions:
REMARK  status: ('A' for Active; 'I' for Inactive)
ROOT
ATOM      1  N1  IND d   1       1.044  -0.216  -0.942  0.00  0.00    -0.196 N 
ATOM      2  C2  IND d   1       0.735   1.102  -0.750  0.00  0.00     0.054 A 
ATOM      3  C3  IND d   1      -0.352   1.219   0.045  0.00  0.00    -0.031 A 
ATOM      4  C4  IND d   1      -1.721  -0.614   1.224  0.00  0.00     0.051 A 
ATOM      5  C5  IND d   1      -1.844  -1.972   1.323  0.00  0.00    -0.031 A 
ATOM      6  C6  IND d   1      -0.991  -2.831   0.660  0.00  0.00     0.015 A 
ATOM      7  C7  IND d   1       0.027  -2.362  -0.121  0.00  0.00    -0.016 A 
ATOM      8  C8  IND d   1       0.151  -0.984  -0.228  0.00  0.00    -0.047 A 
ATOM      9  C9  IND d   1      -0.738  -0.108   0.408  0.00  0.00    -0.096 A 
ATOM     10  HN1 IND d   1       1.688  -0.515  -1.428  0.00  0.00     0.298 HD
ENDROOT
TORSDOF 0
ENDMDL
