MODEL 1
REMARK minimizedAffinity -2.6598382
REMARK minimizedRMSD -1
REMARK  0 active torsions:
REMARK  status: ('A' for Active; 'I' for Inactive)
ROOT
ATOM      1  N1  IND d   1       0.901   0.678  -0.625  0.00  0.00    -0.196 N 
ATOM      2  C2  IND d   1       0.337   1.732   0.040  0.00  0.00     0.054 A 
ATOM      3  C3  IND d   1      -0.612   1.294   0.897  0.00  0.00    -0.031 A 
ATOM      4  C4  IND d   1      -1.333  -1.116   1.446  0.00  0.00     0.051 A 
ATOM      5  C5  IND d   1      -1.131  -2.413   1.068  0.00  0.00    -0.031 A 
ATOM      6  C6  IND d   1      -0.220  -2.754   0.089  0.00  0.00     0.015 A 
ATOM      7  C7  IND d   1       0.533  -1.806  -0.544  0.00  0.00    -0.016 A 
ATOM      8  C8  IND d   1       0.325  -0.487  -0.168  0.00  0.00    -0.047 A 
ATOM      9  C9  IND d   1      -0.628  -0.131   0.795  0.00  0.00    -0.096 A 
ATOM     10  HN1 IND d   1       1.512   0.734  -1.227  0.00  0.00     0.298 HD
ENDROOT
TORSDOF 0
ENDMDL
