MODEL 1
REMARK minimizedAffinity -3.60663676
REMARK minimizedRMSD -1
REMARK  0 active torsions:
REMARK  status: ('A' for Active; 'I' for Inactive)
ROOT
ATOM      1  N1  IND d   1       0.756   0.180  -1.068  0.00  0.00    -0.196 N 
ATOM      2  C2  IND d   1       0.438   1.417  -0.582  0.00  0.00     0.054 A 
ATOM      3  C3  IND d   1      -0.394   1.306   0.478  0.00  0.00    -0.031 A 
ATOM      4  C4  IND d   1      -1.280  -0.810   1.647  0.00  0.00     0.051 A 
ATOM      5  C5  IND d   1      -1.294  -2.173   1.542  0.00  0.00    -0.031 A 
ATOM      6  C6  IND d   1      -0.610  -2.834   0.543  0.00  0.00     0.015 A 
ATOM      7  C7  IND d   1       0.128  -2.155  -0.386  0.00  0.00    -0.016 A 
ATOM      8  C8  IND d   1       0.138  -0.771  -0.287  0.00  0.00    -0.047 A 
ATOM      9  C9  IND d   1      -0.589  -0.092   0.699  0.00  0.00    -0.096 A 
ATOM     10  HN1 IND d   1       1.258   0.022  -1.749  0.00  0.00     0.298 HD
ENDROOT
TORSDOF 0
ENDMDL
