MODEL 1
REMARK minimizedAffinity -1.35700417
REMARK minimizedRMSD -1
REMARK  0 active torsions:
REMARK  status: ('A' for Active; 'I' for Inactive)
ROOT
ATOM      1  N1  IND d   1       1.646   3.626  -0.384  0.00  0.00    -0.196 N 
ATOM      2  C2  IND d   1       1.693   3.942   0.945  0.00  0.00     0.054 A 
ATOM      3  C3  IND d   1       1.062   2.996   1.676  0.00  0.00    -0.031 A 
ATOM      4  C4  IND d   1      -0.030   0.794   0.909  0.00  0.00     0.051 A 
ATOM      5  C5  IND d   1      -0.353   0.087  -0.214  0.00  0.00    -0.031 A 
ATOM      6  C6  IND d   1      -0.017   0.530  -1.477  0.00  0.00     0.015 A 
ATOM      7  C7  IND d   1       0.667   1.698  -1.664  0.00  0.00    -0.016 A 
ATOM      8  C8  IND d   1       0.991   2.423  -0.525  0.00  0.00    -0.047 A 
ATOM      9  C9  IND d   1       0.616   1.999   0.756  0.00  0.00    -0.096 A 
ATOM     10  HN1 IND d   1       1.971   4.099  -1.024  0.00  0.00     0.298 HD
ENDROOT
TORSDOF 0
ENDMDL
