MODEL 1
REMARK minimizedAffinity -0.0546278171
REMARK minimizedRMSD -1
REMARK  0 active torsions:
REMARK  status: ('A' for Active; 'I' for Inactive)
ROOT
ATOM      1  N1  IND d   1       0.057   1.449  -1.271  0.00  0.00    -0.196 N 
ATOM      2  C2  IND d   1      -0.523   0.569  -0.401  0.00  0.00     0.054 A 
ATOM      3  C3  IND d   1      -0.009   0.726   0.839  0.00  0.00    -0.031 A 
ATOM      4  C4  IND d   1       1.718   2.434   1.690  0.00  0.00     0.051 A 
ATOM      5  C5  IND d   1       2.560   3.421   1.260  0.00  0.00    -0.031 A 
ATOM      6  C6  IND d   1       2.609   3.811  -0.063  0.00  0.00     0.015 A 
ATOM      7  C7  IND d   1       1.807   3.234  -1.006  0.00  0.00    -0.016 A 
ATOM      8  C8  IND d   1       0.956   2.226  -0.574  0.00  0.00    -0.047 A 
ATOM      9  C9  IND d   1       0.932   1.797   0.759  0.00  0.00    -0.096 A 
ATOM     10  HN1 IND d   1      -0.111   1.508  -2.112  0.00  0.00     0.298 HD
ENDROOT
TORSDOF 0
ENDMDL
