MODEL 1
REMARK minimizedAffinity 8.03763676
REMARK minimizedRMSD -1
REMARK  0 active torsions:
REMARK  status: ('A' for Active; 'I' for Inactive)
ROOT
ATOM      1  N1  IND d   1       0.787   2.418   0.458  0.00  0.00    -0.196 N 
ATOM      2  C2  IND d   1       2.010   2.237   1.040  0.00  0.00     0.054 A 
ATOM      3  C3  IND d   1       2.174   3.096   2.070  0.00  0.00    -0.031 A 
ATOM      4  C4  IND d   1       0.524   4.817   3.042  0.00  0.00     0.051 A 
ATOM      5  C5  IND d   1      -0.705   5.373   2.824  0.00  0.00    -0.031 A 
ATOM      6  C6  IND d   1      -1.518   4.962   1.787  0.00  0.00     0.015 A 
ATOM      7  C7  IND d   1      -1.134   3.968   0.933  0.00  0.00    -0.016 A 
ATOM      8  C8  IND d   1       0.117   3.406   1.146  0.00  0.00    -0.047 A 
ATOM      9  C9  IND d   1       0.963   3.848   2.171  0.00  0.00    -0.096 A 
ATOM     10  HN1 IND d   1       0.486   1.988  -0.223  0.00  0.00     0.298 HD
ENDROOT
TORSDOF 0
ENDMDL
