MODEL 1
REMARK minimizedAffinity -4.14761591
REMARK minimizedRMSD -1
REMARK  0 active torsions:
REMARK  status: ('A' for Active; 'I' for Inactive)
ROOT
ATOM      1  N1  IND d   1      -1.249  -1.725   1.853  0.00  0.00    -0.196 N 
ATOM      2  C2  IND d   1      -1.046  -3.007   1.423  0.00  0.00     0.054 A 
ATOM      3  C3  IND d   1      -0.374  -3.008   0.250  0.00  0.00    -0.031 A 
ATOM      4  C4  IND d   1       0.580  -1.029  -1.091  0.00  0.00     0.051 A 
ATOM      5  C5  IND d   1       0.616   0.337  -1.117  0.00  0.00    -0.031 A 
ATOM      6  C6  IND d   1       0.022   1.101  -0.133  0.00  0.00     0.015 A 
ATOM      7  C7  IND d   1      -0.622   0.524   0.924  0.00  0.00    -0.016 A 
ATOM      8  C8  IND d   1      -0.667  -0.862   0.950  0.00  0.00    -0.047 A 
ATOM      9  C9  IND d   1      -0.103  -1.642  -0.068  0.00  0.00    -0.096 A 
ATOM     10  HN1 IND d   1      -1.669  -1.496   2.567  0.00  0.00     0.298 HD
ENDROOT
TORSDOF 0
ENDMDL
