MODEL 1
REMARK minimizedAffinity 6.83320475
REMARK minimizedRMSD -1
REMARK  0 active torsions:
REMARK  status: ('A' for Active; 'I' for Inactive)
ROOT
ATOM      1  C   UNL d   1      -2.014  -1.521  -2.240  0.00  0.00     0.172 C 
ATOM      2  N   UNL d   1      -2.916  -0.578  -1.621  0.00  0.00    -0.070 N 
ATOM      3  C1  UNL d   1      -2.978   0.763  -1.892  0.00  0.00    -0.004 A 
ATOM      4  C2  UNL d   1      -3.962   1.309  -1.098  0.00  0.00    -0.047 A 
ATOM      5  C3  UNL d   1      -4.510   0.260  -0.322  0.00  0.00    -0.047 A 
ATOM      6  C4  UNL d   1      -3.844  -0.897  -0.666  0.00  0.00    -0.004 A 
ENDROOT
TORSDOF 0
ENDMDL
