MODEL 1
REMARK minimizedAffinity 2.25520682
REMARK minimizedRMSD -1
REMARK  0 active torsions:
REMARK  status: ('A' for Active; 'I' for Inactive)
ROOT
ATOM      1  C   UNL d   1      -1.101   2.382   1.867  0.00  0.00     0.172 C 
ATOM      2  N   UNL d   1      -0.949   3.159   0.659  0.00  0.00    -0.070 N 
ATOM      3  C1  UNL d   1      -0.480   2.689  -0.539  0.00  0.00    -0.004 A 
ATOM      4  C2  UNL d   1      -0.489   3.735  -1.435  0.00  0.00    -0.047 A 
ATOM      5  C3  UNL d   1      -0.979   4.874  -0.753  0.00  0.00    -0.047 A 
ATOM      6  C4  UNL d   1      -1.256   4.489   0.542  0.00  0.00    -0.004 A 
ENDROOT
TORSDOF 0
ENDMDL
