MODEL 1
REMARK minimizedAffinity -0.560249865
REMARK minimizedRMSD -1
REMARK  0 active torsions:
REMARK  status: ('A' for Active; 'I' for Inactive)
ROOT
ATOM      1  C   UNL d   1       0.405   2.002   3.097  0.00  0.00     0.172 C 
ATOM      2  N   UNL d   1       0.323   2.683   1.827  0.00  0.00    -0.070 N 
ATOM      3  C1  UNL d   1       1.370   3.267   1.165  0.00  0.00    -0.004 A 
ATOM      4  C2  UNL d   1       0.881   3.807  -0.005  0.00  0.00    -0.047 A 
ATOM      5  C3  UNL d   1      -0.508   3.538  -0.048  0.00  0.00    -0.047 A 
ATOM      6  C4  UNL d   1      -0.827   2.842   1.098  0.00  0.00    -0.004 A 
ENDROOT
TORSDOF 0
ENDMDL
