MODEL 1
REMARK minimizedAffinity 4.8535161
REMARK minimizedRMSD -1
REMARK  0 active torsions:
REMARK  status: ('A' for Active; 'I' for Inactive)
ROOT
ATOM      1  C   UNL d   1       0.560  -0.835   3.894  0.00  0.00     0.172 C 
ATOM      2  N   UNL d   1       0.379   0.476   3.315  0.00  0.00    -0.070 N 
ATOM      3  C1  UNL d   1      -0.789   0.963   2.792  0.00  0.00    -0.004 A 
ATOM      4  C2  UNL d   1      -0.549   2.244   2.344  0.00  0.00    -0.047 A 
ATOM      5  C3  UNL d   1       0.811   2.536   2.606  0.00  0.00    -0.047 A 
ATOM      6  C4  UNL d   1       1.361   1.424   3.207  0.00  0.00    -0.004 A 
ENDROOT
TORSDOF 0
ENDMDL
