MODEL 1
REMARK minimizedAffinity 8.00188637
REMARK minimizedRMSD -1
REMARK  0 active torsions:
REMARK  status: ('A' for Active; 'I' for Inactive)
ROOT
ATOM      1  C   UNL d   1       0.273   2.790   1.941  0.00  0.00     0.172 C 
ATOM      2  N   UNL d   1       0.034   3.418   0.663  0.00  0.00    -0.070 N 
ATOM      3  C1  UNL d   1       0.367   4.704   0.331  0.00  0.00    -0.004 A 
ATOM      4  C2  UNL d   1      -0.026   4.918  -0.973  0.00  0.00    -0.047 A 
ATOM      5  C3  UNL d   1      -0.615   3.720  -1.440  0.00  0.00    -0.047 A 
ATOM      6  C4  UNL d   1      -0.565   2.807  -0.407  0.00  0.00    -0.004 A 
ENDROOT
TORSDOF 0
ENDMDL
