MODEL 1
REMARK minimizedAffinity -1.21702754
REMARK minimizedRMSD -1
REMARK  0 active torsions:
REMARK  status: ('A' for Active; 'I' for Inactive)
ROOT
ATOM      1  C   UNL d   1      -0.766   2.405   1.842  0.00  0.00     0.172 C 
ATOM      2  N   UNL d   1      -0.732   3.135   0.597  0.00  0.00    -0.070 N 
ATOM      3  C1  UNL d   1      -0.866   2.590  -0.652  0.00  0.00    -0.004 A 
ATOM      4  C2  UNL d   1      -0.778   3.613  -1.571  0.00  0.00    -0.047 A 
ATOM      5  C3  UNL d   1      -0.584   4.815  -0.850  0.00  0.00    -0.047 A 
ATOM      6  C4  UNL d   1      -0.559   4.490   0.490  0.00  0.00    -0.004 A 
ENDROOT
TORSDOF 0
ENDMDL
