MODEL 1
REMARK minimizedAffinity 5.39076281
REMARK minimizedRMSD -1
REMARK  0 active torsions:
REMARK  status: ('A' for Active; 'I' for Inactive)
ROOT
ATOM      1  C   UNL d   1      -0.035   3.810  -0.306  0.00  0.00     0.172 C 
ATOM      2  N   UNL d   1      -0.016   3.294   1.042  0.00  0.00    -0.070 N 
ATOM      3  C1  UNL d   1       1.097   3.149   1.826  0.00  0.00    -0.004 A 
ATOM      4  C2  UNL d   1       0.696   2.627   3.037  0.00  0.00    -0.047 A 
ATOM      5  C3  UNL d   1      -0.706   2.450   2.978  0.00  0.00    -0.047 A 
ATOM      6  C4  UNL d   1      -1.121   2.871   1.732  0.00  0.00    -0.004 A 
ENDROOT
TORSDOF 0
ENDMDL
