MODEL 1
REMARK minimizedAffinity 2.83840466
REMARK minimizedRMSD -1
REMARK  0 active torsions:
REMARK  status: ('A' for Active; 'I' for Inactive)
ROOT
ATOM      1  C   UNL d   1       0.086   1.177   2.623  0.00  0.00     0.172 C 
ATOM      2  N   UNL d   1       0.098   1.850   1.346  0.00  0.00    -0.070 N 
ATOM      3  C1  UNL d   1      -0.844   2.740   0.904  0.00  0.00    -0.004 A 
ATOM      4  C2  UNL d   1      -0.474   3.155  -0.357  0.00  0.00    -0.047 A 
ATOM      5  C3  UNL d   1       0.732   2.491  -0.684  0.00  0.00    -0.047 A 
ATOM      6  C4  UNL d   1       1.064   1.689   0.387  0.00  0.00    -0.004 A 
ENDROOT
TORSDOF 0
ENDMDL
