MODEL 1
REMARK minimizedAffinity -0.699492872
REMARK minimizedRMSD -1
REMARK  0 active torsions:
REMARK  status: ('A' for Active; 'I' for Inactive)
ROOT
ATOM      1  C1  BNZ d   1      -4.041   3.374  -5.821  0.00  0.00     0.000 A 
ATOM      2  C2  BNZ d   1      -2.737   2.999  -6.000  0.00  0.00     0.000 A 
ATOM      3  C3  BNZ d   1      -1.734   3.927  -5.993  0.00  0.00     0.000 A 
ATOM      4  C4  BNZ d   1      -2.040   5.233  -5.849  0.00  0.00     0.000 A 
ATOM      5  C5  BNZ d   1      -3.351   5.629  -5.678  0.00  0.00     0.000 A 
ATOM      6  C6  BNZ d   1      -4.354   4.687  -5.646  0.00  0.00     0.000 A 
ENDROOT
TORSDOF 0
ENDMDL
