MODEL 1
REMARK minimizedAffinity -0.635323882
REMARK minimizedRMSD -1
REMARK  0 active torsions:
REMARK  status: ('A' for Active; 'I' for Inactive)
ROOT
ATOM      1  C1  BNZ d   1      -2.266   4.874  -5.944  0.00  0.00     0.000 A 
ATOM      2  C2  BNZ d   1      -0.990   5.371  -5.944  0.00  0.00     0.000 A 
ATOM      3  C3  BNZ d   1       0.088   4.531  -5.990  0.00  0.00     0.000 A 
ATOM      4  C4  BNZ d   1      -0.110   3.197  -5.997  0.00  0.00     0.000 A 
ATOM      5  C5  BNZ d   1      -1.390   2.681  -5.988  0.00  0.00     0.000 A 
ATOM      6  C6  BNZ d   1      -2.473   3.529  -5.981  0.00  0.00     0.000 A 
ENDROOT
TORSDOF 0
ENDMDL
