MODEL 1
REMARK minimizedAffinity 1.24615133
REMARK minimizedRMSD -1
REMARK  0 active torsions:
REMARK  status: ('A' for Active; 'I' for Inactive)
ROOT
ATOM      1  C1  BNZ d   1      -2.019   5.594  -5.983  0.00  0.00     0.000 A 
ATOM      2  C2  BNZ d   1      -3.071   4.718  -6.000  0.00  0.00     0.000 A 
ATOM      3  C3  BNZ d   1      -2.859   3.368  -5.988  0.00  0.00     0.000 A 
ATOM      4  C4  BNZ d   1      -1.596   2.895  -5.999  0.00  0.00     0.000 A 
ATOM      5  C5  BNZ d   1      -0.524   3.765  -5.992  0.00  0.00     0.000 A 
ATOM      6  C6  BNZ d   1      -0.742   5.124  -5.965  0.00  0.00     0.000 A 
ENDROOT
TORSDOF 0
ENDMDL
