MODEL 1
REMARK minimizedAffinity -0.629754841
REMARK minimizedRMSD -1
REMARK  0 active torsions:
REMARK  status: ('A' for Active; 'I' for Inactive)
ROOT
ATOM      1  C1  BNZ d   1       3.781   5.340  -5.999  0.00  0.00     0.000 A 
ATOM      2  C2  BNZ d   1       5.138   5.524  -5.993  0.00  0.00     0.000 A 
ATOM      3  C3  BNZ d   1       5.989   4.454  -6.000  0.00  0.00     0.000 A 
ATOM      4  C4  BNZ d   1       5.484   3.204  -5.971  0.00  0.00     0.000 A 
ATOM      5  C5  BNZ d   1       4.118   3.003  -5.967  0.00  0.00     0.000 A 
ATOM      6  C6  BNZ d   1       3.264   4.081  -6.000  0.00  0.00     0.000 A 
ENDROOT
TORSDOF 0
ENDMDL
