MODEL 1
REMARK minimizedAffinity 0.0724245459
REMARK minimizedRMSD -1
REMARK  0 active torsions:
REMARK  status: ('A' for Active; 'I' for Inactive)
ROOT
ATOM      1  C1  BNZ d   1      -0.408   3.027  -5.984  0.00  0.00     0.000 A 
ATOM      2  C2  BNZ d   1      -0.654   4.374  -5.981  0.00  0.00     0.000 A 
ATOM      3  C3  BNZ d   1       0.376   5.273  -5.998  0.00  0.00     0.000 A 
ATOM      4  C4  BNZ d   1       1.648   4.825  -5.978  0.00  0.00     0.000 A 
ATOM      5  C5  BNZ d   1       1.912   3.470  -5.972  0.00  0.00     0.000 A 
ATOM      6  C6  BNZ d   1       0.873   2.567  -5.994  0.00  0.00     0.000 A 
ENDROOT
TORSDOF 0
ENDMDL
