MODEL 1
REMARK minimizedAffinity -1.72329295
REMARK minimizedRMSD -1
REMARK  0 active torsions:
REMARK  status: ('A' for Active; 'I' for Inactive)
ROOT
ATOM      1  C1  BNZ d   1      -2.824   3.601  -6.000  0.00  0.00     0.000 A 
ATOM      2  C2  BNZ d   1      -2.412   4.907  -5.995  0.00  0.00     0.000 A 
ATOM      3  C3  BNZ d   1      -1.082   5.221  -5.999  0.00  0.00     0.000 A 
ATOM      4  C4  BNZ d   1      -0.167   4.231  -5.968  0.00  0.00     0.000 A 
ATOM      5  C5  BNZ d   1      -0.566   2.910  -5.964  0.00  0.00     0.000 A 
ATOM      6  C6  BNZ d   1      -1.906   2.597  -5.999  0.00  0.00     0.000 A 
ENDROOT
TORSDOF 0
ENDMDL
