MODEL 1
REMARK minimizedAffinity -1.70666611
REMARK minimizedRMSD -1
REMARK  0 active torsions:
REMARK  status: ('A' for Active; 'I' for Inactive)
ROOT
ATOM      1  C1  BNZ d   1      -1.487   2.704  -5.999  0.00  0.00     0.000 A 
ATOM      2  C2  BNZ d   1      -2.664   3.403  -5.995  0.00  0.00     0.000 A 
ATOM      3  C3  BNZ d   1      -2.667   4.770  -5.999  0.00  0.00     0.000 A 
ATOM      4  C4  BNZ d   1      -1.494   5.435  -5.967  0.00  0.00     0.000 A 
ATOM      5  C5  BNZ d   1      -0.298   4.745  -5.961  0.00  0.00     0.000 A 
ATOM      6  C6  BNZ d   1      -0.300   3.369  -5.996  0.00  0.00     0.000 A 
ENDROOT
TORSDOF 0
ENDMDL
