MODEL 1
REMARK minimizedAffinity -1.48756993
REMARK minimizedRMSD -1
REMARK  0 active torsions:
REMARK  status: ('A' for Active; 'I' for Inactive)
ROOT
ATOM      1  C1  BNZ d   1      -0.709   3.375  -4.510  0.00  0.00     0.000 A 
ATOM      2  C2  BNZ d   1      -1.872   2.651  -4.513  0.00  0.00     0.000 A 
ATOM      3  C3  BNZ d   1      -2.937   3.042  -5.275  0.00  0.00     0.000 A 
ATOM      4  C4  BNZ d   1      -2.854   4.176  -6.000  0.00  0.00     0.000 A 
ATOM      5  C5  BNZ d   1      -1.692   4.921  -6.000  0.00  0.00     0.000 A 
ATOM      6  C6  BNZ d   1      -0.608   4.504  -5.263  0.00  0.00     0.000 A 
ENDROOT
TORSDOF 0
ENDMDL
