MODEL 1
REMARK minimizedAffinity -1.92943156
REMARK minimizedRMSD -1
REMARK  0 active torsions:
REMARK  status: ('A' for Active; 'I' for Inactive)
ROOT
ATOM      1  C1  BNZ d   1      -1.892   3.618  -5.988  0.00  0.00     0.000 A 
ATOM      2  C2  BNZ d   1      -0.557   3.311  -5.998  0.00  0.00     0.000 A 
ATOM      3  C3  BNZ d   1       0.388   4.299  -5.984  0.00  0.00     0.000 A 
ATOM      4  C4  BNZ d   1      -0.002   5.590  -5.999  0.00  0.00     0.000 A 
ATOM      5  C5  BNZ d   1      -1.344   5.915  -5.998  0.00  0.00     0.000 A 
ATOM      6  C6  BNZ d   1      -2.292   4.918  -5.974  0.00  0.00     0.000 A 
ENDROOT
TORSDOF 0
ENDMDL
