MODEL 1
REMARK minimizedAffinity -3.0016439
REMARK minimizedRMSD -1
REMARK  0 active torsions:
REMARK  status: ('A' for Active; 'I' for Inactive)
ROOT
ATOM      1  C1  BNZ d   1       1.975   5.779  -5.997  0.00  0.00     0.000 A 
ATOM      2  C2  BNZ d   1       0.613   5.659  -5.919  0.00  0.00     0.000 A 
ATOM      3  C3  BNZ d   1       0.023   4.429  -5.831  0.00  0.00     0.000 A 
ATOM      4  C4  BNZ d   1       0.791   3.321  -5.861  0.00  0.00     0.000 A 
ATOM      5  C5  BNZ d   1       2.165   3.425  -5.949  0.00  0.00     0.000 A 
ATOM      6  C6  BNZ d   1       2.758   4.666  -5.998  0.00  0.00     0.000 A 
ENDROOT
TORSDOF 0
ENDMDL
