MODEL 1
REMARK minimizedAffinity -2.01834393
REMARK minimizedRMSD -1
REMARK  0 active torsions:
REMARK  status: ('A' for Active; 'I' for Inactive)
ROOT
ATOM      1  C1  BNZ d   1      -2.489   3.090  -5.994  0.00  0.00     0.000 A 
ATOM      2  C2  BNZ d   1      -3.504   4.010  -5.990  0.00  0.00     0.000 A 
ATOM      3  C3  BNZ d   1      -3.234   5.349  -5.998  0.00  0.00     0.000 A 
ATOM      4  C4  BNZ d   1      -1.952   5.768  -5.968  0.00  0.00     0.000 A 
ATOM      5  C5  BNZ d   1      -0.918   4.852  -5.962  0.00  0.00     0.000 A 
ATOM      6  C6  BNZ d   1      -1.193   3.505  -5.994  0.00  0.00     0.000 A 
ENDROOT
TORSDOF 0
ENDMDL
