MODEL 1
REMARK minimizedAffinity -2.24242306
REMARK minimizedRMSD -1
REMARK  0 active torsions:
REMARK  status: ('A' for Active; 'I' for Inactive)
ROOT
ATOM      1  C1  BNZ d   1      -1.473   5.282  -6.000  0.00  0.00     0.000 A 
ATOM      2  C2  BNZ d   1      -2.743   4.769  -5.988  0.00  0.00     0.000 A 
ATOM      3  C3  BNZ d   1      -2.952   3.419  -5.957  0.00  0.00     0.000 A 
ATOM      4  C4  BNZ d   1      -1.893   2.583  -5.979  0.00  0.00     0.000 A 
ATOM      5  C5  BNZ d   1      -0.607   3.085  -6.000  0.00  0.00     0.000 A 
ATOM      6  C6  BNZ d   1      -0.400   4.446  -5.991  0.00  0.00     0.000 A 
ENDROOT
TORSDOF 0
ENDMDL
