MODEL 1
REMARK minimizedAffinity -0.349779367
REMARK minimizedRMSD -1
REMARK  0 active torsions:
REMARK  status: ('A' for Active; 'I' for Inactive)
ROOT
ATOM      1  C1  BNZ d   1      -0.482   3.240  -5.998  0.00  0.00     0.000 A 
ATOM      2  C2  BNZ d   1      -0.020   4.529  -5.998  0.00  0.00     0.000 A 
ATOM      3  C3  BNZ d   1      -0.888   5.585  -5.975  0.00  0.00     0.000 A 
ATOM      4  C4  BNZ d   1      -2.216   5.351  -5.991  0.00  0.00     0.000 A 
ATOM      5  C5  BNZ d   1      -2.698   4.057  -6.000  0.00  0.00     0.000 A 
ATOM      6  C6  BNZ d   1      -1.821   2.997  -5.984  0.00  0.00     0.000 A 
ENDROOT
TORSDOF 0
ENDMDL
