MODEL 1
REMARK minimizedAffinity -3.11545968
REMARK minimizedRMSD -1
REMARK  0 active torsions:
REMARK  status: ('A' for Active; 'I' for Inactive)
ROOT
ATOM      1  C1  BNZ d   1      -0.724   3.592  -6.000  0.00  0.00     0.000 A 
ATOM      2  C2  BNZ d   1      -1.942   2.968  -5.995  0.00  0.00     0.000 A 
ATOM      3  C3  BNZ d   1      -3.101   3.693  -6.000  0.00  0.00     0.000 A 
ATOM      4  C4  BNZ d   1      -3.040   5.040  -5.968  0.00  0.00     0.000 A 
ATOM      5  C5  BNZ d   1      -1.819   5.685  -5.963  0.00  0.00     0.000 A 
ATOM      6  C6  BNZ d   1      -0.655   4.952  -5.998  0.00  0.00     0.000 A 
ENDROOT
TORSDOF 0
ENDMDL
