MODEL 1
REMARK minimizedAffinity 4.67084217
REMARK minimizedRMSD -1
REMARK  0 active torsions:
REMARK  status: ('A' for Active; 'I' for Inactive)
ROOT
ATOM      1  N1  IND d   1       0.719   3.560  -1.071  0.00  0.00    -0.196 N 
ATOM      2  C2  IND d   1       0.140   4.798  -1.045  0.00  0.00     0.054 A 
ATOM      3  C3  IND d   1      -0.930   4.800  -0.218  0.00  0.00    -0.031 A 
ATOM      4  C4  IND d   1      -1.850   2.912   1.270  0.00  0.00     0.051 A 
ATOM      5  C5  IND d   1      -1.678   1.587   1.559  0.00  0.00    -0.031 A 
ATOM      6  C6  IND d   1      -0.676   0.838   0.977  0.00  0.00     0.015 A 
ATOM      7  C7  IND d   1       0.202   1.391   0.088  0.00  0.00    -0.016 A 
ATOM      8  C8  IND d   1       0.025   2.734  -0.213  0.00  0.00    -0.047 A 
ATOM      9  C9  IND d   1      -1.016   3.489   0.342  0.00  0.00    -0.096 A 
ATOM     10  HN1 IND d   1       1.401   3.335  -1.543  0.00  0.00     0.298 HD
ENDROOT
TORSDOF 0
ENDMDL
