MODEL 1
REMARK minimizedAffinity 8.5527277
REMARK minimizedRMSD -1
REMARK  0 active torsions:
REMARK  status: ('A' for Active; 'I' for Inactive)
ROOT
ATOM      1  N1  IND d   1       0.517   2.119  -2.388  0.00  0.00    -0.196 N 
ATOM      2  C2  IND d   1       0.427   0.755  -2.411  0.00  0.00     0.054 A 
ATOM      3  C3  IND d   1       0.081   0.285  -1.192  0.00  0.00    -0.031 A 
ATOM      4  C4  IND d   1      -0.487   1.581   0.959  0.00  0.00     0.051 A 
ATOM      5  C5  IND d   1      -0.511   2.844   1.482  0.00  0.00    -0.031 A 
ATOM      6  C6  IND d   1      -0.189   3.952   0.725  0.00  0.00     0.015 A 
ATOM      7  C7  IND d   1       0.159   3.839  -0.592  0.00  0.00    -0.016 A 
ATOM      8  C8  IND d   1       0.190   2.558  -1.124  0.00  0.00    -0.047 A 
ATOM      9  C9  IND d   1      -0.094   1.426  -0.349  0.00  0.00    -0.096 A 
ATOM     10  HN1 IND d   1       0.739   2.619  -3.051  0.00  0.00     0.298 HD
ENDROOT
TORSDOF 0
ENDMDL
