MODEL 1
REMARK minimizedAffinity 8.94806004
REMARK minimizedRMSD -1
REMARK  0 active torsions:
REMARK  status: ('A' for Active; 'I' for Inactive)
ROOT
ATOM      1  N1  IND d   1      -1.522   4.029   0.496  0.00  0.00    -0.196 N 
ATOM      2  C2  IND d   1      -2.121   3.056   1.246  0.00  0.00     0.054 A 
ATOM      3  C3  IND d   1      -1.586   1.847   0.962  0.00  0.00    -0.031 A 
ATOM      4  C4  IND d   1       0.351   1.249  -0.625  0.00  0.00     0.051 A 
ATOM      5  C5  IND d   1       1.190   1.796  -1.555  0.00  0.00    -0.031 A 
ATOM      6  C6  IND d   1       1.169   3.143  -1.852  0.00  0.00     0.015 A 
ATOM      7  C7  IND d   1       0.313   3.999  -1.220  0.00  0.00    -0.016 A 
ATOM      8  C8  IND d   1      -0.546   3.446  -0.281  0.00  0.00    -0.047 A 
ATOM      9  C9  IND d   1      -0.559   2.072  -0.005  0.00  0.00    -0.096 A 
ATOM     10  HN1 IND d   1      -1.722   4.865   0.508  0.00  0.00     0.298 HD
ENDROOT
TORSDOF 0
ENDMDL
