MODEL 1
REMARK minimizedAffinity 6.06814957
REMARK minimizedRMSD -1
REMARK  0 active torsions:
REMARK  status: ('A' for Active; 'I' for Inactive)
ROOT
ATOM      1  N1  IND d   1      -1.909   1.334   3.241  0.00  0.00    -0.196 N 
ATOM      2  C2  IND d   1      -3.111   1.221   2.601  0.00  0.00     0.054 A 
ATOM      3  C3  IND d   1      -3.187   2.108   1.583  0.00  0.00    -0.031 A 
ATOM      4  C4  IND d   1      -1.417   3.768   0.725  0.00  0.00     0.051 A 
ATOM      5  C5  IND d   1      -0.174   4.261   1.010  0.00  0.00    -0.031 A 
ATOM      6  C6  IND d   1       0.570   3.791   2.073  0.00  0.00     0.015 A 
ATOM      7  C7  IND d   1       0.102   2.800   2.887  0.00  0.00    -0.016 A 
ATOM      8  C8  IND d   1      -1.163   2.302   2.605  0.00  0.00    -0.047 A 
ATOM      9  C9  IND d   1      -1.940   2.804   1.553  0.00  0.00    -0.096 A 
ATOM     10  HN1 IND d   1      -1.660   0.877   3.925  0.00  0.00     0.298 HD
ENDROOT
TORSDOF 0
ENDMDL
