MODEL 1
REMARK minimizedAffinity 2.40878558
REMARK minimizedRMSD -1
REMARK  0 active torsions:
REMARK  status: ('A' for Active; 'I' for Inactive)
ROOT
ATOM      1  N1  IND d   1       0.516   1.899   0.198  0.00  0.00    -0.196 N 
ATOM      2  C2  IND d   1       0.311   2.827  -0.785  0.00  0.00     0.054 A 
ATOM      3  C3  IND d   1      -0.913   3.385  -0.658  0.00  0.00    -0.031 A 
ATOM      4  C4  IND d   1      -2.707   3.000   1.149  0.00  0.00     0.051 A 
ATOM      5  C5  IND d   1      -2.992   2.220   2.234  0.00  0.00    -0.031 A 
ATOM      6  C6  IND d   1      -2.103   1.277   2.708  0.00  0.00     0.015 A 
ATOM      7  C7  IND d   1      -0.886   1.085   2.118  0.00  0.00    -0.016 A 
ATOM      8  C8  IND d   1      -0.596   1.869   1.011  0.00  0.00    -0.047 A 
ATOM      9  C9  IND d   1      -1.511   2.799   0.500  0.00  0.00    -0.096 A 
ATOM     10  HN1 IND d   1       1.220   1.415   0.292  0.00  0.00     0.298 HD
ENDROOT
TORSDOF 0
ENDMDL
