MODEL 1
REMARK minimizedAffinity 3.85350609
REMARK minimizedRMSD -1
REMARK  0 active torsions:
REMARK  status: ('A' for Active; 'I' for Inactive)
ROOT
ATOM      1  N1  IND d   1      -2.374  -2.774   5.501  0.00  0.00    -0.196 N 
ATOM      2  C2  IND d   1      -1.570  -2.993   4.417  0.00  0.00     0.054 A 
ATOM      3  C3  IND d   1      -2.304  -3.427   3.368  0.00  0.00    -0.031 A 
ATOM      4  C4  IND d   1      -4.850  -3.753   3.175  0.00  0.00     0.051 A 
ATOM      5  C5  IND d   1      -6.000  -3.715   3.914  0.00  0.00    -0.031 A 
ATOM      6  C6  IND d   1      -6.000  -3.352   5.245  0.00  0.00     0.015 A 
ATOM      7  C7  IND d   1      -4.847  -3.000   5.887  0.00  0.00    -0.016 A 
ATOM      8  C8  IND d   1      -3.677  -3.044   5.143  0.00  0.00    -0.047 A 
ATOM      9  C9  IND d   1      -3.664  -3.453   3.803  0.00  0.00    -0.096 A 
ATOM     10  HN1 IND d   1      -2.110  -2.512   6.277  0.00  0.00     0.298 HD
ENDROOT
TORSDOF 0
ENDMDL
