MODEL 1
REMARK minimizedAffinity 5.24295473
REMARK minimizedRMSD -1
REMARK  0 active torsions:
REMARK  status: ('A' for Active; 'I' for Inactive)
ROOT
ATOM      1  N1  IND d   1       0.354   2.537  -0.551  0.00  0.00    -0.196 N 
ATOM      2  C2  IND d   1      -0.370   3.625  -0.954  0.00  0.00     0.054 A 
ATOM      3  C3  IND d   1      -1.534   3.694  -0.270  0.00  0.00    -0.031 A 
ATOM      4  C4  IND d   1      -2.411   2.188   1.624  0.00  0.00     0.051 A 
ATOM      5  C5  IND d   1      -2.119   1.044   2.314  0.00  0.00    -0.031 A 
ATOM      6  C6  IND d   1      -0.964   0.327   2.081  0.00  0.00     0.015 A 
ATOM      7  C7  IND d   1      -0.047   0.735   1.153  0.00  0.00    -0.016 A 
ATOM      8  C8  IND d   1      -0.343   1.892   0.446  0.00  0.00    -0.047 A 
ATOM      9  C9  IND d   1      -1.534   2.600   0.649  0.00  0.00    -0.096 A 
ATOM     10  HN1 IND d   1       1.117   2.297  -0.867  0.00  0.00     0.298 HD
ENDROOT
TORSDOF 0
ENDMDL
