MODEL 1
REMARK minimizedAffinity 6.85874891
REMARK minimizedRMSD -1
REMARK  0 active torsions:
REMARK  status: ('A' for Active; 'I' for Inactive)
ROOT
ATOM      1  N1  IND d   1      -2.508   2.214   1.574  0.00  0.00    -0.196 N 
ATOM      2  C2  IND d   1      -1.722   3.080   0.866  0.00  0.00     0.054 A 
ATOM      3  C3  IND d   1      -0.460   2.602   0.774  0.00  0.00    -0.031 A 
ATOM      4  C4  IND d   1       0.511   0.375   1.624  0.00  0.00     0.051 A 
ATOM      5  C5  IND d   1       0.188  -0.730   2.360  0.00  0.00    -0.031 A 
ATOM      6  C6  IND d   1      -1.077  -0.915   2.881  0.00  0.00     0.015 A 
ATOM      7  C7  IND d   1      -2.073  -0.004   2.673  0.00  0.00    -0.016 A 
ATOM      8  C8  IND d   1      -1.746   1.123   1.932  0.00  0.00    -0.047 A 
ATOM      9  C9  IND d   1      -0.453   1.337   1.437  0.00  0.00    -0.096 A 
ATOM     10  HN1 IND d   1      -3.338   2.331   1.764  0.00  0.00     0.298 HD
ENDROOT
TORSDOF 0
ENDMDL
