MODEL 1
REMARK minimizedAffinity 2.91015553
REMARK minimizedRMSD -1
REMARK  0 active torsions:
REMARK  status: ('A' for Active; 'I' for Inactive)
ROOT
ATOM      1  N1  IND d   1      -0.078   1.197   1.276  0.00  0.00    -0.196 N 
ATOM      2  C2  IND d   1      -1.249   1.879   1.456  0.00  0.00     0.054 A 
ATOM      3  C3  IND d   1      -2.132   1.123   2.146  0.00  0.00    -0.031 A 
ATOM      4  C4  IND d   1      -1.832  -1.222   3.165  0.00  0.00     0.051 A 
ATOM      5  C5  IND d   1      -0.948  -2.262   3.232  0.00  0.00    -0.031 A 
ATOM      6  C6  IND d   1       0.297  -2.200   2.641  0.00  0.00     0.015 A 
ATOM      7  C7  IND d   1       0.711  -1.086   1.967  0.00  0.00    -0.016 A 
ATOM      8  C8  IND d   1      -0.187  -0.031   1.891  0.00  0.00    -0.047 A 
ATOM      9  C9  IND d   1      -1.468  -0.104   2.453  0.00  0.00    -0.096 A 
ATOM     10  HN1 IND d   1       0.610   1.486   0.850  0.00  0.00     0.298 HD
ENDROOT
TORSDOF 0
ENDMDL
