MODEL 1
REMARK minimizedAffinity 6.84214973
REMARK minimizedRMSD -1
REMARK  0 active torsions:
REMARK  status: ('A' for Active; 'I' for Inactive)
ROOT
ATOM      1  N1  IND d   1       0.968   2.196  -2.453  0.00  0.00    -0.196 N 
ATOM      2  C2  IND d   1       0.368   2.823  -1.397  0.00  0.00     0.054 A 
ATOM      3  C3  IND d   1      -0.804   2.220  -1.095  0.00  0.00    -0.031 A 
ATOM      4  C4  IND d   1      -1.882   0.128  -2.138  0.00  0.00     0.051 A 
ATOM      5  C5  IND d   1      -1.726  -0.771  -3.156  0.00  0.00    -0.031 A 
ATOM      6  C6  IND d   1      -0.641  -0.727  -4.007  0.00  0.00     0.015 A 
ATOM      7  C7  IND d   1       0.339   0.215  -3.864  0.00  0.00    -0.016 A 
ATOM      8  C8  IND d   1       0.180   1.133  -2.836  0.00  0.00    -0.047 A 
ATOM      9  C9  IND d   1      -0.940   1.119  -1.996  0.00  0.00    -0.096 A 
ATOM     10  HN1 IND d   1       1.712   2.427  -2.817  0.00  0.00     0.298 HD
ENDROOT
TORSDOF 0
ENDMDL
