MODEL 1
REMARK minimizedAffinity 13.2613573
REMARK minimizedRMSD -1
REMARK  0 active torsions:
REMARK  status: ('A' for Active; 'I' for Inactive)
ROOT
ATOM      1  N1  IND d   1       0.698   1.719  -1.705  0.00  0.00    -0.196 N 
ATOM      2  C2  IND d   1       0.167   2.929  -2.053  0.00  0.00     0.054 A 
ATOM      3  C3  IND d   1      -0.998   2.758  -2.716  0.00  0.00    -0.031 A 
ATOM      4  C4  IND d   1      -2.271   0.586  -3.253  0.00  0.00     0.051 A 
ATOM      5  C5  IND d   1      -2.164  -0.774  -3.170  0.00  0.00    -0.031 A 
ATOM      6  C6  IND d   1      -1.077  -1.385  -2.579  0.00  0.00     0.015 A 
ATOM      7  C7  IND d   1      -0.057  -0.655  -2.038  0.00  0.00    -0.016 A 
ATOM      8  C8  IND d   1      -0.159   0.726  -2.127  0.00  0.00    -0.047 A 
ATOM      9  C9  IND d   1      -1.239   1.351  -2.763  0.00  0.00    -0.096 A 
ATOM     10  HN1 IND d   1       1.443   1.598  -1.292  0.00  0.00     0.298 HD
ENDROOT
TORSDOF 0
ENDMDL
