MODEL 1
REMARK minimizedAffinity 9.68947029
REMARK minimizedRMSD -1
REMARK  0 active torsions:
REMARK  status: ('A' for Active; 'I' for Inactive)
ROOT
ATOM      1  N1  IND d   1      -1.852   1.381   0.509  0.00  0.00    -0.196 N 
ATOM      2  C2  IND d   1      -1.090   2.347   1.106  0.00  0.00     0.054 A 
ATOM      3  C3  IND d   1      -0.040   2.671   0.319  0.00  0.00    -0.031 A 
ATOM      4  C4  IND d   1       0.565   1.817  -2.033  0.00  0.00     0.051 A 
ATOM      5  C5  IND d   1       0.189   0.904  -2.978  0.00  0.00    -0.031 A 
ATOM      6  C6  IND d   1      -0.911   0.088  -2.806  0.00  0.00     0.015 A 
ATOM      7  C7  IND d   1      -1.685   0.164  -1.683  0.00  0.00    -0.016 A 
ATOM      8  C8  IND d   1      -1.302   1.086  -0.719  0.00  0.00    -0.047 A 
ATOM      9  C9  IND d   1      -0.162   1.886  -0.869  0.00  0.00    -0.096 A 
ATOM     10  HN1 IND d   1      -2.557   1.020   0.844  0.00  0.00     0.298 HD
ENDROOT
TORSDOF 0
ENDMDL
