MODEL 1
REMARK minimizedAffinity 8.32073307
REMARK minimizedRMSD -1
REMARK  0 active torsions:
REMARK  status: ('A' for Active; 'I' for Inactive)
ROOT
ATOM      1  N1  IND d   1       0.280   3.641  -1.725  0.00  0.00    -0.196 N 
ATOM      2  C2  IND d   1       0.743   2.480  -2.278  0.00  0.00     0.054 A 
ATOM      3  C3  IND d   1       0.467   1.431  -1.470  0.00  0.00    -0.031 A 
ATOM      4  C4  IND d   1      -0.824   1.378   0.756  0.00  0.00     0.051 A 
ATOM      5  C5  IND d   1      -1.409   2.196   1.682  0.00  0.00    -0.031 A 
ATOM      6  C6  IND d   1      -1.464   3.564   1.515  0.00  0.00     0.015 A 
ATOM      7  C7  IND d   1      -0.944   4.168   0.405  0.00  0.00    -0.016 A 
ATOM      8  C8  IND d   1      -0.343   3.341  -0.534  0.00  0.00    -0.047 A 
ATOM      9  C9  IND d   1      -0.247   1.956  -0.349  0.00  0.00    -0.096 A 
ATOM     10  HN1 IND d   1       0.365   4.427  -2.064  0.00  0.00     0.298 HD
ENDROOT
TORSDOF 0
ENDMDL
