MODEL 1
REMARK minimizedAffinity 6.3476963
REMARK minimizedRMSD -1
REMARK  0 active torsions:
REMARK  status: ('A' for Active; 'I' for Inactive)
ROOT
ATOM      1  N1  IND d   1       0.724   1.806  -3.183  0.00  0.00    -0.196 N 
ATOM      2  C2  IND d   1       0.586   0.556  -2.648  0.00  0.00     0.054 A 
ATOM      3  C3  IND d   1       0.205   0.639  -1.353  0.00  0.00    -0.031 A 
ATOM      4  C4  IND d   1      -0.348   2.718   0.060  0.00  0.00     0.051 A 
ATOM      5  C5  IND d   1      -0.334   4.084   0.018  0.00  0.00    -0.031 A 
ATOM      6  C6  IND d   1       0.040   4.775  -1.117  0.00  0.00     0.015 A 
ATOM      7  C7  IND d   1       0.403   4.122  -2.261  0.00  0.00    -0.016 A 
ATOM      8  C8  IND d   1       0.396   2.735  -2.220  0.00  0.00    -0.047 A 
ATOM      9  C9  IND d   1       0.059   2.029  -1.058  0.00  0.00    -0.096 A 
ATOM     10  HN1 IND d   1       0.975   1.983  -3.986  0.00  0.00     0.298 HD
ENDROOT
TORSDOF 0
ENDMDL
