MODEL 1
REMARK minimizedAffinity 3.59520674
REMARK minimizedRMSD -1
REMARK  0 active torsions:
REMARK  status: ('A' for Active; 'I' for Inactive)
ROOT
ATOM      1  N1  IND d   1       0.411   1.964   3.076  0.00  0.00    -0.196 N 
ATOM      2  C2  IND d   1      -0.499   2.977   3.193  0.00  0.00     0.054 A 
ATOM      3  C3  IND d   1      -1.109   3.201   2.007  0.00  0.00    -0.031 A 
ATOM      4  C4  IND d   1      -0.842   1.956  -0.230  0.00  0.00     0.051 A 
ATOM      5  C5  IND d   1      -0.102   0.981  -0.839  0.00  0.00    -0.031 A 
ATOM      6  C6  IND d   1       0.864   0.268  -0.159  0.00  0.00     0.015 A 
ATOM      7  C7  IND d   1       1.120   0.496   1.163  0.00  0.00    -0.016 A 
ATOM      8  C8  IND d   1       0.375   1.490   1.783  0.00  0.00    -0.047 A 
ATOM      9  C9  IND d   1      -0.577   2.247   1.087  0.00  0.00    -0.096 A 
ATOM     10  HN1 IND d   1       0.920   1.672   3.704  0.00  0.00     0.298 HD
ENDROOT
TORSDOF 0
ENDMDL
