MODEL 1
REMARK minimizedAffinity 9.13337231
REMARK minimizedRMSD -1
REMARK  0 active torsions:
REMARK  status: ('A' for Active; 'I' for Inactive)
ROOT
ATOM      1  N1  IND d   1       2.160   0.345   2.823  0.00  0.00    -0.196 N 
ATOM      2  C2  IND d   1       2.149  -0.338   1.639  0.00  0.00     0.054 A 
ATOM      3  C3  IND d   1       0.972  -0.152   1.000  0.00  0.00    -0.031 A 
ATOM      4  C4  IND d   1      -1.037   1.314   1.665  0.00  0.00     0.051 A 
ATOM      5  C5  IND d   1      -1.508   2.099   2.680  0.00  0.00    -0.031 A 
ATOM      6  C6  IND d   1      -0.765   2.347   3.816  0.00  0.00     0.015 A 
ATOM      7  C7  IND d   1       0.488   1.826   3.975  0.00  0.00    -0.016 A 
ATOM      8  C8  IND d   1       0.967   1.022   2.950  0.00  0.00    -0.047 A 
ATOM      9  C9  IND d   1       0.200   0.733   1.814  0.00  0.00    -0.096 A 
ATOM     10  HN1 IND d   1       2.804   0.351   3.393  0.00  0.00     0.298 HD
ENDROOT
TORSDOF 0
ENDMDL
