MODEL 1
REMARK minimizedAffinity -3.60032582
REMARK minimizedRMSD -1
REMARK  1 active torsions:
REMARK  status: ('A' for Active; 'I' for Inactive)
REMARK    1  A    between atoms: C1_2  and  C2_3 
ROOT
ATOM      1  C2  UNL d   1      -0.967   0.555   1.467  0.00  0.00    -0.081 A 
ATOM      2  C3  UNL d   1      -1.719   0.068   0.391  0.00  0.00     0.006 A 
ATOM      3  C4  UNL d   1      -1.104  -0.220  -0.829  0.00  0.00     0.002 A 
ATOM      4  C5  UNL d   1       0.273  -0.035  -0.992  0.00  0.00    -0.080 A 
ATOM      5  C6  UNL d   1       0.950  -0.370  -2.287  0.00  0.00     0.076 C 
ATOM      6  C7  UNL d   1       1.022   0.468   0.078  0.00  0.00     0.002 A 
ATOM      7  C8  UNL d   1       0.407   0.757   1.298  0.00  0.00     0.006 A 
ENDROOT
BRANCH   1   8
ATOM      8  C1  UNL d   1      -1.616   0.806   2.805  0.00  0.00     0.054 C 
ATOM      9  C   UNL d   1      -2.514  -0.354   3.210  0.00  0.00     0.018 C 
ENDBRANCH   1   8
TORSDOF 1
ENDMDL
