MODEL 1
REMARK minimizedAffinity -5.71714592
REMARK minimizedRMSD -1
REMARK  1 active torsions:
REMARK  status: ('A' for Active; 'I' for Inactive)
REMARK    1  A    between atoms: C1_2  and  C2_3 
ROOT
ATOM      1  C2  UNL d   1       0.178  -0.537  -0.123  0.00  0.00    -0.081 A 
ATOM      2  C3  UNL d   1      -1.058   0.026   0.219  0.00  0.00     0.006 A 
ATOM      3  C4  UNL d   1      -1.253   0.590   1.482  0.00  0.00     0.002 A 
ATOM      4  C5  UNL d   1      -0.215   0.608   2.420  0.00  0.00    -0.080 A 
ATOM      5  C6  UNL d   1      -0.402   1.238   3.768  0.00  0.00     0.076 C 
ATOM      6  C7  UNL d   1       1.014   0.030   2.084  0.00  0.00     0.002 A 
ATOM      7  C8  UNL d   1       1.210  -0.535   0.822  0.00  0.00     0.006 A 
ENDROOT
BRANCH   1   8
ATOM      8  C1  UNL d   1       0.412  -1.089  -1.507  0.00  0.00     0.054 C 
ATOM      9  C   UNL d   1       0.815   0.010  -2.479  0.00  0.00     0.018 C 
ENDBRANCH   1   8
TORSDOF 1
ENDMDL
