MODEL 1
REMARK minimizedAffinity -3.22041774
REMARK minimizedRMSD -1
REMARK  1 active torsions:
REMARK  status: ('A' for Active; 'I' for Inactive)
REMARK    1  A    between atoms: C1_2  and  C2_3 
ROOT
ATOM      1  C2  UNL d   1       0.375  -0.621   1.240  0.00  0.00    -0.081 A 
ATOM      2  C3  UNL d   1      -0.579   0.159   1.905  0.00  0.00     0.006 A 
ATOM      3  C4  UNL d   1      -1.851   0.343   1.356  0.00  0.00     0.002 A 
ATOM      4  C5  UNL d   1      -2.192  -0.255   0.139  0.00  0.00    -0.080 A 
ATOM      5  C6  UNL d   1      -3.564  -0.091  -0.445  0.00  0.00     0.076 C 
ATOM      6  C7  UNL d   1      -1.234  -1.020  -0.534  0.00  0.00     0.002 A 
ATOM      7  C8  UNL d   1       0.038  -1.204   0.013  0.00  0.00     0.006 A 
ENDROOT
BRANCH   1   8
ATOM      8  C1  UNL d   1       1.725  -0.874   1.860  0.00  0.00     0.054 C 
ATOM      9  C   UNL d   1       2.564  -1.805   0.996  0.00  0.00     0.018 C 
ENDBRANCH   1   8
TORSDOF 1
ENDMDL
