MODEL 1
REMARK minimizedAffinity -5.62856436
REMARK minimizedRMSD -1
REMARK  1 active torsions:
REMARK  status: ('A' for Active; 'I' for Inactive)
REMARK    1  A    between atoms: C1_2  and  C2_3 
ROOT
ATOM      1  C2  UNL d   1      -0.150   1.086   1.282  0.00  0.00    -0.073 A 
ATOM      2  C3  UNL d   1       0.323   1.910   2.310  0.00  0.00    -0.002 A 
ATOM      3  C4  UNL d   1       0.311   3.298   2.162  0.00  0.00     0.004 A 
ATOM      4  C5  UNL d   1      -0.179   3.875   0.991  0.00  0.00    -0.004 A 
ATOM      5  C6  UNL d   1      -0.667   3.069  -0.042  0.00  0.00    -0.075 A 
ATOM      6  C7  UNL d   1      -1.195   3.675  -1.310  0.00  0.00     0.076 C 
ATOM      7  C8  UNL d   1      -0.649   1.676   0.112  0.00  0.00     0.001 A 
ENDROOT
BRANCH   1   8
ATOM      8  C1  UNL d   1      -0.145  -0.412   1.439  0.00  0.00     0.053 C 
ATOM      9  C   UNL d   1       0.269  -1.118   0.158  0.00  0.00     0.018 C 
ENDBRANCH   1   8
TORSDOF 1
ENDMDL
