MODEL 1
REMARK minimizedAffinity -5.3984313
REMARK minimizedRMSD -1
REMARK  1 active torsions:
REMARK  status: ('A' for Active; 'I' for Inactive)
REMARK    1  A    between atoms: C1_2  and  C2_3 
ROOT
ATOM      1  C2  UNL d   1      -0.130   0.148   0.396  0.00  0.00    -0.073 A 
ATOM      2  C3  UNL d   1       0.123   0.539   1.716  0.00  0.00    -0.002 A 
ATOM      3  C4  UNL d   1       0.040   1.883   2.081  0.00  0.00     0.004 A 
ATOM      4  C5  UNL d   1      -0.302   2.848   1.134  0.00  0.00    -0.004 A 
ATOM      5  C6  UNL d   1      -0.570   2.476  -0.187  0.00  0.00    -0.075 A 
ATOM      6  C7  UNL d   1      -0.938   3.502  -1.219  0.00  0.00     0.076 C 
ATOM      7  C8  UNL d   1      -0.482   1.124  -0.547  0.00  0.00     0.001 A 
ENDROOT
BRANCH   1   8
ATOM      8  C1  UNL d   1      -0.048  -1.303  -0.002  0.00  0.00     0.053 C 
ATOM      9  C   UNL d   1       1.038  -1.550  -1.037  0.00  0.00     0.018 C 
ENDBRANCH   1   8
TORSDOF 1
ENDMDL
