MODEL 1
REMARK minimizedAffinity -0.563427746
REMARK minimizedRMSD -1
REMARK  1 active torsions:
REMARK  status: ('A' for Active; 'I' for Inactive)
REMARK    1  A    between atoms: C1_2  and  C2_3 
ROOT
ATOM      1  C2  UNL d   1      -0.114   0.004  -0.304  0.00  0.00    -0.073 A 
ATOM      2  C3  UNL d   1      -1.143   0.871  -0.690  0.00  0.00    -0.002 A 
ATOM      3  C4  UNL d   1      -1.607   1.850   0.190  0.00  0.00     0.004 A 
ATOM      4  C5  UNL d   1      -1.044   1.976   1.460  0.00  0.00    -0.004 A 
ATOM      5  C6  UNL d   1      -0.008   1.127   1.860  0.00  0.00    -0.075 A 
ATOM      6  C7  UNL d   1       0.607   1.249   3.223  0.00  0.00     0.076 C 
ATOM      7  C8  UNL d   1       0.452   0.145   0.972  0.00  0.00     0.001 A 
ENDROOT
BRANCH   1   8
ATOM      8  C1  UNL d   1       0.395  -1.050  -1.253  0.00  0.00     0.053 C 
ATOM      9  C   UNL d   1      -0.713  -1.980  -1.719  0.00  0.00     0.018 C 
ENDBRANCH   1   8
TORSDOF 1
ENDMDL
