MODEL 1
REMARK minimizedAffinity 1.4130733
REMARK minimizedRMSD -1
REMARK  0 active torsions:
REMARK  status: ('A' for Active; 'I' for Inactive)
ROOT
ATOM      1  C   UNL d   1       0.255   0.377   0.899  0.00  0.00     0.020 A 
ATOM      2  C1  UNL d   1       1.584   0.572   1.271  0.00  0.00     0.020 A 
ATOM      3  C2  UNL d   1       2.122  -0.145   2.341  0.00  0.00     0.034 A 
ATOM      4  C3  UNL d   1       1.331  -1.062   3.043  0.00  0.00     0.017 A 
ATOM      5  C4  UNL d   1      -0.003  -1.257   2.669  0.00  0.00     0.017 A 
ATOM      6  C5  UNL d   1      -0.537  -0.536   1.596  0.00  0.00     0.034 A 
ATOM      7 Cl   UNL d   1      -1.042  -2.370   3.487  0.00  0.00    -0.070 Cl
ATOM      8 Cl1  UNL d   1       2.062  -1.914   4.356  0.00  0.00    -0.070 Cl
ENDROOT
TORSDOF 0
ENDMDL
