MODEL 1
REMARK minimizedAffinity 4.15783501
REMARK minimizedRMSD -1
REMARK  0 active torsions:
REMARK  status: ('A' for Active; 'I' for Inactive)
ROOT
ATOM      1  C   UNL d   1       5.842  -0.411  -5.307  0.00  0.00     0.020 A 
ATOM      2  C1  UNL d   1       5.476  -1.564  -6.000  0.00  0.00     0.020 A 
ATOM      3  C2  UNL d   1       5.264  -2.757  -5.306  0.00  0.00     0.034 A 
ATOM      4  C3  UNL d   1       5.419  -2.800  -3.915  0.00  0.00     0.017 A 
ATOM      5  C4  UNL d   1       5.787  -1.642  -3.221  0.00  0.00     0.017 A 
ATOM      6  C5  UNL d   1       5.998  -0.450  -3.921  0.00  0.00     0.034 A 
ATOM      7 Cl   UNL d   1       5.997  -1.617  -1.506  0.00  0.00    -0.070 Cl
ATOM      8 Cl1  UNL d   1       5.140  -4.310  -3.122  0.00  0.00    -0.070 Cl
ENDROOT
TORSDOF 0
ENDMDL
