MODEL 1
REMARK minimizedAffinity -2.47323418
REMARK minimizedRMSD -1
REMARK  0 active torsions:
REMARK  status: ('A' for Active; 'I' for Inactive)
ROOT
ATOM      1  C   UNL d   1      -1.138  -1.237  -5.031  0.00  0.00     0.020 A 
ATOM      2  C1  UNL d   1      -0.301  -0.234  -4.543  0.00  0.00     0.020 A 
ATOM      3  C2  UNL d   1       0.579  -0.509  -3.493  0.00  0.00     0.034 A 
ATOM      4  C3  UNL d   1       0.622  -1.789  -2.928  0.00  0.00     0.017 A 
ATOM      5  C4  UNL d   1      -0.218  -2.794  -3.419  0.00  0.00     0.017 A 
ATOM      6  C5  UNL d   1      -1.097  -2.514  -4.470  0.00  0.00     0.034 A 
ATOM      7 Cl   UNL d   1      -0.221  -4.397  -2.773  0.00  0.00    -0.070 Cl
ATOM      8 Cl1  UNL d   1       1.734  -2.058  -1.633  0.00  0.00    -0.070 Cl
ENDROOT
TORSDOF 0
ENDMDL
