MODEL 1
REMARK minimizedAffinity 8.67743587
REMARK minimizedRMSD -1
REMARK  0 active torsions:
REMARK  status: ('A' for Active; 'I' for Inactive)
ROOT
ATOM      1  C   UNL d   1      -1.334  -0.663  -5.167  0.00  0.00     0.020 A 
ATOM      2  C1  UNL d   1      -0.122  -0.041  -5.463  0.00  0.00     0.020 A 
ATOM      3  C2  UNL d   1       1.042  -0.424  -4.793  0.00  0.00     0.034 A 
ATOM      4  C3  UNL d   1       0.996  -1.431  -3.822  0.00  0.00     0.017 A 
ATOM      5  C4  UNL d   1      -0.221  -2.056  -3.526  0.00  0.00     0.017 A 
ATOM      6  C5  UNL d   1      -1.383  -1.669  -4.200  0.00  0.00     0.034 A 
ATOM      7 Cl   UNL d   1      -0.357  -3.307  -2.341  0.00  0.00    -0.070 Cl
ATOM      8 Cl1  UNL d   1       2.473  -1.854  -3.033  0.00  0.00    -0.070 Cl
ENDROOT
TORSDOF 0
ENDMDL
