MODEL 1
REMARK minimizedAffinity 4.54715633
REMARK minimizedRMSD -1
REMARK  0 active torsions:
REMARK  status: ('A' for Active; 'I' for Inactive)
ROOT
ATOM      1  C   UNL d   1       0.862  -2.363   3.519  0.00  0.00     0.020 A 
ATOM      2  C1  UNL d   1       0.734  -1.803   2.249  0.00  0.00     0.020 A 
ATOM      3  C2  UNL d   1       1.594  -0.778   1.848  0.00  0.00     0.034 A 
ATOM      4  C3  UNL d   1       2.585  -0.310   2.718  0.00  0.00     0.017 A 
ATOM      5  C4  UNL d   1       2.713  -0.874   3.993  0.00  0.00     0.017 A 
ATOM      6  C5  UNL d   1       1.850  -1.900   4.389  0.00  0.00     0.034 A 
ATOM      7 Cl   UNL d   1       3.913  -0.349   5.121  0.00  0.00    -0.070 Cl
ATOM      8 Cl1  UNL d   1       3.614   0.959   2.156  0.00  0.00    -0.070 Cl
ENDROOT
TORSDOF 0
ENDMDL
