MODEL 1
REMARK minimizedAffinity 10.1346893
REMARK minimizedRMSD -1
REMARK  0 active torsions:
REMARK  status: ('A' for Active; 'I' for Inactive)
ROOT
ATOM      1  C   UNL d   1      -3.274  -0.733   1.486  0.00  0.00     0.020 A 
ATOM      2  C1  UNL d   1      -2.611  -1.891   1.890  0.00  0.00     0.020 A 
ATOM      3  C2  UNL d   1      -1.300  -1.814   2.365  0.00  0.00     0.034 A 
ATOM      4  C3  UNL d   1      -0.648  -0.578   2.438  0.00  0.00     0.017 A 
ATOM      5  C4  UNL d   1      -1.315   0.584   2.032  0.00  0.00     0.017 A 
ATOM      6  C5  UNL d   1      -2.628   0.502   1.557  0.00  0.00     0.034 A 
ATOM      7 Cl   UNL d   1      -0.577   2.145   2.092  0.00  0.00    -0.070 Cl
ATOM      8 Cl1  UNL d   1       0.973  -0.558   3.036  0.00  0.00    -0.070 Cl
ENDROOT
TORSDOF 0
ENDMDL
