MODEL 1
REMARK minimizedAffinity 9.02945518
REMARK minimizedRMSD -1
REMARK  0 active torsions:
REMARK  status: ('A' for Active; 'I' for Inactive)
ROOT
ATOM      1  C   UNL d   1       5.999  -2.438  -4.681  0.00  0.00     0.020 A 
ATOM      2  C1  UNL d   1       4.929  -2.647  -5.550  0.00  0.00     0.020 A 
ATOM      3  C2  UNL d   1       3.622  -2.419  -5.115  0.00  0.00     0.034 A 
ATOM      4  C3  UNL d   1       3.381  -1.980  -3.808  0.00  0.00     0.017 A 
ATOM      5  C4  UNL d   1       4.456  -1.771  -2.937  0.00  0.00     0.017 A 
ATOM      6  C5  UNL d   1       5.763  -2.001  -3.378  0.00  0.00     0.034 A 
ATOM      7 Cl   UNL d   1       4.239  -1.230  -1.310  0.00  0.00    -0.070 Cl
ATOM      8 Cl1  UNL d   1       1.740  -1.718  -3.338  0.00  0.00    -0.070 Cl
ENDROOT
TORSDOF 0
ENDMDL
