MODEL 1
REMARK minimizedAffinity 7.54755592
REMARK minimizedRMSD -1
REMARK  0 active torsions:
REMARK  status: ('A' for Active; 'I' for Inactive)
ROOT
ATOM      1  C   UNL d   1       0.035   2.670   1.679  0.00  0.00     0.020 A 
ATOM      2  C1  UNL d   1       1.135   3.185   0.995  0.00  0.00     0.020 A 
ATOM      3  C2  UNL d   1       2.303   2.428   0.881  0.00  0.00     0.034 A 
ATOM      4  C3  UNL d   1       2.374   1.153   1.452  0.00  0.00     0.017 A 
ATOM      5  C4  UNL d   1       1.269   0.636   2.139  0.00  0.00     0.017 A 
ATOM      6  C5  UNL d   1       0.102   1.398   2.250  0.00  0.00     0.034 A 
ATOM      7 Cl   UNL d   1       1.281  -0.930   2.869  0.00  0.00    -0.070 Cl
ATOM      8 Cl1  UNL d   1       3.850   0.272   1.272  0.00  0.00    -0.070 Cl
ENDROOT
TORSDOF 0
ENDMDL
