MODEL 1
REMARK minimizedAffinity -4.59690237
REMARK minimizedRMSD -1
REMARK  0 active torsions:
REMARK  status: ('A' for Active; 'I' for Inactive)
ROOT
ATOM      1  C   UNL d   1       0.659  -6.000  -3.194  0.00  0.00     0.020 A 
ATOM      2  C1  UNL d   1       0.815  -5.553  -4.505  0.00  0.00     0.020 A 
ATOM      3  C2  UNL d   1       0.474  -4.241  -4.841  0.00  0.00     0.034 A 
ATOM      4  C3  UNL d   1      -0.026  -3.372  -3.864  0.00  0.00     0.017 A 
ATOM      5  C4  UNL d   1      -0.182  -3.822  -2.548  0.00  0.00     0.017 A 
ATOM      6  C5  UNL d   1       0.162  -5.136  -2.217  0.00  0.00     0.034 A 
ATOM      7 Cl   UNL d   1      -0.792  -2.808  -1.288  0.00  0.00    -0.070 Cl
ATOM      8 Cl1  UNL d   1      -0.427  -1.763  -4.349  0.00  0.00    -0.070 Cl
ENDROOT
TORSDOF 0
ENDMDL
