MODEL 1
REMARK minimizedAffinity 3.51573682
REMARK minimizedRMSD -1
REMARK  2 active torsions:
REMARK  status: ('A' for Active; 'I' for Inactive)
REMARK    1  A    between atoms: C1_2  and  C2_3 
REMARK    2  A    between atoms: C2_3  and  C3_4 
ROOT
ATOM      1  C3  UNL d   1       0.997  -0.039   1.689  0.00  0.00    -0.075 A 
ATOM      2  C4  UNL d   1       1.396  -0.732   0.537  0.00  0.00     0.002 A 
ATOM      3  C5  UNL d   1       1.992  -1.990   0.638  0.00  0.00     0.002 A 
ATOM      4  C6  UNL d   1       2.205  -2.565   1.889  0.00  0.00    -0.004 A 
ATOM      5  C7  UNL d   1       1.827  -1.878   3.041  0.00  0.00     0.002 A 
ATOM      6  C8  UNL d   1       1.227  -0.622   2.943  0.00  0.00     0.002 A 
ENDROOT
BRANCH   1   7
ATOM      7  C2  UNL d   1       0.325   1.309   1.586  0.00  0.00     0.056 C 
BRANCH   7   8
ATOM      8  C1  UNL d   1      -0.806   1.365   0.555  0.00  0.00     0.007 C 
ATOM      9  C   UNL d   1      -0.486   2.252  -0.641  0.00  0.00     0.009 C 
ENDBRANCH   7   8
ENDBRANCH   1   7
TORSDOF 2
ENDMDL
