MODEL 1
REMARK minimizedAffinity -0.904119253
REMARK minimizedRMSD -1
REMARK  2 active torsions:
REMARK  status: ('A' for Active; 'I' for Inactive)
REMARK    1  A    between atoms: C1_2  and  C2_3 
REMARK    2  A    between atoms: C2_3  and  C3_4 
ROOT
ATOM      1  C3  UNL d   1      -3.137  -1.997  -1.345  0.00  0.00    -0.075 A 
ATOM      2  C4  UNL d   1      -2.659  -2.521  -2.555  0.00  0.00     0.002 A 
ATOM      3  C5  UNL d   1      -2.190  -3.833  -2.623  0.00  0.00     0.002 A 
ATOM      4  C6  UNL d   1      -2.182  -4.633  -1.483  0.00  0.00    -0.004 A 
ATOM      5  C7  UNL d   1      -2.639  -4.118  -0.272  0.00  0.00     0.002 A 
ATOM      6  C8  UNL d   1      -3.114  -2.807  -0.202  0.00  0.00     0.002 A 
ENDROOT
BRANCH   1   7
ATOM      7  C2  UNL d   1      -3.674  -0.588  -1.272  0.00  0.00     0.056 C 
BRANCH   7   8
ATOM      8  C1  UNL d   1      -2.700   0.478  -1.784  0.00  0.00     0.007 C 
ATOM      9  C   UNL d   1      -2.983   0.911  -3.217  0.00  0.00     0.009 C 
ENDBRANCH   7   8
ENDBRANCH   1   7
TORSDOF 2
ENDMDL
