MODEL 1
REMARK minimizedAffinity 16.837944
REMARK minimizedRMSD -1
REMARK  2 active torsions:
REMARK  status: ('A' for Active; 'I' for Inactive)
REMARK    1  A    between atoms: C1_2  and  C2_3 
REMARK    2  A    between atoms: C2_3  and  C3_4 
ROOT
ATOM      1  C3  UNL d   1      -1.542   0.398   0.392  0.00  0.00    -0.075 A 
ATOM      2  C4  UNL d   1      -1.951  -0.911   0.689  0.00  0.00     0.002 A 
ATOM      3  C5  UNL d   1      -2.864  -1.571  -0.134  0.00  0.00     0.002 A 
ATOM      4  C6  UNL d   1      -3.387  -0.929  -1.255  0.00  0.00    -0.004 A 
ATOM      5  C7  UNL d   1      -3.000   0.377  -1.550  0.00  0.00     0.002 A 
ATOM      6  C8  UNL d   1      -2.083   1.038  -0.730  0.00  0.00     0.002 A 
ENDROOT
BRANCH   1   7
ATOM      7  C2  UNL d   1      -0.532   1.107   1.262  0.00  0.00     0.056 C 
BRANCH   7   8
ATOM      8  C1  UNL d   1       0.622   0.215   1.733  0.00  0.00     0.007 C 
ATOM      9  C   UNL d   1       0.747   0.144   3.249  0.00  0.00     0.009 C 
ENDBRANCH   7   8
ENDBRANCH   1   7
TORSDOF 2
ENDMDL
