MODEL 1
REMARK minimizedAffinity 10.1432571
REMARK minimizedRMSD -1
REMARK  2 active torsions:
REMARK  status: ('A' for Active; 'I' for Inactive)
REMARK    1  A    between atoms: C1_2  and  C2_3 
REMARK    2  A    between atoms: C2_3  and  C3_4 
ROOT
ATOM      1  C3  UNL d   1       0.903  -0.728   3.030  0.00  0.00    -0.075 A 
ATOM      2  C4  UNL d   1       1.584  -1.834   2.501  0.00  0.00     0.002 A 
ATOM      3  C5  UNL d   1       1.993  -2.878   3.332  0.00  0.00     0.002 A 
ATOM      4  C6  UNL d   1       1.735  -2.824   4.700  0.00  0.00    -0.004 A 
ATOM      5  C7  UNL d   1       1.074  -1.722   5.239  0.00  0.00     0.002 A 
ATOM      6  C8  UNL d   1       0.661  -0.679   4.409  0.00  0.00     0.002 A 
ENDROOT
BRANCH   1   7
ATOM      7  C2  UNL d   1       0.433   0.391   2.131  0.00  0.00     0.056 C 
BRANCH   7   8
ATOM      8  C1  UNL d   1      -0.164  -0.085   0.803  0.00  0.00     0.007 C 
ATOM      9  C   UNL d   1      -1.683  -0.192   0.830  0.00  0.00     0.009 C 
ENDBRANCH   7   8
ENDBRANCH   1   7
TORSDOF 2
ENDMDL
