MODEL 1
REMARK minimizedAffinity 3.99576211
REMARK minimizedRMSD -1
REMARK  2 active torsions:
REMARK  status: ('A' for Active; 'I' for Inactive)
REMARK    1  A    between atoms: C1_2  and  C2_3 
REMARK    2  A    between atoms: C2_3  and  C3_4 
ROOT
ATOM      1  C3  UNL d   1       0.893  -2.051   1.490  0.00  0.00    -0.075 A 
ATOM      2  C4  UNL d   1      -0.325  -2.629   1.102  0.00  0.00     0.002 A 
ATOM      3  C5  UNL d   1      -1.480  -1.852   1.008  0.00  0.00     0.002 A 
ATOM      4  C6  UNL d   1      -1.435  -0.493   1.310  0.00  0.00    -0.004 A 
ATOM      5  C7  UNL d   1      -0.234   0.088   1.713  0.00  0.00     0.002 A 
ATOM      6  C8  UNL d   1       0.924  -0.686   1.804  0.00  0.00     0.002 A 
ENDROOT
BRANCH   1   7
ATOM      7  C2  UNL d   1       2.152  -2.881   1.565  0.00  0.00     0.056 C 
BRANCH   7   8
ATOM      8  C1  UNL d   1       2.314  -3.652   2.880  0.00  0.00     0.007 C 
ATOM      9  C   UNL d   1       2.087  -5.150   2.728  0.00  0.00     0.009 C 
ENDBRANCH   7   8
ENDBRANCH   1   7
TORSDOF 2
ENDMDL
