MODEL 1
REMARK minimizedAffinity 6.25472784
REMARK minimizedRMSD -1
REMARK  2 active torsions:
REMARK  status: ('A' for Active; 'I' for Inactive)
REMARK    1  A    between atoms: C1_2  and  C2_3 
REMARK    2  A    between atoms: C2_3  and  C3_4 
ROOT
ATOM      1  C3  UNL d   1       1.661  -1.347   3.505  0.00  0.00    -0.075 A 
ATOM      2  C4  UNL d   1       1.234  -1.060   4.810  0.00  0.00     0.002 A 
ATOM      3  C5  UNL d   1       1.499  -1.947   5.853  0.00  0.00     0.002 A 
ATOM      4  C6  UNL d   1       2.183  -3.135   5.605  0.00  0.00    -0.004 A 
ATOM      5  C7  UNL d   1       2.597  -3.438   4.310  0.00  0.00     0.002 A 
ATOM      6  C8  UNL d   1       2.338  -2.550   3.265  0.00  0.00     0.002 A 
ENDROOT
BRANCH   1   7
ATOM      7  C2  UNL d   1       1.403  -0.377   2.377  0.00  0.00     0.056 C 
BRANCH   7   8
ATOM      8  C1  UNL d   1       0.471  -0.919   1.289  0.00  0.00     0.007 C 
ATOM      9  C   UNL d   1      -0.523   0.116   0.779  0.00  0.00     0.009 C 
ENDBRANCH   7   8
ENDBRANCH   1   7
TORSDOF 2
ENDMDL
