MODEL 1
REMARK minimizedAffinity 4.05438042
REMARK minimizedRMSD -1
REMARK  2 active torsions:
REMARK  status: ('A' for Active; 'I' for Inactive)
REMARK    1  A    between atoms: C1_2  and  C2_3 
REMARK    2  A    between atoms: C2_3  and  C3_4 
ROOT
ATOM      1  C3  UNL d   1      -5.961   4.779  -1.745  0.00  0.00    -0.075 A 
ATOM      2  C4  UNL d   1      -5.983   3.435  -2.142  0.00  0.00     0.002 A 
ATOM      3  C5  UNL d   1      -5.986   2.414  -1.191  0.00  0.00     0.002 A 
ATOM      4  C6  UNL d   1      -5.957   2.725   0.167  0.00  0.00    -0.004 A 
ATOM      5  C7  UNL d   1      -5.918   4.057   0.573  0.00  0.00     0.002 A 
ATOM      6  C8  UNL d   1      -5.920   5.079  -0.377  0.00  0.00     0.002 A 
ENDROOT
BRANCH   1   7
ATOM      7  C2  UNL d   1      -5.987   5.888  -2.769  0.00  0.00     0.056 C 
BRANCH   7   8
ATOM      8  C1  UNL d   1      -5.991   5.397  -4.221  0.00  0.00     0.007 C 
ATOM      9  C   UNL d   1      -4.615   4.972  -4.715  0.00  0.00     0.009 C 
ENDBRANCH   7   8
ENDBRANCH   1   7
TORSDOF 2
ENDMDL
