MODEL 1
REMARK minimizedAffinity 3.50844264
REMARK minimizedRMSD -1
REMARK  2 active torsions:
REMARK  status: ('A' for Active; 'I' for Inactive)
REMARK    1  A    between atoms: C1_2  and  C2_3 
REMARK    2  A    between atoms: C2_3  and  C3_4 
ROOT
ATOM      1  C3  UNL d   1       0.484  -1.695   1.290  0.00  0.00    -0.075 A 
ATOM      2  C4  UNL d   1      -0.736  -2.318   0.993  0.00  0.00     0.002 A 
ATOM      3  C5  UNL d   1      -1.908  -1.568   0.891  0.00  0.00     0.002 A 
ATOM      4  C6  UNL d   1      -1.877  -0.190   1.096  0.00  0.00    -0.004 A 
ATOM      5  C7  UNL d   1      -0.673   0.437   1.409  0.00  0.00     0.002 A 
ATOM      6  C8  UNL d   1       0.502  -0.311   1.507  0.00  0.00     0.002 A 
ENDROOT
BRANCH   1   7
ATOM      7  C2  UNL d   1       1.761  -2.497   1.372  0.00  0.00     0.056 C 
BRANCH   7   8
ATOM      8  C1  UNL d   1       1.542  -4.010   1.477  0.00  0.00     0.007 C 
ATOM      9  C   UNL d   1       2.185  -4.626   2.713  0.00  0.00     0.009 C 
ENDBRANCH   7   8
ENDBRANCH   1   7
TORSDOF 2
ENDMDL
