MODEL 1
REMARK minimizedAffinity 13.1391115
REMARK minimizedRMSD -1
REMARK  2 active torsions:
REMARK  status: ('A' for Active; 'I' for Inactive)
REMARK    1  A    between atoms: C1_2  and  C2_3 
REMARK    2  A    between atoms: C2_3  and  C3_4 
ROOT
ATOM      1  C3  UNL d   1       1.277  -1.124   4.197  0.00  0.00    -0.075 A 
ATOM      2  C4  UNL d   1       1.464  -2.146   3.255  0.00  0.00     0.002 A 
ATOM      3  C5  UNL d   1       1.527  -1.852   1.893  0.00  0.00     0.002 A 
ATOM      4  C6  UNL d   1       1.395  -0.536   1.455  0.00  0.00    -0.004 A 
ATOM      5  C7  UNL d   1       1.192   0.486   2.380  0.00  0.00     0.002 A 
ATOM      6  C8  UNL d   1       1.133   0.194   3.744  0.00  0.00     0.002 A 
ENDROOT
BRANCH   1   7
ATOM      7  C2  UNL d   1       1.238  -1.432   5.674  0.00  0.00     0.056 C 
BRANCH   7   8
ATOM      8  C1  UNL d   1       1.257  -2.929   6.000  0.00  0.00     0.007 C 
ATOM      9  C   UNL d   1       2.658  -3.526   6.000  0.00  0.00     0.009 C 
ENDBRANCH   7   8
ENDBRANCH   1   7
TORSDOF 2
ENDMDL
