MODEL 1
REMARK minimizedAffinity 2.92265797
REMARK minimizedRMSD -1
REMARK  2 active torsions:
REMARK  status: ('A' for Active; 'I' for Inactive)
REMARK    1  A    between atoms: C1_2  and  C2_3 
REMARK    2  A    between atoms: C2_3  and  C3_4 
ROOT
ATOM      1  C3  UNL d   1       1.849  -1.083   2.844  0.00  0.00    -0.075 A 
ATOM      2  C4  UNL d   1       1.397   0.140   3.362  0.00  0.00     0.002 A 
ATOM      3  C5  UNL d   1       1.028   0.248   4.703  0.00  0.00     0.002 A 
ATOM      4  C6  UNL d   1       1.096  -0.864   5.540  0.00  0.00    -0.004 A 
ATOM      5  C7  UNL d   1       1.528  -2.088   5.032  0.00  0.00     0.002 A 
ATOM      6  C8  UNL d   1       1.902  -2.198   3.691  0.00  0.00     0.002 A 
ENDROOT
BRANCH   1   7
ATOM      7  C2  UNL d   1       2.277  -1.199   1.401  0.00  0.00     0.056 C 
BRANCH   7   8
ATOM      8  C1  UNL d   1       3.771  -1.484   1.215  0.00  0.00     0.007 C 
ATOM      9  C   UNL d   1       4.069  -2.371   0.013  0.00  0.00     0.009 C 
ENDBRANCH   7   8
ENDBRANCH   1   7
TORSDOF 2
ENDMDL
