MODEL 1
REMARK minimizedAffinity -1.81295812
REMARK minimizedRMSD -1
REMARK  3 active torsions:
REMARK  status: ('A' for Active; 'I' for Inactive)
REMARK    1  A    between atoms: C3'_2  and  C2'_3 
REMARK    2  A    between atoms: C2'_3  and  C1'_4 
REMARK    3  A    between atoms: C1'_4  and  C1_5 
ROOT
ATOM      1  C1  N4B d   1      -0.156   0.580   0.894  0.00  0.00    -0.075 A 
ATOM      2  C2  N4B d   1      -0.994  -0.467   1.336  0.00  0.00     0.002 A 
ATOM      3  C3  N4B d   1      -1.193  -0.666   2.680  0.00  0.00     0.002 A 
ATOM      4  C4  N4B d   1      -0.553   0.154   3.597  0.00  0.00    -0.004 A 
ATOM      5  C5  N4B d   1       0.234   1.180   3.161  0.00  0.00     0.002 A 
ATOM      6  C6  N4B d   1       0.440   1.394   1.813  0.00  0.00     0.002 A 
ENDROOT
BRANCH   1   7
ATOM      7  C1' N4B d   1       0.160   0.783  -0.563  0.00  0.00     0.057 C 
BRANCH   7   8
ATOM      8  C2' N4B d   1       1.426   1.626  -0.688  0.00  0.00     0.009 C 
BRANCH   8   9
ATOM      9  C3' N4B d   1       2.678   0.766  -0.738  0.00  0.00     0.004 C 
ATOM     10  C4' N4B d   1       2.373  -0.701  -0.786  0.00  0.00     0.003 C 
ENDBRANCH   8   9
ENDBRANCH   7   8
ENDBRANCH   1   7
TORSDOF 3
ENDMDL
