MODEL 1
REMARK minimizedAffinity -2.47506952
REMARK minimizedRMSD -1
REMARK  3 active torsions:
REMARK  status: ('A' for Active; 'I' for Inactive)
REMARK    1  A    between atoms: C3'_2  and  C2'_3 
REMARK    2  A    between atoms: C2'_3  and  C1'_4 
REMARK    3  A    between atoms: C1'_4  and  C1_5 
ROOT
ATOM      1  C1  N4B d   1      -1.307  -1.071  -1.720  0.00  0.00    -0.075 A 
ATOM      2  C2  N4B d   1      -2.284  -1.822  -1.030  0.00  0.00     0.002 A 
ATOM      3  C3  N4B d   1      -3.422  -2.230  -1.680  0.00  0.00     0.002 A 
ATOM      4  C4  N4B d   1      -3.614  -1.884  -3.010  0.00  0.00    -0.004 A 
ATOM      5  C5  N4B d   1      -2.654  -1.181  -3.676  0.00  0.00     0.002 A 
ATOM      6  C6  N4B d   1      -1.502  -0.768  -3.036  0.00  0.00     0.002 A 
ENDROOT
BRANCH   1   7
ATOM      7  C1' N4B d   1      -0.086  -0.529  -1.028  0.00  0.00     0.057 C 
BRANCH   7   8
ATOM      8  C2' N4B d   1      -0.496   0.074   0.312  0.00  0.00     0.009 C 
BRANCH   8   9
ATOM      9  C3' N4B d   1       0.695   0.270   1.235  0.00  0.00     0.004 C 
ATOM     10  C4' N4B d   1       0.740   1.641   1.841  0.00  0.00     0.003 C 
ENDBRANCH   8   9
ENDBRANCH   7   8
ENDBRANCH   1   7
TORSDOF 3
ENDMDL
