MODEL 1
REMARK minimizedAffinity -4.27607918
REMARK minimizedRMSD -1
REMARK  3 active torsions:
REMARK  status: ('A' for Active; 'I' for Inactive)
REMARK    1  A    between atoms: C3'_2  and  C2'_3 
REMARK    2  A    between atoms: C2'_3  and  C1'_4 
REMARK    3  A    between atoms: C1'_4  and  C1_5 
ROOT
ATOM      1  C1  N4B d   1       0.415   0.087   0.037  0.00  0.00    -0.075 A 
ATOM      2  C2  N4B d   1       1.113   1.221  -0.431  0.00  0.00     0.002 A 
ATOM      3  C3  N4B d   1       1.149   2.367   0.325  0.00  0.00     0.002 A 
ATOM      4  C4  N4B d   1       0.480   2.407   1.540  0.00  0.00    -0.004 A 
ATOM      5  C5  N4B d   1      -0.171   1.299   1.997  0.00  0.00     0.002 A 
ATOM      6  C6  N4B d   1      -0.211   0.140   1.249  0.00  0.00     0.002 A 
ENDROOT
BRANCH   1   7
ATOM      7  C1' N4B d   1       0.276  -1.159  -0.794  0.00  0.00     0.057 C 
BRANCH   7   8
ATOM      8  C2' N4B d   1      -1.205  -1.438  -1.035  0.00  0.00     0.009 C 
BRANCH   8   9
ATOM      9  C3' N4B d   1      -1.520  -1.599  -2.512  0.00  0.00     0.004 C 
ATOM     10  C4' N4B d   1      -2.981  -1.811  -2.775  0.00  0.00     0.003 C 
ENDBRANCH   8   9
ENDBRANCH   7   8
ENDBRANCH   1   7
TORSDOF 3
ENDMDL
