MODEL 1
REMARK minimizedAffinity 2.6175282
REMARK minimizedRMSD -1
REMARK  3 active torsions:
REMARK  status: ('A' for Active; 'I' for Inactive)
REMARK    1  A    between atoms: C3'_2  and  C2'_3 
REMARK    2  A    between atoms: C2'_3  and  C1'_4 
REMARK    3  A    between atoms: C1'_4  and  C1_5 
ROOT
ATOM      1  C1  N4B d   1      -1.745  -0.862  -0.756  0.00  0.00    -0.075 A 
ATOM      2  C2  N4B d   1      -0.502  -1.209  -0.183  0.00  0.00     0.002 A 
ATOM      3  C3  N4B d   1      -0.232  -0.877   1.122  0.00  0.00     0.002 A 
ATOM      4  C4  N4B d   1      -1.177  -0.185   1.864  0.00  0.00    -0.004 A 
ATOM      5  C5  N4B d   1      -2.385   0.124   1.311  0.00  0.00     0.002 A 
ATOM      6  C6  N4B d   1      -2.672  -0.207   0.001  0.00  0.00     0.002 A 
ENDROOT
BRANCH   1   7
ATOM      7  C1' N4B d   1      -2.054  -1.127  -2.205  0.00  0.00     0.057 C 
BRANCH   7   8
ATOM      8  C2' N4B d   1      -3.552  -1.371  -2.361  0.00  0.00     0.009 C 
BRANCH   8   9
ATOM      9  C3' N4B d   1      -3.897  -2.849  -2.293  0.00  0.00     0.004 C 
ATOM     10  C4' N4B d   1      -5.287  -3.098  -1.790  0.00  0.00     0.003 C 
ENDBRANCH   8   9
ENDBRANCH   7   8
ENDBRANCH   1   7
TORSDOF 3
ENDMDL
