MODEL 1
REMARK minimizedAffinity -3.57458305
REMARK minimizedRMSD -1
REMARK  3 active torsions:
REMARK  status: ('A' for Active; 'I' for Inactive)
REMARK    1  A    between atoms: C3'_2  and  C2'_3 
REMARK    2  A    between atoms: C2'_3  and  C1'_4 
REMARK    3  A    between atoms: C1'_4  and  C1_5 
ROOT
ATOM      1  C1  N4B d   1      -0.120  -0.204   0.149  0.00  0.00    -0.075 A 
ATOM      2  C2  N4B d   1       1.117   0.462   0.291  0.00  0.00     0.002 A 
ATOM      3  C3  N4B d   1       1.208   1.581   1.083  0.00  0.00     0.002 A 
ATOM      4  C4  N4B d   1       0.076   2.060   1.725  0.00  0.00    -0.004 A 
ATOM      5  C5  N4B d   1      -1.110   1.395   1.603  0.00  0.00     0.002 A 
ATOM      6  C6  N4B d   1      -1.215   0.268   0.813  0.00  0.00     0.002 A 
ENDROOT
BRANCH   1   7
ATOM      7  C1' N4B d   1      -0.287  -1.380  -0.774  0.00  0.00     0.057 C 
BRANCH   7   8
ATOM      8  C2' N4B d   1      -1.774  -1.617  -1.019  0.00  0.00     0.009 C 
BRANCH   8   9
ATOM      9  C3' N4B d   1      -2.113  -1.615  -2.500  0.00  0.00     0.004 C 
ATOM     10  C4' N4B d   1      -3.574  -1.396  -2.761  0.00  0.00     0.003 C 
ENDBRANCH   8   9
ENDBRANCH   7   8
ENDBRANCH   1   7
TORSDOF 3
ENDMDL
