MODEL 1
REMARK minimizedAffinity -1.51732814
REMARK minimizedRMSD -1
REMARK  0 active torsions:
REMARK  status: ('A' for Active; 'I' for Inactive)
ROOT
ATOM      1  C   UNL d   1       1.501  -0.905  -0.684  0.00  0.00     0.023 A 
ATOM      2  C1  UNL d   1       2.232  -0.501   0.433  0.00  0.00     0.003 A 
ATOM      3  C2  UNL d   1       1.594   0.157   1.486  0.00  0.00     0.048 A 
ATOM      4  C3  UNL d   1       0.224   0.407   1.416  0.00  0.00     0.023 A 
ATOM      5  C4  UNL d   1      -0.512   0.004   0.301  0.00  0.00     0.048 A 
ATOM      6  C5  UNL d   1       0.131  -0.653  -0.750  0.00  0.00     0.003 A 
ATOM      7  I   UNL d   1      -0.728   1.386   2.983  0.00  0.00    -0.146 I 
ENDROOT
TORSDOF 0
ENDMDL
