MODEL 1
REMARK minimizedAffinity -0.795709372
REMARK minimizedRMSD -1
REMARK  0 active torsions:
REMARK  status: ('A' for Active; 'I' for Inactive)
ROOT
ATOM      1  C   UNL d   1       1.265   0.252  -1.770  0.00  0.00     0.023 A 
ATOM      2  C1  UNL d   1      -0.081   0.609  -1.849  0.00  0.00     0.003 A 
ATOM      3  C2  UNL d   1      -0.884   0.570  -0.708  0.00  0.00     0.048 A 
ATOM      4  C3  UNL d   1      -0.334   0.173   0.511  0.00  0.00     0.023 A 
ATOM      5  C4  UNL d   1       1.013  -0.184   0.596  0.00  0.00     0.048 A 
ATOM      6  C5  UNL d   1       1.812  -0.144  -0.549  0.00  0.00     0.003 A 
ATOM      7  I   UNL d   1      -1.527   0.114   2.212  0.00  0.00    -0.146 I 
ENDROOT
TORSDOF 0
ENDMDL
