MODEL 1
REMARK minimizedAffinity 0.0511171296
REMARK minimizedRMSD -1
REMARK  0 active torsions:
REMARK  status: ('A' for Active; 'I' for Inactive)
ROOT
ATOM      1  C   UNL d   1      -2.544  -0.856  -0.227  0.00  0.00     0.023 A 
ATOM      2  C1  UNL d   1      -1.524  -1.686  -0.693  0.00  0.00     0.003 A 
ATOM      3  C2  UNL d   1      -0.189  -1.303  -0.546  0.00  0.00     0.048 A 
ATOM      4  C3  UNL d   1       0.119  -0.090   0.069  0.00  0.00     0.023 A 
ATOM      5  C4  UNL d   1      -0.898   0.743   0.538  0.00  0.00     0.048 A 
ATOM      6  C5  UNL d   1      -2.231   0.357   0.388  0.00  0.00     0.003 A 
ATOM      7  I   UNL d   1       2.105   0.481   0.289  0.00  0.00    -0.146 I 
ENDROOT
TORSDOF 0
ENDMDL
