MODEL 1
REMARK minimizedAffinity 2.88656712
REMARK minimizedRMSD -1
REMARK  0 active torsions:
REMARK  status: ('A' for Active; 'I' for Inactive)
ROOT
ATOM      1  C   UNL d   1       3.176  -0.539   0.237  0.00  0.00     0.023 A 
ATOM      2  C1  UNL d   1       2.337  -1.372   0.977  0.00  0.00     0.003 A 
ATOM      3  C2  UNL d   1       0.954  -1.316   0.792  0.00  0.00     0.048 A 
ATOM      4  C3  UNL d   1       0.417  -0.425  -0.137  0.00  0.00     0.023 A 
ATOM      5  C4  UNL d   1       1.253   0.410  -0.881  0.00  0.00     0.048 A 
ATOM      6  C5  UNL d   1       2.635   0.351  -0.691  0.00  0.00     0.003 A 
ATOM      7  I   UNL d   1      -1.641  -0.339  -0.415  0.00  0.00    -0.146 I 
ENDROOT
TORSDOF 0
ENDMDL
