MODEL 1
REMARK minimizedAffinity 0.519969523
REMARK minimizedRMSD -1
REMARK  0 active torsions:
REMARK  status: ('A' for Active; 'I' for Inactive)
ROOT
ATOM      1  C   UNL d   1      -1.963  -0.896   0.009  0.00  0.00     0.023 A 
ATOM      2  C1  UNL d   1      -0.635  -1.308  -0.106  0.00  0.00     0.003 A 
ATOM      3  C2  UNL d   1       0.400  -0.428   0.217  0.00  0.00     0.048 A 
ATOM      4  C3  UNL d   1       0.100   0.862   0.655  0.00  0.00     0.023 A 
ATOM      5  C4  UNL d   1      -1.227   1.277   0.773  0.00  0.00     0.048 A 
ATOM      6  C5  UNL d   1      -2.259   0.394   0.447  0.00  0.00     0.003 A 
ATOM      7  I   UNL d   1       1.639   2.173   1.137  0.00  0.00    -0.146 I 
ENDROOT
TORSDOF 0
ENDMDL
