MODEL 1
REMARK minimizedAffinity -0.41840297
REMARK minimizedRMSD -1
REMARK  0 active torsions:
REMARK  status: ('A' for Active; 'I' for Inactive)
ROOT
ATOM      1  C   UNL d   1      -1.873   0.337   0.554  0.00  0.00     0.023 A 
ATOM      2  C1  UNL d   1      -0.558  -0.129   0.570  0.00  0.00     0.003 A 
ATOM      3  C2  UNL d   1      -0.001  -0.612   1.756  0.00  0.00     0.048 A 
ATOM      4  C3  UNL d   1      -0.766  -0.628   2.922  0.00  0.00     0.023 A 
ATOM      5  C4  UNL d   1      -2.082  -0.164   2.911  0.00  0.00     0.048 A 
ATOM      6  C5  UNL d   1      -2.634   0.319   1.723  0.00  0.00     0.003 A 
ATOM      7  I   UNL d   1       0.060  -1.347   4.689  0.00  0.00    -0.146 I 
ENDROOT
TORSDOF 0
ENDMDL
