MODEL 1
REMARK minimizedAffinity 1.26505518
REMARK minimizedRMSD -1
REMARK  0 active torsions:
REMARK  status: ('A' for Active; 'I' for Inactive)
ROOT
ATOM      1  C   UNL d   1      -3.010  -0.028   0.474  0.00  0.00     0.023 A 
ATOM      2  C1  UNL d   1      -2.369   0.399   1.638  0.00  0.00     0.003 A 
ATOM      3  C2  UNL d   1      -0.992   0.219   1.784  0.00  0.00     0.048 A 
ATOM      4  C3  UNL d   1      -0.261  -0.386   0.762  0.00  0.00     0.023 A 
ATOM      5  C4  UNL d   1      -0.898  -0.813  -0.405  0.00  0.00     0.048 A 
ATOM      6  C5  UNL d   1      -2.275  -0.633  -0.546  0.00  0.00     0.003 A 
ATOM      7  I   UNL d   1       1.789  -0.654   0.976  0.00  0.00    -0.146 I 
ENDROOT
TORSDOF 0
ENDMDL
