MODEL 1
REMARK minimizedAffinity -1.30694783
REMARK minimizedRMSD -1
REMARK  0 active torsions:
REMARK  status: ('A' for Active; 'I' for Inactive)
ROOT
ATOM      1  C   UNL d   1      -1.038   0.181   0.362  0.00  0.00     0.023 A 
ATOM      2  C1  UNL d   1      -1.987   0.189   1.385  0.00  0.00     0.003 A 
ATOM      3  C2  UNL d   1      -1.633  -0.229   2.670  0.00  0.00     0.048 A 
ATOM      4  C3  UNL d   1      -0.328  -0.652   2.924  0.00  0.00     0.023 A 
ATOM      5  C4  UNL d   1       0.624  -0.660   1.904  0.00  0.00     0.048 A 
ATOM      6  C5  UNL d   1       0.265  -0.242   0.621  0.00  0.00     0.003 A 
ATOM      7  I   UNL d   1       0.201  -1.273   4.836  0.00  0.00    -0.146 I 
ENDROOT
TORSDOF 0
ENDMDL
