MODEL 1
REMARK minimizedAffinity 1.66924429
REMARK minimizedRMSD -1
REMARK  0 active torsions:
REMARK  status: ('A' for Active; 'I' for Inactive)
ROOT
ATOM      1  C   UNL d   1       4.378   2.116  -2.259  0.00  0.00     0.023 A 
ATOM      2  C1  UNL d   1       4.555   1.978  -0.882  0.00  0.00     0.003 A 
ATOM      3  C2  UNL d   1       3.663   1.204  -0.136  0.00  0.00     0.048 A 
ATOM      4  C3  UNL d   1       2.597   0.570  -0.774  0.00  0.00     0.023 A 
ATOM      5  C4  UNL d   1       2.417   0.705  -2.152  0.00  0.00     0.048 A 
ATOM      6  C5  UNL d   1       3.311   1.480  -2.893  0.00  0.00     0.003 A 
ATOM      7  I   UNL d   1       1.269  -0.583   0.333  0.00  0.00    -0.146 I 
ENDROOT
TORSDOF 0
ENDMDL
