MODEL 1
REMARK minimizedAffinity -1.79203618
REMARK minimizedRMSD -1
REMARK  1 active torsions:
REMARK  status: ('A' for Active; 'I' for Inactive)
REMARK    1  A    between atoms: C1_2  and  C2_3 
ROOT
ATOM      1  C2  UNL d   1      -0.889   1.071  -0.619  0.00  0.00    -0.081 A 
ATOM      2  C3  UNL d   1       0.400   1.275  -1.126  0.00  0.00     0.006 A 
ATOM      3  C4  UNL d   1       1.461   0.466  -0.711  0.00  0.00     0.002 A 
ATOM      4  C5  UNL d   1       1.249  -0.565   0.211  0.00  0.00    -0.080 A 
ATOM      5  C6  UNL d   1       2.373  -1.460   0.642  0.00  0.00     0.076 C 
ATOM      6  C7  UNL d   1      -0.035  -0.757   0.731  0.00  0.00     0.002 A 
ATOM      7  C8  UNL d   1      -1.096   0.051   0.317  0.00  0.00     0.006 A 
ENDROOT
BRANCH   1   8
ATOM      8  C1  UNL d   1      -2.047   1.899  -1.113  0.00  0.00     0.054 C 
ATOM      9  C   UNL d   1      -1.771   2.465  -2.499  0.00  0.00     0.018 C 
ENDBRANCH   1   8
TORSDOF 1
ENDMDL
