MODEL 1
REMARK minimizedAffinity -0.658523858
REMARK minimizedRMSD -1
REMARK  1 active torsions:
REMARK  status: ('A' for Active; 'I' for Inactive)
REMARK    1  A    between atoms: C1_2  and  C2_3 
ROOT
ATOM      1  C2  UNL d   1      -0.600   1.546  -1.272  0.00  0.00    -0.081 A 
ATOM      2  C3  UNL d   1       0.653   1.936  -0.785  0.00  0.00     0.006 A 
ATOM      3  C4  UNL d   1       1.448   1.035  -0.073  0.00  0.00     0.002 A 
ATOM      4  C5  UNL d   1       1.007  -0.273   0.157  0.00  0.00    -0.080 A 
ATOM      5  C6  UNL d   1       1.863  -1.259   0.894  0.00  0.00     0.076 C 
ATOM      6  C7  UNL d   1      -0.253  -0.657  -0.315  0.00  0.00     0.002 A 
ATOM      7  C8  UNL d   1      -1.048   0.244  -1.026  0.00  0.00     0.006 A 
ENDROOT
BRANCH   1   8
ATOM      8  C1  UNL d   1      -1.432   2.496  -2.096  0.00  0.00     0.054 C 
ATOM      9  C   UNL d   1      -2.202   1.758  -3.182  0.00  0.00     0.018 C 
ENDBRANCH   1   8
TORSDOF 1
ENDMDL
