MODEL 1
REMARK minimizedAffinity -1.44981885
REMARK minimizedRMSD -1
REMARK  1 active torsions:
REMARK  status: ('A' for Active; 'I' for Inactive)
REMARK    1  A    between atoms: C1_2  and  C2_3 
ROOT
ATOM      1  C2  UNL d   1      -0.537  -0.434   0.897  0.00  0.00    -0.081 A 
ATOM      2  C3  UNL d   1      -0.283  -0.753  -0.442  0.00  0.00     0.006 A 
ATOM      3  C4  UNL d   1      -0.590   0.156  -1.457  0.00  0.00     0.002 A 
ATOM      4  C5  UNL d   1      -1.150   1.401  -1.150  0.00  0.00    -0.080 A 
ATOM      5  C6  UNL d   1      -1.457   2.398  -2.228  0.00  0.00     0.076 C 
ATOM      6  C7  UNL d   1      -1.420   1.713   0.187  0.00  0.00     0.002 A 
ATOM      7  C8  UNL d   1      -1.113   0.804   1.202  0.00  0.00     0.006 A 
ENDROOT
BRANCH   1   8
ATOM      8  C1  UNL d   1      -0.147  -1.386   1.999  0.00  0.00     0.054 C 
ATOM      9  C   UNL d   1       1.247  -1.954   1.772  0.00  0.00     0.018 C 
ENDBRANCH   1   8
TORSDOF 1
ENDMDL
