MODEL 1
REMARK minimizedAffinity -3.58151507
REMARK minimizedRMSD -1
REMARK  1 active torsions:
REMARK  status: ('A' for Active; 'I' for Inactive)
REMARK    1  A    between atoms: C1_2  and  C2_3 
ROOT
ATOM      1  C2  UNL d   1      -0.368   0.548  -0.488  0.00  0.00    -0.081 A 
ATOM      2  C3  UNL d   1       0.886  -0.005  -0.776  0.00  0.00     0.006 A 
ATOM      3  C4  UNL d   1       1.463  -0.939   0.087  0.00  0.00     0.002 A 
ATOM      4  C5  UNL d   1       0.793  -1.341   1.248  0.00  0.00    -0.080 A 
ATOM      5  C6  UNL d   1       1.388  -2.366   2.168  0.00  0.00     0.076 C 
ATOM      6  C7  UNL d   1      -0.452  -0.776   1.544  0.00  0.00     0.002 A 
ATOM      7  C8  UNL d   1      -1.029   0.158   0.682  0.00  0.00     0.006 A 
ENDROOT
BRANCH   1   8
ATOM      8  C1  UNL d   1      -1.022   1.507  -1.450  0.00  0.00     0.054 C 
ATOM      9  C   UNL d   1      -2.194   0.855  -2.170  0.00  0.00     0.018 C 
ENDBRANCH   1   8
TORSDOF 1
ENDMDL
