MODEL 1
REMARK minimizedAffinity -3.30715871
REMARK minimizedRMSD -1
REMARK  1 active torsions:
REMARK  status: ('A' for Active; 'I' for Inactive)
REMARK    1  A    between atoms: C1_2  and  C2_3 
ROOT
ATOM      1  C2  UNL d   1       0.096   0.125  -0.282  0.00  0.00    -0.081 A 
ATOM      2  C3  UNL d   1      -0.930  -0.540  -0.966  0.00  0.00     0.006 A 
ATOM      3  C4  UNL d   1      -1.826   0.174  -1.765  0.00  0.00     0.002 A 
ATOM      4  C5  UNL d   1      -1.708   1.561  -1.900  0.00  0.00    -0.080 A 
ATOM      5  C6  UNL d   1      -2.645   2.335  -2.778  0.00  0.00     0.076 C 
ATOM      6  C7  UNL d   1      -0.694   2.227  -1.202  0.00  0.00     0.002 A 
ATOM      7  C8  UNL d   1       0.202   1.515  -0.403  0.00  0.00     0.006 A 
ENDROOT
BRANCH   1   8
ATOM      8  C1  UNL d   1       1.103  -0.650   0.529  0.00  0.00     0.054 C 
ATOM      9  C   UNL d   1       2.211  -1.208  -0.353  0.00  0.00     0.018 C 
ENDBRANCH   1   8
TORSDOF 1
ENDMDL
