MODEL 1
REMARK minimizedAffinity -3.50875115
REMARK minimizedRMSD -1
REMARK  1 active torsions:
REMARK  status: ('A' for Active; 'I' for Inactive)
REMARK    1  A    between atoms: C1_2  and  C2_3 
ROOT
ATOM      1  C2  UNL d   1       0.676  -0.718   1.471  0.00  0.00    -0.081 A 
ATOM      2  C3  UNL d   1      -0.513  -0.014   1.693  0.00  0.00     0.006 A 
ATOM      3  C4  UNL d   1      -0.992   0.886   0.737  0.00  0.00     0.002 A 
ATOM      4  C5  UNL d   1      -0.294   1.090  -0.458  0.00  0.00    -0.080 A 
ATOM      5  C6  UNL d   1      -0.813   2.031  -1.505  0.00  0.00     0.076 C 
ATOM      6  C7  UNL d   1       0.903   0.400  -0.672  0.00  0.00     0.002 A 
ATOM      7  C8  UNL d   1       1.383  -0.499   0.283  0.00  0.00     0.006 A 
ENDROOT
BRANCH   1   8
ATOM      8  C1  UNL d   1       1.162  -1.737   2.471  0.00  0.00     0.054 C 
ATOM      9  C   UNL d   1       0.198  -1.866   3.641  0.00  0.00     0.018 C 
ENDBRANCH   1   8
TORSDOF 1
ENDMDL
