MODEL 1
REMARK minimizedAffinity -3.16813803
REMARK minimizedRMSD -1
REMARK  1 active torsions:
REMARK  status: ('A' for Active; 'I' for Inactive)
REMARK    1  A    between atoms: C1_2  and  C2_3 
ROOT
ATOM      1  C2  UNL d   1       0.909  -0.717   0.882  0.00  0.00    -0.081 A 
ATOM      2  C3  UNL d   1      -0.400  -0.323   1.185  0.00  0.00     0.006 A 
ATOM      3  C4  UNL d   1      -1.053   0.630   0.399  0.00  0.00     0.002 A 
ATOM      4  C5  UNL d   1      -0.411   1.198  -0.707  0.00  0.00    -0.080 A 
ATOM      5  C6  UNL d   1      -1.111   2.200  -1.576  0.00  0.00     0.076 C 
ATOM      6  C7  UNL d   1       0.903   0.817  -0.999  0.00  0.00     0.002 A 
ATOM      7  C8  UNL d   1       1.556  -0.135  -0.214  0.00  0.00     0.006 A 
ENDROOT
BRANCH   1   8
ATOM      8  C1  UNL d   1       1.592  -1.792   1.688  0.00  0.00     0.054 C 
ATOM      9  C   UNL d   1       0.811  -2.113   2.955  0.00  0.00     0.018 C 
ENDBRANCH   1   8
TORSDOF 1
ENDMDL
