MODEL 1
REMARK minimizedAffinity -3.47020245
REMARK minimizedRMSD -1
REMARK  1 active torsions:
REMARK  status: ('A' for Active; 'I' for Inactive)
REMARK    1  A    between atoms: C1_2  and  C2_3 
ROOT
ATOM      1  C2  UNL d   1      -0.278   1.105  -1.058  0.00  0.00    -0.081 A 
ATOM      2  C3  UNL d   1       0.871   0.609  -1.686  0.00  0.00     0.006 A 
ATOM      3  C4  UNL d   1       1.708  -0.291  -1.021  0.00  0.00     0.002 A 
ATOM      4  C5  UNL d   1       1.407  -0.714   0.277  0.00  0.00    -0.080 A 
ATOM      5  C6  UNL d   1       2.281  -1.703   0.990  0.00  0.00     0.076 C 
ATOM      6  C7  UNL d   1       0.268  -0.205   0.911  0.00  0.00     0.002 A 
ATOM      7  C8  UNL d   1      -0.569   0.695   0.248  0.00  0.00     0.006 A 
ENDROOT
BRANCH   1   8
ATOM      8  C1  UNL d   1      -1.218   2.025  -1.796  0.00  0.00     0.054 C 
ATOM      9  C   UNL d   1      -2.641   1.485  -1.787  0.00  0.00     0.018 C 
ENDBRANCH   1   8
TORSDOF 1
ENDMDL
