MODEL 1
REMARK minimizedAffinity -3.27694392
REMARK minimizedRMSD -1
REMARK  1 active torsions:
REMARK  status: ('A' for Active; 'I' for Inactive)
REMARK    1  A    between atoms: C1_2  and  C2_3 
ROOT
ATOM      1  C2  UNL d   1       0.495  -1.539   1.864  0.00  0.00    -0.081 A 
ATOM      2  C3  UNL d   1       1.821  -1.835   1.526  0.00  0.00     0.006 A 
ATOM      3  C4  UNL d   1       2.396  -1.291   0.375  0.00  0.00     0.002 A 
ATOM      4  C5  UNL d   1       1.658  -0.437  -0.452  0.00  0.00    -0.080 A 
ATOM      5  C6  UNL d   1       2.274   0.177  -1.674  0.00  0.00     0.076 C 
ATOM      6  C7  UNL d   1       0.328  -0.156  -0.124  0.00  0.00     0.002 A 
ATOM      7  C8  UNL d   1      -0.248  -0.700   1.026  0.00  0.00     0.006 A 
ENDROOT
BRANCH   1   8
ATOM      8  C1  UNL d   1      -0.108  -2.072   3.138  0.00  0.00     0.054 C 
ATOM      9  C   UNL d   1      -1.509  -1.519   3.362  0.00  0.00     0.018 C 
ENDBRANCH   1   8
TORSDOF 1
ENDMDL
