MODEL 1
REMARK minimizedAffinity -3.91696286
REMARK minimizedRMSD -1
REMARK  1 active torsions:
REMARK  status: ('A' for Active; 'I' for Inactive)
REMARK    1  A    between atoms: C1_2  and  C2_3 
ROOT
ATOM      1  C2  UNL d   1      -1.114   3.271  -2.808  0.00  0.00    -0.081 A 
ATOM      2  C3  UNL d   1      -2.177   3.077  -3.699  0.00  0.00     0.006 A 
ATOM      3  C4  UNL d   1      -3.291   2.325  -3.319  0.00  0.00     0.002 A 
ATOM      4  C5  UNL d   1      -3.364   1.762  -2.041  0.00  0.00    -0.080 A 
ATOM      5  C6  UNL d   1      -4.568   0.977  -1.610  0.00  0.00     0.076 C 
ATOM      6  C7  UNL d   1      -2.295   1.941  -1.157  0.00  0.00     0.002 A 
ATOM      7  C8  UNL d   1      -1.180   2.692  -1.536  0.00  0.00     0.006 A 
ENDROOT
BRANCH   1   8
ATOM      8  C1  UNL d   1       0.060   4.136  -3.192  0.00  0.00     0.054 C 
ATOM      9  C   UNL d   1       0.121   4.349  -4.698  0.00  0.00     0.018 C 
ENDBRANCH   1   8
TORSDOF 1
ENDMDL
