MODEL 1
REMARK minimizedAffinity -3.99709105
REMARK minimizedRMSD -1
REMARK  1 active torsions:
REMARK  status: ('A' for Active; 'I' for Inactive)
REMARK    1  A    between atoms: C1_2  and  C2_3 
ROOT
ATOM      1  C2  UNL d   1      -0.612   1.035  -1.150  0.00  0.00    -0.081 A 
ATOM      2  C3  UNL d   1      -0.912   0.851   0.206  0.00  0.00     0.006 A 
ATOM      3  C4  UNL d   1      -0.051   0.120   1.028  0.00  0.00     0.002 A 
ATOM      4  C5  UNL d   1       1.126  -0.432   0.511  0.00  0.00    -0.080 A 
ATOM      5  C6  UNL d   1       2.073  -1.194   1.390  0.00  0.00     0.076 C 
ATOM      6  C7  UNL d   1       1.416  -0.263  -0.847  0.00  0.00     0.002 A 
ATOM      7  C8  UNL d   1       0.556   0.467  -1.670  0.00  0.00     0.006 A 
ENDROOT
BRANCH   1   8
ATOM      8  C1  UNL d   1      -1.505   1.878  -2.024  0.00  0.00     0.054 C 
ATOM      9  C   UNL d   1      -2.948   1.398  -1.967  0.00  0.00     0.018 C 
ENDBRANCH   1   8
TORSDOF 1
ENDMDL
