MODEL 1
REMARK minimizedAffinity -2.12954736
REMARK minimizedRMSD -1
REMARK  1 active torsions:
REMARK  status: ('A' for Active; 'I' for Inactive)
REMARK    1  A    between atoms: C1_2  and  C2_3 
ROOT
ATOM      1  C2  UNL d   1      -0.951   0.638  -0.105  0.00  0.00    -0.081 A 
ATOM      2  C3  UNL d   1       0.289   0.464  -0.732  0.00  0.00     0.006 A 
ATOM      3  C4  UNL d   1       1.270  -0.342  -0.149  0.00  0.00     0.002 A 
ATOM      4  C5  UNL d   1       1.025  -0.993   1.064  0.00  0.00    -0.080 A 
ATOM      5  C6  UNL d   1       2.058  -1.885   1.685  0.00  0.00     0.076 C 
ATOM      6  C7  UNL d   1      -0.207  -0.805   1.699  0.00  0.00     0.002 A 
ATOM      7  C8  UNL d   1      -1.188   0.002   1.118  0.00  0.00     0.006 A 
ENDROOT
BRANCH   1   8
ATOM      8  C1  UNL d   1      -2.034   1.455  -0.763  0.00  0.00     0.054 C 
ATOM      9  C   UNL d   1      -1.625   1.892  -2.162  0.00  0.00     0.018 C 
ENDBRANCH   1   8
TORSDOF 1
ENDMDL
