MODEL 1
REMARK minimizedAffinity -1.64965343
REMARK minimizedRMSD -1
REMARK  1 active torsions:
REMARK  status: ('A' for Active; 'I' for Inactive)
REMARK    1  A    between atoms: C1_2  and  C2_3 
ROOT
ATOM      1  C2  UNL d   1      -2.064   1.512  -1.759  0.00  0.00    -0.081 A 
ATOM      2  C3  UNL d   1      -0.804   1.609  -1.156  0.00  0.00     0.006 A 
ATOM      3  C4  UNL d   1      -0.479   0.804  -0.062  0.00  0.00     0.002 A 
ATOM      4  C5  UNL d   1      -1.404  -0.117   0.441  0.00  0.00    -0.080 A 
ATOM      5  C6  UNL d   1      -1.056  -1.009   1.596  0.00  0.00     0.076 C 
ATOM      6  C7  UNL d   1      -2.669  -0.202  -0.150  0.00  0.00     0.002 A 
ATOM      7  C8  UNL d   1      -2.995   0.604  -1.243  0.00  0.00     0.006 A 
ENDROOT
BRANCH   1   8
ATOM      8  C1  UNL d   1      -2.396   2.333  -2.979  0.00  0.00     0.054 C 
ATOM      9  C   UNL d   1      -1.677   1.806  -4.213  0.00  0.00     0.018 C 
ENDBRANCH   1   8
TORSDOF 1
ENDMDL
