MODEL 1
REMARK minimizedAffinity -4.66360569
REMARK minimizedRMSD -1
REMARK  3 active torsions:
REMARK  status: ('A' for Active; 'I' for Inactive)
REMARK    1  A    between atoms: C3'_2  and  C2'_3 
REMARK    2  A    between atoms: C2'_3  and  C1'_4 
REMARK    3  A    between atoms: C1'_4  and  C1_5 
ROOT
ATOM      1  C1  N4B d   1       0.005   0.022  -0.116  0.00  0.00    -0.075 A 
ATOM      2  C2  N4B d   1       0.840  -1.108  -0.252  0.00  0.00     0.002 A 
ATOM      3  C3  N4B d   1       0.459  -2.312   0.290  0.00  0.00     0.002 A 
ATOM      4  C4  N4B d   1      -0.738  -2.403   0.984  0.00  0.00    -0.004 A 
ATOM      5  C5  N4B d   1      -1.550  -1.313   1.089  0.00  0.00     0.002 A 
ATOM      6  C6  N4B d   1      -1.182  -0.098   0.546  0.00  0.00     0.002 A 
ENDROOT
BRANCH   1   7
ATOM      7  C1' N4B d   1       0.418   1.379  -0.617  0.00  0.00     0.057 C 
BRANCH   7   8
ATOM      8  C2' N4B d   1       0.005   2.437   0.403  0.00  0.00     0.009 C 
BRANCH   8   9
ATOM      9  C3' N4B d   1       1.199   2.998   1.155  0.00  0.00     0.004 C 
ATOM     10  C4' N4B d   1       2.443   3.045   0.318  0.00  0.00     0.003 C 
ENDBRANCH   8   9
ENDBRANCH   7   8
ENDBRANCH   1   7
TORSDOF 3
ENDMDL
