MODEL 1
REMARK minimizedAffinity -4.51037455
REMARK minimizedRMSD -1
REMARK  3 active torsions:
REMARK  status: ('A' for Active; 'I' for Inactive)
REMARK    1  A    between atoms: C3'_2  and  C2'_3 
REMARK    2  A    between atoms: C2'_3  and  C1'_4 
REMARK    3  A    between atoms: C1'_4  and  C1_5 
ROOT
ATOM      1  C1  N4B d   1       0.238  -1.427   0.126  0.00  0.00    -0.075 A 
ATOM      2  C2  N4B d   1      -0.347  -0.531   1.047  0.00  0.00     0.002 A 
ATOM      3  C3  N4B d   1      -0.498   0.793   0.716  0.00  0.00     0.002 A 
ATOM      4  C4  N4B d   1      -0.056   1.246  -0.518  0.00  0.00    -0.004 A 
ATOM      5  C5  N4B d   1       0.485   0.369  -1.412  0.00  0.00     0.002 A 
ATOM      6  C6  N4B d   1       0.639  -0.965  -1.094  0.00  0.00     0.002 A 
ENDROOT
BRANCH   1   7
ATOM      7  C1' N4B d   1       0.502  -2.866   0.476  0.00  0.00     0.057 C 
BRANCH   7   8
ATOM      8  C2' N4B d   1      -0.740  -3.695   0.158  0.00  0.00     0.009 C 
BRANCH   8   9
ATOM      9  C3' N4B d   1      -2.009  -3.036   0.670  0.00  0.00     0.004 C 
ATOM     10  C4' N4B d   1      -3.252  -3.630   0.077  0.00  0.00     0.003 C 
ENDBRANCH   8   9
ENDBRANCH   7   8
ENDBRANCH   1   7
TORSDOF 3
ENDMDL
