MODEL 1
REMARK minimizedAffinity -4.77869415
REMARK minimizedRMSD -1
REMARK  3 active torsions:
REMARK  status: ('A' for Active; 'I' for Inactive)
REMARK    1  A    between atoms: C3'_2  and  C2'_3 
REMARK    2  A    between atoms: C2'_3  and  C1'_4 
REMARK    3  A    between atoms: C1'_4  and  C1_5 
ROOT
ATOM      1  C1  N4B d   1       0.157  -0.092  -0.191  0.00  0.00    -0.075 A 
ATOM      2  C2  N4B d   1      -0.815  -0.125   0.833  0.00  0.00     0.002 A 
ATOM      3  C3  N4B d   1      -1.164  -1.322   1.409  0.00  0.00     0.002 A 
ATOM      4  C4  N4B d   1      -0.571  -2.495   0.967  0.00  0.00    -0.004 A 
ATOM      5  C5  N4B d   1       0.386  -2.451  -0.005  0.00  0.00     0.002 A 
ATOM      6  C6  N4B d   1       0.749  -1.255  -0.590  0.00  0.00     0.002 A 
ENDROOT
BRANCH   1   7
ATOM      7  C1' N4B d   1       0.509   1.182  -0.910  0.00  0.00     0.057 C 
BRANCH   7   8
ATOM      8  C2' N4B d   1       0.482   2.341   0.081  0.00  0.00     0.009 C 
BRANCH   8   9
ATOM      9  C3' N4B d   1       1.819   3.060   0.152  0.00  0.00     0.004 C 
ATOM     10  C4' N4B d   1       2.185   3.469   1.547  0.00  0.00     0.003 C 
ENDBRANCH   8   9
ENDBRANCH   7   8
ENDBRANCH   1   7
TORSDOF 3
ENDMDL
