MODEL 1
REMARK minimizedAffinity -5.65344381
REMARK minimizedRMSD -1
REMARK  3 active torsions:
REMARK  status: ('A' for Active; 'I' for Inactive)
REMARK    1  A    between atoms: C3'_2  and  C2'_3 
REMARK    2  A    between atoms: C2'_3  and  C1'_4 
REMARK    3  A    between atoms: C1'_4  and  C1_5 
ROOT
ATOM      1  C1  N4B d   1      -0.039   0.194  -0.224  0.00  0.00    -0.075 A 
ATOM      2  C2  N4B d   1      -0.947   0.121   0.855  0.00  0.00     0.002 A 
ATOM      3  C3  N4B d   1      -1.141  -1.071   1.509  0.00  0.00     0.002 A 
ATOM      4  C4  N4B d   1      -0.456  -2.202   1.092  0.00  0.00    -0.004 A 
ATOM      5  C5  N4B d   1       0.439  -2.117   0.065  0.00  0.00     0.002 A 
ATOM      6  C6  N4B d   1       0.647  -0.925  -0.599  0.00  0.00     0.002 A 
ENDROOT
BRANCH   1   7
ATOM      7  C1' N4B d   1       0.142   1.455  -1.025  0.00  0.00     0.057 C 
BRANCH   7   8
ATOM      8  C2' N4B d   1       0.274   2.639  -0.071  0.00  0.00     0.009 C 
BRANCH   8   9
ATOM      9  C3' N4B d   1       1.716   2.877   0.343  0.00  0.00     0.004 C 
ATOM     10  C4' N4B d   1       2.660   2.894  -0.822  0.00  0.00     0.003 C 
ENDBRANCH   8   9
ENDBRANCH   7   8
ENDBRANCH   1   7
TORSDOF 3
ENDMDL
