MODEL 1
REMARK minimizedAffinity -5.5404458
REMARK minimizedRMSD -1
REMARK  3 active torsions:
REMARK  status: ('A' for Active; 'I' for Inactive)
REMARK    1  A    between atoms: C3'_2  and  C2'_3 
REMARK    2  A    between atoms: C2'_3  and  C1'_4 
REMARK    3  A    between atoms: C1'_4  and  C1_5 
ROOT
ATOM      1  C1  N4B d   1      -0.290  -0.907   0.115  0.00  0.00    -0.075 A 
ATOM      2  C2  N4B d   1      -0.264  -1.921   1.097  0.00  0.00     0.002 A 
ATOM      3  C3  N4B d   1       0.095  -3.201   0.753  0.00  0.00     0.002 A 
ATOM      4  C4  N4B d   1       0.412  -3.494  -0.565  0.00  0.00    -0.004 A 
ATOM      5  C5  N4B d   1       0.409  -2.503  -1.503  0.00  0.00     0.002 A 
ATOM      6  C6  N4B d   1       0.055  -1.211  -1.171  0.00  0.00     0.002 A 
ENDROOT
BRANCH   1   7
ATOM      7  C1' N4B d   1      -0.758   0.488   0.426  0.00  0.00     0.057 C 
BRANCH   7   8
ATOM      8  C2' N4B d   1       0.068   1.485  -0.381  0.00  0.00     0.009 C 
BRANCH   8   9
ATOM      9  C3' N4B d   1       0.385   2.738   0.417  0.00  0.00     0.004 C 
ATOM     10  C4' N4B d   1       1.789   3.221   0.207  0.00  0.00     0.003 C 
ENDBRANCH   8   9
ENDBRANCH   7   8
ENDBRANCH   1   7
TORSDOF 3
ENDMDL
