MODEL 1
REMARK minimizedAffinity -4.23175526
REMARK minimizedRMSD -1
REMARK  3 active torsions:
REMARK  status: ('A' for Active; 'I' for Inactive)
REMARK    1  A    between atoms: C3'_2  and  C2'_3 
REMARK    2  A    between atoms: C2'_3  and  C1'_4 
REMARK    3  A    between atoms: C1'_4  and  C1_5 
ROOT
ATOM      1  C1  N4B d   1       0.117   1.470  -0.222  0.00  0.00    -0.075 A 
ATOM      2  C2  N4B d   1       0.029   2.679   0.502  0.00  0.00     0.002 A 
ATOM      3  C3  N4B d   1       0.990   3.647   0.341  0.00  0.00     0.002 A 
ATOM      4  C4  N4B d   1       2.054   3.421  -0.520  0.00  0.00    -0.004 A 
ATOM      5  C5  N4B d   1       2.118   2.261  -1.234  0.00  0.00     0.002 A 
ATOM      6  C6  N4B d   1       1.157   1.281  -1.086  0.00  0.00     0.002 A 
ENDROOT
BRANCH   1   7
ATOM      7  C1' N4B d   1      -0.863   0.348  -0.016  0.00  0.00     0.057 C 
BRANCH   7   8
ATOM      8  C2' N4B d   1      -0.960   0.035   1.475  0.00  0.00     0.009 C 
BRANCH   8   9
ATOM      9  C3' N4B d   1      -1.768  -1.224   1.740  0.00  0.00     0.004 C 
ATOM     10  C4' N4B d   1      -1.543  -2.286   0.706  0.00  0.00     0.003 C 
ENDBRANCH   8   9
ENDBRANCH   7   8
ENDBRANCH   1   7
TORSDOF 3
ENDMDL
