MODEL 1
REMARK minimizedAffinity -5.65877771
REMARK minimizedRMSD -1
REMARK  3 active torsions:
REMARK  status: ('A' for Active; 'I' for Inactive)
REMARK    1  A    between atoms: C3'_2  and  C2'_3 
REMARK    2  A    between atoms: C2'_3  and  C1'_4 
REMARK    3  A    between atoms: C1'_4  and  C1_5 
ROOT
ATOM      1  C1  N4B d   1      -0.031  -0.378   0.127  0.00  0.00    -0.075 A 
ATOM      2  C2  N4B d   1       0.904  -1.312  -0.373  0.00  0.00     0.002 A 
ATOM      3  C3  N4B d   1       0.731  -2.652  -0.129  0.00  0.00     0.002 A 
ATOM      4  C4  N4B d   1      -0.352  -3.079   0.623  0.00  0.00    -0.004 A 
ATOM      5  C5  N4B d   1      -1.264  -2.173   1.080  0.00  0.00     0.002 A 
ATOM      6  C6  N4B d   1      -1.106  -0.823   0.840  0.00  0.00     0.002 A 
ENDROOT
BRANCH   1   7
ATOM      7  C1' N4B d   1       0.161   1.105  -0.040  0.00  0.00     0.057 C 
BRANCH   7   8
ATOM      8  C2' N4B d   1       1.177   1.597   0.986  0.00  0.00     0.009 C 
BRANCH   8   9
ATOM      9  C3' N4B d   1       2.354   2.297   0.329  0.00  0.00     0.004 C 
ATOM     10  C4' N4B d   1       2.554   3.695   0.835  0.00  0.00     0.003 C 
ENDBRANCH   8   9
ENDBRANCH   7   8
ENDBRANCH   1   7
TORSDOF 3
ENDMDL
