MODEL 1
REMARK minimizedAffinity -3.43048358
REMARK minimizedRMSD -1
REMARK  1 active torsions:
REMARK  status: ('A' for Active; 'I' for Inactive)
REMARK    1  A    between atoms: N_2  and  C1_3 
ROOT
ATOM      1  C1  UNL d   1       0.185  -0.631   0.059  0.00  0.00     0.143 A 
ATOM      2  C2  UNL d   1      -0.120  -0.799   1.414  0.00  0.00    -0.057 A 
ATOM      3  C3  UNL d   1      -0.901   0.135   2.104  0.00  0.00     0.033 A 
ATOM      4  C4  UNL d   1      -1.369   1.274   1.456  0.00  0.00    -0.042 A 
ATOM      5  C5  UNL d   1      -1.058   1.474   0.116  0.00  0.00     0.033 A 
ATOM      6  C6  UNL d   1      -0.283   0.534  -0.570  0.00  0.00    -0.057 A 
ENDROOT
BRANCH   1   7
ATOM      7  N   UNL d   1       1.038  -1.473  -0.657  0.00  0.00    -0.732 N 
ATOM      8  C   UNL d   1       0.527  -2.309  -1.723  0.00  0.00     0.284 C 
ATOM      9  H3  UNL d   1       1.932  -1.034  -0.866  0.00  0.00     0.395 HD
ENDBRANCH   1   7
TORSDOF 1
ENDMDL
