MODEL 1
REMARK minimizedAffinity -4.6012907
REMARK minimizedRMSD -1
REMARK  1 active torsions:
REMARK  status: ('A' for Active; 'I' for Inactive)
REMARK    1  A    between atoms: N_2  and  C1_3 
ROOT
ATOM      1  C1  UNL d   1       0.164  -0.344  -0.812  0.00  0.00     0.143 A 
ATOM      2  C2  UNL d   1       0.344   0.893  -1.440  0.00  0.00    -0.057 A 
ATOM      3  C3  UNL d   1      -0.327   2.038  -0.993  0.00  0.00     0.033 A 
ATOM      4  C4  UNL d   1      -1.214   1.959   0.075  0.00  0.00    -0.042 A 
ATOM      5  C5  UNL d   1      -1.428   0.734   0.698  0.00  0.00     0.033 A 
ATOM      6  C6  UNL d   1      -0.750  -0.404   0.251  0.00  0.00    -0.057 A 
ENDROOT
BRANCH   1   7
ATOM      7  N   UNL d   1       0.727  -1.538  -1.271  0.00  0.00    -0.732 N 
ATOM      8  C   UNL d   1       0.136  -2.252  -2.382  0.00  0.00     0.284 C 
ATOM      9  H3  UNL d   1       1.743  -1.506  -1.291  0.00  0.00     0.395 HD
ENDBRANCH   1   7
TORSDOF 1
ENDMDL
