MODEL 1
REMARK minimizedAffinity -4.62588978
REMARK minimizedRMSD -1
REMARK  1 active torsions:
REMARK  status: ('A' for Active; 'I' for Inactive)
REMARK    1  A    between atoms: N_2  and  C1_3 
ROOT
ATOM      1  C1  UNL d   1       0.258  -0.087  -0.126  0.00  0.00     0.143 A 
ATOM      2  C2  UNL d   1      -0.466   1.076  -0.411  0.00  0.00    -0.057 A 
ATOM      3  C3  UNL d   1      -1.328   1.645   0.534  0.00  0.00     0.033 A 
ATOM      4  C4  UNL d   1      -1.504   1.042   1.775  0.00  0.00    -0.042 A 
ATOM      5  C5  UNL d   1      -0.814  -0.129   2.071  0.00  0.00     0.033 A 
ATOM      6  C6  UNL d   1       0.051  -0.688   1.125  0.00  0.00    -0.057 A 
ENDROOT
BRANCH   1   7
ATOM      7  N   UNL d   1       1.055  -0.755  -1.059  0.00  0.00    -0.732 N 
ATOM      8  C   UNL d   1       0.662  -2.050  -1.571  0.00  0.00     0.284 C 
ATOM      9  H3  UNL d   1       1.437  -0.128  -1.763  0.00  0.00     0.395 HD
ENDBRANCH   1   7
TORSDOF 1
ENDMDL
