MODEL 1
REMARK minimizedAffinity -2.17130899
REMARK minimizedRMSD -1
REMARK  1 active torsions:
REMARK  status: ('A' for Active; 'I' for Inactive)
REMARK    1  A    between atoms: N_2  and  C1_3 
ROOT
ATOM      1  C1  UNL d   1       0.652  -1.461  -1.300  0.00  0.00     0.143 A 
ATOM      2  C2  UNL d   1       0.723  -2.748  -0.757  0.00  0.00    -0.057 A 
ATOM      3  C3  UNL d   1       0.500  -3.883  -1.547  0.00  0.00     0.033 A 
ATOM      4  C4  UNL d   1       0.172  -3.747  -2.892  0.00  0.00    -0.042 A 
ATOM      5  C5  UNL d   1       0.072  -2.476  -3.447  0.00  0.00     0.033 A 
ATOM      6  C6  UNL d   1       0.302  -1.348  -2.654  0.00  0.00    -0.057 A 
ENDROOT
BRANCH   1   7
ATOM      7  N   UNL d   1       0.767  -0.291  -0.544  0.00  0.00    -0.732 N 
ATOM      8  C   UNL d   1      -0.127  -0.040   0.566  0.00  0.00     0.284 C 
ATOM      9  H3  UNL d   1       1.736  -0.039  -0.363  0.00  0.00     0.395 HD
ENDBRANCH   1   7
TORSDOF 1
ENDMDL
