MODEL 1
REMARK minimizedAffinity -3.16359115
REMARK minimizedRMSD -1
REMARK  1 active torsions:
REMARK  status: ('A' for Active; 'I' for Inactive)
REMARK    1  A    between atoms: N_2  and  C1_3 
ROOT
ATOM      1  C1  UNL d   1       0.750  -0.466  -0.621  0.00  0.00     0.143 A 
ATOM      2  C2  UNL d   1       0.817   0.739  -1.328  0.00  0.00    -0.057 A 
ATOM      3  C3  UNL d   1       0.095   1.865  -0.914  0.00  0.00     0.033 A 
ATOM      4  C4  UNL d   1      -0.730   1.797   0.204  0.00  0.00    -0.042 A 
ATOM      5  C5  UNL d   1      -0.831   0.602   0.908  0.00  0.00     0.033 A 
ATOM      6  C6  UNL d   1      -0.103  -0.517   0.493  0.00  0.00    -0.057 A 
ENDROOT
BRANCH   1   7
ATOM      7  N   UNL d   1       1.366  -1.649  -1.038  0.00  0.00    -0.732 N 
ATOM      8  C   UNL d   1       0.655  -2.597  -1.869  0.00  0.00     0.284 C 
ATOM      9  H3  UNL d   1       2.337  -1.507  -1.308  0.00  0.00     0.395 HD
ENDBRANCH   1   7
TORSDOF 1
ENDMDL
