MODEL 1
REMARK minimizedAffinity -4.58790016
REMARK minimizedRMSD -1
REMARK  1 active torsions:
REMARK  status: ('A' for Active; 'I' for Inactive)
REMARK    1  A    between atoms: N_2  and  C1_3 
ROOT
ATOM      1  C1  UNL d   1      -0.148  -0.719  -0.545  0.00  0.00     0.143 A 
ATOM      2  C2  UNL d   1       1.133  -1.258  -0.390  0.00  0.00    -0.057 A 
ATOM      3  C3  UNL d   1       1.549  -2.369  -1.135  0.00  0.00     0.033 A 
ATOM      4  C4  UNL d   1       0.676  -2.979  -2.030  0.00  0.00    -0.042 A 
ATOM      5  C5  UNL d   1      -0.611  -2.476  -2.182  0.00  0.00     0.033 A 
ATOM      6  C6  UNL d   1      -1.018  -1.363  -1.440  0.00  0.00    -0.057 A 
ENDROOT
BRANCH   1   7
ATOM      7  N   UNL d   1      -0.654   0.322   0.238  0.00  0.00    -0.732 N 
ATOM      8  C   UNL d   1      -1.040   0.090   1.613  0.00  0.00     0.284 C 
ATOM      9  H3  UNL d   1      -0.157   1.197   0.087  0.00  0.00     0.395 HD
ENDBRANCH   1   7
TORSDOF 1
ENDMDL
