MODEL 1
REMARK minimizedAffinity -4.62885618
REMARK minimizedRMSD -1
REMARK  1 active torsions:
REMARK  status: ('A' for Active; 'I' for Inactive)
REMARK    1  A    between atoms: N_2  and  C1_3 
ROOT
ATOM      1  C1  UNL d   1       0.263   0.075   0.006  0.00  0.00     0.143 A 
ATOM      2  C2  UNL d   1      -0.400  -0.261   1.192  0.00  0.00    -0.057 A 
ATOM      3  C3  UNL d   1      -1.323   0.612   1.780  0.00  0.00     0.033 A 
ATOM      4  C4  UNL d   1      -1.579   1.853   1.206  0.00  0.00    -0.042 A 
ATOM      5  C5  UNL d   1      -0.913   2.218   0.041  0.00  0.00     0.033 A 
ATOM      6  C6  UNL d   1       0.003   1.339  -0.545  0.00  0.00    -0.057 A 
ENDROOT
BRANCH   1   7
ATOM      7  N   UNL d   1       1.264  -0.708  -0.574  0.00  0.00    -0.732 N 
ATOM      8  C   UNL d   1       0.935  -1.947  -1.246  0.00  0.00     0.284 C 
ATOM      9  H3  UNL d   1       1.966  -0.149  -1.053  0.00  0.00     0.395 HD
ENDBRANCH   1   7
TORSDOF 1
ENDMDL
