MODEL 1
REMARK minimizedAffinity -4.67437887
REMARK minimizedRMSD -1
REMARK  1 active torsions:
REMARK  status: ('A' for Active; 'I' for Inactive)
REMARK    1  A    between atoms: N_2  and  C1_3 
ROOT
ATOM      1  C1  UNL d   1      -0.082   0.185   0.139  0.00  0.00     0.143 A 
ATOM      2  C2  UNL d   1      -0.090   0.140   1.537  0.00  0.00    -0.057 A 
ATOM      3  C3  UNL d   1      -1.023   0.871   2.282  0.00  0.00     0.033 A 
ATOM      4  C4  UNL d   1      -1.949   1.687   1.640  0.00  0.00    -0.042 A 
ATOM      5  C5  UNL d   1      -1.943   1.767   0.252  0.00  0.00     0.033 A 
ATOM      6  C6  UNL d   1      -1.013   1.029  -0.487  0.00  0.00    -0.057 A 
ENDROOT
BRANCH   1   7
ATOM      7  N   UNL d   1       0.883  -0.442  -0.654  0.00  0.00    -0.732 N 
ATOM      8  C   UNL d   1       0.659  -1.774  -1.172  0.00  0.00     0.284 C 
ATOM      9  H3  UNL d   1       1.312   0.196  -1.320  0.00  0.00     0.395 HD
ENDBRANCH   1   7
TORSDOF 1
ENDMDL
