MODEL 1
REMARK minimizedAffinity -4.28721285
REMARK minimizedRMSD -1
REMARK  1 active torsions:
REMARK  status: ('A' for Active; 'I' for Inactive)
REMARK    1  A    between atoms: N_2  and  C1_3 
ROOT
ATOM      1  C1  UNL d   1      -0.404   0.383   0.332  0.00  0.00     0.143 A 
ATOM      2  C2  UNL d   1      -1.095   1.108   1.309  0.00  0.00    -0.057 A 
ATOM      3  C3  UNL d   1      -1.234   2.498   1.219  0.00  0.00     0.033 A 
ATOM      4  C4  UNL d   1      -0.656   3.194   0.162  0.00  0.00    -0.042 A 
ATOM      5  C5  UNL d   1       0.057   2.498  -0.807  0.00  0.00     0.033 A 
ATOM      6  C6  UNL d   1       0.186   1.108  -0.716  0.00  0.00    -0.057 A 
ENDROOT
BRANCH   1   7
ATOM      7  N   UNL d   1      -0.147  -0.987   0.416  0.00  0.00    -0.732 N 
ATOM      8  C   UNL d   1       0.867  -1.600  -0.415  0.00  0.00     0.284 C 
ATOM      9  H3  UNL d   1      -0.159  -1.326   1.375  0.00  0.00     0.395 HD
ENDBRANCH   1   7
TORSDOF 1
ENDMDL
