MODEL 1
REMARK minimizedAffinity -4.17455912
REMARK minimizedRMSD -1
REMARK  1 active torsions:
REMARK  status: ('A' for Active; 'I' for Inactive)
REMARK    1  A    between atoms: N_2  and  C1_3 
ROOT
ATOM      1  C1  UNL d   1       0.057  -0.071   0.042  0.00  0.00     0.143 A 
ATOM      2  C2  UNL d   1       0.047  -0.114   1.440  0.00  0.00    -0.057 A 
ATOM      3  C3  UNL d   1      -0.785   0.730   2.186  0.00  0.00     0.033 A 
ATOM      4  C4  UNL d   1      -1.603   1.655   1.545  0.00  0.00    -0.042 A 
ATOM      5  C5  UNL d   1      -1.591   1.732   0.157  0.00  0.00     0.033 A 
ATOM      6  C6  UNL d   1      -0.763   0.881  -0.583  0.00  0.00    -0.057 A 
ENDROOT
BRANCH   1   7
ATOM      7  N   UNL d   1       0.933  -0.815  -0.753  0.00  0.00    -0.732 N 
ATOM      8  C   UNL d   1       0.426  -1.784  -1.700  0.00  0.00     0.284 C 
ATOM      9  H3  UNL d   1       1.708  -0.258  -1.103  0.00  0.00     0.395 HD
ENDBRANCH   1   7
TORSDOF 1
ENDMDL
