MODEL 1
REMARK minimizedAffinity -4.18274546
REMARK minimizedRMSD -1
REMARK  1 active torsions:
REMARK  status: ('A' for Active; 'I' for Inactive)
REMARK    1  A    between atoms: N_2  and  C1_3 
ROOT
ATOM      1  C1  UNL d   1      -0.056  -0.252   0.075  0.00  0.00     0.143 A 
ATOM      2  C2  UNL d   1      -0.456  -0.661   1.351  0.00  0.00    -0.057 A 
ATOM      3  C3  UNL d   1      -1.300   0.133   2.137  0.00  0.00     0.033 A 
ATOM      4  C4  UNL d   1      -1.737   1.368   1.670  0.00  0.00    -0.042 A 
ATOM      5  C5  UNL d   1      -1.333   1.806   0.414  0.00  0.00     0.033 A 
ATOM      6  C6  UNL d   1      -0.495   1.006  -0.369  0.00  0.00    -0.057 A 
ENDROOT
BRANCH   1   7
ATOM      7  N   UNL d   1       0.860  -0.951  -0.715  0.00  0.00    -0.732 N 
ATOM      8  C   UNL d   1       0.549  -2.275  -1.209  0.00  0.00     0.284 C 
ATOM      9  H3  UNL d   1       1.324  -0.352  -1.394  0.00  0.00     0.395 HD
ENDBRANCH   1   7
TORSDOF 1
ENDMDL
