MODEL 1
REMARK minimizedAffinity -3.07368994
REMARK minimizedRMSD -1
REMARK  1 active torsions:
REMARK  status: ('A' for Active; 'I' for Inactive)
REMARK    1  A    between atoms: N_2  and  C1_3 
ROOT
ATOM      1  C1  UNL d   1       0.713  -0.996  -1.532  0.00  0.00     0.143 A 
ATOM      2  C2  UNL d   1       1.201  -2.020  -0.713  0.00  0.00    -0.057 A 
ATOM      3  C3  UNL d   1       1.117  -3.363  -1.102  0.00  0.00     0.033 A 
ATOM      4  C4  UNL d   1       0.516  -3.708  -2.308  0.00  0.00    -0.042 A 
ATOM      5  C5  UNL d   1       0.002  -2.708  -3.126  0.00  0.00     0.033 A 
ATOM      6  C6  UNL d   1       0.094  -1.369  -2.735  0.00  0.00    -0.057 A 
ENDROOT
BRANCH   1   7
ATOM      7  N   UNL d   1       0.678   0.349  -1.157  0.00  0.00    -0.732 N 
ATOM      8  C   UNL d   1      -0.498   0.908  -0.526  0.00  0.00     0.284 C 
ATOM      9  H3  UNL d   1       1.557   0.662  -0.751  0.00  0.00     0.395 HD
ENDBRANCH   1   7
TORSDOF 1
ENDMDL
