MODEL 1
REMARK minimizedAffinity -3.10207176
REMARK minimizedRMSD -1
REMARK  0 active torsions:
REMARK  status: ('A' for Active; 'I' for Inactive)
ROOT
ATOM      1  N1  IND d   1      -2.790   0.297   0.396  0.00  0.00    -0.196 N 
ATOM      2  C2  IND d   1      -1.800   0.331  -0.546  0.00  0.00     0.054 A 
ATOM      3  C3  IND d   1      -0.592   0.156   0.034  0.00  0.00    -0.031 A 
ATOM      4  C4  IND d   1      -0.013  -0.304   2.500  0.00  0.00     0.051 A 
ATOM      5  C5  IND d   1      -0.578  -0.388   3.742  0.00  0.00    -0.031 A 
ATOM      6  C6  IND d   1      -1.937  -0.248   3.935  0.00  0.00     0.015 A 
ATOM      7  C7  IND d   1      -2.787  -0.029   2.888  0.00  0.00    -0.016 A 
ATOM      8  C8  IND d   1      -2.216   0.064   1.627  0.00  0.00    -0.047 A 
ATOM      9  C9  IND d   1      -0.832  -0.034   1.429  0.00  0.00    -0.096 A 
ATOM     10  HN1 IND d   1      -3.630   0.404   0.246  0.00  0.00     0.298 HD
ENDROOT
TORSDOF 0
ENDMDL
