MODEL 1
REMARK minimizedAffinity 8.64233971
REMARK minimizedRMSD -1
REMARK  0 active torsions:
REMARK  status: ('A' for Active; 'I' for Inactive)
ROOT
ATOM      1  N1  IND d   1      -0.957   0.492   0.436  0.00  0.00    -0.196 N 
ATOM      2  C2  IND d   1      -1.971  -0.267  -0.078  0.00  0.00     0.054 A 
ATOM      3  C3  IND d   1      -2.391  -1.171   0.835  0.00  0.00    -0.031 A 
ATOM      4  C4  IND d   1      -1.626  -1.515   3.269  0.00  0.00     0.051 A 
ATOM      5  C5  IND d   1      -0.700  -1.086   4.178  0.00  0.00    -0.031 A 
ATOM      6  C6  IND d   1       0.204  -0.087   3.881  0.00  0.00     0.015 A 
ATOM      7  C7  IND d   1       0.209   0.531   2.662  0.00  0.00    -0.016 A 
ATOM      8  C8  IND d   1      -0.726   0.093   1.735  0.00  0.00    -0.047 A 
ATOM      9  C9  IND d   1      -1.618  -0.950   2.016  0.00  0.00    -0.096 A 
ATOM     10  HN1 IND d   1      -0.534   1.113   0.019  0.00  0.00     0.298 HD
ENDROOT
TORSDOF 0
ENDMDL
