MODEL 1
REMARK minimizedAffinity 2.89894819
REMARK minimizedRMSD -1
REMARK  0 active torsions:
REMARK  status: ('A' for Active; 'I' for Inactive)
ROOT
ATOM      1  N1  IND d   1      -1.683   0.871   0.568  0.00  0.00    -0.196 N 
ATOM      2  C2  IND d   1      -2.901   0.250   0.599  0.00  0.00     0.054 A 
ATOM      3  C3  IND d   1      -2.896  -0.749   1.511  0.00  0.00    -0.031 A 
ATOM      4  C4  IND d   1      -1.034  -1.472   3.134  0.00  0.00     0.051 A 
ATOM      5  C5  IND d   1       0.272  -1.227   3.454  0.00  0.00    -0.031 A 
ATOM      6  C6  IND d   1       1.007  -0.249   2.816  0.00  0.00     0.015 A 
ATOM      7  C7  IND d   1       0.457   0.532   1.839  0.00  0.00    -0.016 A 
ATOM      8  C8  IND d   1      -0.866   0.282   1.508  0.00  0.00    -0.047 A 
ATOM      9  C9  IND d   1      -1.605  -0.739   2.121  0.00  0.00    -0.096 A 
ATOM     10  HN1 IND d   1      -1.465   1.520   0.049  0.00  0.00     0.298 HD
ENDROOT
TORSDOF 0
ENDMDL
