MODEL 1
REMARK minimizedAffinity -3.44098234
REMARK minimizedRMSD -1
REMARK  0 active torsions:
REMARK  status: ('A' for Active; 'I' for Inactive)
ROOT
ATOM      1  N1  IND d   1       5.944  -1.844   2.258  0.00  0.00    -0.196 N 
ATOM      2  C2  IND d   1       5.994  -0.737   3.057  0.00  0.00     0.054 A 
ATOM      3  C3  IND d   1       5.987  -1.096   4.360  0.00  0.00    -0.031 A 
ATOM      4  C4  IND d   1       6.000  -3.448   5.408  0.00  0.00     0.051 A 
ATOM      5  C5  IND d   1       5.922  -4.773   5.082  0.00  0.00    -0.031 A 
ATOM      6  C6  IND d   1       5.848  -5.198   3.771  0.00  0.00     0.015 A 
ATOM      7  C7  IND d   1       5.862  -4.311   2.733  0.00  0.00    -0.016 A 
ATOM      8  C8  IND d   1       5.934  -2.964   3.060  0.00  0.00    -0.047 A 
ATOM      9  C9  IND d   1       5.966  -2.524   4.390  0.00  0.00    -0.096 A 
ATOM     10  HN1 IND d   1       5.923  -1.842   1.398  0.00  0.00     0.298 HD
ENDROOT
TORSDOF 0
ENDMDL
