MODEL 1
REMARK minimizedAffinity 10.5036621
REMARK minimizedRMSD -1
REMARK  0 active torsions:
REMARK  status: ('A' for Active; 'I' for Inactive)
ROOT
ATOM      1  N1  IND d   1      -1.124   1.135  -0.354  0.00  0.00    -0.196 N 
ATOM      2  C2  IND d   1      -2.234   0.376  -0.602  0.00  0.00     0.054 A 
ATOM      3  C3  IND d   1      -2.521  -0.401   0.467  0.00  0.00    -0.031 A 
ATOM      4  C4  IND d   1      -1.363  -0.517   2.763  0.00  0.00     0.051 A 
ATOM      5  C5  IND d   1      -0.282  -0.039   3.449  0.00  0.00    -0.031 A 
ATOM      6  C6  IND d   1       0.589   0.875   2.893  0.00  0.00     0.015 A 
ATOM      7  C7  IND d   1       0.405   1.356   1.628  0.00  0.00    -0.016 A 
ATOM      8  C8  IND d   1      -0.687   0.868   0.925  0.00  0.00    -0.047 A 
ATOM      9  C9  IND d   1      -1.551  -0.092   1.469  0.00  0.00    -0.096 A 
ATOM     10  HN1 IND d   1      -0.760   1.685  -0.905  0.00  0.00     0.298 HD
ENDROOT
TORSDOF 0
ENDMDL
