MODEL 1
REMARK minimizedAffinity 10.9148178
REMARK minimizedRMSD -1
REMARK  0 active torsions:
REMARK  status: ('A' for Active; 'I' for Inactive)
ROOT
ATOM      1  N1  IND d   1      -1.088   0.881  -0.701  0.00  0.00    -0.196 N 
ATOM      2  C2  IND d   1      -2.376   0.476  -0.486  0.00  0.00     0.054 A 
ATOM      3  C3  IND d   1      -2.485  -0.120   0.723  0.00  0.00    -0.031 A 
ATOM      4  C4  IND d   1      -0.704  -0.445   2.553  0.00  0.00     0.051 A 
ATOM      5  C5  IND d   1       0.629  -0.272   2.802  0.00  0.00    -0.031 A 
ATOM      6  C6  IND d   1       1.474   0.308   1.878  0.00  0.00     0.015 A 
ATOM      7  C7  IND d   1       1.013   0.750   0.670  0.00  0.00    -0.016 A 
ATOM      8  C8  IND d   1      -0.338   0.569   0.411  0.00  0.00    -0.047 A 
ATOM      9  C9  IND d   1      -1.192  -0.057   1.328  0.00  0.00    -0.096 A 
ATOM     10  HN1 IND d   1      -0.796   1.267  -1.412  0.00  0.00     0.298 HD
ENDROOT
TORSDOF 0
ENDMDL
