MODEL 1
REMARK minimizedAffinity 10.186594
REMARK minimizedRMSD -1
REMARK  0 active torsions:
REMARK  status: ('A' for Active; 'I' for Inactive)
ROOT
ATOM      1  N1  IND d   1       0.406   1.335   1.507  0.00  0.00    -0.196 N 
ATOM      2  C2  IND d   1       1.258   1.402   2.574  0.00  0.00     0.054 A 
ATOM      3  C3  IND d   1       0.928   0.473   3.498  0.00  0.00    -0.031 A 
ATOM      4  C4  IND d   1      -0.908  -1.331   3.422  0.00  0.00     0.051 A 
ATOM      5  C5  IND d   1      -1.962  -1.763   2.667  0.00  0.00    -0.031 A 
ATOM      6  C6  IND d   1      -2.285  -1.175   1.461  0.00  0.00     0.015 A 
ATOM      7  C7  IND d   1      -1.556  -0.135   0.958  0.00  0.00    -0.016 A 
ATOM      8  C8  IND d   1      -0.490   0.311   1.725  0.00  0.00    -0.047 A 
ATOM      9  C9  IND d   1      -0.182  -0.254   2.969  0.00  0.00    -0.096 A 
ATOM     10  HN1 IND d   1       0.427   1.846   0.815  0.00  0.00     0.298 HD
ENDROOT
TORSDOF 0
ENDMDL
