MODEL 1
REMARK minimizedAffinity 2.39647746
REMARK minimizedRMSD -1
REMARK  0 active torsions:
REMARK  status: ('A' for Active; 'I' for Inactive)
ROOT
ATOM      1  N1  IND d   1      -0.376   1.279  -0.102  0.00  0.00    -0.196 N 
ATOM      2  C2  IND d   1      -1.298   0.728  -0.948  0.00  0.00     0.054 A 
ATOM      3  C3  IND d   1      -2.053  -0.181  -0.293  0.00  0.00    -0.031 A 
ATOM      4  C4  IND d   1      -2.018  -0.850   2.193  0.00  0.00     0.051 A 
ATOM      5  C5  IND d   1      -1.326  -0.645   3.354  0.00  0.00    -0.031 A 
ATOM      6  C6  IND d   1      -0.262   0.230   3.424  0.00  0.00     0.015 A 
ATOM      7  C7  IND d   1       0.144   0.946   2.333  0.00  0.00    -0.016 A 
ATOM      8  C8  IND d   1      -0.552   0.736   1.151  0.00  0.00    -0.047 A 
ATOM      9  C9  IND d   1      -1.605  -0.183   1.064  0.00  0.00    -0.096 A 
ATOM     10  HN1 IND d   1       0.215   1.866  -0.317  0.00  0.00     0.298 HD
ENDROOT
TORSDOF 0
ENDMDL
