MODEL 1
REMARK minimizedAffinity 1.10315287
REMARK minimizedRMSD -1
REMARK  0 active torsions:
REMARK  status: ('A' for Active; 'I' for Inactive)
ROOT
ATOM      1  N1  IND d   1       1.846   3.993  -1.957  0.00  0.00    -0.196 N 
ATOM      2  C2  IND d   1       2.273   2.990  -1.133  0.00  0.00     0.054 A 
ATOM      3  C3  IND d   1       3.421   2.451  -1.602  0.00  0.00    -0.031 A 
ATOM      4  C4  IND d   1       4.827   3.128  -3.650  0.00  0.00     0.051 A 
ATOM      5  C5  IND d   1       4.824   3.965  -4.730  0.00  0.00    -0.031 A 
ATOM      6  C6  IND d   1       3.808   4.874  -4.944  0.00  0.00     0.015 A 
ATOM      7  C7  IND d   1       2.760   4.989  -4.076  0.00  0.00    -0.016 A 
ATOM      8  C8  IND d   1       2.756   4.136  -2.982  0.00  0.00    -0.047 A 
ATOM      9  C9  IND d   1       3.762   3.181  -2.782  0.00  0.00    -0.096 A 
ATOM     10  HN1 IND d   1       1.130   4.457  -1.854  0.00  0.00     0.298 HD
ENDROOT
TORSDOF 0
ENDMDL
