MODEL 1
REMARK minimizedAffinity 6.2111578
REMARK minimizedRMSD -1
REMARK  0 active torsions:
REMARK  status: ('A' for Active; 'I' for Inactive)
ROOT
ATOM      1  N1  IND d   1      -0.240  -0.554   2.187  0.00  0.00    -0.196 N 
ATOM      2  C2  IND d   1      -0.954  -0.317   3.328  0.00  0.00     0.054 A 
ATOM      3  C3  IND d   1      -2.256  -0.107   3.032  0.00  0.00    -0.031 A 
ATOM      4  C4  IND d   1      -3.453  -0.206   0.755  0.00  0.00     0.051 A 
ATOM      5  C5  IND d   1      -3.214  -0.352  -0.582  0.00  0.00    -0.031 A 
ATOM      6  C6  IND d   1      -1.945  -0.581  -1.075  0.00  0.00     0.015 A 
ATOM      7  C7  IND d   1      -0.866  -0.683  -0.244  0.00  0.00    -0.016 A 
ATOM      8  C8  IND d   1      -1.104  -0.528   1.115  0.00  0.00    -0.047 A 
ATOM      9  C9  IND d   1      -2.383  -0.254   1.617  0.00  0.00    -0.096 A 
ATOM     10  HN1 IND d   1       0.607  -0.696   2.145  0.00  0.00     0.298 HD
ENDROOT
TORSDOF 0
ENDMDL
