MODEL 1
REMARK minimizedAffinity 19.3808403
REMARK minimizedRMSD -1
REMARK  0 active torsions:
REMARK  status: ('A' for Active; 'I' for Inactive)
ROOT
ATOM      1  N1  IND d   1       2.295   5.385  -4.019  0.00  0.00    -0.196 N 
ATOM      2  C2  IND d   1       0.976   5.605  -4.305  0.00  0.00     0.054 A 
ATOM      3  C3  IND d   1       0.497   4.621  -5.098  0.00  0.00    -0.031 A 
ATOM      4  C4  IND d   1       1.670   2.501  -5.966  0.00  0.00     0.051 A 
ATOM      5  C5  IND d   1       2.888   1.881  -6.000  0.00  0.00    -0.031 A 
ATOM      6  C6  IND d   1       3.992   2.407  -5.360  0.00  0.00     0.015 A 
ATOM      7  C7  IND d   1       3.916   3.571  -4.650  0.00  0.00    -0.016 A 
ATOM      8  C8  IND d   1       2.683   4.207  -4.619  0.00  0.00    -0.047 A 
ATOM      9  C9  IND d   1       1.570   3.700  -5.302  0.00  0.00    -0.096 A 
ATOM     10  HN1 IND d   1       2.798   5.896  -3.545  0.00  0.00     0.298 HD
ENDROOT
TORSDOF 0
ENDMDL
