MODEL 1
REMARK minimizedAffinity 8.58431435
REMARK minimizedRMSD -1
REMARK  0 active torsions:
REMARK  status: ('A' for Active; 'I' for Inactive)
ROOT
ATOM      1  N1  IND d   1      -3.329   0.128  -0.812  0.00  0.00    -0.196 N 
ATOM      2  C2  IND d   1      -2.280  -0.402  -1.510  0.00  0.00     0.054 A 
ATOM      3  C3  IND d   1      -1.189  -0.500  -0.717  0.00  0.00    -0.031 A 
ATOM      4  C4  IND d   1      -0.930   0.055   1.784  0.00  0.00     0.051 A 
ATOM      5  C5  IND d   1      -1.602   0.600   2.841  0.00  0.00    -0.031 A 
ATOM      6  C6  IND d   1      -2.912   1.022   2.734  0.00  0.00     0.015 A 
ATOM      7  C7  IND d   1      -3.604   0.903   1.562  0.00  0.00    -0.016 A 
ATOM      8  C8  IND d   1      -2.923   0.356   0.484  0.00  0.00    -0.047 A 
ATOM      9  C9  IND d   1      -1.581  -0.035   0.576  0.00  0.00    -0.096 A 
ATOM     10  HN1 IND d   1      -4.111   0.291  -1.130  0.00  0.00     0.298 HD
ENDROOT
TORSDOF 0
ENDMDL
