MODEL 1
REMARK minimizedAffinity 5.94249153
REMARK minimizedRMSD -1
REMARK  0 active torsions:
REMARK  status: ('A' for Active; 'I' for Inactive)
ROOT
ATOM      1  N1  IND d   1      -2.663   1.758   4.468  0.00  0.00    -0.196 N 
ATOM      2  C2  IND d   1      -1.938   2.832   4.034  0.00  0.00     0.054 A 
ATOM      3  C3  IND d   1      -0.721   2.434   3.601  0.00  0.00    -0.031 A 
ATOM      4  C4  IND d   1       0.254   0.058   3.419  0.00  0.00     0.051 A 
ATOM      5  C5  IND d   1      -0.020  -1.245   3.727  0.00  0.00    -0.031 A 
ATOM      6  C6  IND d   1      -1.214  -1.622   4.307  0.00  0.00     0.015 A 
ATOM      7  C7  IND d   1      -2.188  -0.707   4.591  0.00  0.00    -0.016 A 
ATOM      8  C8  IND d   1      -1.910   0.619   4.286  0.00  0.00    -0.047 A 
ATOM      9  C9  IND d   1      -0.684   1.013   3.737  0.00  0.00    -0.096 A 
ATOM     10  HN1 IND d   1      -3.456   1.788   4.798  0.00  0.00     0.298 HD
ENDROOT
TORSDOF 0
ENDMDL
