MODEL 1
REMARK minimizedAffinity 11.1808634
REMARK minimizedRMSD -1
REMARK  0 active torsions:
REMARK  status: ('A' for Active; 'I' for Inactive)
ROOT
ATOM      1  N1  IND d   1      -2.429   0.876   1.181  0.00  0.00    -0.196 N 
ATOM      2  C2  IND d   1      -3.312  -0.065   0.728  0.00  0.00     0.054 A 
ATOM      3  C3  IND d   1      -2.976  -1.288   1.194  0.00  0.00    -0.031 A 
ATOM      4  C4  IND d   1      -1.077  -1.964   2.796  0.00  0.00     0.051 A 
ATOM      5  C5  IND d   1       0.012  -1.460   3.449  0.00  0.00    -0.031 A 
ATOM      6  C6  IND d   1       0.349  -0.123   3.380  0.00  0.00     0.015 A 
ATOM      7  C7  IND d   1      -0.401   0.764   2.662  0.00  0.00    -0.016 A 
ATOM      8  C8  IND d   1      -1.504   0.254   1.992  0.00  0.00    -0.047 A 
ATOM      9  C9  IND d   1      -1.827  -1.109   2.023  0.00  0.00    -0.096 A 
ATOM     10  HN1 IND d   1      -2.448   1.714   0.992  0.00  0.00     0.298 HD
ENDROOT
TORSDOF 0
ENDMDL
