MODEL 1
REMARK minimizedAffinity 1.85214567
REMARK minimizedRMSD -1
REMARK  0 active torsions:
REMARK  status: ('A' for Active; 'I' for Inactive)
ROOT
ATOM      1  N1  IND d   1       5.969  -5.039   3.646  0.00  0.00    -0.196 N 
ATOM      2  C2  IND d   1       5.972  -5.681   4.854  0.00  0.00     0.054 A 
ATOM      3  C3  IND d   1       6.000  -4.782   5.863  0.00  0.00    -0.031 A 
ATOM      4  C4  IND d   1       5.940  -2.210   5.767  0.00  0.00     0.051 A 
ATOM      5  C5  IND d   1       5.970  -1.164   4.887  0.00  0.00    -0.031 A 
ATOM      6  C6  IND d   1       5.998  -1.361   3.522  0.00  0.00     0.015 A 
ATOM      7  C7  IND d   1       5.987  -2.616   2.982  0.00  0.00    -0.016 A 
ATOM      8  C8  IND d   1       5.964  -3.680   3.872  0.00  0.00    -0.047 A 
ATOM      9  C9  IND d   1       5.978  -3.488   5.259  0.00  0.00    -0.096 A 
ATOM     10  HN1 IND d   1       5.970  -5.420   2.876  0.00  0.00     0.298 HD
ENDROOT
TORSDOF 0
ENDMDL
