MODEL 1
REMARK minimizedAffinity 5.02746868
REMARK minimizedRMSD -1
REMARK  0 active torsions:
REMARK  status: ('A' for Active; 'I' for Inactive)
ROOT
ATOM      1  N1  IND d   1      -1.023   0.428   0.237  0.00  0.00    -0.196 N 
ATOM      2  C2  IND d   1      -2.278   0.063  -0.164  0.00  0.00     0.054 A 
ATOM      3  C3  IND d   1      -2.882  -0.676   0.794  0.00  0.00    -0.031 A 
ATOM      4  C4  IND d   1      -2.036  -1.319   3.139  0.00  0.00     0.051 A 
ATOM      5  C5  IND d   1      -0.935  -1.246   3.944  0.00  0.00    -0.031 A 
ATOM      6  C6  IND d   1       0.216  -0.596   3.548  0.00  0.00     0.015 A 
ATOM      7  C7  IND d   1       0.305   0.018   2.331  0.00  0.00    -0.016 A 
ATOM      8  C8  IND d   1      -0.810  -0.060   1.508  0.00  0.00    -0.047 A 
ATOM      9  C9  IND d   1      -1.965  -0.755   1.887  0.00  0.00    -0.096 A 
ATOM     10  HN1 IND d   1      -0.461   0.886  -0.226  0.00  0.00     0.298 HD
ENDROOT
TORSDOF 0
ENDMDL
