MODEL 1
REMARK minimizedAffinity 8.69280529
REMARK minimizedRMSD -1
REMARK  0 active torsions:
REMARK  status: ('A' for Active; 'I' for Inactive)
ROOT
ATOM      1  N1  IND d   1      -1.880   0.949   0.414  0.00  0.00    -0.196 N 
ATOM      2  C2  IND d   1      -2.591   1.185   1.558  0.00  0.00     0.054 A 
ATOM      3  C3  IND d   1      -1.804   1.020   2.644  0.00  0.00    -0.031 A 
ATOM      4  C4  IND d   1       0.706   0.463   2.775  0.00  0.00     0.051 A 
ATOM      5  C5  IND d   1       1.776   0.123   1.995  0.00  0.00    -0.031 A 
ATOM      6  C6  IND d   1       1.681   0.042   0.621  0.00  0.00     0.015 A 
ATOM      7  C7  IND d   1       0.509   0.311  -0.029  0.00  0.00    -0.016 A 
ATOM      8  C8  IND d   1      -0.581   0.649   0.760  0.00  0.00    -0.047 A 
ATOM      9  C9  IND d   1      -0.501   0.691   2.158  0.00  0.00    -0.096 A 
ATOM     10  HN1 IND d   1      -2.192   0.983  -0.386  0.00  0.00     0.298 HD
ENDROOT
TORSDOF 0
ENDMDL
