MODEL 1
REMARK minimizedAffinity 12.4350471
REMARK minimizedRMSD -1
REMARK  0 active torsions:
REMARK  status: ('A' for Active; 'I' for Inactive)
ROOT
ATOM      1  N1  IND d   1       1.751   2.471   0.053  0.00  0.00    -0.196 N 
ATOM      2  C2  IND d   1       3.095   2.705   0.148  0.00  0.00     0.054 A 
ATOM      3  C3  IND d   1       3.488   2.665   1.441  0.00  0.00    -0.031 A 
ATOM      4  C4  IND d   1       2.116   2.132   3.553  0.00  0.00     0.051 A 
ATOM      5  C5  IND d   1       0.840   1.889   3.975  0.00  0.00    -0.031 A 
ATOM      6  C6  IND d   1      -0.220   1.823   3.093  0.00  0.00     0.015 A 
ATOM      7  C7  IND d   1      -0.039   1.987   1.749  0.00  0.00    -0.016 A 
ATOM      8  C8  IND d   1       1.255   2.242   1.317  0.00  0.00    -0.047 A 
ATOM      9  C9  IND d   1       2.328   2.352   2.212  0.00  0.00    -0.096 A 
ATOM     10  HN1 IND d   1       1.293   2.468  -0.675  0.00  0.00     0.298 HD
ENDROOT
TORSDOF 0
ENDMDL
