MODEL 1
REMARK minimizedAffinity -0.26328823
REMARK minimizedRMSD -1
REMARK  2 active torsions:
REMARK  status: ('A' for Active; 'I' for Inactive)
REMARK    1  A    between atoms: C1_2  and  C2_3 
REMARK    2  A    between atoms: C2_3  and  C3_4 
ROOT
ATOM      1  C3  UNL d   1      -1.696  -0.824   0.165  0.00  0.00    -0.075 A 
ATOM      2  C4  UNL d   1      -0.414  -1.035   0.693  0.00  0.00     0.002 A 
ATOM      3  C5  UNL d   1      -0.067  -0.514   1.940  0.00  0.00     0.002 A 
ATOM      4  C6  UNL d   1      -0.991   0.231   2.668  0.00  0.00    -0.004 A 
ATOM      5  C7  UNL d   1      -2.262   0.461   2.146  0.00  0.00     0.002 A 
ATOM      6  C8  UNL d   1      -2.614  -0.063   0.901  0.00  0.00     0.002 A 
ENDROOT
BRANCH   1   7
ATOM      7  C2  UNL d   1      -2.088  -1.411  -1.171  0.00  0.00     0.056 C 
BRANCH   7   8
ATOM      8  C1  UNL d   1      -0.936  -2.097  -1.912  0.00  0.00     0.007 C 
ATOM      9  C   UNL d   1      -0.814  -1.662  -3.367  0.00  0.00     0.009 C 
ENDBRANCH   7   8
ENDBRANCH   1   7
TORSDOF 2
ENDMDL
