MODEL 1
REMARK minimizedAffinity -0.755788505
REMARK minimizedRMSD -1
REMARK  2 active torsions:
REMARK  status: ('A' for Active; 'I' for Inactive)
REMARK    1  A    between atoms: C1_2  and  C2_3 
REMARK    2  A    between atoms: C2_3  and  C3_4 
ROOT
ATOM      1  C3  UNL d   1       0.149  -1.067   2.669  0.00  0.00    -0.075 A 
ATOM      2  C4  UNL d   1      -0.826  -1.992   3.070  0.00  0.00     0.002 A 
ATOM      3  C5  UNL d   1      -2.158  -1.827   2.689  0.00  0.00     0.002 A 
ATOM      4  C6  UNL d   1      -2.533  -0.732   1.914  0.00  0.00    -0.004 A 
ATOM      5  C7  UNL d   1      -1.576   0.202   1.524  0.00  0.00     0.002 A 
ATOM      6  C8  UNL d   1      -0.241   0.037   1.900  0.00  0.00     0.002 A 
ENDROOT
BRANCH   1   7
ATOM      7  C2  UNL d   1       1.598  -1.256   3.053  0.00  0.00     0.056 C 
BRANCH   7   8
ATOM      8  C1  UNL d   1       1.838  -1.327   4.565  0.00  0.00     0.007 C 
ATOM      9  C   UNL d   1       0.869  -0.470   5.368  0.00  0.00     0.009 C 
ENDBRANCH   7   8
ENDBRANCH   1   7
TORSDOF 2
ENDMDL
