MODEL 1
REMARK minimizedAffinity -2.09979773
REMARK minimizedRMSD -1
REMARK  2 active torsions:
REMARK  status: ('A' for Active; 'I' for Inactive)
REMARK    1  A    between atoms: C1_2  and  C2_3 
REMARK    2  A    between atoms: C2_3  and  C3_4 
ROOT
ATOM      1  C3  UNL d   1       0.359  -1.086   2.689  0.00  0.00    -0.075 A 
ATOM      2  C4  UNL d   1      -0.721  -1.975   2.792  0.00  0.00     0.002 A 
ATOM      3  C5  UNL d   1      -2.005  -1.575   2.424  0.00  0.00     0.002 A 
ATOM      4  C6  UNL d   1      -2.229  -0.280   1.960  0.00  0.00    -0.004 A 
ATOM      5  C7  UNL d   1      -1.166   0.616   1.869  0.00  0.00     0.002 A 
ATOM      6  C8  UNL d   1       0.121   0.217   2.232  0.00  0.00     0.002 A 
ENDROOT
BRANCH   1   7
ATOM      7  C2  UNL d   1       1.757  -1.523   3.058  0.00  0.00     0.056 C 
BRANCH   7   8
ATOM      8  C1  UNL d   1       2.270  -0.926   4.373  0.00  0.00     0.007 C 
ATOM      9  C   UNL d   1       1.253  -1.003   5.504  0.00  0.00     0.009 C 
ENDBRANCH   7   8
ENDBRANCH   1   7
TORSDOF 2
ENDMDL
