MODEL 1
REMARK minimizedAffinity 3.65509057
REMARK minimizedRMSD -1
REMARK  2 active torsions:
REMARK  status: ('A' for Active; 'I' for Inactive)
REMARK    1  A    between atoms: C1_2  and  C2_3 
REMARK    2  A    between atoms: C2_3  and  C3_4 
ROOT
ATOM      1  C3  UNL d   1       0.620  -1.455   2.792  0.00  0.00    -0.075 A 
ATOM      2  C4  UNL d   1       0.570  -0.138   2.313  0.00  0.00     0.002 A 
ATOM      3  C5  UNL d   1      -0.583   0.348   1.697  0.00  0.00     0.002 A 
ATOM      4  C6  UNL d   1      -1.695  -0.477   1.542  0.00  0.00    -0.004 A 
ATOM      5  C7  UNL d   1      -1.650  -1.792   1.999  0.00  0.00     0.002 A 
ATOM      6  C8  UNL d   1      -0.499  -2.280   2.621  0.00  0.00     0.002 A 
ENDROOT
BRANCH   1   7
ATOM      7  C2  UNL d   1       1.855  -1.978   3.487  0.00  0.00     0.056 C 
BRANCH   7   8
ATOM      8  C1  UNL d   1       2.296  -1.139   4.691  0.00  0.00     0.007 C 
ATOM      9  C   UNL d   1       1.496  -1.434   5.953  0.00  0.00     0.009 C 
ENDBRANCH   7   8
ENDBRANCH   1   7
TORSDOF 2
ENDMDL
