MODEL 1
REMARK minimizedAffinity 5.05219412
REMARK minimizedRMSD -1
REMARK  2 active torsions:
REMARK  status: ('A' for Active; 'I' for Inactive)
REMARK    1  A    between atoms: C1_2  and  C2_3 
REMARK    2  A    between atoms: C2_3  and  C3_4 
ROOT
ATOM      1  C3  UNL d   1       1.344  -1.501   2.961  0.00  0.00    -0.075 A 
ATOM      2  C4  UNL d   1       1.114  -0.169   2.588  0.00  0.00     0.002 A 
ATOM      3  C5  UNL d   1      -0.068   0.191   1.939  0.00  0.00     0.002 A 
ATOM      4  C6  UNL d   1      -1.028  -0.775   1.647  0.00  0.00    -0.004 A 
ATOM      5  C7  UNL d   1      -0.803  -2.104   1.999  0.00  0.00     0.002 A 
ATOM      6  C8  UNL d   1       0.377  -2.466   2.651  0.00  0.00     0.002 A 
ENDROOT
BRANCH   1   7
ATOM      7  C2  UNL d   1       2.608  -1.892   3.689  0.00  0.00     0.056 C 
BRANCH   7   8
ATOM      8  C1  UNL d   1       2.757  -1.246   5.070  0.00  0.00     0.007 C 
ATOM      9  C   UNL d   1       1.587  -1.539   6.000  0.00  0.00     0.009 C 
ENDBRANCH   7   8
ENDBRANCH   1   7
TORSDOF 2
ENDMDL
