MODEL 1
REMARK minimizedAffinity 2.48606658
REMARK minimizedRMSD -1
REMARK  2 active torsions:
REMARK  status: ('A' for Active; 'I' for Inactive)
REMARK    1  A    between atoms: C1_2  and  C2_3 
REMARK    2  A    between atoms: C2_3  and  C3_4 
ROOT
ATOM      1  C3  UNL d   1       3.343  -0.454  -5.199  0.00  0.00    -0.075 A 
ATOM      2  C4  UNL d   1       3.536  -0.692  -3.830  0.00  0.00     0.002 A 
ATOM      3  C5  UNL d   1       4.813  -0.625  -3.273  0.00  0.00     0.002 A 
ATOM      4  C6  UNL d   1       5.912  -0.330  -4.077  0.00  0.00    -0.004 A 
ATOM      5  C7  UNL d   1       5.734  -0.108  -5.440  0.00  0.00     0.002 A 
ATOM      6  C8  UNL d   1       4.457  -0.170  -6.000  0.00  0.00     0.002 A 
ENDROOT
BRANCH   1   7
ATOM      7  C2  UNL d   1       1.959  -0.497  -5.802  0.00  0.00     0.056 C 
BRANCH   7   8
ATOM      8  C1  UNL d   1       0.838  -0.697  -4.778  0.00  0.00     0.007 C 
ATOM      9  C   UNL d   1      -0.465  -1.182  -5.401  0.00  0.00     0.009 C 
ENDBRANCH   7   8
ENDBRANCH   1   7
TORSDOF 2
ENDMDL
