MODEL 1
REMARK minimizedAffinity -1.32142198
REMARK minimizedRMSD -1
REMARK  2 active torsions:
REMARK  status: ('A' for Active; 'I' for Inactive)
REMARK    1  A    between atoms: C1_2  and  C2_3 
REMARK    2  A    between atoms: C2_3  and  C3_4 
ROOT
ATOM      1  C3  UNL d   1      -1.066  -1.793  -0.670  0.00  0.00    -0.075 A 
ATOM      2  C4  UNL d   1      -0.198  -1.320   0.325  0.00  0.00     0.002 A 
ATOM      3  C5  UNL d   1      -0.667  -0.476   1.332  0.00  0.00     0.002 A 
ATOM      4  C6  UNL d   1      -2.004  -0.086   1.352  0.00  0.00    -0.004 A 
ATOM      5  C7  UNL d   1      -2.872  -0.536   0.359  0.00  0.00     0.002 A 
ATOM      6  C8  UNL d   1      -2.406  -1.385  -0.647  0.00  0.00     0.002 A 
ENDROOT
BRANCH   1   7
ATOM      7  C2  UNL d   1      -0.571  -2.730  -1.745  0.00  0.00     0.056 C 
BRANCH   7   8
ATOM      8  C1  UNL d   1       0.644  -2.206  -2.518  0.00  0.00     0.007 C 
ATOM      9  C   UNL d   1       0.293  -1.678  -3.903  0.00  0.00     0.009 C 
ENDBRANCH   7   8
ENDBRANCH   1   7
TORSDOF 2
ENDMDL
