MODEL 1
REMARK minimizedAffinity 18.4507256
REMARK minimizedRMSD -1
REMARK  0 active torsions:
REMARK  status: ('A' for Active; 'I' for Inactive)
ROOT
ATOM      1  C4' PXY d   1       3.787  -1.256   1.023  0.00  0.00     0.077 C 
ATOM      2  C1' PXY d   1       3.673  -6.000  -2.278  0.00  0.00     0.077 C 
ATOM      3  C1  PXY d   1       3.716  -4.756  -1.412  0.00  0.00    -0.082 A 
ATOM      4  C2  PXY d   1       2.659  -4.427  -0.688  0.00  0.00     0.003 A 
ATOM      5  C3  PXY d   1       2.669  -3.288   0.076  0.00  0.00     0.003 A 
ATOM      6  C4  PXY d   1       3.792  -2.507   0.141  0.00  0.00    -0.082 A 
ATOM      7  C5  PXY d   1       4.878  -2.843  -0.587  0.00  0.00     0.003 A 
ATOM      8  C6  PXY d   1       4.833  -3.980  -1.388  0.00  0.00     0.003 A 
ENDROOT
TORSDOF 0
ENDMDL
