MODEL 1
REMARK minimizedAffinity 9.03104019
REMARK minimizedRMSD -1
REMARK  0 active torsions:
REMARK  status: ('A' for Active; 'I' for Inactive)
ROOT
ATOM      1  C4' PXY d   1       0.333  -1.914   2.136  0.00  0.00     0.077 C 
ATOM      2  C1' PXY d   1      -4.782   0.780   2.182  0.00  0.00     0.077 C 
ATOM      3  C1  PXY d   1      -3.446   0.062   2.174  0.00  0.00    -0.082 A 
ATOM      4  C2  PXY d   1      -2.327   0.763   2.263  0.00  0.00     0.003 A 
ATOM      5  C3  PXY d   1      -1.110   0.132   2.225  0.00  0.00     0.003 A 
ATOM      6  C4  PXY d   1      -1.038  -1.233   2.149  0.00  0.00    -0.082 A 
ATOM      7  C5  PXY d   1      -2.176  -1.955   2.070  0.00  0.00     0.003 A 
ATOM      8  C6  PXY d   1      -3.401  -1.293   2.068  0.00  0.00     0.003 A 
ENDROOT
TORSDOF 0
ENDMDL
