MODEL 1
REMARK minimizedAffinity 4.04373789
REMARK minimizedRMSD -1
REMARK  0 active torsions:
REMARK  status: ('A' for Active; 'I' for Inactive)
ROOT
ATOM      1  C4' PXY d   1      -0.204   4.482  -3.496  0.00  0.00     0.077 C 
ATOM      2  C1' PXY d   1      -5.191   5.998  -5.995  0.00  0.00     0.077 C 
ATOM      3  C1  PXY d   1      -3.877   5.600  -5.352  0.00  0.00    -0.082 A 
ATOM      4  C2  PXY d   1      -3.880   5.037  -4.154  0.00  0.00     0.003 A 
ATOM      5  C3  PXY d   1      -2.699   4.700  -3.544  0.00  0.00     0.003 A 
ATOM      6  C4  PXY d   1      -1.506   4.892  -4.188  0.00  0.00    -0.082 A 
ATOM      7  C5  PXY d   1      -1.496   5.456  -5.415  0.00  0.00     0.003 A 
ATOM      8  C6  PXY d   1      -2.703   5.829  -6.000  0.00  0.00     0.003 A 
ENDROOT
TORSDOF 0
ENDMDL
