MODEL 1
REMARK minimizedAffinity 7.88143301
REMARK minimizedRMSD -1
REMARK  0 active torsions:
REMARK  status: ('A' for Active; 'I' for Inactive)
ROOT
ATOM      1  C4' PXY d   1      -5.102   0.706   2.124  0.00  0.00     0.077 C 
ATOM      2  C1' PXY d   1       0.129  -1.686   2.689  0.00  0.00     0.077 C 
ATOM      3  C1  PXY d   1      -1.245  -1.060   2.554  0.00  0.00    -0.082 A 
ATOM      4  C2  PXY d   1      -1.872  -1.104   1.390  0.00  0.00     0.003 A 
ATOM      5  C3  PXY d   1      -3.101  -0.515   1.241  0.00  0.00     0.003 A 
ATOM      6  C4  PXY d   1      -3.718   0.079   2.309  0.00  0.00    -0.082 A 
ATOM      7  C5  PXY d   1      -3.089   0.119   3.503  0.00  0.00     0.003 A 
ATOM      8  C6  PXY d   1      -1.824  -0.449   3.623  0.00  0.00     0.003 A 
ENDROOT
TORSDOF 0
ENDMDL
