MODEL 1
REMARK minimizedAffinity 4.00961828
REMARK minimizedRMSD -1
REMARK  0 active torsions:
REMARK  status: ('A' for Active; 'I' for Inactive)
ROOT
ATOM      1  C4' PXY d   1      -2.289   0.734   4.476  0.00  0.00     0.077 C 
ATOM      2  C1' PXY d   1      -1.330  -2.708  -0.068  0.00  0.00     0.077 C 
ATOM      3  C1  PXY d   1      -1.594  -1.804   1.120  0.00  0.00    -0.082 A 
ATOM      4  C2  PXY d   1      -0.595  -1.127   1.662  0.00  0.00     0.003 A 
ATOM      5  C3  PXY d   1      -0.810  -0.330   2.757  0.00  0.00     0.003 A 
ATOM      6  C4  PXY d   1      -2.071  -0.183   3.269  0.00  0.00    -0.082 A 
ATOM      7  C5  PXY d   1      -3.097  -0.862   2.716  0.00  0.00     0.003 A 
ATOM      8  C6  PXY d   1      -2.851  -1.698   1.630  0.00  0.00     0.003 A 
ENDROOT
TORSDOF 0
ENDMDL
