MODEL 1
REMARK minimizedAffinity -2.11600852
REMARK minimizedRMSD -1
REMARK  0 active torsions:
REMARK  status: ('A' for Active; 'I' for Inactive)
ROOT
ATOM      1  C4' PXY d   1      -5.243  -2.329   2.625  0.00  0.00     0.077 C 
ATOM      2  C1' PXY d   1      -3.341   1.961   6.000  0.00  0.00     0.077 C 
ATOM      3  C1  PXY d   1      -3.842   0.829   5.125  0.00  0.00    -0.082 A 
ATOM      4  C2  PXY d   1      -3.431   0.740   3.871  0.00  0.00     0.003 A 
ATOM      5  C3  PXY d   1      -3.899  -0.259   3.057  0.00  0.00     0.003 A 
ATOM      6  C4  PXY d   1      -4.756  -1.208   3.547  0.00  0.00    -0.082 A 
ATOM      7  C5  PXY d   1      -5.172  -1.130   4.829  0.00  0.00     0.003 A 
ATOM      8  C6  PXY d   1      -4.717  -0.085   5.627  0.00  0.00     0.003 A 
ENDROOT
TORSDOF 0
ENDMDL
