MODEL 1
REMARK minimizedAffinity 6.84206915
REMARK minimizedRMSD -1
REMARK  0 active torsions:
REMARK  status: ('A' for Active; 'I' for Inactive)
ROOT
ATOM      1  C4' PXY d   1       4.839   1.595   1.157  0.00  0.00     0.077 C 
ATOM      2  C1' PXY d   1       3.453  -3.772  -0.485  0.00  0.00     0.077 C 
ATOM      3  C1  PXY d   1       3.807  -2.364  -0.046  0.00  0.00    -0.082 A 
ATOM      4  C2  PXY d   1       4.495  -1.579  -0.858  0.00  0.00     0.003 A 
ATOM      5  C3  PXY d   1       4.851  -0.315  -0.464  0.00  0.00     0.003 A 
ATOM      6  C4  PXY d   1       4.452   0.170   0.752  0.00  0.00    -0.082 A 
ATOM      7  C5  PXY d   1       3.740  -0.621   1.582  0.00  0.00     0.003 A 
ATOM      8  C6  PXY d   1       3.424  -1.916   1.181  0.00  0.00     0.003 A 
ENDROOT
TORSDOF 0
ENDMDL
