MODEL 1
REMARK minimizedAffinity -2.5897181
REMARK minimizedRMSD -1
REMARK  0 active torsions:
REMARK  status: ('A' for Active; 'I' for Inactive)
ROOT
ATOM      1  C4' PXY d   1      -2.376   1.507   5.480  0.00  0.00     0.077 C 
ATOM      2  C1' PXY d   1      -5.057  -2.881   2.838  0.00  0.00     0.077 C 
ATOM      3  C1  PXY d   1      -4.343  -1.732   3.524  0.00  0.00    -0.082 A 
ATOM      4  C2  PXY d   1      -4.713  -1.364   4.740  0.00  0.00     0.003 A 
ATOM      5  C3  PXY d   1      -4.100  -0.307   5.361  0.00  0.00     0.003 A 
ATOM      6  C4  PXY d   1      -3.062   0.347   4.753  0.00  0.00    -0.082 A 
ATOM      7  C5  PXY d   1      -2.672  -0.029   3.517  0.00  0.00     0.003 A 
ATOM      8  C6  PXY d   1      -3.334  -1.078   2.886  0.00  0.00     0.003 A 
ENDROOT
TORSDOF 0
ENDMDL
