MODEL 1
REMARK minimizedAffinity 4.27339888
REMARK minimizedRMSD -1
REMARK  0 active torsions:
REMARK  status: ('A' for Active; 'I' for Inactive)
ROOT
ATOM      1  C4' PXY d   1      -1.895   1.359   6.000  0.00  0.00     0.077 C 
ATOM      2  C1' PXY d   1      -5.805  -1.131   2.546  0.00  0.00     0.077 C 
ATOM      3  C1  PXY d   1      -4.789  -0.474   3.460  0.00  0.00    -0.082 A 
ATOM      4  C2  PXY d   1      -3.627  -0.077   2.968  0.00  0.00     0.003 A 
ATOM      5  C3  PXY d   1      -2.684   0.490   3.787  0.00  0.00     0.003 A 
ATOM      6  C4  PXY d   1      -2.954   0.700   5.112  0.00  0.00    -0.082 A 
ATOM      7  C5  PXY d   1      -4.142   0.307   5.620  0.00  0.00     0.003 A 
ATOM      8  C6  PXY d   1      -5.069  -0.304   4.780  0.00  0.00     0.003 A 
ENDROOT
TORSDOF 0
ENDMDL
