MODEL 1
REMARK minimizedAffinity 10.5684748
REMARK minimizedRMSD -1
REMARK  0 active torsions:
REMARK  status: ('A' for Active; 'I' for Inactive)
ROOT
ATOM      1  C4' PXY d   1      -6.000  -2.588   3.028  0.00  0.00     0.077 C 
ATOM      2  C1' PXY d   1      -3.438   1.657   6.000  0.00  0.00     0.077 C 
ATOM      3  C1  PXY d   1      -4.107   0.550   5.209  0.00  0.00    -0.082 A 
ATOM      4  C2  PXY d   1      -4.987  -0.238   5.804  0.00  0.00     0.003 A 
ATOM      5  C3  PXY d   1      -5.579  -1.264   5.113  0.00  0.00     0.003 A 
ATOM      6  C4  PXY d   1      -5.306  -1.452   3.784  0.00  0.00    -0.082 A 
ATOM      7  C5  PXY d   1      -4.417  -0.644   3.167  0.00  0.00     0.003 A 
ATOM      8  C6  PXY d   1      -3.797   0.365   3.897  0.00  0.00     0.003 A 
ENDROOT
TORSDOF 0
ENDMDL
