MODEL 1
REMARK minimizedAffinity 2.22205997
REMARK minimizedRMSD -1
REMARK  0 active torsions:
REMARK  status: ('A' for Active; 'I' for Inactive)
ROOT
ATOM      1  C4' PXY d   1      -0.800   5.256  -5.998  0.00  0.00     0.077 C 
ATOM      2  C1' PXY d   1      -5.999   5.315  -3.471  0.00  0.00     0.077 C 
ATOM      3  C1  PXY d   1      -4.630   5.301  -4.122  0.00  0.00    -0.082 A 
ATOM      4  C2  PXY d   1      -4.503   5.670  -5.386  0.00  0.00     0.003 A 
ATOM      5  C3  PXY d   1      -3.277   5.632  -6.000  0.00  0.00     0.003 A 
ATOM      6  C4  PXY d   1      -2.162   5.264  -5.297  0.00  0.00    -0.082 A 
ATOM      7  C5  PXY d   1      -2.282   4.897  -4.003  0.00  0.00     0.003 A 
ATOM      8  C6  PXY d   1      -3.541   4.902  -3.411  0.00  0.00     0.003 A 
ENDROOT
TORSDOF 0
ENDMDL
