MODEL 1
REMARK minimizedAffinity 2.25441933
REMARK minimizedRMSD -1
REMARK  0 active torsions:
REMARK  status: ('A' for Active; 'I' for Inactive)
ROOT
ATOM      1  C4' PXY d   1      -0.343  -0.233   2.261  0.00  0.00     0.077 C 
ATOM      2  C1' PXY d   1      -5.833  -0.459   4.059  0.00  0.00     0.077 C 
ATOM      3  C1  PXY d   1      -4.392  -0.388   3.593  0.00  0.00    -0.082 A 
ATOM      4  C2  PXY d   1      -4.015  -1.070   2.524  0.00  0.00     0.003 A 
ATOM      5  C3  PXY d   1      -2.709  -1.043   2.108  0.00  0.00     0.003 A 
ATOM      6  C4  PXY d   1      -1.790  -0.267   2.762  0.00  0.00    -0.082 A 
ATOM      7  C5  PXY d   1      -2.169   0.441   3.847  0.00  0.00     0.003 A 
ATOM      8  C6  PXY d   1      -3.490   0.367   4.278  0.00  0.00     0.003 A 
ENDROOT
TORSDOF 0
ENDMDL
