MODEL 1
REMARK minimizedAffinity 8.66844177
REMARK minimizedRMSD -1
REMARK  0 active torsions:
REMARK  status: ('A' for Active; 'I' for Inactive)
ROOT
ATOM      1  C4' PXY d   1      -6.000   5.583  -4.988  0.00  0.00     0.077 C 
ATOM      2  C1' PXY d   1      -0.224   5.349  -4.949  0.00  0.00     0.077 C 
ATOM      3  C1  PXY d   1      -1.739   5.400  -4.951  0.00  0.00    -0.082 A 
ATOM      4  C2  PXY d   1      -2.375   5.916  -5.990  0.00  0.00     0.003 A 
ATOM      5  C3  PXY d   1      -3.744   6.000  -5.994  0.00  0.00     0.003 A 
ATOM      6  C4  PXY d   1      -4.471   5.502  -4.947  0.00  0.00    -0.082 A 
ATOM      7  C5  PXY d   1      -3.830   4.964  -3.888  0.00  0.00     0.003 A 
ATOM      8  C6  PXY d   1      -2.439   4.926  -3.885  0.00  0.00     0.003 A 
ENDROOT
TORSDOF 0
ENDMDL
