MODEL 1
REMARK minimizedAffinity 0.273754805
REMARK minimizedRMSD -1
REMARK  0 active torsions:
REMARK  status: ('A' for Active; 'I' for Inactive)
ROOT
ATOM      1  C4' PXY d   1       2.761   2.181  -2.462  0.00  0.00     0.077 C 
ATOM      2  C1' PXY d   1       5.766   3.585   2.273  0.00  0.00     0.077 C 
ATOM      3  C1  PXY d   1       4.973   3.206   1.037  0.00  0.00    -0.082 A 
ATOM      4  C2  PXY d   1       5.337   3.679  -0.144  0.00  0.00     0.003 A 
ATOM      5  C3  PXY d   1       4.613   3.372  -1.267  0.00  0.00     0.003 A 
ATOM      6  C4  PXY d   1       3.537   2.530  -1.188  0.00  0.00    -0.082 A 
ATOM      7  C5  PXY d   1       3.166   2.034   0.011  0.00  0.00     0.003 A 
ATOM      8  C6  PXY d   1       3.889   2.391   1.145  0.00  0.00     0.003 A 
ENDROOT
TORSDOF 0
ENDMDL
