MODEL 1
REMARK minimizedAffinity 7.23002672
REMARK minimizedRMSD -1
REMARK  0 active torsions:
REMARK  status: ('A' for Active; 'I' for Inactive)
ROOT
ATOM      1  C4' PXY d   1      -0.715  -0.842   1.526  0.00  0.00     0.077 C 
ATOM      2  C1' PXY d   1      -4.126   0.796   5.896  0.00  0.00     0.077 C 
ATOM      3  C1  PXY d   1      -3.241   0.358   4.746  0.00  0.00    -0.082 A 
ATOM      4  C2  PXY d   1      -1.929   0.503   4.839  0.00  0.00     0.003 A 
ATOM      5  C3  PXY d   1      -1.116   0.142   3.795  0.00  0.00     0.003 A 
ATOM      6  C4  PXY d   1      -1.647  -0.422   2.667  0.00  0.00    -0.082 A 
ATOM      7  C5  PXY d   1      -2.983  -0.584   2.569  0.00  0.00     0.003 A 
ATOM      8  C6  PXY d   1      -3.795  -0.173   3.623  0.00  0.00     0.003 A 
ENDROOT
TORSDOF 0
ENDMDL
