MODEL 1
REMARK minimizedAffinity 6.84051704
REMARK minimizedRMSD -1
REMARK  0 active torsions:
REMARK  status: ('A' for Active; 'I' for Inactive)
ROOT
ATOM      1  C4' PXY d   1      -2.987   0.454   6.000  0.00  0.00     0.077 C 
ATOM      2  C1' PXY d   1      -1.629  -0.724   0.506  0.00  0.00     0.077 C 
ATOM      3  C1  PXY d   1      -1.994  -0.406   1.943  0.00  0.00    -0.082 A 
ATOM      4  C2  PXY d   1      -1.111  -0.620   2.904  0.00  0.00     0.003 A 
ATOM      5  C3  PXY d   1      -1.436  -0.369   4.213  0.00  0.00     0.003 A 
ATOM      6  C4  PXY d   1      -2.658   0.157   4.534  0.00  0.00    -0.082 A 
ATOM      7  C5  PXY d   1      -3.561   0.388   3.557  0.00  0.00     0.003 A 
ATOM      8  C6  PXY d   1      -3.227   0.087   2.240  0.00  0.00     0.003 A 
ENDROOT
TORSDOF 0
ENDMDL
