MODEL 1
REMARK minimizedAffinity 7.10760069
REMARK minimizedRMSD -1
REMARK  0 active torsions:
REMARK  status: ('A' for Active; 'I' for Inactive)
ROOT
ATOM      1  C4' PXY d   1      -5.984   5.653  -3.002  0.00  0.00     0.077 C 
ATOM      2  C1' PXY d   1      -1.041   5.617  -5.999  0.00  0.00     0.077 C 
ATOM      3  C1  PXY d   1      -2.332   5.618  -5.205  0.00  0.00    -0.082 A 
ATOM      4  C2  PXY d   1      -3.464   5.962  -5.797  0.00  0.00     0.003 A 
ATOM      5  C3  PXY d   1      -4.636   5.999  -5.085  0.00  0.00     0.003 A 
ATOM      6  C4  PXY d   1      -4.658   5.629  -3.767  0.00  0.00    -0.082 A 
ATOM      7  C5  PXY d   1      -3.509   5.266  -3.159  0.00  0.00     0.003 A 
ATOM      8  C6  PXY d   1      -2.324   5.274  -3.888  0.00  0.00     0.003 A 
ENDROOT
TORSDOF 0
ENDMDL
