MODEL 1
REMARK minimizedAffinity 4.48719406
REMARK minimizedRMSD -1
REMARK  0 active torsions:
REMARK  status: ('A' for Active; 'I' for Inactive)
ROOT
ATOM      1  C4' PXY d   1      -5.994   5.629  -3.745  0.00  0.00     0.077 C 
ATOM      2  C1' PXY d   1      -0.555   5.975  -5.671  0.00  0.00     0.077 C 
ATOM      3  C1  PXY d   1      -1.977   5.877  -5.155  0.00  0.00    -0.082 A 
ATOM      4  C2  PXY d   1      -2.989   6.000  -6.000  0.00  0.00     0.003 A 
ATOM      5  C3  PXY d   1      -4.282   5.946  -5.546  0.00  0.00     0.003 A 
ATOM      6  C4  PXY d   1      -4.542   5.712  -4.222  0.00  0.00    -0.082 A 
ATOM      7  C5  PXY d   1      -3.515   5.575  -3.356  0.00  0.00     0.003 A 
ATOM      8  C6  PXY d   1      -2.211   5.674  -3.830  0.00  0.00     0.003 A 
ENDROOT
TORSDOF 0
ENDMDL
