MODEL 1
REMARK minimizedAffinity 9.77887249
REMARK minimizedRMSD -1
REMARK  0 active torsions:
REMARK  status: ('A' for Active; 'I' for Inactive)
ROOT
ATOM      1  C4' PXY d   1       3.752   2.985  -5.188  0.00  0.00     0.077 C 
ATOM      2  C1' PXY d   1       5.881   4.286   0.027  0.00  0.00     0.077 C 
ATOM      3  C1  PXY d   1       5.315   3.935  -1.335  0.00  0.00    -0.082 A 
ATOM      4  C2  PXY d   1       5.994   4.251  -2.426  0.00  0.00     0.003 A 
ATOM      5  C3  PXY d   1       5.482   3.970  -3.667  0.00  0.00     0.003 A 
ATOM      6  C4  PXY d   1       4.289   3.311  -3.791  0.00  0.00    -0.082 A 
ATOM      7  C5  PXY d   1       3.595   2.976  -2.683  0.00  0.00     0.003 A 
ATOM      8  C6  PXY d   1       4.112   3.307  -1.433  0.00  0.00     0.003 A 
ENDROOT
TORSDOF 0
ENDMDL
