MODEL 1
REMARK minimizedAffinity 6.63941717
REMARK minimizedRMSD -1
REMARK  0 active torsions:
REMARK  status: ('A' for Active; 'I' for Inactive)
ROOT
ATOM      1  C4' PXY d   1      -6.000   1.075   3.029  0.00  0.00     0.077 C 
ATOM      2  C1' PXY d   1      -0.637  -0.304   4.688  0.00  0.00     0.077 C 
ATOM      3  C1  PXY d   1      -2.042   0.050   4.243  0.00  0.00    -0.082 A 
ATOM      4  C2  PXY d   1      -2.571   1.208   4.604  0.00  0.00     0.003 A 
ATOM      5  C3  PXY d   1      -3.852   1.530   4.237  0.00  0.00     0.003 A 
ATOM      6  C4  PXY d   1      -4.581   0.681   3.448  0.00  0.00    -0.082 A 
ATOM      7  C5  PXY d   1      -4.045  -0.498   3.066  0.00  0.00     0.003 A 
ATOM      8  C6  PXY d   1      -2.758  -0.824   3.484  0.00  0.00     0.003 A 
ENDROOT
TORSDOF 0
ENDMDL
