MODEL 1
REMARK minimizedAffinity -3.23232675
REMARK minimizedRMSD -1
REMARK  1 active torsions:
REMARK  status: ('A' for Active; 'I' for Inactive)
REMARK    1  A    between atoms: C1_2  and  C2_3 
ROOT
ATOM      1  C2  UNL d   1      -0.197  -0.016  -0.171  0.00  0.00    -0.076 A 
ATOM      2  C3  UNL d   1       1.189  -0.118   0.037  0.00  0.00     0.004 A 
ATOM      3  C4  UNL d   1       1.712  -0.288   1.318  0.00  0.00    -0.003 A 
ATOM      4  C5  UNL d   1       0.857  -0.360   2.412  0.00  0.00     0.000 A 
ATOM      5  C6  UNL d   1      -0.522  -0.278   2.222  0.00  0.00     0.000 A 
ATOM      6  C7  UNL d   1      -1.067  -0.123   0.936  0.00  0.00    -0.073 A 
ATOM      7  C8  UNL d   1      -2.561  -0.034   0.790  0.00  0.00     0.078 C 
ENDROOT
BRANCH   1   8
ATOM      8  C1  UNL d   1      -0.704   0.196  -1.579  0.00  0.00     0.053 C 
ATOM      9  C   UNL d   1      -0.315   1.554  -2.141  0.00  0.00     0.018 C 
ENDBRANCH   1   8
TORSDOF 1
ENDMDL
