MODEL 1
REMARK minimizedAffinity -4.32663774
REMARK minimizedRMSD -1
REMARK  1 active torsions:
REMARK  status: ('A' for Active; 'I' for Inactive)
REMARK    1  A    between atoms: C1_2  and  C2_3 
ROOT
ATOM      1  C2  UNL d   1      -0.137  -0.532   0.341  0.00  0.00    -0.076 A 
ATOM      2  C3  UNL d   1      -0.965  -0.363   1.464  0.00  0.00     0.004 A 
ATOM      3  C4  UNL d   1      -0.445  -0.438   2.756  0.00  0.00    -0.003 A 
ATOM      4  C5  UNL d   1       0.911  -0.682   2.944  0.00  0.00     0.000 A 
ATOM      5  C6  UNL d   1       1.750  -0.834   1.841  0.00  0.00     0.000 A 
ATOM      6  C7  UNL d   1       1.245  -0.745   0.532  0.00  0.00    -0.073 A 
ATOM      7  C8  UNL d   1       2.194  -0.923  -0.621  0.00  0.00     0.078 C 
ENDROOT
BRANCH   1   8
ATOM      8  C1  UNL d   1      -0.761  -0.467  -1.035  0.00  0.00     0.053 C 
ATOM      9  C   UNL d   1      -0.844   0.954  -1.571  0.00  0.00     0.018 C 
ENDBRANCH   1   8
TORSDOF 1
ENDMDL
