MODEL 1
REMARK minimizedAffinity -4.46699953
REMARK minimizedRMSD -1
REMARK  1 active torsions:
REMARK  status: ('A' for Active; 'I' for Inactive)
REMARK    1  A    between atoms: C1_2  and  C2_3 
ROOT
ATOM      1  C2  UNL d   1      -0.406  -0.681   1.315  0.00  0.00    -0.076 A 
ATOM      2  C3  UNL d   1       0.154  -1.145   2.517  0.00  0.00     0.004 A 
ATOM      3  C4  UNL d   1       1.483  -0.877   2.840  0.00  0.00    -0.003 A 
ATOM      4  C5  UNL d   1       2.274  -0.139   1.966  0.00  0.00     0.000 A 
ATOM      5  C6  UNL d   1       1.729   0.345   0.776  0.00  0.00     0.000 A 
ATOM      6  C7  UNL d   1       0.386   0.097   0.444  0.00  0.00    -0.073 A 
ATOM      7  C8  UNL d   1      -0.147   0.638  -0.855  0.00  0.00     0.078 C 
ENDROOT
BRANCH   1   8
ATOM      8  C1  UNL d   1      -1.846  -1.026   1.006  0.00  0.00     0.053 C 
ATOM      9  C   UNL d   1      -2.827  -0.303   1.916  0.00  0.00     0.018 C 
ENDBRANCH   1   8
TORSDOF 1
ENDMDL
