MODEL 1
REMARK minimizedAffinity -1.93604386
REMARK minimizedRMSD -1
REMARK  1 active torsions:
REMARK  status: ('A' for Active; 'I' for Inactive)
REMARK    1  A    between atoms: C1_2  and  C2_3 
ROOT
ATOM      1  C2  UNL d   1       0.358   0.450  -0.351  0.00  0.00    -0.076 A 
ATOM      2  C3  UNL d   1       1.047   1.439  -1.074  0.00  0.00     0.004 A 
ATOM      3  C4  UNL d   1       0.378   2.267  -1.974  0.00  0.00    -0.003 A 
ATOM      4  C5  UNL d   1      -0.991   2.120  -2.165  0.00  0.00     0.000 A 
ATOM      5  C6  UNL d   1      -1.694   1.155  -1.443  0.00  0.00     0.000 A 
ATOM      6  C7  UNL d   1      -1.037   0.323  -0.520  0.00  0.00    -0.073 A 
ATOM      7  C8  UNL d   1      -1.843  -0.705   0.226  0.00  0.00     0.078 C 
ENDROOT
BRANCH   1   8
ATOM      8  C1  UNL d   1       1.142  -0.437   0.590  0.00  0.00     0.053 C 
ATOM      9  C   UNL d   1       0.829  -0.155   2.052  0.00  0.00     0.018 C 
ENDBRANCH   1   8
TORSDOF 1
ENDMDL
