MODEL 1
REMARK minimizedAffinity -1.19421625
REMARK minimizedRMSD -1
REMARK  1 active torsions:
REMARK  status: ('A' for Active; 'I' for Inactive)
REMARK    1  A    between atoms: C1_2  and  C2_3 
ROOT
ATOM      1  C2  UNL d   1       1.110  -0.451   0.298  0.00  0.00    -0.076 A 
ATOM      2  C3  UNL d   1       0.265  -0.007  -0.734  0.00  0.00     0.004 A 
ATOM      3  C4  UNL d   1      -1.119   0.009  -0.571  0.00  0.00    -0.003 A 
ATOM      4  C5  UNL d   1      -1.681  -0.417   0.628  0.00  0.00     0.000 A 
ATOM      5  C6  UNL d   1      -0.857  -0.843   1.669  0.00  0.00     0.000 A 
ATOM      6  C7  UNL d   1       0.542  -0.851   1.527  0.00  0.00    -0.073 A 
ATOM      7  C8  UNL d   1       1.382  -1.327   2.680  0.00  0.00     0.078 C 
ENDROOT
BRANCH   1   8
ATOM      8  C1  UNL d   1       2.602  -0.472   0.054  0.00  0.00     0.053 C 
ATOM      9  C   UNL d   1       2.997  -1.434  -1.056  0.00  0.00     0.018 C 
ENDBRANCH   1   8
TORSDOF 1
ENDMDL
