MODEL 1
REMARK minimizedAffinity -4.64459467
REMARK minimizedRMSD -1
REMARK  1 active torsions:
REMARK  status: ('A' for Active; 'I' for Inactive)
REMARK    1  A    between atoms: C1_2  and  C2_3 
ROOT
ATOM      1  C2  UNL d   1       0.115  -0.099   0.036  0.00  0.00    -0.076 A 
ATOM      2  C3  UNL d   1       1.462  -0.496   0.083  0.00  0.00     0.004 A 
ATOM      3  C4  UNL d   1       2.040  -0.934   1.274  0.00  0.00    -0.003 A 
ATOM      4  C5  UNL d   1       1.279  -0.982   2.437  0.00  0.00     0.000 A 
ATOM      5  C6  UNL d   1      -0.064  -0.609   2.404  0.00  0.00     0.000 A 
ATOM      6  C7  UNL d   1      -0.666  -0.181   1.209  0.00  0.00    -0.073 A 
ATOM      7  C8  UNL d   1      -2.117   0.216   1.232  0.00  0.00     0.078 C 
ENDROOT
BRANCH   1   8
ATOM      8  C1  UNL d   1      -0.449   0.393  -1.278  0.00  0.00     0.053 C 
ATOM      9  C   UNL d   1      -0.230   1.883  -1.485  0.00  0.00     0.018 C 
ENDBRANCH   1   8
TORSDOF 1
ENDMDL
