MODEL 1
REMARK minimizedAffinity 9.78458977
REMARK minimizedRMSD -1
REMARK  0 active torsions:
REMARK  status: ('A' for Active; 'I' for Inactive)
ROOT
ATOM      1  C   UNL d   1      -6.000   5.547  -5.616  0.00  0.00     0.020 A 
ATOM      2  C1  UNL d   1      -5.619   4.261  -6.000  0.00  0.00     0.020 A 
ATOM      3  C2  UNL d   1      -4.960   3.429  -5.093  0.00  0.00     0.034 A 
ATOM      4  C3  UNL d   1      -4.679   3.880  -3.798  0.00  0.00     0.017 A 
ATOM      5  C4  UNL d   1      -5.062   5.171  -3.414  0.00  0.00     0.017 A 
ATOM      6  C5  UNL d   1      -5.722   6.000  -4.326  0.00  0.00     0.034 A 
ATOM      7 Cl   UNL d   1      -4.751   5.798  -1.834  0.00  0.00    -0.070 Cl
ATOM      8 Cl1  UNL d   1      -3.861   2.797  -2.729  0.00  0.00    -0.070 Cl
ENDROOT
TORSDOF 0
ENDMDL
