MODEL 1
REMARK minimizedAffinity 1.25214434
REMARK minimizedRMSD -1
REMARK  0 active torsions:
REMARK  status: ('A' for Active; 'I' for Inactive)
ROOT
ATOM      1  C   UNL d   1       0.406  -0.619   1.933  0.00  0.00     0.020 A 
ATOM      2  C1  UNL d   1       0.330   0.540   2.704  0.00  0.00     0.020 A 
ATOM      3  C2  UNL d   1       0.273   1.789   2.081  0.00  0.00     0.034 A 
ATOM      4  C3  UNL d   1       0.293   1.882   0.685  0.00  0.00     0.017 A 
ATOM      5  C4  UNL d   1       0.369   0.717  -0.087  0.00  0.00     0.017 A 
ATOM      6  C5  UNL d   1       0.425  -0.531   0.541  0.00  0.00     0.034 A 
ATOM      7 Cl   UNL d   1       0.396   0.751  -1.815  0.00  0.00    -0.070 Cl
ATOM      8 Cl1  UNL d   1       0.219   3.459  -0.017  0.00  0.00    -0.070 Cl
ENDROOT
TORSDOF 0
ENDMDL
