MODEL 1
REMARK minimizedAffinity 4.44139862
REMARK minimizedRMSD -1
REMARK  0 active torsions:
REMARK  status: ('A' for Active; 'I' for Inactive)
ROOT
ATOM      1  C   UNL d   1       0.083   0.085   2.370  0.00  0.00     0.020 A 
ATOM      2  C1  UNL d   1       1.195  -0.749   2.254  0.00  0.00     0.020 A 
ATOM      3  C2  UNL d   1       1.759  -0.990   1.000  0.00  0.00     0.034 A 
ATOM      4  C3  UNL d   1       1.211  -0.398  -0.144  0.00  0.00     0.017 A 
ATOM      5  C4  UNL d   1       0.095   0.438  -0.026  0.00  0.00     0.017 A 
ATOM      6  C5  UNL d   1      -0.466   0.677   1.232  0.00  0.00     0.034 A 
ATOM      7 Cl   UNL d   1      -0.637   1.205  -1.392  0.00  0.00    -0.070 Cl
ATOM      8 Cl1  UNL d   1       1.959  -0.740  -1.663  0.00  0.00    -0.070 Cl
ENDROOT
TORSDOF 0
ENDMDL
