MODEL 1
REMARK minimizedAffinity 9.48509598
REMARK minimizedRMSD -1
REMARK  0 active torsions:
REMARK  status: ('A' for Active; 'I' for Inactive)
ROOT
ATOM      1  C   UNL d   1      -1.957   3.115   1.975  0.00  0.00     0.020 A 
ATOM      2  C1  UNL d   1      -2.599   3.046   0.739  0.00  0.00     0.020 A 
ATOM      3  C2  UNL d   1      -1.946   2.477  -0.356  0.00  0.00     0.034 A 
ATOM      4  C3  UNL d   1      -0.647   1.974  -0.219  0.00  0.00     0.017 A 
ATOM      5  C4  UNL d   1      -0.004   2.043   1.022  0.00  0.00     0.017 A 
ATOM      6  C5  UNL d   1      -0.662   2.614   2.116  0.00  0.00     0.034 A 
ATOM      7 Cl   UNL d   1       1.598   1.444   1.270  0.00  0.00    -0.070 Cl
ATOM      8 Cl1  UNL d   1       0.099   1.284  -1.615  0.00  0.00    -0.070 Cl
ENDROOT
TORSDOF 0
ENDMDL
