MODEL 1
REMARK minimizedAffinity 9.11362076
REMARK minimizedRMSD -1
REMARK  0 active torsions:
REMARK  status: ('A' for Active; 'I' for Inactive)
ROOT
ATOM      1  C   UNL d   1      -0.001   1.402  -2.197  0.00  0.00     0.020 A 
ATOM      2  C1  UNL d   1      -0.692   1.436  -0.987  0.00  0.00     0.020 A 
ATOM      3  C2  UNL d   1      -1.844   0.664  -0.819  0.00  0.00     0.034 A 
ATOM      4  C3  UNL d   1      -2.307  -0.145  -1.863  0.00  0.00     0.017 A 
ATOM      5  C4  UNL d   1      -1.612  -0.178  -3.077  0.00  0.00     0.017 A 
ATOM      6  C5  UNL d   1      -0.460   0.597  -3.240  0.00  0.00     0.034 A 
ATOM      7 Cl   UNL d   1      -2.123  -1.152  -4.411  0.00  0.00    -0.070 Cl
ATOM      8 Cl1  UNL d   1      -3.738  -1.073  -1.585  0.00  0.00    -0.070 Cl
ENDROOT
TORSDOF 0
ENDMDL
