MODEL 1
REMARK minimizedAffinity 7.47952509
REMARK minimizedRMSD -1
REMARK  0 active torsions:
REMARK  status: ('A' for Active; 'I' for Inactive)
ROOT
ATOM      1  C   UNL d   1       2.102  -1.320  -1.680  0.00  0.00     0.020 A 
ATOM      2  C1  UNL d   1       2.359  -2.097  -0.551  0.00  0.00     0.020 A 
ATOM      3  C2  UNL d   1       2.442  -3.487  -0.664  0.00  0.00     0.034 A 
ATOM      4  C3  UNL d   1       2.267  -4.104  -1.908  0.00  0.00     0.017 A 
ATOM      5  C4  UNL d   1       2.009  -3.323  -3.041  0.00  0.00     0.017 A 
ATOM      6  C5  UNL d   1       1.928  -1.932  -2.922  0.00  0.00     0.034 A 
ATOM      7 Cl   UNL d   1       1.782  -4.012  -4.610  0.00  0.00    -0.070 Cl
ATOM      8 Cl1  UNL d   1       2.383  -5.826  -1.974  0.00  0.00    -0.070 Cl
ENDROOT
TORSDOF 0
ENDMDL
