MODEL 1
REMARK minimizedAffinity 1.94009888
REMARK minimizedRMSD -1
REMARK  0 active torsions:
REMARK  status: ('A' for Active; 'I' for Inactive)
ROOT
ATOM      1  C   UNL d   1       2.732  -1.403  -1.249  0.00  0.00     0.020 A 
ATOM      2  C1  UNL d   1       2.028  -2.606  -1.207  0.00  0.00     0.020 A 
ATOM      3  C2  UNL d   1       0.659  -2.624  -1.485  0.00  0.00     0.034 A 
ATOM      4  C3  UNL d   1      -0.010  -1.437  -1.806  0.00  0.00     0.017 A 
ATOM      5  C4  UNL d   1       0.698  -0.230  -1.848  0.00  0.00     0.017 A 
ATOM      6  C5  UNL d   1       2.068  -0.218  -1.569  0.00  0.00     0.034 A 
ATOM      7 Cl   UNL d   1      -0.058   1.275  -2.237  0.00  0.00    -0.070 Cl
ATOM      8 Cl1  UNL d   1      -1.702  -1.533  -2.139  0.00  0.00    -0.070 Cl
ENDROOT
TORSDOF 0
ENDMDL
