MODEL 1
REMARK minimizedAffinity 3.91227317
REMARK minimizedRMSD -1
REMARK  0 active torsions:
REMARK  status: ('A' for Active; 'I' for Inactive)
ROOT
ATOM      1  C   UNL d   1      -0.013   1.106  -1.888  0.00  0.00     0.020 A 
ATOM      2  C1  UNL d   1      -1.152   1.833  -2.231  0.00  0.00     0.020 A 
ATOM      3  C2  UNL d   1      -1.828   2.571  -1.257  0.00  0.00     0.034 A 
ATOM      4  C3  UNL d   1      -1.366   2.585   0.064  0.00  0.00     0.017 A 
ATOM      5  C4  UNL d   1      -0.222   1.855   0.407  0.00  0.00     0.017 A 
ATOM      6  C5  UNL d   1       0.451   1.117  -0.572  0.00  0.00     0.034 A 
ATOM      7 Cl   UNL d   1       0.410   1.822   2.015  0.00  0.00    -0.070 Cl
ATOM      8 Cl1  UNL d   1      -2.251   3.520   1.216  0.00  0.00    -0.070 Cl
ENDROOT
TORSDOF 0
ENDMDL
