MODEL 1
REMARK minimizedAffinity 4.5451088
REMARK minimizedRMSD -1
REMARK  0 active torsions:
REMARK  status: ('A' for Active; 'I' for Inactive)
ROOT
ATOM      1  C   UNL d   1      -1.521   2.968   1.997  0.00  0.00     0.020 A 
ATOM      2  C1  UNL d   1      -2.268   3.101   0.827  0.00  0.00     0.020 A 
ATOM      3  C2  UNL d   1      -1.762   2.622  -0.383  0.00  0.00     0.034 A 
ATOM      4  C3  UNL d   1      -0.505   2.008  -0.426  0.00  0.00     0.017 A 
ATOM      5  C4  UNL d   1       0.244   1.875   0.748  0.00  0.00     0.017 A 
ATOM      6  C5  UNL d   1      -0.267   2.357   1.957  0.00  0.00     0.034 A 
ATOM      7 Cl   UNL d   1       1.803   1.129   0.774  0.00  0.00    -0.070 Cl
ATOM      8 Cl1  UNL d   1       0.058   1.438  -1.957  0.00  0.00    -0.070 Cl
ENDROOT
TORSDOF 0
ENDMDL
