MODEL 1
REMARK minimizedAffinity -1.1091553
REMARK minimizedRMSD -1
REMARK  0 active torsions:
REMARK  status: ('A' for Active; 'I' for Inactive)
ROOT
ATOM      1  C   UNL d   1       0.381   0.117  -0.015  0.00  0.00     0.020 A 
ATOM      2  C1  UNL d   1       0.172   0.775  -1.227  0.00  0.00     0.020 A 
ATOM      3  C2  UNL d   1       0.226   2.169  -1.283  0.00  0.00     0.034 A 
ATOM      4  C3  UNL d   1       0.488   2.911  -0.125  0.00  0.00     0.017 A 
ATOM      5  C4  UNL d   1       0.697   2.250   1.091  0.00  0.00     0.017 A 
ATOM      6  C5  UNL d   1       0.642   0.854   1.142  0.00  0.00     0.034 A 
ATOM      7 Cl   UNL d   1       1.025   3.097   2.561  0.00  0.00    -0.070 Cl
ATOM      8 Cl1  UNL d   1       0.539   4.632  -0.269  0.00  0.00    -0.070 Cl
ENDROOT
TORSDOF 0
ENDMDL
