MODEL 1
REMARK minimizedAffinity -1.72118258
REMARK minimizedRMSD -1
REMARK  0 active torsions:
REMARK  status: ('A' for Active; 'I' for Inactive)
ROOT
ATOM      1  C2' OXE d   1       1.062  -0.087  -1.976  0.00  0.00     0.078 C 
ATOM      2  C1' OXE d   1       1.718   2.614  -2.366  0.00  0.00     0.078 C 
ATOM      3  C1  OXE d   1       1.591   2.119  -0.947  0.00  0.00    -0.078 A 
ATOM      4  C2  OXE d   1       1.224   0.807  -0.766  0.00  0.00    -0.078 A 
ATOM      5  C3  OXE d   1       1.146   0.284   0.522  0.00  0.00     0.003 A 
ATOM      6  C4  OXE d   1       1.287   1.120   1.636  0.00  0.00    -0.002 A 
ATOM      7  C5  OXE d   1       1.622   2.469   1.473  0.00  0.00    -0.002 A 
ATOM      8  C6  OXE d   1       1.819   2.973   0.193  0.00  0.00     0.003 A 
ENDROOT
TORSDOF 0
ENDMDL
