MODEL 1
REMARK minimizedAffinity -4.28858852
REMARK minimizedRMSD -1
REMARK  0 active torsions:
REMARK  status: ('A' for Active; 'I' for Inactive)
ROOT
ATOM      1  C2' OXE d   1       1.818   3.267  -0.108  0.00  0.00     0.078 C 
ATOM      2  C1' OXE d   1       1.757   0.628   0.845  0.00  0.00     0.078 C 
ATOM      3  C1  OXE d   1       1.343   0.869  -0.585  0.00  0.00    -0.078 A 
ATOM      4  C2  OXE d   1       1.331   2.169  -1.029  0.00  0.00    -0.078 A 
ATOM      5  C3  OXE d   1       1.010   2.442  -2.356  0.00  0.00     0.003 A 
ATOM      6  C4  OXE d   1       0.552   1.422  -3.198  0.00  0.00    -0.002 A 
ATOM      7  C5  OXE d   1       0.518   0.095  -2.754  0.00  0.00    -0.002 A 
ATOM      8  C6  OXE d   1       0.950  -0.203  -1.466  0.00  0.00     0.003 A 
ENDROOT
TORSDOF 0
ENDMDL
