MODEL 1
REMARK minimizedAffinity -2.43154931
REMARK minimizedRMSD -1
REMARK  0 active torsions:
REMARK  status: ('A' for Active; 'I' for Inactive)
ROOT
ATOM      1  C2' OXE d   1       0.994  -2.140   0.231  0.00  0.00     0.078 C 
ATOM      2  C1' OXE d   1      -0.083  -1.430  -2.262  0.00  0.00     0.078 C 
ATOM      3  C1  OXE d   1       0.818  -0.434  -1.576  0.00  0.00    -0.078 A 
ATOM      4  C2  OXE d   1       1.302  -0.770  -0.334  0.00  0.00    -0.078 A 
ATOM      5  C3  OXE d   1       2.181   0.090   0.319  0.00  0.00     0.003 A 
ATOM      6  C4  OXE d   1       2.453   1.358  -0.207  0.00  0.00    -0.002 A 
ATOM      7  C5  OXE d   1       1.938   1.737  -1.451  0.00  0.00    -0.002 A 
ATOM      8  C6  OXE d   1       1.155   0.838  -2.166  0.00  0.00     0.003 A 
ENDROOT
TORSDOF 0
ENDMDL
