MODEL 1
REMARK minimizedAffinity 0.757601261
REMARK minimizedRMSD -1
REMARK  0 active torsions:
REMARK  status: ('A' for Active; 'I' for Inactive)
ROOT
ATOM      1  C2' OXE d   1       2.057   3.446  -1.368  0.00  0.00     0.078 C 
ATOM      2  C1' OXE d   1       1.734   2.167   1.110  0.00  0.00     0.078 C 
ATOM      3  C1  OXE d   1       1.444   1.369  -0.137  0.00  0.00    -0.078 A 
ATOM      4  C2  OXE d   1       1.560   2.017  -1.343  0.00  0.00    -0.078 A 
ATOM      5  C3  OXE d   1       1.357   1.313  -2.527  0.00  0.00     0.003 A 
ATOM      6  C4  OXE d   1       0.888  -0.006  -2.495  0.00  0.00    -0.002 A 
ATOM      7  C5  OXE d   1       0.725  -0.673  -1.276  0.00  0.00    -0.002 A 
ATOM      8  C6  OXE d   1       1.039  -0.014  -0.092  0.00  0.00     0.003 A 
ENDROOT
TORSDOF 0
ENDMDL
