MODEL 1
REMARK minimizedAffinity 6.48329735
REMARK minimizedRMSD -1
REMARK  0 active torsions:
REMARK  status: ('A' for Active; 'I' for Inactive)
ROOT
ATOM      1  C2' OXE d   1      -3.068   1.444   4.547  0.00  0.00     0.078 C 
ATOM      2  C1' OXE d   1      -4.701   0.306   2.567  0.00  0.00     0.078 C 
ATOM      3  C1  OXE d   1      -3.853   1.492   2.183  0.00  0.00    -0.078 A 
ATOM      4  C2  OXE d   1      -3.092   2.072   3.170  0.00  0.00    -0.078 A 
ATOM      5  C3  OXE d   1      -2.250   3.134   2.856  0.00  0.00     0.003 A 
ATOM      6  C4  OXE d   1      -2.285   3.715   1.583  0.00  0.00    -0.002 A 
ATOM      7  C5  OXE d   1      -3.082   3.165   0.573  0.00  0.00    -0.002 A 
ATOM      8  C6  OXE d   1      -3.838   2.030   0.845  0.00  0.00     0.003 A 
ENDROOT
TORSDOF 0
ENDMDL
