MODEL 1
REMARK minimizedAffinity 6.5907445
REMARK minimizedRMSD -1
REMARK  0 active torsions:
REMARK  status: ('A' for Active; 'I' for Inactive)
ROOT
ATOM      1  C2' OXE d   1      -1.458   1.294  -2.069  0.00  0.00     0.078 C 
ATOM      2  C1' OXE d   1       0.519   3.083  -2.948  0.00  0.00     0.078 C 
ATOM      3  C1  OXE d   1       0.936   1.979  -2.009  0.00  0.00    -0.078 A 
ATOM      4  C2  OXE d   1      -0.046   1.137  -1.547  0.00  0.00    -0.078 A 
ATOM      5  C3  OXE d   1       0.295   0.068  -0.722  0.00  0.00     0.003 A 
ATOM      6  C4  OXE d   1       1.601  -0.064  -0.236  0.00  0.00    -0.002 A 
ATOM      7  C5  OXE d   1       2.609   0.808  -0.662  0.00  0.00    -0.002 A 
ATOM      8  C6  OXE d   1       2.302   1.807  -1.580  0.00  0.00     0.003 A 
ENDROOT
TORSDOF 0
ENDMDL
