MODEL 1
REMARK minimizedAffinity -1.45323431
REMARK minimizedRMSD -1
REMARK  0 active torsions:
REMARK  status: ('A' for Active; 'I' for Inactive)
ROOT
ATOM      1  C2' OXE d   1       1.843   3.286   1.229  0.00  0.00     0.078 C 
ATOM      2  C1' OXE d   1       2.403   4.090  -1.401  0.00  0.00     0.078 C 
ATOM      3  C1  OXE d   1       1.856   2.700  -1.192  0.00  0.00    -0.078 A 
ATOM      4  C2  OXE d   1       1.629   2.299   0.102  0.00  0.00    -0.078 A 
ATOM      5  C3  OXE d   1       1.073   1.046   0.348  0.00  0.00     0.003 A 
ATOM      6  C4  OXE d   1       0.887   0.135  -0.699  0.00  0.00    -0.002 A 
ATOM      7  C5  OXE d   1       1.150   0.510  -2.021  0.00  0.00    -0.002 A 
ATOM      8  C6  OXE d   1       1.593   1.801  -2.288  0.00  0.00     0.003 A 
ENDROOT
TORSDOF 0
ENDMDL
