MODEL 1
REMARK minimizedAffinity 3.5399518
REMARK minimizedRMSD -1
REMARK  0 active torsions:
REMARK  status: ('A' for Active; 'I' for Inactive)
ROOT
ATOM      1  C2' OXE d   1       1.797   1.951   1.081  0.00  0.00     0.078 C 
ATOM      2  C1' OXE d   1       2.105   3.072  -1.475  0.00  0.00     0.078 C 
ATOM      3  C1  OXE d   1       1.620   1.646  -1.385  0.00  0.00    -0.078 A 
ATOM      4  C2  OXE d   1       1.517   1.091  -0.133  0.00  0.00    -0.078 A 
ATOM      5  C3  OXE d   1       1.022  -0.202   0.009  0.00  0.00     0.003 A 
ATOM      6  C4  OXE d   1       0.775  -0.995  -1.118  0.00  0.00    -0.002 A 
ATOM      7  C5  OXE d   1       0.912  -0.461  -2.404  0.00  0.00    -0.002 A 
ATOM      8  C6  OXE d   1       1.292   0.868  -2.554  0.00  0.00     0.003 A 
ENDROOT
TORSDOF 0
ENDMDL
