MODEL 1
REMARK minimizedAffinity 8.13718605
REMARK minimizedRMSD -1
REMARK  0 active torsions:
REMARK  status: ('A' for Active; 'I' for Inactive)
ROOT
ATOM      1  C2' OXE d   1      -1.926   2.006   4.885  0.00  0.00     0.078 C 
ATOM      2  C1' OXE d   1      -1.163   4.247   3.377  0.00  0.00     0.078 C 
ATOM      3  C1  OXE d   1      -2.219   3.338   2.800  0.00  0.00    -0.078 A 
ATOM      4  C2  OXE d   1      -2.553   2.218   3.524  0.00  0.00    -0.078 A 
ATOM      5  C3  OXE d   1      -3.561   1.376   3.064  0.00  0.00     0.003 A 
ATOM      6  C4  OXE d   1      -4.128   1.574   1.799  0.00  0.00    -0.002 A 
ATOM      7  C5  OXE d   1      -3.774   2.686   1.029  0.00  0.00    -0.002 A 
ATOM      8  C6  OXE d   1      -2.854   3.599   1.532  0.00  0.00     0.003 A 
ENDROOT
TORSDOF 0
ENDMDL
