MODEL 1
REMARK minimizedAffinity -4.7191186
REMARK minimizedRMSD -1
REMARK  0 active torsions:
REMARK  status: ('A' for Active; 'I' for Inactive)
ROOT
ATOM      1  C2' OXE d   1      -0.784   0.438   1.205  0.00  0.00     0.078 C 
ATOM      2  C1' OXE d   1       1.627   1.867   1.354  0.00  0.00     0.078 C 
ATOM      3  C1  OXE d   1       1.331   1.117   0.079  0.00  0.00    -0.078 A 
ATOM      4  C2  OXE d   1       0.171   0.383   0.033  0.00  0.00    -0.078 A 
ATOM      5  C3  OXE d   1      -0.177  -0.283  -1.139  0.00  0.00     0.003 A 
ATOM      6  C4  OXE d   1       0.716  -0.338  -2.216  0.00  0.00    -0.002 A 
ATOM      7  C5  OXE d   1       1.922   0.371  -2.174  0.00  0.00    -0.002 A 
ATOM      8  C6  OXE d   1       2.224   1.136  -1.053  0.00  0.00     0.003 A 
ENDROOT
TORSDOF 0
ENDMDL
