MODEL 1
REMARK minimizedAffinity -2.35139251
REMARK minimizedRMSD -1
REMARK  0 active torsions:
REMARK  status: ('A' for Active; 'I' for Inactive)
ROOT
ATOM      1  C2' OXE d   1       1.837   4.212  -1.252  0.00  0.00     0.078 C 
ATOM      2  C1' OXE d   1       1.752   2.038  -3.025  0.00  0.00     0.078 C 
ATOM      3  C1  OXE d   1       1.691   1.743  -1.548  0.00  0.00    -0.078 A 
ATOM      4  C2  OXE d   1       1.781   2.809  -0.686  0.00  0.00    -0.078 A 
ATOM      5  C3  OXE d   1       1.675   2.598   0.686  0.00  0.00     0.003 A 
ATOM      6  C4  OXE d   1       1.633   1.297   1.202  0.00  0.00    -0.002 A 
ATOM      7  C5  OXE d   1       1.581   0.194   0.342  0.00  0.00    -0.002 A 
ATOM      8  C6  OXE d   1       1.566   0.401  -1.033  0.00  0.00     0.003 A 
ENDROOT
TORSDOF 0
ENDMDL
