MODEL 1
REMARK minimizedAffinity 2.10858822
REMARK minimizedRMSD -1
REMARK  0 active torsions:
REMARK  status: ('A' for Active; 'I' for Inactive)
ROOT
ATOM      1  C2' OXE d   1       1.559   2.185   0.591  0.00  0.00     0.078 C 
ATOM      2  C1' OXE d   1       2.335   3.747  -1.609  0.00  0.00     0.078 C 
ATOM      3  C1  OXE d   1       1.752   2.383  -1.885  0.00  0.00    -0.078 A 
ATOM      4  C2  OXE d   1       1.418   1.607  -0.801  0.00  0.00    -0.078 A 
ATOM      5  C3  OXE d   1       0.826   0.364  -1.000  0.00  0.00     0.003 A 
ATOM      6  C4  OXE d   1       0.708  -0.167  -2.290  0.00  0.00    -0.002 A 
ATOM      7  C5  OXE d   1       1.079   0.591  -3.406  0.00  0.00    -0.002 A 
ATOM      8  C6  OXE d   1       1.562   1.882  -3.223  0.00  0.00     0.003 A 
ENDROOT
TORSDOF 0
ENDMDL
