MODEL 1
REMARK minimizedAffinity 8.34562588
REMARK minimizedRMSD -1
REMARK  0 active torsions:
REMARK  status: ('A' for Active; 'I' for Inactive)
ROOT
ATOM      1  C2' OXE d   1       0.439  -0.657  -1.172  0.00  0.00     0.078 C 
ATOM      2  C1' OXE d   1       1.364   0.503   1.211  0.00  0.00     0.078 C 
ATOM      3  C1  OXE d   1       1.351   1.360  -0.030  0.00  0.00    -0.078 A 
ATOM      4  C2  OXE d   1       0.941   0.770  -1.202  0.00  0.00    -0.078 A 
ATOM      5  C3  OXE d   1       0.858   1.531  -2.364  0.00  0.00     0.003 A 
ATOM      6  C4  OXE d   1       1.333   2.847  -2.386  0.00  0.00    -0.002 A 
ATOM      7  C5  OXE d   1       1.793   3.455  -1.212  0.00  0.00    -0.002 A 
ATOM      8  C6  OXE d   1       1.768   2.741  -0.020  0.00  0.00     0.003 A 
ENDROOT
TORSDOF 0
ENDMDL
