MODEL 1
REMARK minimizedAffinity 2.89627719
REMARK minimizedRMSD -1
REMARK  0 active torsions:
REMARK  status: ('A' for Active; 'I' for Inactive)
ROOT
ATOM      1  C2' OXE d   1       0.559   1.875  -2.133  0.00  0.00     0.078 C 
ATOM      2  C1' OXE d   1       1.552   1.570   0.475  0.00  0.00     0.078 C 
ATOM      3  C1  OXE d   1       1.273   0.320  -0.322  0.00  0.00    -0.078 A 
ATOM      4  C2  OXE d   1       0.744   0.478  -1.580  0.00  0.00    -0.078 A 
ATOM      5  C3  OXE d   1       0.519  -0.639  -2.379  0.00  0.00     0.003 A 
ATOM      6  C4  OXE d   1       0.682  -1.928  -1.857  0.00  0.00    -0.002 A 
ATOM      7  C5  OXE d   1       1.183  -2.112  -0.564  0.00  0.00    -0.002 A 
ATOM      8  C6  OXE d   1       1.523  -1.000   0.200  0.00  0.00     0.003 A 
ENDROOT
TORSDOF 0
ENDMDL
