MODEL 1
REMARK minimizedAffinity 0.840705335
REMARK minimizedRMSD -1
REMARK  0 active torsions:
REMARK  status: ('A' for Active; 'I' for Inactive)
ROOT
ATOM      1  C2' OXE d   1      -0.137  -2.322  -2.231  0.00  0.00     0.078 C 
ATOM      2  C1' OXE d   1       1.199  -2.989   0.146  0.00  0.00     0.078 C 
ATOM      3  C1  OXE d   1       0.979  -1.527  -0.151  0.00  0.00    -0.078 A 
ATOM      4  C2  OXE d   1       0.366  -1.208  -1.338  0.00  0.00    -0.078 A 
ATOM      5  C3  OXE d   1       0.090   0.123  -1.636  0.00  0.00     0.003 A 
ATOM      6  C4  OXE d   1       0.568   1.148  -0.810  0.00  0.00    -0.002 A 
ATOM      7  C5  OXE d   1       1.229   0.846   0.385  0.00  0.00    -0.002 A 
ATOM      8  C6  OXE d   1       1.405  -0.484   0.750  0.00  0.00     0.003 A 
ENDROOT
TORSDOF 0
ENDMDL
