MODEL 1
REMARK minimizedAffinity -1.03156245
REMARK minimizedRMSD -1
REMARK  0 active torsions:
REMARK  status: ('A' for Active; 'I' for Inactive)
ROOT
ATOM      1  C2' OXE d   1       1.129   1.581  -1.092  0.00  0.00     0.078 C 
ATOM      2  C1' OXE d   1       2.879   0.778   0.950  0.00  0.00     0.078 C 
ATOM      3  C1  OXE d   1       2.127  -0.296   0.205  0.00  0.00    -0.078 A 
ATOM      4  C2  OXE d   1       1.238   0.109  -0.761  0.00  0.00    -0.078 A 
ATOM      5  C3  OXE d   1       0.559  -0.844  -1.516  0.00  0.00     0.003 A 
ATOM      6  C4  OXE d   1       0.658  -2.203  -1.196  0.00  0.00    -0.002 A 
ATOM      7  C5  OXE d   1       1.528  -2.635  -0.189  0.00  0.00    -0.002 A 
ATOM      8  C6  OXE d   1       2.300  -1.699   0.491  0.00  0.00     0.003 A 
ENDROOT
TORSDOF 0
ENDMDL
