MODEL 1
REMARK minimizedAffinity 3.74093246
REMARK minimizedRMSD -1
REMARK  3 active torsions:
REMARK  status: ('A' for Active; 'I' for Inactive)
REMARK    1  A    between atoms: C3'_2  and  C2'_3 
REMARK    2  A    between atoms: C2'_3  and  C1'_4 
REMARK    3  A    between atoms: C1'_4  and  C1_5 
ROOT
ATOM      1  C1  N4B d   1       2.770   2.264   1.905  0.00  0.00    -0.075 A 
ATOM      2  C2  N4B d   1       4.151   1.972   1.878  0.00  0.00     0.002 A 
ATOM      3  C3  N4B d   1       5.053   2.872   2.390  0.00  0.00     0.002 A 
ATOM      4  C4  N4B d   1       4.600   4.073   2.916  0.00  0.00    -0.004 A 
ATOM      5  C5  N4B d   1       3.262   4.336   2.962  0.00  0.00     0.002 A 
ATOM      6  C6  N4B d   1       2.344   3.439   2.454  0.00  0.00     0.002 A 
ENDROOT
BRANCH   1   7
ATOM      7  C1' N4B d   1       1.753   1.349   1.279  0.00  0.00     0.057 C 
BRANCH   7   8
ATOM      8  C2' N4B d   1       2.455   0.417   0.296  0.00  0.00     0.009 C 
BRANCH   8   9
ATOM      9  C3' N4B d   1       1.620  -0.814  -0.016  0.00  0.00     0.004 C 
ATOM     10  C4' N4B d   1       2.449  -2.054  -0.169  0.00  0.00     0.003 C 
ENDBRANCH   8   9
ENDBRANCH   7   8
ENDBRANCH   1   7
TORSDOF 3
ENDMDL
