MODEL 1
REMARK minimizedAffinity -0.540000677
REMARK minimizedRMSD -1
REMARK  3 active torsions:
REMARK  status: ('A' for Active; 'I' for Inactive)
REMARK    1  A    between atoms: C3'_2  and  C2'_3 
REMARK    2  A    between atoms: C2'_3  and  C1'_4 
REMARK    3  A    between atoms: C1'_4  and  C1_5 
ROOT
ATOM      1  C1  N4B d   1      -1.149  -3.493  -0.994  0.00  0.00    -0.075 A 
ATOM      2  C2  N4B d   1      -0.172  -4.415  -1.429  0.00  0.00     0.002 A 
ATOM      3  C3  N4B d   1      -0.551  -5.654  -1.883  0.00  0.00     0.002 A 
ATOM      4  C4  N4B d   1      -1.894  -5.999  -1.894  0.00  0.00    -0.004 A 
ATOM      5  C5  N4B d   1      -2.834  -5.093  -1.496  0.00  0.00     0.002 A 
ATOM      6  C6  N4B d   1      -2.467  -3.843  -1.041  0.00  0.00     0.002 A 
ENDROOT
BRANCH   1   7
ATOM      7  C1' N4B d   1      -0.776  -2.158  -0.408  0.00  0.00     0.057 C 
BRANCH   7   8
ATOM      8  C2' N4B d   1       0.615  -2.253   0.210  0.00  0.00     0.009 C 
BRANCH   8   9
ATOM      9  C3' N4B d   1       1.605  -1.325  -0.473  0.00  0.00     0.004 C 
ATOM     10  C4' N4B d   1       1.750  -0.010   0.233  0.00  0.00     0.003 C 
ENDBRANCH   8   9
ENDBRANCH   7   8
ENDBRANCH   1   7
TORSDOF 3
ENDMDL
