MODEL 1
REMARK minimizedAffinity 10.5771904
REMARK minimizedRMSD -1
REMARK  3 active torsions:
REMARK  status: ('A' for Active; 'I' for Inactive)
REMARK    1  A    between atoms: C3'_2  and  C2'_3 
REMARK    2  A    between atoms: C2'_3  and  C1'_4 
REMARK    3  A    between atoms: C1'_4  and  C1_5 
ROOT
ATOM      1  C1  N4B d   1      -1.825  -3.641  -1.359  0.00  0.00    -0.075 A 
ATOM      2  C2  N4B d   1      -0.559  -3.571  -0.738  0.00  0.00     0.002 A 
ATOM      3  C3  N4B d   1       0.345  -4.591  -0.906  0.00  0.00     0.002 A 
ATOM      4  C4  N4B d   1      -0.001  -5.695  -1.671  0.00  0.00    -0.004 A 
ATOM      5  C5  N4B d   1      -1.217  -5.743  -2.288  0.00  0.00     0.002 A 
ATOM      6  C6  N4B d   1      -2.133  -4.723  -2.132  0.00  0.00     0.002 A 
ENDROOT
BRANCH   1   7
ATOM      7  C1' N4B d   1      -2.879  -2.590  -1.135  0.00  0.00     0.057 C 
BRANCH   7   8
ATOM      8  C2' N4B d   1      -3.096  -2.411   0.364  0.00  0.00     0.009 C 
BRANCH   8   9
ATOM      9  C3' N4B d   1      -3.370  -0.962   0.730  0.00  0.00     0.004 C 
ATOM     10  C4' N4B d   1      -2.789  -0.578   2.057  0.00  0.00     0.003 C 
ENDBRANCH   8   9
ENDBRANCH   7   8
ENDBRANCH   1   7
TORSDOF 3
ENDMDL
