MODEL 1
REMARK minimizedAffinity 10.8622675
REMARK minimizedRMSD -1
REMARK  3 active torsions:
REMARK  status: ('A' for Active; 'I' for Inactive)
REMARK    1  A    between atoms: C3'_2  and  C2'_3 
REMARK    2  A    between atoms: C2'_3  and  C1'_4 
REMARK    3  A    between atoms: C1'_4  and  C1_5 
ROOT
ATOM      1  C1  N4B d   1      -1.533  -3.442  -0.367  0.00  0.00    -0.075 A 
ATOM      2  C2  N4B d   1      -0.618  -4.446  -0.753  0.00  0.00     0.002 A 
ATOM      3  C3  N4B d   1      -1.068  -5.709  -1.050  0.00  0.00     0.002 A 
ATOM      4  C4  N4B d   1      -2.421  -5.996  -0.950  0.00  0.00    -0.004 A 
ATOM      5  C5  N4B d   1      -3.302  -5.014  -0.601  0.00  0.00     0.002 A 
ATOM      6  C6  N4B d   1      -2.864  -3.739  -0.304  0.00  0.00     0.002 A 
ENDROOT
BRANCH   1   7
ATOM      7  C1' N4B d   1      -1.079  -2.070   0.049  0.00  0.00     0.057 C 
BRANCH   7   8
ATOM      8  C2' N4B d   1       0.418  -2.106   0.342  0.00  0.00     0.009 C 
BRANCH   8   9
ATOM      9  C3' N4B d   1       1.027  -0.714   0.358  0.00  0.00     0.004 C 
ATOM     10  C4' N4B d   1       2.368  -0.659  -0.311  0.00  0.00     0.003 C 
ENDBRANCH   8   9
ENDBRANCH   7   8
ENDBRANCH   1   7
TORSDOF 3
ENDMDL
