MODEL 1
REMARK minimizedAffinity 10.7850876
REMARK minimizedRMSD -1
REMARK  3 active torsions:
REMARK  status: ('A' for Active; 'I' for Inactive)
REMARK    1  A    between atoms: C3'_2  and  C2'_3 
REMARK    2  A    between atoms: C2'_3  and  C1'_4 
REMARK    3  A    between atoms: C1'_4  and  C1_5 
ROOT
ATOM      1  C1  N4B d   1      -3.913   0.854   0.114  0.00  0.00    -0.075 A 
ATOM      2  C2  N4B d   1      -4.947   0.163  -0.556  0.00  0.00     0.002 A 
ATOM      3  C3  N4B d   1      -5.889   0.862  -1.271  0.00  0.00     0.002 A 
ATOM      4  C4  N4B d   1      -5.828   2.247  -1.315  0.00  0.00    -0.004 A 
ATOM      5  C5  N4B d   1      -4.811   2.905  -0.687  0.00  0.00     0.002 A 
ATOM      6  C6  N4B d   1      -3.855   2.215   0.032  0.00  0.00     0.002 A 
ENDROOT
BRANCH   1   7
ATOM      7  C1' N4B d   1      -2.911   0.139   0.979  0.00  0.00     0.057 C 
BRANCH   7   8
ATOM      8  C2' N4B d   1      -2.815  -1.318   0.535  0.00  0.00     0.009 C 
BRANCH   8   9
ATOM      9  C3' N4B d   1      -1.410  -1.871   0.701  0.00  0.00     0.004 C 
ATOM     10  C4' N4B d   1      -1.113  -2.993  -0.248  0.00  0.00     0.003 C 
ENDBRANCH   8   9
ENDBRANCH   7   8
ENDBRANCH   1   7
TORSDOF 3
ENDMDL
