MODEL 1
REMARK minimizedAffinity 8.93896675
REMARK minimizedRMSD -1
REMARK  3 active torsions:
REMARK  status: ('A' for Active; 'I' for Inactive)
REMARK    1  A    between atoms: C3'_2  and  C2'_3 
REMARK    2  A    between atoms: C2'_3  and  C1'_4 
REMARK    3  A    between atoms: C1'_4  and  C1_5 
ROOT
ATOM      1  C1  N4B d   1       3.211   2.089   1.926  0.00  0.00    -0.075 A 
ATOM      2  C2  N4B d   1       1.811   2.249   2.018  0.00  0.00     0.002 A 
ATOM      3  C3  N4B d   1       0.977   1.423   1.306  0.00  0.00     0.002 A 
ATOM      4  C4  N4B d   1       1.518   0.445   0.484  0.00  0.00    -0.004 A 
ATOM      5  C5  N4B d   1       2.871   0.280   0.421  0.00  0.00     0.002 A 
ATOM      6  C6  N4B d   1       3.721   1.101   1.134  0.00  0.00     0.002 A 
ENDROOT
BRANCH   1   7
ATOM      7  C1' N4B d   1       4.164   3.023   2.619  0.00  0.00     0.057 C 
BRANCH   7   8
ATOM      8  C2' N4B d   1       3.448   4.335   2.923  0.00  0.00     0.009 C 
BRANCH   8   9
ATOM      9  C3' N4B d   1       4.421   5.490   3.086  0.00  0.00     0.004 C 
ATOM     10  C4' N4B d   1       4.490   5.996   4.496  0.00  0.00     0.003 C 
ENDBRANCH   8   9
ENDBRANCH   7   8
ENDBRANCH   1   7
TORSDOF 3
ENDMDL
