MODEL 1
REMARK minimizedAffinity 10.9092045
REMARK minimizedRMSD -1
REMARK  3 active torsions:
REMARK  status: ('A' for Active; 'I' for Inactive)
REMARK    1  A    between atoms: C3'_2  and  C2'_3 
REMARK    2  A    between atoms: C2'_3  and  C1'_4 
REMARK    3  A    between atoms: C1'_4  and  C1_5 
ROOT
ATOM      1  C1  N4B d   1       2.564   2.173   2.183  0.00  0.00    -0.075 A 
ATOM      2  C2  N4B d   1       3.923   1.788   2.170  0.00  0.00     0.002 A 
ATOM      3  C3  N4B d   1       4.905   2.733   2.344  0.00  0.00     0.002 A 
ATOM      4  C4  N4B d   1       4.554   4.064   2.512  0.00  0.00    -0.004 A 
ATOM      5  C5  N4B d   1       3.239   4.423   2.548  0.00  0.00     0.002 A 
ATOM      6  C6  N4B d   1       2.241   3.484   2.379  0.00  0.00     0.002 A 
ENDROOT
BRANCH   1   7
ATOM      7  C1' N4B d   1       1.459   1.189   1.911  0.00  0.00     0.057 C 
BRANCH   7   8
ATOM      8  C2' N4B d   1       1.621   0.629   0.501  0.00  0.00     0.009 C 
BRANCH   8   9
ATOM      9  C3' N4B d   1       1.512  -0.885   0.475  0.00  0.00     0.004 C 
ATOM     10  C4' N4B d   1       2.743  -1.548  -0.068  0.00  0.00     0.003 C 
ENDBRANCH   8   9
ENDBRANCH   7   8
ENDBRANCH   1   7
TORSDOF 3
ENDMDL
