MODEL 1
REMARK minimizedAffinity 7.68722105
REMARK minimizedRMSD -1
REMARK  3 active torsions:
REMARK  status: ('A' for Active; 'I' for Inactive)
REMARK    1  A    between atoms: C3'_2  and  C2'_3 
REMARK    2  A    between atoms: C2'_3  and  C1'_4 
REMARK    3  A    between atoms: C1'_4  and  C1_5 
ROOT
ATOM      1  C1  N4B d   1       0.127   1.222  -5.295  0.00  0.00    -0.075 A 
ATOM      2  C2  N4B d   1       0.438   0.537  -4.100  0.00  0.00     0.002 A 
ATOM      3  C3  N4B d   1       1.699   0.630  -3.563  0.00  0.00     0.002 A 
ATOM      4  C4  N4B d   1       2.666   1.383  -4.212  0.00  0.00    -0.004 A 
ATOM      5  C5  N4B d   1       2.350   2.062  -5.352  0.00  0.00     0.002 A 
ATOM      6  C6  N4B d   1       1.086   1.981  -5.901  0.00  0.00     0.002 A 
ENDROOT
BRANCH   1   7
ATOM      7  C1' N4B d   1      -1.212   1.081  -5.966  0.00  0.00     0.057 C 
BRANCH   7   8
ATOM      8  C2' N4B d   1      -1.977   2.395  -5.838  0.00  0.00     0.009 C 
BRANCH   8   9
ATOM      9  C3' N4B d   1      -3.480   2.188  -5.914  0.00  0.00     0.004 C 
ATOM     10  C4' N4B d   1      -4.242   3.478  -5.971  0.00  0.00     0.003 C 
ENDBRANCH   8   9
ENDBRANCH   7   8
ENDBRANCH   1   7
TORSDOF 3
ENDMDL
