MODEL 1
REMARK minimizedAffinity 15.0225019
REMARK minimizedRMSD -1
REMARK  0 active torsions:
REMARK  status: ('A' for Active; 'I' for Inactive)
ROOT
ATOM      1  N1  IND d   1      -0.518  -4.141  -0.508  0.00  0.00    -0.196 N 
ATOM      2  C2  IND d   1      -0.711  -3.564   0.716  0.00  0.00     0.054 A 
ATOM      3  C3  IND d   1      -1.289  -2.350   0.579  0.00  0.00    -0.031 A 
ATOM      4  C4  IND d   1      -2.095  -1.155  -1.554  0.00  0.00     0.051 A 
ATOM      5  C5  IND d   1      -2.102  -1.269  -2.916  0.00  0.00    -0.031 A 
ATOM      6  C6  IND d   1      -1.573  -2.371  -3.558  0.00  0.00     0.015 A 
ATOM      7  C7  IND d   1      -1.025  -3.408  -2.858  0.00  0.00    -0.016 A 
ATOM      8  C8  IND d   1      -1.010  -3.292  -1.475  0.00  0.00    -0.047 A 
ATOM      9  C9  IND d   1      -1.507  -2.157  -0.820  0.00  0.00    -0.096 A 
ATOM     10  HN1 IND d   1      -0.150  -4.905  -0.650  0.00  0.00     0.298 HD
ENDROOT
TORSDOF 0
ENDMDL
