MODEL 1
REMARK minimizedAffinity 18.6100254
REMARK minimizedRMSD -1
REMARK  0 active torsions:
REMARK  status: ('A' for Active; 'I' for Inactive)
ROOT
ATOM      1  N1  IND d   1      -2.682   4.034  -3.795  0.00  0.00    -0.196 N 
ATOM      2  C2  IND d   1      -2.536   2.721  -4.146  0.00  0.00     0.054 A 
ATOM      3  C3  IND d   1      -3.526   2.345  -4.986  0.00  0.00    -0.031 A 
ATOM      4  C4  IND d   1      -5.432   3.748  -6.000  0.00  0.00     0.051 A 
ATOM      5  C5  IND d   1      -5.999   4.991  -5.948  0.00  0.00    -0.031 A 
ATOM      6  C6  IND d   1      -5.478   5.998  -5.163  0.00  0.00     0.015 A 
ATOM      7  C7  IND d   1      -4.359   5.804  -4.405  0.00  0.00    -0.016 A 
ATOM      8  C8  IND d   1      -3.783   4.542  -4.449  0.00  0.00    -0.047 A 
ATOM      9  C9  IND d   1      -4.332   3.503  -5.211  0.00  0.00    -0.096 A 
ATOM     10  HN1 IND d   1      -2.173   4.469  -3.257  0.00  0.00     0.298 HD
ENDROOT
TORSDOF 0
ENDMDL
