MODEL 1
REMARK minimizedAffinity 23.0260201
REMARK minimizedRMSD -1
REMARK  0 active torsions:
REMARK  status: ('A' for Active; 'I' for Inactive)
ROOT
ATOM      1  N1  IND d   1      -0.430  -4.773  -0.403  0.00  0.00    -0.196 N 
ATOM      2  C2  IND d   1      -0.673  -5.717   0.555  0.00  0.00     0.054 A 
ATOM      3  C3  IND d   1      -1.438  -5.200   1.542  0.00  0.00    -0.031 A 
ATOM      4  C4  IND d   1      -2.490  -2.858   1.740  0.00  0.00     0.051 A 
ATOM      5  C5  IND d   1      -2.522  -1.637   1.128  0.00  0.00    -0.031 A 
ATOM      6  C6  IND d   1      -1.847  -1.394  -0.051  0.00  0.00     0.015 A 
ATOM      7  C7  IND d   1      -1.121  -2.371  -0.671  0.00  0.00    -0.016 A 
ATOM      8  C8  IND d   1      -1.080  -3.611  -0.048  0.00  0.00    -0.047 A 
ATOM      9  C9  IND d   1      -1.728  -3.851   1.170  0.00  0.00    -0.096 A 
ATOM     10  HN1 IND d   1       0.048  -4.885  -1.109  0.00  0.00     0.298 HD
ENDROOT
TORSDOF 0
ENDMDL
