MODEL 1
REMARK minimizedAffinity 11.823452
REMARK minimizedRMSD -1
REMARK  0 active torsions:
REMARK  status: ('A' for Active; 'I' for Inactive)
ROOT
ATOM      1  N1  IND d   1       5.061   4.926   3.504  0.00  0.00    -0.196 N 
ATOM      2  C2  IND d   1       4.704   3.788   4.174  0.00  0.00     0.054 A 
ATOM      3  C3  IND d   1       4.222   2.866   3.311  0.00  0.00    -0.031 A 
ATOM      4  C4  IND d   1       4.022   2.973   0.747  0.00  0.00     0.051 A 
ATOM      5  C5  IND d   1       4.187   3.821  -0.312  0.00  0.00    -0.031 A 
ATOM      6  C6  IND d   1       4.664   5.106  -0.150  0.00  0.00     0.015 A 
ATOM      7  C7  IND d   1       5.006   5.589   1.081  0.00  0.00    -0.016 A 
ATOM      8  C8  IND d   1       4.833   4.733   2.160  0.00  0.00    -0.047 A 
ATOM      9  C9  IND d   1       4.309   3.442   2.006  0.00  0.00    -0.096 A 
ATOM     10  HN1 IND d   1       5.374   5.641   3.863  0.00  0.00     0.298 HD
ENDROOT
TORSDOF 0
ENDMDL
