MODEL 1
REMARK minimizedAffinity 4.69581842
REMARK minimizedRMSD -1
REMARK  0 active torsions:
REMARK  status: ('A' for Active; 'I' for Inactive)
ROOT
ATOM      1  N1  IND d   1       2.507   2.872   5.121  0.00  0.00    -0.196 N 
ATOM      2  C2  IND d   1       3.104   3.846   5.872  0.00  0.00     0.054 A 
ATOM      3  C3  IND d   1       4.436   3.629   5.951  0.00  0.00    -0.031 A 
ATOM      4  C4  IND d   1       5.863   1.796   4.841  0.00  0.00     0.051 A 
ATOM      5  C5  IND d   1       5.762   0.659   4.091  0.00  0.00    -0.031 A 
ATOM      6  C6  IND d   1       4.546   0.193   3.634  0.00  0.00     0.015 A 
ATOM      7  C7  IND d   1       3.382   0.857   3.902  0.00  0.00    -0.016 A 
ATOM      8  C8  IND d   1       3.481   2.008   4.670  0.00  0.00    -0.047 A 
ATOM      9  C9  IND d   1       4.707   2.463   5.172  0.00  0.00    -0.096 A 
ATOM     10  HN1 IND d   1       1.666   2.810   4.958  0.00  0.00     0.298 HD
ENDROOT
TORSDOF 0
ENDMDL
