MODEL 1
REMARK minimizedAffinity 13.9195528
REMARK minimizedRMSD -1
REMARK  0 active torsions:
REMARK  status: ('A' for Active; 'I' for Inactive)
ROOT
ATOM      1  N1  IND d   1      -1.882  -0.172   6.000  0.00  0.00    -0.196 N 
ATOM      2  C2  IND d   1      -2.634   0.572   5.134  0.00  0.00     0.054 A 
ATOM      3  C3  IND d   1      -3.010  -0.178   4.073  0.00  0.00    -0.031 A 
ATOM      4  C4  IND d   1      -2.590  -2.674   3.604  0.00  0.00     0.051 A 
ATOM      5  C5  IND d   1      -1.922  -3.764   4.089  0.00  0.00    -0.031 A 
ATOM      6  C6  IND d   1      -1.195  -3.712   5.260  0.00  0.00     0.015 A 
ATOM      7  C7  IND d   1      -1.117  -2.566   6.000  0.00  0.00    -0.016 A 
ATOM      8  C8  IND d   1      -1.788  -1.455   5.507  0.00  0.00    -0.047 A 
ATOM      9  C9  IND d   1      -2.493  -1.490   4.297  0.00  0.00    -0.096 A 
ATOM     10  HN1 IND d   1      -1.528   0.113   6.730  0.00  0.00     0.298 HD
ENDROOT
TORSDOF 0
ENDMDL
