MODEL 1
REMARK minimizedAffinity 11.4095373
REMARK minimizedRMSD -1
REMARK  0 active torsions:
REMARK  status: ('A' for Active; 'I' for Inactive)
ROOT
ATOM      1  N1  IND d   1       0.188  -5.123   0.021  0.00  0.00    -0.196 N 
ATOM      2  C2  IND d   1      -0.110  -5.698   1.225  0.00  0.00     0.054 A 
ATOM      3  C3  IND d   1      -0.891  -4.874   1.959  0.00  0.00    -0.031 A 
ATOM      4  C4  IND d   1      -1.883  -2.580   1.342  0.00  0.00     0.051 A 
ATOM      5  C5  IND d   1      -1.862  -1.625   0.364  0.00  0.00    -0.031 A 
ATOM      6  C6  IND d   1      -1.145  -1.792  -0.803  0.00  0.00     0.015 A 
ATOM      7  C7  IND d   1      -0.427  -2.930  -1.041  0.00  0.00    -0.016 A 
ATOM      8  C8  IND d   1      -0.440  -3.899  -0.048  0.00  0.00    -0.047 A 
ATOM      9  C9  IND d   1      -1.132  -3.717   1.157  0.00  0.00    -0.096 A 
ATOM     10  HN1 IND d   1       0.684  -5.467  -0.591  0.00  0.00     0.298 HD
ENDROOT
TORSDOF 0
ENDMDL
