MODEL 1
REMARK minimizedAffinity 7.23124647
REMARK minimizedRMSD -1
REMARK  0 active torsions:
REMARK  status: ('A' for Active; 'I' for Inactive)
ROOT
ATOM      1  N1  IND d   1      -0.394  -5.038   0.570  0.00  0.00    -0.196 N 
ATOM      2  C2  IND d   1      -0.293  -5.999   1.538  0.00  0.00     0.054 A 
ATOM      3  C3  IND d   1      -0.929  -5.602   2.663  0.00  0.00    -0.031 A 
ATOM      4  C4  IND d   1      -2.289  -3.461   3.105  0.00  0.00     0.051 A 
ATOM      5  C5  IND d   1      -2.634  -2.268   2.535  0.00  0.00    -0.031 A 
ATOM      6  C6  IND d   1      -2.245  -1.931   1.255  0.00  0.00     0.015 A 
ATOM      7  C7  IND d   1      -1.502  -2.784   0.489  0.00  0.00    -0.016 A 
ATOM      8  C8  IND d   1      -1.143  -3.994   1.066  0.00  0.00    -0.047 A 
ATOM      9  C9  IND d   1      -1.499  -4.323   2.380  0.00  0.00    -0.096 A 
ATOM     10  HN1 IND d   1      -0.047  -5.079  -0.215  0.00  0.00     0.298 HD
ENDROOT
TORSDOF 0
ENDMDL
