MODEL 1
REMARK minimizedAffinity 14.2862196
REMARK minimizedRMSD -1
REMARK  0 active torsions:
REMARK  status: ('A' for Active; 'I' for Inactive)
ROOT
ATOM      1  N1  IND d   1      -1.216  -2.788  -0.474  0.00  0.00    -0.196 N 
ATOM      2  C2  IND d   1      -1.924  -3.128   0.645  0.00  0.00     0.054 A 
ATOM      3  C3  IND d   1      -2.995  -2.315   0.789  0.00  0.00    -0.031 A 
ATOM      4  C4  IND d   1      -3.835  -0.429  -0.749  0.00  0.00     0.051 A 
ATOM      5  C5  IND d   1      -3.501   0.275  -1.872  0.00  0.00    -0.031 A 
ATOM      6  C6  IND d   1      -2.366  -0.014  -2.602  0.00  0.00     0.015 A 
ATOM      7  C7  IND d   1      -1.526  -1.029  -2.242  0.00  0.00    -0.016 A 
ATOM      8  C8  IND d   1      -1.859  -1.742  -1.098  0.00  0.00    -0.047 A 
ATOM      9  C9  IND d   1      -2.986  -1.426  -0.329  0.00  0.00    -0.096 A 
ATOM     10  HN1 IND d   1      -0.491  -3.165  -0.743  0.00  0.00     0.298 HD
ENDROOT
TORSDOF 0
ENDMDL
