MODEL 1
REMARK minimizedAffinity 11.1096287
REMARK minimizedRMSD -1
REMARK  0 active torsions:
REMARK  status: ('A' for Active; 'I' for Inactive)
ROOT
ATOM      1  N1  IND d   1      -2.928   3.919  -3.214  0.00  0.00    -0.196 N 
ATOM      2  C2  IND d   1      -2.646   2.713  -3.792  0.00  0.00     0.054 A 
ATOM      3  C3  IND d   1      -3.489   2.475  -4.821  0.00  0.00    -0.031 A 
ATOM      4  C4  IND d   1      -5.343   3.973  -5.796  0.00  0.00     0.051 A 
ATOM      5  C5  IND d   1      -5.999   5.153  -5.581  0.00  0.00    -0.031 A 
ATOM      6  C6  IND d   1      -5.656   6.000  -4.548  0.00  0.00     0.015 A 
ATOM      7  C7  IND d   1      -4.632   5.703  -3.693  0.00  0.00    -0.016 A 
ATOM      8  C8  IND d   1      -3.969   4.503  -3.903  0.00  0.00    -0.047 A 
ATOM      9  C9  IND d   1      -4.340   3.619  -4.925  0.00  0.00    -0.096 A 
ATOM     10  HN1 IND d   1      -2.524   4.257  -2.534  0.00  0.00     0.298 HD
ENDROOT
TORSDOF 0
ENDMDL
