MODEL 1
REMARK minimizedAffinity 24.3081436
REMARK minimizedRMSD -1
REMARK  0 active torsions:
REMARK  status: ('A' for Active; 'I' for Inactive)
ROOT
ATOM      1  N1  IND d   1      -5.943   4.788  -5.919  0.00  0.00    -0.196 N 
ATOM      2  C2  IND d   1      -5.999   5.951  -5.203  0.00  0.00     0.054 A 
ATOM      3  C3  IND d   1      -5.068   5.944  -4.222  0.00  0.00    -0.031 A 
ATOM      4  C4  IND d   1      -3.282   4.172  -3.676  0.00  0.00     0.051 A 
ATOM      5  C5  IND d   1      -2.862   2.921  -4.030  0.00  0.00    -0.031 A 
ATOM      6  C6  IND d   1      -3.458   2.215  -5.055  0.00  0.00     0.015 A 
ATOM      7  C7  IND d   1      -4.493   2.741  -5.774  0.00  0.00    -0.016 A 
ATOM      8  C8  IND d   1      -4.927   4.009  -5.412  0.00  0.00    -0.047 A 
ATOM      9  C9  IND d   1      -4.354   4.713  -4.345  0.00  0.00    -0.096 A 
ATOM     10  HN1 IND d   1      -6.457   4.579  -6.577  0.00  0.00     0.298 HD
ENDROOT
TORSDOF 0
ENDMDL
