MODEL 1
REMARK minimizedAffinity 9.98421764
REMARK minimizedRMSD -1
REMARK  0 active torsions:
REMARK  status: ('A' for Active; 'I' for Inactive)
ROOT
ATOM      1  N1  IND d   1      -6.000   1.579   5.998  0.00  0.00    -0.196 N 
ATOM      2  C2  IND d   1      -5.510   2.855   5.994  0.00  0.00     0.054 A 
ATOM      3  C3  IND d   1      -4.158   2.840   5.998  0.00  0.00    -0.031 A 
ATOM      4  C4  IND d   1      -2.545   0.836   5.907  0.00  0.00     0.051 A 
ATOM      5  C5  IND d   1      -2.521  -0.530   5.934  0.00  0.00    -0.031 A 
ATOM      6  C6  IND d   1      -3.680  -1.278   5.982  0.00  0.00     0.015 A 
ATOM      7  C7  IND d   1      -4.911  -0.685   5.994  0.00  0.00    -0.016 A 
ATOM      8  C8  IND d   1      -4.938   0.702   5.973  0.00  0.00    -0.047 A 
ATOM      9  C9  IND d   1      -3.765   1.467   5.967  0.00  0.00    -0.096 A 
ATOM     10  HN1 IND d   1      -6.831   1.361   6.013  0.00  0.00     0.298 HD
ENDROOT
TORSDOF 0
ENDMDL
