MODEL 1
REMARK minimizedAffinity 11.435833
REMARK minimizedRMSD -1
REMARK  0 active torsions:
REMARK  status: ('A' for Active; 'I' for Inactive)
ROOT
ATOM      1  N1  IND d   1      -0.534  -5.469  -1.878  0.00  0.00    -0.196 N 
ATOM      2  C2  IND d   1      -0.416  -5.998  -0.623  0.00  0.00     0.054 A 
ATOM      3  C3  IND d   1      -0.682  -5.058   0.311  0.00  0.00    -0.031 A 
ATOM      4  C4  IND d   1      -1.429  -2.613   0.004  0.00  0.00     0.051 A 
ATOM      5  C5  IND d   1      -1.640  -1.664  -0.956  0.00  0.00    -0.031 A 
ATOM      6  C6  IND d   1      -1.493  -1.941  -2.300  0.00  0.00     0.015 A 
ATOM      7  C7  IND d   1      -1.138  -3.186  -2.736  0.00  0.00    -0.016 A 
ATOM      8  C8  IND d   1      -0.916  -4.151  -1.764  0.00  0.00    -0.047 A 
ATOM      9  C9  IND d   1      -1.023  -3.864  -0.397  0.00  0.00    -0.096 A 
ATOM     10  HN1 IND d   1      -0.392  -5.889  -2.615  0.00  0.00     0.298 HD
ENDROOT
TORSDOF 0
ENDMDL
