MODEL 1
REMARK minimizedAffinity 10.3814516
REMARK minimizedRMSD -1
REMARK  0 active torsions:
REMARK  status: ('A' for Active; 'I' for Inactive)
ROOT
ATOM      1  N1  IND d   1       0.041   3.440  -5.587  0.00  0.00    -0.196 N 
ATOM      2  C2  IND d   1       0.823   2.786  -4.677  0.00  0.00     0.054 A 
ATOM      3  C3  IND d   1       0.057   2.045  -3.844  0.00  0.00    -0.031 A 
ATOM      4  C4  IND d   1      -2.492   1.681  -3.858  0.00  0.00     0.051 A 
ATOM      5  C5  IND d   1      -3.636   2.097  -4.479  0.00  0.00    -0.031 A 
ATOM      6  C6  IND d   1      -3.613   2.998  -5.523  0.00  0.00     0.015 A 
ATOM      7  C7  IND d   1      -2.438   3.510  -5.996  0.00  0.00    -0.016 A 
ATOM      8  C8  IND d   1      -1.274   3.096  -5.363  0.00  0.00    -0.047 A 
ATOM      9  C9  IND d   1      -1.295   2.214  -4.275  0.00  0.00    -0.096 A 
ATOM     10  HN1 IND d   1       0.323   3.977  -6.197  0.00  0.00     0.298 HD
ENDROOT
TORSDOF 0
ENDMDL
