MODEL 1
REMARK minimizedAffinity 18.0015621
REMARK minimizedRMSD -1
REMARK  0 active torsions:
REMARK  status: ('A' for Active; 'I' for Inactive)
ROOT
ATOM      1  N1  IND d   1       3.160   3.381  -0.604  0.00  0.00    -0.196 N 
ATOM      2  C2  IND d   1       3.672   3.088   0.629  0.00  0.00     0.054 A 
ATOM      3  C3  IND d   1       3.401   1.804   0.957  0.00  0.00    -0.031 A 
ATOM      4  C4  IND d   1       2.222  -0.022  -0.422  0.00  0.00     0.051 A 
ATOM      5  C5  IND d   1       1.549  -0.221  -1.594  0.00  0.00    -0.031 A 
ATOM      6  C6  IND d   1       1.377   0.791  -2.517  0.00  0.00     0.015 A 
ATOM      7  C7  IND d   1       1.884   2.042  -2.305  0.00  0.00    -0.016 A 
ATOM      8  C8  IND d   1       2.562   2.249  -1.112  0.00  0.00    -0.047 A 
ATOM      9  C9  IND d   1       2.703   1.237  -0.153  0.00  0.00    -0.096 A 
ATOM     10  HN1 IND d   1       3.204   4.145  -0.996  0.00  0.00     0.298 HD
ENDROOT
TORSDOF 0
ENDMDL
