MODEL 1
REMARK minimizedAffinity 12.7842379
REMARK minimizedRMSD -1
REMARK  0 active torsions:
REMARK  status: ('A' for Active; 'I' for Inactive)
ROOT
ATOM      1  N1  IND d   1      -3.286   2.752  -4.899  0.00  0.00    -0.196 N 
ATOM      2  C2  IND d   1      -2.442   3.123  -3.889  0.00  0.00     0.054 A 
ATOM      3  C3  IND d   1      -2.772   4.351  -3.429  0.00  0.00    -0.031 A 
ATOM      4  C4  IND d   1      -4.719   5.887  -4.116  0.00  0.00     0.051 A 
ATOM      5  C5  IND d   1      -5.738   5.996  -5.021  0.00  0.00    -0.031 A 
ATOM      6  C6  IND d   1      -5.998   5.008  -5.949  0.00  0.00     0.015 A 
ATOM      7  C7  IND d   1      -5.253   3.864  -5.998  0.00  0.00    -0.016 A 
ATOM      8  C8  IND d   1      -4.213   3.753  -5.086  0.00  0.00    -0.047 A 
ATOM      9  C9  IND d   1      -3.918   4.771  -4.170  0.00  0.00    -0.096 A 
ATOM     10  HN1 IND d   1      -3.244   2.016  -5.343  0.00  0.00     0.298 HD
ENDROOT
TORSDOF 0
ENDMDL
