MODEL 1
REMARK minimizedAffinity -1.67289102
REMARK minimizedRMSD -1
REMARK  0 active torsions:
REMARK  status: ('A' for Active; 'I' for Inactive)
ROOT
ATOM      1  C   UNL d   1      -3.893   0.728   2.154  0.00  0.00     0.023 A 
ATOM      2  C1  UNL d   1      -2.926   0.000   1.460  0.00  0.00     0.003 A 
ATOM      3  C2  UNL d   1      -1.594   0.031   1.878  0.00  0.00     0.048 A 
ATOM      4  C3  UNL d   1      -1.236   0.791   2.992  0.00  0.00     0.023 A 
ATOM      5  C4  UNL d   1      -2.201   1.519   3.690  0.00  0.00     0.048 A 
ATOM      6  C5  UNL d   1      -3.531   1.486   3.268  0.00  0.00     0.003 A 
ATOM      7  I   UNL d   1       0.746   0.838   3.616  0.00  0.00    -0.146 I 
ENDROOT
TORSDOF 0
ENDMDL
