MODEL 1
REMARK minimizedAffinity 0.0324488543
REMARK minimizedRMSD -1
REMARK  0 active torsions:
REMARK  status: ('A' for Active; 'I' for Inactive)
ROOT
ATOM      1  C   UNL d   1      -2.883   2.198  -5.209  0.00  0.00     0.023 A 
ATOM      2  C1  UNL d   1      -4.240   1.930  -5.387  0.00  0.00     0.003 A 
ATOM      3  C2  UNL d   1      -5.136   2.977  -5.613  0.00  0.00     0.048 A 
ATOM      4  C3  UNL d   1      -4.668   4.290  -5.661  0.00  0.00     0.023 A 
ATOM      5  C4  UNL d   1      -3.310   4.563  -5.485  0.00  0.00     0.048 A 
ATOM      6  C5  UNL d   1      -2.418   3.513  -5.258  0.00  0.00     0.003 A 
ATOM      7  I   UNL d   1      -5.999   5.850  -5.998  0.00  0.00    -0.146 I 
ENDROOT
TORSDOF 0
ENDMDL
