MODEL 1
REMARK minimizedAffinity 1.3470912
REMARK minimizedRMSD -1
REMARK  0 active torsions:
REMARK  status: ('A' for Active; 'I' for Inactive)
ROOT
ATOM      1  C   UNL d   1       0.347  -1.436  -1.279  0.00  0.00     0.023 A 
ATOM      2  C1  UNL d   1      -0.254  -1.913  -0.114  0.00  0.00     0.003 A 
ATOM      3  C2  UNL d   1      -0.371  -1.083   1.003  0.00  0.00     0.048 A 
ATOM      4  C3  UNL d   1       0.114   0.224   0.947  0.00  0.00     0.023 A 
ATOM      5  C4  UNL d   1       0.715   0.705  -0.217  0.00  0.00     0.048 A 
ATOM      6  C5  UNL d   1       0.831  -0.128  -1.331  0.00  0.00     0.003 A 
ATOM      7  I   UNL d   1      -0.059   1.461   2.608  0.00  0.00    -0.146 I 
ENDROOT
TORSDOF 0
ENDMDL
