MODEL 1
REMARK minimizedAffinity -1.36151624
REMARK minimizedRMSD -1
REMARK  0 active torsions:
REMARK  status: ('A' for Active; 'I' for Inactive)
ROOT
ATOM      1  C   UNL d   1      -4.555   1.416   2.684  0.00  0.00     0.023 A 
ATOM      2  C1  UNL d   1      -3.287   1.650   3.215  0.00  0.00     0.003 A 
ATOM      3  C2  UNL d   1      -2.164   1.062   2.629  0.00  0.00     0.048 A 
ATOM      4  C3  UNL d   1      -2.316   0.243   1.511  0.00  0.00     0.023 A 
ATOM      5  C4  UNL d   1      -3.583   0.007   0.975  0.00  0.00     0.048 A 
ATOM      6  C5  UNL d   1      -4.703   0.596   1.565  0.00  0.00     0.003 A 
ATOM      7  I   UNL d   1      -0.646  -0.632   0.637  0.00  0.00    -0.146 I 
ENDROOT
TORSDOF 0
ENDMDL
