MODEL 1
REMARK minimizedAffinity 1.09177268
REMARK minimizedRMSD -1
REMARK  0 active torsions:
REMARK  status: ('A' for Active; 'I' for Inactive)
ROOT
ATOM      1  C   UNL d   1       0.758   0.634  -1.528  0.00  0.00     0.023 A 
ATOM      2  C1  UNL d   1       1.825   1.489  -1.248  0.00  0.00     0.003 A 
ATOM      3  C2  UNL d   1       2.123   1.825   0.075  0.00  0.00     0.048 A 
ATOM      4  C3  UNL d   1       1.352   1.301   1.112  0.00  0.00     0.023 A 
ATOM      5  C4  UNL d   1       0.284   0.445   0.836  0.00  0.00     0.048 A 
ATOM      6  C5  UNL d   1      -0.011   0.113  -0.488  0.00  0.00     0.003 A 
ATOM      7  I   UNL d   1       1.794   1.799   3.080  0.00  0.00    -0.146 I 
ENDROOT
TORSDOF 0
ENDMDL
