MODEL 1
REMARK minimizedAffinity -0.567869425
REMARK minimizedRMSD -1
REMARK  0 active torsions:
REMARK  status: ('A' for Active; 'I' for Inactive)
ROOT
ATOM      1  C   UNL d   1       2.187   0.422  -2.588  0.00  0.00     0.023 A 
ATOM      2  C1  UNL d   1       0.991  -0.283  -2.727  0.00  0.00     0.003 A 
ATOM      3  C2  UNL d   1       0.088  -0.345  -1.663  0.00  0.00     0.048 A 
ATOM      4  C3  UNL d   1       0.387   0.300  -0.464  0.00  0.00     0.023 A 
ATOM      5  C4  UNL d   1       1.582   1.007  -0.321  0.00  0.00     0.048 A 
ATOM      6  C5  UNL d   1       2.482   1.066  -1.387  0.00  0.00     0.003 A 
ATOM      7  I   UNL d   1      -0.955   0.209   1.120  0.00  0.00    -0.146 I 
ENDROOT
TORSDOF 0
ENDMDL
