MODEL 1
REMARK minimizedAffinity -2.87777281
REMARK minimizedRMSD -1
REMARK  0 active torsions:
REMARK  status: ('A' for Active; 'I' for Inactive)
ROOT
ATOM      1  C   UNL d   1      -4.121   1.492   3.425  0.00  0.00     0.023 A 
ATOM      2  C1  UNL d   1      -2.798   1.838   3.699  0.00  0.00     0.003 A 
ATOM      3  C2  UNL d   1      -1.754   1.203   3.023  0.00  0.00     0.048 A 
ATOM      4  C3  UNL d   1      -2.040   0.223   2.074  0.00  0.00     0.023 A 
ATOM      5  C4  UNL d   1      -3.363  -0.127   1.795  0.00  0.00     0.048 A 
ATOM      6  C5  UNL d   1      -4.403   0.511   2.474  0.00  0.00     0.003 A 
ATOM      7  I   UNL d   1      -0.488  -0.724   1.067  0.00  0.00    -0.146 I 
ENDROOT
TORSDOF 0
ENDMDL
