MODEL 1
REMARK minimizedAffinity -0.187965959
REMARK minimizedRMSD -1
REMARK  0 active torsions:
REMARK  status: ('A' for Active; 'I' for Inactive)
ROOT
ATOM      1  C   UNL d   1      -3.322   2.806   4.375  0.00  0.00     0.023 A 
ATOM      2  C1  UNL d   1      -4.613   2.808   3.845  0.00  0.00     0.003 A 
ATOM      3  C2  UNL d   1      -4.936   1.956   2.787  0.00  0.00     0.048 A 
ATOM      4  C3  UNL d   1      -3.964   1.104   2.264  0.00  0.00     0.023 A 
ATOM      5  C4  UNL d   1      -2.671   1.099   2.791  0.00  0.00     0.048 A 
ATOM      6  C5  UNL d   1      -2.353   1.953   3.848  0.00  0.00     0.003 A 
ATOM      7  I   UNL d   1      -4.442  -0.165   0.689  0.00  0.00    -0.146 I 
ENDROOT
TORSDOF 0
ENDMDL
