MODEL 1
REMARK minimizedAffinity -4.1225543
REMARK minimizedRMSD -1
REMARK  0 active torsions:
REMARK  status: ('A' for Active; 'I' for Inactive)
ROOT
ATOM      1  C   UNL d   1       1.757  -0.229  -2.355  0.00  0.00     0.023 A 
ATOM      2  C1  UNL d   1       0.771  -1.201  -2.187  0.00  0.00     0.003 A 
ATOM      3  C2  UNL d   1      -0.119  -1.116  -1.115  0.00  0.00     0.048 A 
ATOM      4  C3  UNL d   1      -0.018  -0.057  -0.214  0.00  0.00     0.023 A 
ATOM      5  C4  UNL d   1       0.967   0.919  -0.379  0.00  0.00     0.048 A 
ATOM      6  C5  UNL d   1       1.855   0.829  -1.452  0.00  0.00     0.003 A 
ATOM      7  I   UNL d   1      -1.342   0.072   1.382  0.00  0.00    -0.146 I 
ENDROOT
TORSDOF 0
ENDMDL
