MODEL 1
REMARK minimizedAffinity -3.78028226
REMARK minimizedRMSD -1
REMARK  0 active torsions:
REMARK  status: ('A' for Active; 'I' for Inactive)
ROOT
ATOM      1  C   UNL d   1      -0.670  -1.358   1.213  0.00  0.00     0.023 A 
ATOM      2  C1  UNL d   1      -0.674  -0.011   0.853  0.00  0.00     0.003 A 
ATOM      3  C2  UNL d   1       0.024   0.413  -0.280  0.00  0.00     0.048 A 
ATOM      4  C3  UNL d   1       0.725  -0.516  -1.048  0.00  0.00     0.023 A 
ATOM      5  C4  UNL d   1       0.732  -1.866  -0.692  0.00  0.00     0.048 A 
ATOM      6  C5  UNL d   1       0.033  -2.285   0.442  0.00  0.00     0.003 A 
ATOM      7  I   UNL d   1       1.765   0.112  -2.734  0.00  0.00    -0.146 I 
ENDROOT
TORSDOF 0
ENDMDL
