MODEL 1
REMARK minimizedAffinity -0.0205085762
REMARK minimizedRMSD -1
REMARK  0 active torsions:
REMARK  status: ('A' for Active; 'I' for Inactive)
ROOT
ATOM      1  C   UNL d   1      -1.564   0.033  -0.293  0.00  0.00     0.023 A 
ATOM      2  C1  UNL d   1      -0.614  -0.928   0.050  0.00  0.00     0.003 A 
ATOM      3  C2  UNL d   1       0.728  -0.737  -0.287  0.00  0.00     0.048 A 
ATOM      4  C3  UNL d   1       1.112   0.419  -0.965  0.00  0.00     0.023 A 
ATOM      5  C4  UNL d   1       0.165   1.384  -1.310  0.00  0.00     0.048 A 
ATOM      6  C5  UNL d   1      -1.176   1.188  -0.973  0.00  0.00     0.003 A 
ATOM      7  I   UNL d   1       3.109   0.706  -1.467  0.00  0.00    -0.146 I 
ENDROOT
TORSDOF 0
ENDMDL
