MODEL 1
REMARK minimizedAffinity -4.42661858
REMARK minimizedRMSD -1
REMARK  0 active torsions:
REMARK  status: ('A' for Active; 'I' for Inactive)
ROOT
ATOM      1  C   UNL d   1      -0.980   0.893   3.458  0.00  0.00     0.023 A 
ATOM      2  C1  UNL d   1       0.346   1.190   3.142  0.00  0.00     0.003 A 
ATOM      3  C2  UNL d   1       0.825   0.967   1.850  0.00  0.00     0.048 A 
ATOM      4  C3  UNL d   1      -0.028   0.447   0.877  0.00  0.00     0.023 A 
ATOM      5  C4  UNL d   1      -1.356   0.148   1.188  0.00  0.00     0.048 A 
ATOM      6  C5  UNL d   1      -1.830   0.372   2.482  0.00  0.00     0.003 A 
ATOM      7  I   UNL d   1       0.682   0.113  -1.048  0.00  0.00    -0.146 I 
ENDROOT
TORSDOF 0
ENDMDL
