MODEL 1
REMARK minimizedAffinity 0.795923233
REMARK minimizedRMSD -1
REMARK  0 active torsions:
REMARK  status: ('A' for Active; 'I' for Inactive)
ROOT
ATOM      1  C   UNL d   1      -3.370  -3.833  -5.975  0.00  0.00     0.023 A 
ATOM      2  C1  UNL d   1      -2.720  -4.511  -4.944  0.00  0.00     0.003 A 
ATOM      3  C2  UNL d   1      -2.803  -4.037  -3.633  0.00  0.00     0.048 A 
ATOM      4  C3  UNL d   1      -3.540  -2.885  -3.360  0.00  0.00     0.023 A 
ATOM      5  C4  UNL d   1      -4.193  -2.204  -4.388  0.00  0.00     0.048 A 
ATOM      6  C5  UNL d   1      -4.106  -2.681  -5.698  0.00  0.00     0.003 A 
ATOM      7  I   UNL d   1      -3.666  -2.178  -1.410  0.00  0.00    -0.146 I 
ENDROOT
TORSDOF 0
ENDMDL
