MODEL 1
REMARK minimizedAffinity 0.678688467
REMARK minimizedRMSD -1
REMARK  0 active torsions:
REMARK  status: ('A' for Active; 'I' for Inactive)
ROOT
ATOM      1  C   UNL d   1       1.474   2.037  -0.452  0.00  0.00     0.023 A 
ATOM      2  C1  UNL d   1       2.671   2.093  -1.166  0.00  0.00     0.003 A 
ATOM      3  C2  UNL d   1       3.443   0.940  -1.327  0.00  0.00     0.048 A 
ATOM      4  C3  UNL d   1       3.012  -0.264  -0.774  0.00  0.00     0.023 A 
ATOM      5  C4  UNL d   1       1.814  -0.325  -0.059  0.00  0.00     0.048 A 
ATOM      6  C5  UNL d   1       1.046   0.830   0.101  0.00  0.00     0.003 A 
ATOM      7  I   UNL d   1       4.159  -1.981  -1.013  0.00  0.00    -0.146 I 
ENDROOT
TORSDOF 0
ENDMDL
