MODEL 1
REMARK minimizedAffinity 5.74592352
REMARK minimizedRMSD -1
REMARK  0 active torsions:
REMARK  status: ('A' for Active; 'I' for Inactive)
ROOT
ATOM      1  C   UNL d   1      -5.821   4.538  -6.000  0.00  0.00     0.023 A 
ATOM      2  C1  UNL d   1      -5.536   3.184  -5.817  0.00  0.00     0.003 A 
ATOM      3  C2  UNL d   1      -4.217   2.766  -5.628  0.00  0.00     0.048 A 
ATOM      4  C3  UNL d   1      -3.188   3.707  -5.621  0.00  0.00     0.023 A 
ATOM      5  C4  UNL d   1      -3.468   5.062  -5.803  0.00  0.00     0.048 A 
ATOM      6  C5  UNL d   1      -4.788   5.476  -5.993  0.00  0.00     0.003 A 
ATOM      7  I   UNL d   1      -1.224   3.087  -5.340  0.00  0.00    -0.146 I 
ENDROOT
TORSDOF 0
ENDMDL
