MODEL 1
REMARK minimizedAffinity 4.9634676
REMARK minimizedRMSD -1
REMARK  1 active torsions:
REMARK  status: ('A' for Active; 'I' for Inactive)
REMARK    1  A    between atoms: C1_2  and  C2_3 
ROOT
ATOM      1  C2  UNL d   1       2.140  -2.269   3.559  0.00  0.00    -0.076 A 
ATOM      2  C3  UNL d   1       3.352  -2.275   4.270  0.00  0.00     0.004 A 
ATOM      3  C4  UNL d   1       3.916  -3.469   4.718  0.00  0.00    -0.003 A 
ATOM      4  C5  UNL d   1       3.276  -4.677   4.460  0.00  0.00     0.000 A 
ATOM      5  C6  UNL d   1       2.082  -4.691   3.740  0.00  0.00     0.000 A 
ATOM      6  C7  UNL d   1       1.509  -3.498   3.268  0.00  0.00    -0.073 A 
ATOM      7  C8  UNL d   1       0.216  -3.571   2.502  0.00  0.00     0.078 C 
ENDROOT
BRANCH   1   8
ATOM      8  C1  UNL d   1       1.563  -0.941   3.123  0.00  0.00     0.053 C 
ATOM      9  C   UNL d   1       1.845  -0.636   1.659  0.00  0.00     0.018 C 
ENDBRANCH   1   8
TORSDOF 1
ENDMDL
