MODEL 1
REMARK minimizedAffinity 7.14296722
REMARK minimizedRMSD -1
REMARK  1 active torsions:
REMARK  status: ('A' for Active; 'I' for Inactive)
REMARK    1  A    between atoms: C1_2  and  C2_3 
ROOT
ATOM      1  C2  UNL d   1       3.191  -3.935   4.038  0.00  0.00    -0.076 A 
ATOM      2  C3  UNL d   1       1.820  -3.854   3.740  0.00  0.00     0.004 A 
ATOM      3  C4  UNL d   1       1.278  -2.710   3.158  0.00  0.00    -0.003 A 
ATOM      4  C5  UNL d   1       2.099  -1.627   2.863  0.00  0.00     0.000 A 
ATOM      5  C6  UNL d   1       3.465  -1.696   3.136  0.00  0.00     0.000 A 
ATOM      6  C7  UNL d   1       4.030  -2.849   3.708  0.00  0.00    -0.073 A 
ATOM      7  C8  UNL d   1       5.508  -2.866   3.986  0.00  0.00     0.078 C 
ENDROOT
BRANCH   1   8
ATOM      8  C1  UNL d   1       3.718  -5.191   4.695  0.00  0.00     0.053 C 
ATOM      9  C   UNL d   1       3.000  -5.512   5.997  0.00  0.00     0.018 C 
ENDBRANCH   1   8
TORSDOF 1
ENDMDL
