MODEL 1
REMARK minimizedAffinity 4.86822987
REMARK minimizedRMSD -1
REMARK  1 active torsions:
REMARK  status: ('A' for Active; 'I' for Inactive)
REMARK    1  A    between atoms: C1_2  and  C2_3 
ROOT
ATOM      1  C2  UNL d   1       4.154  -5.978  -3.213  0.00  0.00    -0.076 A 
ATOM      2  C3  UNL d   1       5.254  -5.948  -4.088  0.00  0.00     0.004 A 
ATOM      3  C4  UNL d   1       5.072  -5.952  -5.470  0.00  0.00    -0.003 A 
ATOM      4  C5  UNL d   1       3.787  -5.986  -6.000  0.00  0.00     0.000 A 
ATOM      5  C6  UNL d   1       2.684  -5.999  -5.147  0.00  0.00     0.000 A 
ATOM      6  C7  UNL d   1       2.849  -5.978  -3.751  0.00  0.00    -0.073 A 
ATOM      7  C8  UNL d   1       1.624  -5.999  -2.879  0.00  0.00     0.078 C 
ENDROOT
BRANCH   1   8
ATOM      8  C1  UNL d   1       4.413  -5.999  -1.724  0.00  0.00     0.053 C 
ATOM      9  C   UNL d   1       4.149  -4.653  -1.067  0.00  0.00     0.018 C 
ENDBRANCH   1   8
TORSDOF 1
ENDMDL
