MODEL 1
REMARK minimizedAffinity 7.50807667
REMARK minimizedRMSD -1
REMARK  1 active torsions:
REMARK  status: ('A' for Active; 'I' for Inactive)
REMARK    1  A    between atoms: C1_2  and  C2_3 
ROOT
ATOM      1  C2  UNL d   1       2.745   1.067   1.662  0.00  0.00    -0.076 A 
ATOM      2  C3  UNL d   1       2.386  -0.254   1.344  0.00  0.00     0.004 A 
ATOM      3  C4  UNL d   1       1.937  -1.132   2.329  0.00  0.00    -0.003 A 
ATOM      4  C5  UNL d   1       1.838  -0.703   3.648  0.00  0.00     0.000 A 
ATOM      5  C6  UNL d   1       2.173   0.610   3.978  0.00  0.00     0.000 A 
ATOM      6  C7  UNL d   1       2.612   1.513   2.995  0.00  0.00    -0.073 A 
ATOM      7  C8  UNL d   1       2.966   2.915   3.408  0.00  0.00     0.078 C 
ENDROOT
BRANCH   1   8
ATOM      8  C1  UNL d   1       3.251   1.966   0.556  0.00  0.00     0.053 C 
ATOM      9  C   UNL d   1       2.178   2.908   0.034  0.00  0.00     0.018 C 
ENDBRANCH   1   8
TORSDOF 1
ENDMDL
