MODEL 1
REMARK minimizedAffinity -3.00678039
REMARK minimizedRMSD -1
REMARK  0 active torsions:
REMARK  status: ('A' for Active; 'I' for Inactive)
ROOT
ATOM      1  C4' PXY d   1       6.000  -2.618   4.696  0.00  0.00     0.077 C 
ATOM      2  C1' PXY d   1       5.974   3.093   3.800  0.00  0.00     0.077 C 
ATOM      3  C1  PXY d   1       5.986   1.597   4.047  0.00  0.00    -0.082 A 
ATOM      4  C2  PXY d   1       6.000   0.764   3.018  0.00  0.00     0.003 A 
ATOM      5  C3  PXY d   1       5.978  -0.591   3.223  0.00  0.00     0.003 A 
ATOM      6  C4  PXY d   1       5.997  -1.100   4.494  0.00  0.00    -0.082 A 
ATOM      7  C5  PXY d   1       5.993  -0.258   5.548  0.00  0.00     0.003 A 
ATOM      8  C6  PXY d   1       5.973   1.115   5.319  0.00  0.00     0.003 A 
ENDROOT
TORSDOF 0
ENDMDL
