MODEL 1
REMARK minimizedAffinity -1.99689937
REMARK minimizedRMSD -1
REMARK  0 active torsions:
REMARK  status: ('A' for Active; 'I' for Inactive)
ROOT
ATOM      1  C4' PXY d   1       5.987   3.643   2.356  0.00  0.00     0.077 C 
ATOM      2  C1' PXY d   1       5.991  -1.342   5.282  0.00  0.00     0.077 C 
ATOM      3  C1  PXY d   1       5.995  -0.041   4.504  0.00  0.00    -0.082 A 
ATOM      4  C2  PXY d   1       5.999   1.111   5.156  0.00  0.00     0.003 A 
ATOM      5  C3  PXY d   1       5.970   2.297   4.469  0.00  0.00     0.003 A 
ATOM      6  C4  PXY d   1       5.992   2.305   3.100  0.00  0.00    -0.082 A 
ATOM      7  C5  PXY d   1       6.000   1.135   2.428  0.00  0.00     0.003 A 
ATOM      8  C6  PXY d   1       5.987  -0.059   3.144  0.00  0.00     0.003 A 
ENDROOT
TORSDOF 0
ENDMDL
