MODEL 1
REMARK minimizedAffinity 15.5735769
REMARK minimizedRMSD -1
REMARK  0 active torsions:
REMARK  status: ('A' for Active; 'I' for Inactive)
ROOT
ATOM      1  C4' PXY d   1      -2.444   1.062   3.714  0.00  0.00     0.077 C 
ATOM      2  C1' PXY d   1      -0.136   4.595  -0.236  0.00  0.00     0.077 C 
ATOM      3  C1  PXY d   1      -0.733   3.673   0.809  0.00  0.00    -0.082 A 
ATOM      4  C2  PXY d   1      -1.358   2.571   0.428  0.00  0.00     0.003 A 
ATOM      5  C3  PXY d   1      -1.932   1.742   1.358  0.00  0.00     0.003 A 
ATOM      6  C4  PXY d   1      -1.818   2.017   2.694  0.00  0.00    -0.082 A 
ATOM      7  C5  PXY d   1      -1.172   3.134   3.091  0.00  0.00     0.003 A 
ATOM      8  C6  PXY d   1      -0.633   3.983   2.130  0.00  0.00     0.003 A 
ENDROOT
TORSDOF 0
ENDMDL
