MODEL 1
REMARK minimizedAffinity 0.763256431
REMARK minimizedRMSD -1
REMARK  0 active torsions:
REMARK  status: ('A' for Active; 'I' for Inactive)
ROOT
ATOM      1  C4' PXY d   1       6.000  -3.162   5.702  0.00  0.00     0.077 C 
ATOM      2  C1' PXY d   1       4.909   2.172   3.759  0.00  0.00     0.077 C 
ATOM      3  C1  PXY d   1       5.204   0.778   4.277  0.00  0.00    -0.082 A 
ATOM      4  C2  PXY d   1       4.949  -0.271   3.512  0.00  0.00     0.003 A 
ATOM      5  C3  PXY d   1       5.180  -1.541   3.977  0.00  0.00     0.003 A 
ATOM      6  C4  PXY d   1       5.727  -1.736   5.217  0.00  0.00    -0.082 A 
ATOM      7  C5  PXY d   1       6.000  -0.670   5.999  0.00  0.00     0.003 A 
ATOM      8  C6  PXY d   1       5.719   0.609   5.525  0.00  0.00     0.003 A 
ENDROOT
TORSDOF 0
ENDMDL
