MODEL 1
REMARK minimizedAffinity -4.04291534
REMARK minimizedRMSD -1
REMARK  0 active torsions:
REMARK  status: ('A' for Active; 'I' for Inactive)
ROOT
ATOM      1  C4' PXY d   1       5.998   3.655   4.390  0.00  0.00     0.077 C 
ATOM      2  C1' PXY d   1       5.384  -2.087   4.635  0.00  0.00     0.077 C 
ATOM      3  C1  PXY d   1       5.537  -0.580   4.581  0.00  0.00    -0.082 A 
ATOM      4  C2  PXY d   1       5.822   0.008   3.431  0.00  0.00     0.003 A 
ATOM      5  C3  PXY d   1       5.996   1.367   3.371  0.00  0.00     0.003 A 
ATOM      6  C4  PXY d   1       5.825   2.137   4.489  0.00  0.00    -0.082 A 
ATOM      7  C5  PXY d   1       5.524   1.546   5.665  0.00  0.00     0.003 A 
ATOM      8  C6  PXY d   1       5.392   0.161   5.713  0.00  0.00     0.003 A 
ENDROOT
TORSDOF 0
ENDMDL
