MODEL 1
REMARK minimizedAffinity -2.87343478
REMARK minimizedRMSD -1
REMARK  0 active torsions:
REMARK  status: ('A' for Active; 'I' for Inactive)
ROOT
ATOM      1  C4' PXY d   1       5.630  -1.833   5.252  0.00  0.00     0.077 C 
ATOM      2  C1' PXY d   1       5.978   3.825   4.120  0.00  0.00     0.077 C 
ATOM      3  C1  PXY d   1       5.893   2.343   4.428  0.00  0.00    -0.082 A 
ATOM      4  C2  PXY d   1       5.707   1.479   3.442  0.00  0.00     0.003 A 
ATOM      5  C3  PXY d   1       5.597   0.138   3.707  0.00  0.00     0.003 A 
ATOM      6  C4  PXY d   1       5.731  -0.329   4.987  0.00  0.00    -0.082 A 
ATOM      7  C5  PXY d   1       5.932   0.544   5.996  0.00  0.00     0.003 A 
ATOM      8  C6  PXY d   1       6.000   1.905   5.712  0.00  0.00     0.003 A 
ENDROOT
TORSDOF 0
ENDMDL
