MODEL 1
REMARK minimizedAffinity 10.8031912
REMARK minimizedRMSD -1
REMARK  0 active torsions:
REMARK  status: ('A' for Active; 'I' for Inactive)
ROOT
ATOM      1  C4' PXY d   1       5.998   5.233   4.087  0.00  0.00     0.077 C 
ATOM      2  C1' PXY d   1       4.422  -0.282   3.369  0.00  0.00     0.077 C 
ATOM      3  C1  PXY d   1       4.833   1.166   3.545  0.00  0.00    -0.082 A 
ATOM      4  C2  PXY d   1       5.634   1.503   4.543  0.00  0.00     0.003 A 
ATOM      5  C3  PXY d   1       5.990   2.813   4.735  0.00  0.00     0.003 A 
ATOM      6  C4  PXY d   1       5.564   3.781   3.866  0.00  0.00    -0.082 A 
ATOM      7  C5  PXY d   1       4.756   3.444   2.838  0.00  0.00     0.003 A 
ATOM      8  C6  PXY d   1       4.373   2.115   2.685  0.00  0.00     0.003 A 
ENDROOT
TORSDOF 0
ENDMDL
