MODEL 1
REMARK minimizedAffinity -0.599069715
REMARK minimizedRMSD -1
REMARK  0 active torsions:
REMARK  status: ('A' for Active; 'I' for Inactive)
ROOT
ATOM      1  C4' PXY d   1       6.000  -1.743   4.870  0.00  0.00     0.077 C 
ATOM      2  C1' PXY d   1       5.978   3.633   2.746  0.00  0.00     0.077 C 
ATOM      3  C1  PXY d   1       5.989   2.227   3.314  0.00  0.00    -0.082 A 
ATOM      4  C2  PXY d   1       5.998   1.190   2.493  0.00  0.00     0.003 A 
ATOM      5  C3  PXY d   1       5.976  -0.088   2.989  0.00  0.00     0.003 A 
ATOM      6  C4  PXY d   1       5.998  -0.307   4.341  0.00  0.00    -0.082 A 
ATOM      7  C5  PXY d   1       6.000   0.747   5.185  0.00  0.00     0.003 A 
ATOM      8  C6  PXY d   1       5.980   2.036   4.661  0.00  0.00     0.003 A 
ENDROOT
TORSDOF 0
ENDMDL
