MODEL 1
REMARK minimizedAffinity -1.31145573
REMARK minimizedRMSD -1
REMARK  0 active torsions:
REMARK  status: ('A' for Active; 'I' for Inactive)
ROOT
ATOM      1  C4' PXY d   1       5.621  -0.322   3.353  0.00  0.00     0.077 C 
ATOM      2  C1' PXY d   1       5.997   5.109   5.298  0.00  0.00     0.077 C 
ATOM      3  C1  PXY d   1       5.902   3.680   4.799  0.00  0.00    -0.082 A 
ATOM      4  C2  PXY d   1       6.000   3.432   3.503  0.00  0.00     0.003 A 
ATOM      5  C3  PXY d   1       5.884   2.149   3.032  0.00  0.00     0.003 A 
ATOM      6  C4  PXY d   1       5.720   1.104   3.902  0.00  0.00    -0.082 A 
ATOM      7  C5  PXY d   1       5.630   1.348   5.226  0.00  0.00     0.003 A 
ATOM      8  C6  PXY d   1       5.709   2.662   5.681  0.00  0.00     0.003 A 
ENDROOT
TORSDOF 0
ENDMDL
