MODEL 1
REMARK minimizedAffinity -4.00648832
REMARK minimizedRMSD -1
REMARK  0 active torsions:
REMARK  status: ('A' for Active; 'I' for Inactive)
ROOT
ATOM      1  C4' PXY d   1       5.997  -2.207   4.872  0.00  0.00     0.077 C 
ATOM      2  C1' PXY d   1       5.517   3.553   4.772  0.00  0.00     0.077 C 
ATOM      3  C1  PXY d   1       5.638   2.041   4.786  0.00  0.00    -0.082 A 
ATOM      4  C2  PXY d   1       5.618   1.394   5.940  0.00  0.00     0.003 A 
ATOM      5  C3  PXY d   1       5.759   0.031   5.973  0.00  0.00     0.003 A 
ATOM      6  C4  PXY d   1       5.868  -0.683   4.809  0.00  0.00    -0.082 A 
ATOM      7  C5  PXY d   1       5.878  -0.031   3.627  0.00  0.00     0.003 A 
ATOM      8  C6  PXY d   1       5.775   1.357   3.618  0.00  0.00     0.003 A 
ENDROOT
TORSDOF 0
ENDMDL
