MODEL 1
REMARK minimizedAffinity 5.97231197
REMARK minimizedRMSD -1
REMARK  0 active torsions:
REMARK  status: ('A' for Active; 'I' for Inactive)
ROOT
ATOM      1  C4' PXY d   1       6.000   4.004   2.860  0.00  0.00     0.077 C 
ATOM      2  C1' PXY d   1       5.968  -1.407   4.895  0.00  0.00     0.077 C 
ATOM      3  C1  PXY d   1       5.971   0.017   4.373  0.00  0.00    -0.082 A 
ATOM      4  C2  PXY d   1       5.959   0.234   3.068  0.00  0.00     0.003 A 
ATOM      5  C3  PXY d   1       5.994   1.514   2.578  0.00  0.00     0.003 A 
ATOM      6  C4  PXY d   1       5.988   2.584   3.433  0.00  0.00    -0.082 A 
ATOM      7  C5  PXY d   1       5.989   2.370   4.766  0.00  0.00     0.003 A 
ATOM      8  C6  PXY d   1       5.995   1.063   5.243  0.00  0.00     0.003 A 
ENDROOT
TORSDOF 0
ENDMDL
