MODEL 1
REMARK minimizedAffinity 2.48995447
REMARK minimizedRMSD -1
REMARK  0 active torsions:
REMARK  status: ('A' for Active; 'I' for Inactive)
ROOT
ATOM      1  C4' PXY d   1       5.965  -2.623   4.555  0.00  0.00     0.077 C 
ATOM      2  C1' PXY d   1       5.990   3.138   5.027  0.00  0.00     0.077 C 
ATOM      3  C1  PXY d   1       5.978   1.629   4.891  0.00  0.00    -0.082 A 
ATOM      4  C2  PXY d   1       5.958   0.874   5.978  0.00  0.00     0.003 A 
ATOM      5  C3  PXY d   1       5.979  -0.493   5.874  0.00  0.00     0.003 A 
ATOM      6  C4  PXY d   1       5.968  -1.094   4.644  0.00  0.00    -0.082 A 
ATOM      7  C5  PXY d   1       5.978  -0.332   3.531  0.00  0.00     0.003 A 
ATOM      8  C6  PXY d   1       5.998   1.054   3.658  0.00  0.00     0.003 A 
ENDROOT
TORSDOF 0
ENDMDL
