MODEL 1
REMARK minimizedAffinity 4.55604744
REMARK minimizedRMSD -1
REMARK  0 active torsions:
REMARK  status: ('A' for Active; 'I' for Inactive)
ROOT
ATOM      1  C4' PXY d   1      -1.496   1.886   4.043  0.00  0.00     0.077 C 
ATOM      2  C1' PXY d   1       0.300   5.215  -0.328  0.00  0.00     0.077 C 
ATOM      3  C1  PXY d   1      -0.162   4.347   0.825  0.00  0.00    -0.082 A 
ATOM      4  C2  PXY d   1      -0.863   3.252   0.580  0.00  0.00     0.003 A 
ATOM      5  C3  PXY d   1      -1.316   2.472   1.613  0.00  0.00     0.003 A 
ATOM      6  C4  PXY d   1      -1.002   2.787   2.908  0.00  0.00    -0.082 A 
ATOM      7  C5  PXY d   1      -0.277   3.897   3.166  0.00  0.00     0.003 A 
ATOM      8  C6  PXY d   1       0.138   4.697   2.106  0.00  0.00     0.003 A 
ENDROOT
TORSDOF 0
ENDMDL
