MODEL 1
REMARK minimizedAffinity -3.67919993
REMARK minimizedRMSD -1
REMARK  0 active torsions:
REMARK  status: ('A' for Active; 'I' for Inactive)
ROOT
ATOM      1  C4' PXY d   1       6.000  -2.452   5.507  0.00  0.00     0.077 C 
ATOM      2  C1' PXY d   1       4.990   3.068   4.120  0.00  0.00     0.077 C 
ATOM      3  C1  PXY d   1       5.246   1.617   4.475  0.00  0.00    -0.082 A 
ATOM      4  C2  PXY d   1       5.732   1.311   5.667  0.00  0.00     0.003 A 
ATOM      5  C3  PXY d   1       6.000   0.006   5.993  0.00  0.00     0.003 A 
ATOM      6  C4  PXY d   1       5.717  -1.000   5.109  0.00  0.00    -0.082 A 
ATOM      7  C5  PXY d   1       5.211  -0.697   3.895  0.00  0.00     0.003 A 
ATOM      8  C6  PXY d   1       4.985   0.637   3.568  0.00  0.00     0.003 A 
ENDROOT
TORSDOF 0
ENDMDL
