MODEL 1
REMARK minimizedAffinity -2.16317749
REMARK minimizedRMSD -1
REMARK  0 active torsions:
REMARK  status: ('A' for Active; 'I' for Inactive)
ROOT
ATOM      1  C4' PXY d   1       5.950   5.994   4.946  0.00  0.00     0.077 C 
ATOM      2  C1' PXY d   1       6.000   0.218   4.723  0.00  0.00     0.077 C 
ATOM      3  C1  PXY d   1       5.992   1.733   4.770  0.00  0.00    -0.082 A 
ATOM      4  C2  PXY d   1       5.980   2.352   5.940  0.00  0.00     0.003 A 
ATOM      5  C3  PXY d   1       5.940   3.721   6.000  0.00  0.00     0.003 A 
ATOM      6  C4  PXY d   1       5.967   4.466   4.851  0.00  0.00    -0.082 A 
ATOM      7  C5  PXY d   1       5.990   3.843   3.654  0.00  0.00     0.003 A 
ATOM      8  C6  PXY d   1       5.989   2.451   3.614  0.00  0.00     0.003 A 
ENDROOT
TORSDOF 0
ENDMDL
