MODEL 1
REMARK minimizedAffinity -3.57934523
REMARK minimizedRMSD -1
REMARK  0 active torsions:
REMARK  status: ('A' for Active; 'I' for Inactive)
ROOT
ATOM      1  C4' PXY d   1       5.962   4.116   3.851  0.00  0.00     0.077 C 
ATOM      2  C1' PXY d   1       5.995  -1.567   4.911  0.00  0.00     0.077 C 
ATOM      3  C1  PXY d   1       5.981  -0.075   4.645  0.00  0.00    -0.082 A 
ATOM      4  C2  PXY d   1       5.961   0.368   3.398  0.00  0.00     0.003 A 
ATOM      5  C3  PXY d   1       5.980   1.714   3.139  0.00  0.00     0.003 A 
ATOM      6  C4  PXY d   1       5.967   2.617   4.167  0.00  0.00    -0.082 A 
ATOM      7  C5  PXY d   1       5.977   2.174   5.442  0.00  0.00     0.003 A 
ATOM      8  C6  PXY d   1       5.999   0.804   5.684  0.00  0.00     0.003 A 
ENDROOT
TORSDOF 0
ENDMDL
