MODEL 1
REMARK minimizedAffinity 1.27069867
REMARK minimizedRMSD -1
REMARK  0 active torsions:
REMARK  status: ('A' for Active; 'I' for Inactive)
ROOT
ATOM      1  C4' PXY d   1       5.873  -0.448   5.874  0.00  0.00     0.077 C 
ATOM      2  C1' PXY d   1       5.996   3.723   1.874  0.00  0.00     0.077 C 
ATOM      3  C1  PXY d   1       5.958   2.621   2.915  0.00  0.00    -0.082 A 
ATOM      4  C2  PXY d   1       5.999   2.933   4.200  0.00  0.00     0.003 A 
ATOM      5  C3  PXY d   1       5.998   1.948   5.153  0.00  0.00     0.003 A 
ATOM      6  C4  PXY d   1       5.900   0.632   4.789  0.00  0.00    -0.082 A 
ATOM      7  C5  PXY d   1       5.847   0.305   3.480  0.00  0.00     0.003 A 
ATOM      8  C6  PXY d   1       5.891   1.319   2.527  0.00  0.00     0.003 A 
ENDROOT
TORSDOF 0
ENDMDL
