MODEL 1
REMARK minimizedAffinity -2.05502462
REMARK minimizedRMSD -1
REMARK  0 active torsions:
REMARK  status: ('A' for Active; 'I' for Inactive)
ROOT
ATOM      1  C4' PXY d   1       5.253  -0.750   4.135  0.00  0.00     0.077 C 
ATOM      2  C1' PXY d   1       5.992   4.912   5.038  0.00  0.00     0.077 C 
ATOM      3  C1  PXY d   1       5.806   3.425   4.811  0.00  0.00    -0.082 A 
ATOM      4  C2  PXY d   1       5.448   2.985   3.616  0.00  0.00     0.003 A 
ATOM      5  C3  PXY d   1       5.244   1.646   3.402  0.00  0.00     0.003 A 
ATOM      6  C4  PXY d   1       5.461   0.743   4.407  0.00  0.00    -0.082 A 
ATOM      7  C5  PXY d   1       5.838   1.182   5.627  0.00  0.00     0.003 A 
ATOM      8  C6  PXY d   1       5.999   2.549   5.835  0.00  0.00     0.003 A 
ENDROOT
TORSDOF 0
ENDMDL
