MODEL 1
REMARK minimizedAffinity -1.99371505
REMARK minimizedRMSD -1
REMARK  0 active torsions:
REMARK  status: ('A' for Active; 'I' for Inactive)
ROOT
ATOM      1  C4' PXY d   1       5.984  -1.275   4.278  0.00  0.00     0.077 C 
ATOM      2  C1' PXY d   1       5.995   4.500   4.548  0.00  0.00     0.077 C 
ATOM      3  C1  PXY d   1       5.998   2.985   4.489  0.00  0.00    -0.082 A 
ATOM      4  C2  PXY d   1       6.000   2.376   3.314  0.00  0.00     0.003 A 
ATOM      5  C3  PXY d   1       5.970   1.007   3.242  0.00  0.00     0.003 A 
ATOM      6  C4  PXY d   1       5.991   0.253   4.385  0.00  0.00    -0.082 A 
ATOM      7  C5  PXY d   1       6.000   0.867   5.587  0.00  0.00     0.003 A 
ATOM      8  C6  PXY d   1       5.989   2.257   5.639  0.00  0.00     0.003 A 
ENDROOT
TORSDOF 0
ENDMDL
