MODEL 1
REMARK minimizedAffinity -1.75099814
REMARK minimizedRMSD -1
REMARK  0 active torsions:
REMARK  status: ('A' for Active; 'I' for Inactive)
ROOT
ATOM      1  C4' PXY d   1       6.000   4.506   3.592  0.00  0.00     0.077 C 
ATOM      2  C1' PXY d   1       5.880  -1.033   5.240  0.00  0.00     0.077 C 
ATOM      3  C1  PXY d   1       5.917   0.416   4.797  0.00  0.00    -0.082 A 
ATOM      4  C2  PXY d   1       5.903   1.379   5.705  0.00  0.00     0.003 A 
ATOM      5  C3  PXY d   1       5.903   2.695   5.320  0.00  0.00     0.003 A 
ATOM      6  C4  PXY d   1       5.973   3.029   3.994  0.00  0.00    -0.082 A 
ATOM      7  C5  PXY d   1       5.999   2.053   3.062  0.00  0.00     0.003 A 
ATOM      8  C6  PXY d   1       5.956   0.723   3.472  0.00  0.00     0.003 A 
ENDROOT
TORSDOF 0
ENDMDL
