MODEL 1
REMARK minimizedAffinity 7.63866425
REMARK minimizedRMSD -1
REMARK  1 active torsions:
REMARK  status: ('A' for Active; 'I' for Inactive)
REMARK    1  A    between atoms: C1_2  and  C2_3 
ROOT
ATOM      1  C2  UNL d   1       4.011   0.527   1.520  0.00  0.00    -0.081 A 
ATOM      2  C3  UNL d   1       4.002  -0.422   2.550  0.00  0.00     0.006 A 
ATOM      3  C4  UNL d   1       2.834  -0.667   3.276  0.00  0.00     0.002 A 
ATOM      4  C5  UNL d   1       1.655   0.026   2.980  0.00  0.00    -0.080 A 
ATOM      5  C6  UNL d   1       0.387  -0.250   3.732  0.00  0.00     0.076 C 
ATOM      6  C7  UNL d   1       1.669   0.986   1.963  0.00  0.00     0.002 A 
ATOM      7  C8  UNL d   1       2.837   1.232   1.237  0.00  0.00     0.006 A 
ENDROOT
BRANCH   1   8
ATOM      8  C1  UNL d   1       5.252   0.747   0.692  0.00  0.00     0.054 C 
ATOM      9  C   UNL d   1       6.000   1.995   1.138  0.00  0.00     0.018 C 
ENDBRANCH   1   8
TORSDOF 1
ENDMDL
