MODEL 1
REMARK minimizedAffinity 11.272337
REMARK minimizedRMSD -1
REMARK  1 active torsions:
REMARK  status: ('A' for Active; 'I' for Inactive)
REMARK    1  A    between atoms: C1_2  and  C2_3 
ROOT
ATOM      1  C2  UNL d   1      -0.177   0.471   2.355  0.00  0.00    -0.081 A 
ATOM      2  C3  UNL d   1      -1.386  -0.229   2.257  0.00  0.00     0.006 A 
ATOM      3  C4  UNL d   1      -2.151  -0.162   1.090  0.00  0.00     0.002 A 
ATOM      4  C5  UNL d   1      -1.717   0.599  -0.000  0.00  0.00    -0.080 A 
ATOM      5  C6  UNL d   1      -2.514   0.656  -1.269  0.00  0.00     0.076 C 
ATOM      6  C7  UNL d   1      -0.518   1.312   0.103  0.00  0.00     0.002 A 
ATOM      7  C8  UNL d   1       0.247   1.246   1.270  0.00  0.00     0.006 A 
ENDROOT
BRANCH   1   8
ATOM      8  C1  UNL d   1       0.682   0.348   3.587  0.00  0.00     0.054 C 
ATOM      9  C   UNL d   1       2.042  -0.249   3.256  0.00  0.00     0.018 C 
ENDBRANCH   1   8
TORSDOF 1
ENDMDL
