MODEL 1
REMARK minimizedAffinity 9.00217342
REMARK minimizedRMSD -1
REMARK  1 active torsions:
REMARK  status: ('A' for Active; 'I' for Inactive)
REMARK    1  A    between atoms: C1_2  and  C2_3 
ROOT
ATOM      1  C2  UNL d   1      -0.614   0.377   1.278  0.00  0.00    -0.081 A 
ATOM      2  C3  UNL d   1       0.467   0.827   0.509  0.00  0.00     0.006 A 
ATOM      3  C4  UNL d   1       1.779   0.555   0.905  0.00  0.00     0.002 A 
ATOM      4  C5  UNL d   1       2.032  -0.177   2.070  0.00  0.00    -0.080 A 
ATOM      5  C6  UNL d   1       3.434  -0.502   2.489  0.00  0.00     0.076 C 
ATOM      6  C7  UNL d   1       0.952  -0.611   2.847  0.00  0.00     0.002 A 
ATOM      7  C8  UNL d   1      -0.359  -0.339   2.453  0.00  0.00     0.006 A 
ENDROOT
BRANCH   1   8
ATOM      8  C1  UNL d   1      -2.031   0.613   0.820  0.00  0.00     0.054 C 
ATOM      9  C   UNL d   1      -2.174   0.385  -0.678  0.00  0.00     0.018 C 
ENDBRANCH   1   8
TORSDOF 1
ENDMDL
