MODEL 1
REMARK minimizedAffinity -3.1536262
REMARK minimizedRMSD -1
REMARK  1 active torsions:
REMARK  status: ('A' for Active; 'I' for Inactive)
REMARK    1  A    between atoms: C1_2  and  C2_3 
ROOT
ATOM      1  C2  UNL d   1       5.845  -2.419   3.187  0.00  0.00    -0.081 A 
ATOM      2  C3  UNL d   1       5.999  -2.262   4.570  0.00  0.00     0.006 A 
ATOM      3  C4  UNL d   1       5.915  -3.365   5.422  0.00  0.00     0.002 A 
ATOM      4  C5  UNL d   1       5.683  -4.645   4.906  0.00  0.00    -0.080 A 
ATOM      5  C6  UNL d   1       5.621  -5.842   5.807  0.00  0.00     0.076 C 
ATOM      6  C7  UNL d   1       5.512  -4.800   3.526  0.00  0.00     0.002 A 
ATOM      7  C8  UNL d   1       5.596  -3.696   2.674  0.00  0.00     0.006 A 
ENDROOT
BRANCH   1   8
ATOM      8  C1  UNL d   1       6.000  -1.241   2.260  0.00  0.00     0.054 C 
ATOM      9  C   UNL d   1       5.992   0.073   3.028  0.00  0.00     0.018 C 
ENDBRANCH   1   8
TORSDOF 1
ENDMDL
