MODEL 1
REMARK minimizedAffinity 8.83381844
REMARK minimizedRMSD -1
REMARK  1 active torsions:
REMARK  status: ('A' for Active; 'I' for Inactive)
REMARK    1  A    between atoms: C1_2  and  C2_3 
ROOT
ATOM      1  C2  UNL d   1       0.106   0.250   2.875  0.00  0.00    -0.081 A 
ATOM      2  C3  UNL d   1      -0.427  -0.915   3.439  0.00  0.00     0.006 A 
ATOM      3  C4  UNL d   1      -1.488  -1.580   2.819  0.00  0.00     0.002 A 
ATOM      4  C5  UNL d   1      -2.028  -1.095   1.623  0.00  0.00    -0.080 A 
ATOM      5  C6  UNL d   1      -3.147  -1.816   0.932  0.00  0.00     0.076 C 
ATOM      6  C7  UNL d   1      -1.507   0.079   1.069  0.00  0.00     0.002 A 
ATOM      7  C8  UNL d   1      -0.446   0.744   1.689  0.00  0.00     0.006 A 
ENDROOT
BRANCH   1   8
ATOM      8  C1  UNL d   1       1.292   0.933   3.507  0.00  0.00     0.054 C 
ATOM      9  C   UNL d   1       0.888   2.240   4.174  0.00  0.00     0.018 C 
ENDBRANCH   1   8
TORSDOF 1
ENDMDL
