MODEL 1
REMARK minimizedAffinity 9.12507439
REMARK minimizedRMSD -1
REMARK  1 active torsions:
REMARK  status: ('A' for Active; 'I' for Inactive)
REMARK    1  A    between atoms: C1_2  and  C2_3 
ROOT
ATOM      1  C2  UNL d   1      -2.347   0.360   0.973  0.00  0.00    -0.081 A 
ATOM      2  C3  UNL d   1      -3.510  -0.178   0.409  0.00  0.00     0.006 A 
ATOM      3  C4  UNL d   1      -3.502  -0.669  -0.899  0.00  0.00     0.002 A 
ATOM      4  C5  UNL d   1      -2.329  -0.638  -1.661  0.00  0.00    -0.080 A 
ATOM      5  C6  UNL d   1      -2.299  -1.189  -3.055  0.00  0.00     0.076 C 
ATOM      6  C7  UNL d   1      -1.171  -0.084  -1.104  0.00  0.00     0.002 A 
ATOM      7  C8  UNL d   1      -1.179   0.408   0.203  0.00  0.00     0.006 A 
ENDROOT
BRANCH   1   8
ATOM      8  C1  UNL d   1      -2.336   0.831   2.405  0.00  0.00     0.054 C 
ATOM      9  C   UNL d   1      -1.037   0.454   3.101  0.00  0.00     0.018 C 
ENDBRANCH   1   8
TORSDOF 1
ENDMDL
