MODEL 1
REMARK minimizedAffinity 0.0501625687
REMARK minimizedRMSD -1
REMARK  1 active torsions:
REMARK  status: ('A' for Active; 'I' for Inactive)
REMARK    1  A    between atoms: C1_2  and  C2_3 
ROOT
ATOM      1  C2  UNL d   1       2.757   3.526  -2.306  0.00  0.00    -0.081 A 
ATOM      2  C3  UNL d   1       3.827   2.623  -2.279  0.00  0.00     0.006 A 
ATOM      3  C4  UNL d   1       4.872   2.735  -3.199  0.00  0.00     0.002 A 
ATOM      4  C5  UNL d   1       4.869   3.756  -4.155  0.00  0.00    -0.080 A 
ATOM      5  C6  UNL d   1       6.000   3.907  -5.129  0.00  0.00     0.076 C 
ATOM      6  C7  UNL d   1       3.792   4.648  -4.193  0.00  0.00     0.002 A 
ATOM      7  C8  UNL d   1       2.747   4.536  -3.274  0.00  0.00     0.006 A 
ENDROOT
BRANCH   1   8
ATOM      8  C1  UNL d   1       1.661   3.447  -1.274  0.00  0.00     0.054 C 
ATOM      9  C   UNL d   1       2.219   3.108   0.101  0.00  0.00     0.018 C 
ENDBRANCH   1   8
TORSDOF 1
ENDMDL
