MODEL 1
REMARK minimizedAffinity 5.04945517
REMARK minimizedRMSD -1
REMARK  1 active torsions:
REMARK  status: ('A' for Active; 'I' for Inactive)
REMARK    1  A    between atoms: C1_2  and  C2_3 
ROOT
ATOM      1  C2  UNL d   1      -1.685  -0.324   2.030  0.00  0.00    -0.081 A 
ATOM      2  C3  UNL d   1      -1.455  -0.900   3.285  0.00  0.00     0.006 A 
ATOM      3  C4  UNL d   1      -0.995  -0.119   4.349  0.00  0.00     0.002 A 
ATOM      4  C5  UNL d   1      -0.764   1.250   4.177  0.00  0.00    -0.080 A 
ATOM      5  C6  UNL d   1      -0.299   2.105   5.318  0.00  0.00     0.076 C 
ATOM      6  C7  UNL d   1      -0.977   1.822   2.918  0.00  0.00     0.002 A 
ATOM      7  C8  UNL d   1      -1.436   1.042   1.854  0.00  0.00     0.006 A 
ENDROOT
BRANCH   1   8
ATOM      8  C1  UNL d   1      -2.243  -1.149   0.899  0.00  0.00     0.054 C 
ATOM      9  C   UNL d   1      -2.239  -0.371  -0.409  0.00  0.00     0.018 C 
ENDBRANCH   1   8
TORSDOF 1
ENDMDL
