MODEL 1
REMARK minimizedAffinity 3.53615189
REMARK minimizedRMSD -1
REMARK  1 active torsions:
REMARK  status: ('A' for Active; 'I' for Inactive)
REMARK    1  A    between atoms: C1_2  and  C2_3 
ROOT
ATOM      1  C2  UNL d   1      -1.936  -0.418   1.404  0.00  0.00    -0.081 A 
ATOM      2  C3  UNL d   1      -3.052  -0.040   0.647  0.00  0.00     0.006 A 
ATOM      3  C4  UNL d   1      -3.115  -0.333  -0.717  0.00  0.00     0.002 A 
ATOM      4  C5  UNL d   1      -2.068  -1.016  -1.345  0.00  0.00    -0.080 A 
ATOM      5  C6  UNL d   1      -2.136  -1.364  -2.803  0.00  0.00     0.076 C 
ATOM      6  C7  UNL d   1      -0.946  -1.379  -0.593  0.00  0.00     0.002 A 
ATOM      7  C8  UNL d   1      -0.882  -1.085   0.771  0.00  0.00     0.006 A 
ENDROOT
BRANCH   1   8
ATOM      8  C1  UNL d   1      -1.894  -0.161   2.889  0.00  0.00     0.054 C 
ATOM      9  C   UNL d   1      -0.487  -0.338   3.441  0.00  0.00     0.018 C 
ENDBRANCH   1   8
TORSDOF 1
ENDMDL
