MODEL 1
REMARK minimizedAffinity 3.98002625
REMARK minimizedRMSD -1
REMARK  1 active torsions:
REMARK  status: ('A' for Active; 'I' for Inactive)
REMARK    1  A    between atoms: C1_2  and  C2_3 
ROOT
ATOM      1  C2  UNL d   1      -1.344  -0.006   0.431  0.00  0.00    -0.081 A 
ATOM      2  C3  UNL d   1      -0.233  -0.293   1.234  0.00  0.00     0.006 A 
ATOM      3  C4  UNL d   1      -0.401  -0.645   2.575  0.00  0.00     0.002 A 
ATOM      4  C5  UNL d   1      -1.681  -0.724   3.133  0.00  0.00    -0.080 A 
ATOM      5  C6  UNL d   1      -1.877  -1.130   4.564  0.00  0.00     0.076 C 
ATOM      6  C7  UNL d   1      -2.790  -0.420   2.336  0.00  0.00     0.002 A 
ATOM      7  C8  UNL d   1      -2.623  -0.067   0.995  0.00  0.00     0.006 A 
ENDROOT
BRANCH   1   8
ATOM      8  C1  UNL d   1      -1.170   0.311  -1.033  0.00  0.00     0.054 C 
ATOM      9  C   UNL d   1      -0.820  -0.936  -1.831  0.00  0.00     0.018 C 
ENDBRANCH   1   8
TORSDOF 1
ENDMDL
