MODEL 1
REMARK minimizedAffinity 10.6222763
REMARK minimizedRMSD -1
REMARK  1 active torsions:
REMARK  status: ('A' for Active; 'I' for Inactive)
REMARK    1  A    between atoms: C1_2  and  C2_3 
ROOT
ATOM      1  C2  UNL d   1      -0.096  -2.056   3.175  0.00  0.00    -0.081 A 
ATOM      2  C3  UNL d   1      -1.373  -1.528   2.950  0.00  0.00     0.006 A 
ATOM      3  C4  UNL d   1      -1.562  -0.147   2.857  0.00  0.00     0.002 A 
ATOM      4  C5  UNL d   1      -0.478   0.728   2.981  0.00  0.00    -0.080 A 
ATOM      5  C6  UNL d   1      -0.662   2.211   2.854  0.00  0.00     0.076 C 
ATOM      6  C7  UNL d   1       0.796   0.202   3.224  0.00  0.00     0.002 A 
ATOM      7  C8  UNL d   1       0.985  -1.179   3.317  0.00  0.00     0.006 A 
ENDROOT
BRANCH   1   8
ATOM      8  C1  UNL d   1       0.121  -3.547   3.211  0.00  0.00     0.054 C 
ATOM      9  C   UNL d   1       0.774  -4.041   1.928  0.00  0.00     0.018 C 
ENDBRANCH   1   8
TORSDOF 1
ENDMDL
