MODEL 1
REMARK minimizedAffinity 4.67660284
REMARK minimizedRMSD -1
REMARK  1 active torsions:
REMARK  status: ('A' for Active; 'I' for Inactive)
REMARK    1  A    between atoms: C1_2  and  C2_3 
ROOT
ATOM      1  C2  UNL d   1      -1.116   0.049   0.307  0.00  0.00    -0.081 A 
ATOM      2  C3  UNL d   1      -0.241   0.413   1.338  0.00  0.00     0.006 A 
ATOM      3  C4  UNL d   1      -0.450  -0.047   2.640  0.00  0.00     0.002 A 
ATOM      4  C5  UNL d   1      -1.533  -0.883   2.932  0.00  0.00    -0.080 A 
ATOM      5  C6  UNL d   1      -1.752  -1.408   4.320  0.00  0.00     0.076 C 
ATOM      6  C7  UNL d   1      -2.417  -1.233   1.906  0.00  0.00     0.002 A 
ATOM      7  C8  UNL d   1      -2.209  -0.773   0.604  0.00  0.00     0.006 A 
ENDROOT
BRANCH   1   8
ATOM      8  C1  UNL d   1      -0.856   0.490  -1.110  0.00  0.00     0.054 C 
ATOM      9  C   UNL d   1      -0.622  -0.703  -2.027  0.00  0.00     0.018 C 
ENDBRANCH   1   8
TORSDOF 1
ENDMDL
