MODEL 1
REMARK minimizedAffinity 7.08033609
REMARK minimizedRMSD -1
REMARK  1 active torsions:
REMARK  status: ('A' for Active; 'I' for Inactive)
REMARK    1  A    between atoms: C1_2  and  C2_3 
ROOT
ATOM      1  C2  UNL d   1       1.133  -0.218   0.993  0.00  0.00    -0.081 A 
ATOM      2  C3  UNL d   1       0.904  -0.015   2.359  0.00  0.00     0.006 A 
ATOM      3  C4  UNL d   1      -0.278   0.585   2.798  0.00  0.00     0.002 A 
ATOM      4  C5  UNL d   1      -1.254   0.986   1.879  0.00  0.00    -0.080 A 
ATOM      5  C6  UNL d   1      -2.541   1.604   2.338  0.00  0.00     0.076 C 
ATOM      6  C7  UNL d   1      -1.018   0.800   0.513  0.00  0.00     0.002 A 
ATOM      7  C8  UNL d   1       0.165   0.200   0.074  0.00  0.00     0.006 A 
ENDROOT
BRANCH   1   8
ATOM      8  C1  UNL d   1       2.379  -0.923   0.521  0.00  0.00     0.054 C 
ATOM      9  C   UNL d   1       2.039  -2.201  -0.233  0.00  0.00     0.018 C 
ENDBRANCH   1   8
TORSDOF 1
ENDMDL
