MODEL 1
REMARK minimizedAffinity 11.9445496
REMARK minimizedRMSD -1
REMARK  1 active torsions:
REMARK  status: ('A' for Active; 'I' for Inactive)
REMARK    1  A    between atoms: C1_2  and  C2_3 
ROOT
ATOM      1  C2  UNL d   1      -0.175   1.774   2.039  0.00  0.00    -0.081 A 
ATOM      2  C3  UNL d   1       0.682   1.906   3.139  0.00  0.00     0.006 A 
ATOM      3  C4  UNL d   1       2.031   2.214   2.952  0.00  0.00     0.002 A 
ATOM      4  C5  UNL d   1       2.544   2.403   1.664  0.00  0.00    -0.080 A 
ATOM      5  C6  UNL d   1       3.984   2.764   1.451  0.00  0.00     0.076 C 
ATOM      6  C7  UNL d   1       1.692   2.255   0.565  0.00  0.00     0.002 A 
ATOM      7  C8  UNL d   1       0.343   1.946   0.751  0.00  0.00     0.006 A 
ENDROOT
BRANCH   1   8
ATOM      8  C1  UNL d   1      -1.645   1.506   2.241  0.00  0.00     0.054 C 
ATOM      9  C   UNL d   1      -1.950   0.017   2.172  0.00  0.00     0.018 C 
ENDBRANCH   1   8
TORSDOF 1
ENDMDL
