MODEL 1
REMARK minimizedAffinity -5.68860817
REMARK minimizedRMSD -1
REMARK  2 active torsions:
REMARK  status: ('A' for Active; 'I' for Inactive)
REMARK    1  A    between atoms: C2'_3  and  C1'_4 
REMARK    2  A    between atoms: C1'_4  and  C1_5 
ROOT
ATOM      1  C1  I4B d   1      -0.154   0.222  -0.092  0.00  0.00    -0.075 A 
ATOM      2  C2  I4B d   1      -0.176  -1.003  -0.712  0.00  0.00     0.003 A 
ATOM      3  C3  I4B d   1       0.860  -1.938  -0.479  0.00  0.00     0.002 A 
ATOM      4  C4  I4B d   1       1.919  -1.591   0.336  0.00  0.00    -0.004 A 
ATOM      5  C5  I4B d   1       1.928  -0.358   0.981  0.00  0.00     0.002 A 
ATOM      6  C6  I4B d   1       0.879   0.550   0.776  0.00  0.00     0.003 A 
ENDROOT
BRANCH   1   7
ATOM      7  C1' I4B d   1      -1.249   1.199  -0.387  0.00  0.00     0.060 C 
BRANCH   7   8
ATOM      8  C2' I4B d   1      -2.493   0.741   0.347  0.00  0.00    -0.013 C 
ATOM      9  C4' I4B d   1      -2.795   1.636   1.519  0.00  0.00     0.013 C 
ATOM     10  C3' I4B d   1      -3.629   0.728  -0.632  0.00  0.00     0.013 C 
ENDBRANCH   7   8
ENDBRANCH   1   7
TORSDOF 2
ENDMDL
