MODEL 1
REMARK minimizedAffinity -2.88478756
REMARK minimizedRMSD -1
REMARK  2 active torsions:
REMARK  status: ('A' for Active; 'I' for Inactive)
REMARK    1  A    between atoms: C2'_3  and  C1'_4 
REMARK    2  A    between atoms: C1'_4  and  C1_5 
ROOT
ATOM      1  C1  I4B d   1      -0.012   0.037   0.099  0.00  0.00    -0.075 A 
ATOM      2  C2  I4B d   1       1.062   0.343   0.896  0.00  0.00     0.003 A 
ATOM      3  C3  I4B d   1       2.111  -0.592   1.069  0.00  0.00     0.002 A 
ATOM      4  C4  I4B d   1       2.021  -1.833   0.471  0.00  0.00    -0.004 A 
ATOM      5  C5  I4B d   1       0.942  -2.133  -0.355  0.00  0.00     0.002 A 
ATOM      6  C6  I4B d   1      -0.075  -1.188  -0.553  0.00  0.00     0.003 A 
ENDROOT
BRANCH   1   7
ATOM      7  C1' I4B d   1      -1.118   1.035  -0.035  0.00  0.00     0.060 C 
BRANCH   7   8
ATOM      8  C2' I4B d   1      -2.290   0.547   0.792  0.00  0.00    -0.013 C 
ATOM      9  C4' I4B d   1      -2.739   1.597   1.774  0.00  0.00     0.013 C 
ATOM     10  C3' I4B d   1      -3.398   0.176  -0.148  0.00  0.00     0.013 C 
ENDBRANCH   7   8
ENDBRANCH   1   7
TORSDOF 2
ENDMDL
