MODEL 1
REMARK minimizedAffinity -2.22580981
REMARK minimizedRMSD -1
REMARK  2 active torsions:
REMARK  status: ('A' for Active; 'I' for Inactive)
REMARK    1  A    between atoms: C2'_3  and  C1'_4 
REMARK    2  A    between atoms: C1'_4  and  C1_5 
ROOT
ATOM      1  C1  I4B d   1      -0.190   0.045  -0.265  0.00  0.00    -0.075 A 
ATOM      2  C2  I4B d   1      -0.622  -1.257  -0.315  0.00  0.00     0.003 A 
ATOM      3  C3  I4B d   1       0.314  -2.320  -0.304  0.00  0.00     0.002 A 
ATOM      4  C4  I4B d   1       1.664  -2.036  -0.294  0.00  0.00    -0.004 A 
ATOM      5  C5  I4B d   1       2.100  -0.716  -0.221  0.00  0.00     0.002 A 
ATOM      6  C6  I4B d   1       1.167   0.331  -0.194  0.00  0.00     0.003 A 
ENDROOT
BRANCH   1   7
ATOM      7  C1' I4B d   1      -1.205   1.143  -0.312  0.00  0.00     0.060 C 
BRANCH   7   8
ATOM      8  C2' I4B d   1      -2.362   0.747   0.582  0.00  0.00    -0.013 C 
ATOM      9  C4' I4B d   1      -2.701   1.846   1.555  0.00  0.00     0.013 C 
ATOM     10  C3' I4B d   1      -3.534   0.420  -0.295  0.00  0.00     0.013 C 
ENDBRANCH   7   8
ENDBRANCH   1   7
TORSDOF 2
ENDMDL
