MODEL 1
REMARK minimizedAffinity -1.91209471
REMARK minimizedRMSD -1
REMARK  2 active torsions:
REMARK  status: ('A' for Active; 'I' for Inactive)
REMARK    1  A    between atoms: C2'_3  and  C1'_4 
REMARK    2  A    between atoms: C1'_4  and  C1_5 
ROOT
ATOM      1  C1  I4B d   1      -0.487  -0.511   0.097  0.00  0.00    -0.075 A 
ATOM      2  C2  I4B d   1       0.294   0.120   1.033  0.00  0.00     0.003 A 
ATOM      3  C3  I4B d   1       1.705   0.090   0.921  0.00  0.00     0.002 A 
ATOM      4  C4  I4B d   1       2.290  -0.621  -0.107  0.00  0.00    -0.004 A 
ATOM      5  C5  I4B d   1       1.497  -1.240  -1.068  0.00  0.00     0.002 A 
ATOM      6  C6  I4B d   1       0.099  -1.175  -0.973  0.00  0.00     0.003 A 
ENDROOT
BRANCH   1   7
ATOM      7  C1' I4B d   1      -1.973  -0.487   0.264  0.00  0.00     0.060 C 
BRANCH   7   8
ATOM      8  C2' I4B d   1      -2.450   0.927  -0.001  0.00  0.00    -0.013 C 
ATOM      9  C4' I4B d   1      -3.662   0.935  -0.895  0.00  0.00     0.013 C 
ATOM     10  C3' I4B d   1      -2.747   1.571   1.320  0.00  0.00     0.013 C 
ENDBRANCH   7   8
ENDBRANCH   1   7
TORSDOF 2
ENDMDL
