MODEL 1
REMARK minimizedAffinity -1.82236171
REMARK minimizedRMSD -1
REMARK  2 active torsions:
REMARK  status: ('A' for Active; 'I' for Inactive)
REMARK    1  A    between atoms: C2'_3  and  C1'_4 
REMARK    2  A    between atoms: C1'_4  and  C1_5 
ROOT
ATOM      1  C1  I4B d   1      -0.136  -0.472  -1.366  0.00  0.00    -0.075 A 
ATOM      2  C2  I4B d   1       1.188  -0.118  -1.281  0.00  0.00     0.003 A 
ATOM      3  C3  I4B d   1       2.167  -1.091  -0.964  0.00  0.00     0.002 A 
ATOM      4  C4  I4B d   1       1.775  -2.386  -0.693  0.00  0.00    -0.004 A 
ATOM      5  C5  I4B d   1       0.436  -2.748  -0.802  0.00  0.00     0.002 A 
ATOM      6  C6  I4B d   1      -0.525  -1.788  -1.153  0.00  0.00     0.003 A 
ENDROOT
BRANCH   1   7
ATOM      7  C1' I4B d   1      -1.147   0.588  -1.669  0.00  0.00     0.060 C 
BRANCH   7   8
ATOM      8  C2' I4B d   1      -2.450   0.194  -1.005  0.00  0.00    -0.013 C 
ATOM      9  C4' I4B d   1      -2.724   1.046   0.206  0.00  0.00     0.013 C 
ATOM     10  C3' I4B d   1      -3.546   0.326  -2.020  0.00  0.00     0.013 C 
ENDBRANCH   7   8
ENDBRANCH   1   7
TORSDOF 2
ENDMDL
