MODEL 1
REMARK minimizedAffinity -2.06476545
REMARK minimizedRMSD -1
REMARK  1 active torsions:
REMARK  status: ('A' for Active; 'I' for Inactive)
REMARK    1  A    between atoms: C3_4  and  O_7 
ROOT
ATOM      1  C   UNL d   1      -0.127   0.671   0.078  0.00  0.00    -0.033 A 
ATOM      2  C1  UNL d   1      -0.604   0.241   1.317  0.00  0.00     0.039 A 
ATOM      3  C2  UNL d   1      -0.728  -1.124   1.585  0.00  0.00    -0.080 A 
ATOM      4  C3  UNL d   1      -0.369  -2.047   0.606  0.00  0.00     0.150 A 
ATOM      5  C4  UNL d   1       0.111  -1.626  -0.629  0.00  0.00    -0.007 A 
ATOM      6  C5  UNL d   1       0.233  -0.262  -0.895  0.00  0.00     0.039 A 
ENDROOT
BRANCH   4   7
ATOM      7  O   UNL d   1      -0.476  -3.389   0.819  0.00  0.00    -0.526 OA
ATOM      8  H5  UNL d   1      -0.849  -3.531   1.705  0.00  0.00     0.418 HD
ENDBRANCH   4   7
TORSDOF 1
ENDMDL
