MODEL 1
REMARK minimizedAffinity -4.7894721
REMARK minimizedRMSD -1
REMARK  1 active torsions:
REMARK  status: ('A' for Active; 'I' for Inactive)
REMARK    1  A    between atoms: C3_4  and  O_7 
ROOT
ATOM      1  C   UNL d   1      -0.227   0.104  -0.228  0.00  0.00    -0.033 A 
ATOM      2  C1  UNL d   1      -0.975  -0.469   0.803  0.00  0.00     0.039 A 
ATOM      3  C2  UNL d   1      -0.823  -1.823   1.109  0.00  0.00    -0.080 A 
ATOM      4  C3  UNL d   1       0.079  -2.592   0.378  0.00  0.00     0.150 A 
ATOM      5  C4  UNL d   1       0.829  -2.027  -0.648  0.00  0.00    -0.007 A 
ATOM      6  C5  UNL d   1       0.676  -0.675  -0.953  0.00  0.00     0.039 A 
ENDROOT
BRANCH   4   7
ATOM      7  O   UNL d   1       0.258  -3.918   0.636  0.00  0.00    -0.526 OA
ATOM      8  H5  UNL d   1      -0.348  -4.177   1.351  0.00  0.00     0.418 HD
ENDBRANCH   4   7
TORSDOF 1
ENDMDL
