MODEL 1
REMARK minimizedAffinity -3.47900796
REMARK minimizedRMSD -1
REMARK  1 active torsions:
REMARK  status: ('A' for Active; 'I' for Inactive)
REMARK    1  A    between atoms: C3_4  and  O_7 
ROOT
ATOM      1  C   UNL d   1      -1.201   0.349   0.706  0.00  0.00    -0.033 A 
ATOM      2  C1  UNL d   1      -0.294  -0.151  -0.230  0.00  0.00     0.039 A 
ATOM      3  C2  UNL d   1       0.152  -1.471  -0.137  0.00  0.00    -0.080 A 
ATOM      4  C3  UNL d   1      -0.316  -2.279   0.896  0.00  0.00     0.150 A 
ATOM      5  C4  UNL d   1      -1.222  -1.788   1.830  0.00  0.00    -0.007 A 
ATOM      6  C5  UNL d   1      -1.666  -0.470   1.735  0.00  0.00     0.039 A 
ENDROOT
BRANCH   4   7
ATOM      7  O   UNL d   1       0.095  -3.572   1.031  0.00  0.00    -0.526 OA
ATOM      8  H5  UNL d   1       0.742  -3.764   0.332  0.00  0.00     0.418 HD
ENDBRANCH   4   7
TORSDOF 1
ENDMDL
