MODEL 1
REMARK minimizedAffinity -4.62739944
REMARK minimizedRMSD -1
REMARK  1 active torsions:
REMARK  status: ('A' for Active; 'I' for Inactive)
REMARK    1  A    between atoms: C3_4  and  O_7 
ROOT
ATOM      1  C   UNL d   1       0.050  -0.085  -1.346  0.00  0.00    -0.033 A 
ATOM      2  C1  UNL d   1      -0.177   0.085   0.021  0.00  0.00     0.039 A 
ATOM      3  C2  UNL d   1      -0.076  -1.004   0.889  0.00  0.00    -0.080 A 
ATOM      4  C3  UNL d   1       0.253  -2.257   0.377  0.00  0.00     0.150 A 
ATOM      5  C4  UNL d   1       0.485  -2.433  -0.983  0.00  0.00    -0.007 A 
ATOM      6  C5  UNL d   1       0.382  -1.344  -1.848  0.00  0.00     0.039 A 
ENDROOT
BRANCH   4   7
ATOM      7  O   UNL d   1       0.359  -3.351   1.184  0.00  0.00    -0.526 OA
ATOM      8  H5  UNL d   1       0.144  -3.084   2.094  0.00  0.00     0.418 HD
ENDBRANCH   4   7
TORSDOF 1
ENDMDL
