MODEL 1
REMARK minimizedAffinity -2.76373458
REMARK minimizedRMSD -1
REMARK  1 active torsions:
REMARK  status: ('A' for Active; 'I' for Inactive)
REMARK    1  A    between atoms: C3_4  and  O_7 
ROOT
ATOM      1  C   UNL d   1      -0.832  -1.855   1.346  0.00  0.00    -0.033 A 
ATOM      2  C1  UNL d   1      -0.459  -0.571   0.943  0.00  0.00     0.039 A 
ATOM      3  C2  UNL d   1      -0.139  -0.322  -0.393  0.00  0.00    -0.080 A 
ATOM      4  C3  UNL d   1      -0.196  -1.364  -1.315  0.00  0.00     0.150 A 
ATOM      5  C4  UNL d   1      -0.570  -2.645  -0.921  0.00  0.00    -0.007 A 
ATOM      6  C5  UNL d   1      -0.888  -2.891   0.414  0.00  0.00     0.039 A 
ENDROOT
BRANCH   4   7
ATOM      7  O   UNL d   1       0.112  -1.170  -2.629  0.00  0.00    -0.526 OA
ATOM      8  H5  UNL d   1       0.380  -0.244  -2.749  0.00  0.00     0.418 HD
ENDBRANCH   4   7
TORSDOF 1
ENDMDL
