MODEL 1
REMARK minimizedAffinity -2.12836123
REMARK minimizedRMSD -1
REMARK  1 active torsions:
REMARK  status: ('A' for Active; 'I' for Inactive)
REMARK    1  A    between atoms: C3_4  and  O_7 
ROOT
ATOM      1  C   UNL d   1       1.668   3.249   0.115  0.00  0.00    -0.033 A 
ATOM      2  C1  UNL d   1       2.517   3.817   1.066  0.00  0.00     0.039 A 
ATOM      3  C2  UNL d   1       2.011   4.715   2.009  0.00  0.00    -0.080 A 
ATOM      4  C3  UNL d   1       0.656   5.033   1.989  0.00  0.00     0.150 A 
ATOM      5  C4  UNL d   1      -0.196   4.467   1.047  0.00  0.00    -0.007 A 
ATOM      6  C5  UNL d   1       0.311   3.572   0.106  0.00  0.00     0.039 A 
ENDROOT
BRANCH   4   7
ATOM      7  O   UNL d   1       0.116   5.907   2.886  0.00  0.00    -0.526 OA
ATOM      8  H5  UNL d   1       0.828   6.240   3.457  0.00  0.00     0.418 HD
ENDBRANCH   4   7
TORSDOF 1
ENDMDL
