MODEL 1
REMARK minimizedAffinity -3.542449
REMARK minimizedRMSD -1
REMARK  1 active torsions:
REMARK  status: ('A' for Active; 'I' for Inactive)
REMARK    1  A    between atoms: C3_4  and  O_7 
ROOT
ATOM      1  C   UNL d   1      -2.913   0.927   2.139  0.00  0.00    -0.033 A 
ATOM      2  C1  UNL d   1      -2.769   1.669   0.965  0.00  0.00     0.039 A 
ATOM      3  C2  UNL d   1      -1.716   1.395   0.089  0.00  0.00    -0.080 A 
ATOM      4  C3  UNL d   1      -0.817   0.379   0.397  0.00  0.00     0.150 A 
ATOM      5  C4  UNL d   1      -0.957  -0.367   1.563  0.00  0.00    -0.007 A 
ATOM      6  C5  UNL d   1      -2.008  -0.092   2.437  0.00  0.00     0.039 A 
ENDROOT
BRANCH   4   7
ATOM      7  O   UNL d   1       0.228   0.078  -0.424  0.00  0.00    -0.526 OA
ATOM      8  H5  UNL d   1       0.215   0.694  -1.176  0.00  0.00     0.418 HD
ENDBRANCH   4   7
TORSDOF 1
ENDMDL
