MODEL 1
REMARK minimizedAffinity -3.10820746
REMARK minimizedRMSD -1
REMARK  1 active torsions:
REMARK  status: ('A' for Active; 'I' for Inactive)
REMARK    1  A    between atoms: C3_4  and  O_7 
ROOT
ATOM      1  C   UNL d   1      -0.769   0.575  -1.151  0.00  0.00    -0.033 A 
ATOM      2  C1  UNL d   1      -1.617   0.802  -0.065  0.00  0.00     0.039 A 
ATOM      3  C2  UNL d   1      -1.843  -0.210   0.870  0.00  0.00    -0.080 A 
ATOM      4  C3  UNL d   1      -1.215  -1.442   0.708  0.00  0.00     0.150 A 
ATOM      5  C4  UNL d   1      -0.366  -1.674  -0.370  0.00  0.00    -0.007 A 
ATOM      6  C5  UNL d   1      -0.143  -0.662  -1.302  0.00  0.00     0.039 A 
ENDROOT
BRANCH   4   7
ATOM      7  O   UNL d   1      -1.409  -2.462   1.591  0.00  0.00    -0.526 OA
ATOM      8  H5  UNL d   1      -2.041  -2.168   2.268  0.00  0.00     0.418 HD
ENDBRANCH   4   7
TORSDOF 1
ENDMDL
