MODEL 1
REMARK minimizedAffinity -3.72453141
REMARK minimizedRMSD -1
REMARK  1 active torsions:
REMARK  status: ('A' for Active; 'I' for Inactive)
REMARK    1  A    between atoms: C3_4  and  O_7 
ROOT
ATOM      1  C   UNL d   1       0.025   0.142   0.103  0.00  0.00    -0.033 A 
ATOM      2  C1  UNL d   1      -0.721  -0.443   1.128  0.00  0.00     0.039 A 
ATOM      3  C2  UNL d   1      -0.732  -1.830   1.284  0.00  0.00    -0.080 A 
ATOM      4  C3  UNL d   1       0.008  -2.621   0.409  0.00  0.00     0.150 A 
ATOM      5  C4  UNL d   1       0.757  -2.046  -0.612  0.00  0.00    -0.007 A 
ATOM      6  C5  UNL d   1       0.765  -0.660  -0.766  0.00  0.00     0.039 A 
ENDROOT
BRANCH   4   7
ATOM      7  O   UNL d   1       0.025  -3.980   0.518  0.00  0.00    -0.526 OA
ATOM      8  H5  UNL d   1      -0.560  -4.237   1.249  0.00  0.00     0.418 HD
ENDBRANCH   4   7
TORSDOF 1
ENDMDL
