MODEL 1
REMARK minimizedAffinity -1.71598756
REMARK minimizedRMSD -1
REMARK  1 active torsions:
REMARK  status: ('A' for Active; 'I' for Inactive)
REMARK    1  A    between atoms: C3_4  and  O_7 
ROOT
ATOM      1  C   UNL d   1       2.145   4.115   1.079  0.00  0.00    -0.033 A 
ATOM      2  C1  UNL d   1       0.753   4.124   0.976  0.00  0.00     0.039 A 
ATOM      3  C2  UNL d   1       0.075   2.983   0.540  0.00  0.00    -0.080 A 
ATOM      4  C3  UNL d   1       0.801   1.842   0.211  0.00  0.00     0.150 A 
ATOM      5  C4  UNL d   1       2.188   1.824   0.314  0.00  0.00    -0.007 A 
ATOM      6  C5  UNL d   1       2.863   2.965   0.749  0.00  0.00     0.039 A 
ENDROOT
BRANCH   4   7
ATOM      7  O   UNL d   1       0.185   0.706  -0.224  0.00  0.00    -0.526 OA
ATOM      8  H5  UNL d   1      -0.771   0.874  -0.273  0.00  0.00     0.418 HD
ENDBRANCH   4   7
TORSDOF 1
ENDMDL
