MODEL 1
REMARK minimizedAffinity 2.92378712
REMARK minimizedRMSD -1
REMARK  1 active torsions:
REMARK  status: ('A' for Active; 'I' for Inactive)
REMARK    1  A    between atoms: C3_4  and  O_7 
ROOT
ATOM      1  C   UNL d   1       1.654   3.404   1.363  0.00  0.00    -0.033 A 
ATOM      2  C1  UNL d   1       2.066   2.438   0.443  0.00  0.00     0.039 A 
ATOM      3  C2  UNL d   1       3.246   2.619  -0.281  0.00  0.00    -0.080 A 
ATOM      4  C3  UNL d   1       4.004   3.768  -0.076  0.00  0.00     0.150 A 
ATOM      5  C4  UNL d   1       3.602   4.733   0.841  0.00  0.00    -0.007 A 
ATOM      6  C5  UNL d   1       2.423   4.551   1.563  0.00  0.00     0.039 A 
ENDROOT
BRANCH   4   7
ATOM      7  O   UNL d   1       5.160   3.992  -0.763  0.00  0.00    -0.526 OA
ATOM      8  H5  UNL d   1       5.297   3.255  -1.382  0.00  0.00     0.418 HD
ENDBRANCH   4   7
TORSDOF 1
ENDMDL
