MODEL 1
REMARK minimizedAffinity 3.31374741
REMARK minimizedRMSD -1
REMARK  1 active torsions:
REMARK  status: ('A' for Active; 'I' for Inactive)
REMARK    1  A    between atoms: C3_4  and  O_7 
ROOT
ATOM      1  C   UNL d   1      -1.299   1.277   0.509  0.00  0.00    -0.033 A 
ATOM      2  C1  UNL d   1      -0.906   2.580   0.196  0.00  0.00     0.039 A 
ATOM      3  C2  UNL d   1      -0.088   3.294   1.074  0.00  0.00    -0.080 A 
ATOM      4  C3  UNL d   1       0.330   2.694   2.259  0.00  0.00     0.150 A 
ATOM      5  C4  UNL d   1      -0.055   1.395   2.575  0.00  0.00    -0.007 A 
ATOM      6  C5  UNL d   1      -0.872   0.684   1.697  0.00  0.00     0.039 A 
ENDROOT
BRANCH   4   7
ATOM      7  O   UNL d   1       1.125   3.353   3.150  0.00  0.00    -0.526 OA
ATOM      8  H5  UNL d   1       1.286   4.250   2.813  0.00  0.00     0.418 HD
ENDBRANCH   4   7
TORSDOF 1
ENDMDL
