MODEL 1
REMARK minimizedAffinity 2.05182576
REMARK minimizedRMSD -1
REMARK  1 active torsions:
REMARK  status: ('A' for Active; 'I' for Inactive)
REMARK    1  A    between atoms: C3_4  and  O_7 
ROOT
ATOM      1  C   UNL d   1      -0.572  -3.868  -2.493  0.00  0.00    -0.033 A 
ATOM      2  C1  UNL d   1      -1.440  -4.959  -2.573  0.00  0.00     0.039 A 
ATOM      3  C2  UNL d   1      -2.718  -4.879  -2.016  0.00  0.00    -0.080 A 
ATOM      4  C3  UNL d   1      -3.116  -3.704  -1.385  0.00  0.00     0.150 A 
ATOM      5  C4  UNL d   1      -2.258  -2.612  -1.305  0.00  0.00    -0.007 A 
ATOM      6  C5  UNL d   1      -0.982  -2.693  -1.861  0.00  0.00     0.039 A 
ENDROOT
BRANCH   4   7
ATOM      7  O   UNL d   1      -4.352  -3.580  -0.823  0.00  0.00    -0.526 OA
ATOM      8  H5  UNL d   1      -4.824  -4.423  -0.929  0.00  0.00     0.418 HD
ENDBRANCH   4   7
TORSDOF 1
ENDMDL
