MODEL 1
REMARK minimizedAffinity 1.77351069
REMARK minimizedRMSD -1
REMARK  1 active torsions:
REMARK  status: ('A' for Active; 'I' for Inactive)
REMARK    1  A    between atoms: C3_4  and  O_7 
ROOT
ATOM      1  C   UNL d   1       0.921   3.406   2.828  0.00  0.00    -0.033 A 
ATOM      2  C1  UNL d   1      -0.256   4.124   3.051  0.00  0.00     0.039 A 
ATOM      3  C2  UNL d   1      -1.424   3.785   2.365  0.00  0.00    -0.080 A 
ATOM      4  C3  UNL d   1      -1.402   2.727   1.460  0.00  0.00     0.150 A 
ATOM      5  C4  UNL d   1      -0.234   2.005   1.236  0.00  0.00    -0.007 A 
ATOM      6  C5  UNL d   1       0.931   2.346   1.921  0.00  0.00     0.039 A 
ENDROOT
BRANCH   4   7
ATOM      7  O   UNL d   1      -2.515   2.362   0.763  0.00  0.00    -0.526 OA
ATOM      8  H5  UNL d   1      -3.238   2.967   0.999  0.00  0.00     0.418 HD
ENDBRANCH   4   7
TORSDOF 1
ENDMDL
