MODEL 1
REMARK minimizedAffinity 2.5810864
REMARK minimizedRMSD -1
REMARK  1 active torsions:
REMARK  status: ('A' for Active; 'I' for Inactive)
REMARK    1  A    between atoms: C3_4  and  O_7 
ROOT
ATOM      1  C   UNL d   1      -1.051  -4.386  -3.501  0.00  0.00    -0.033 A 
ATOM      2  C1  UNL d   1      -2.148  -5.245  -3.591  0.00  0.00     0.039 A 
ATOM      3  C2  UNL d   1      -3.302  -4.986  -2.848  0.00  0.00    -0.080 A 
ATOM      4  C3  UNL d   1      -3.347  -3.867  -2.022  0.00  0.00     0.150 A 
ATOM      5  C4  UNL d   1      -2.259  -3.005  -1.931  0.00  0.00    -0.007 A 
ATOM      6  C5  UNL d   1      -1.107  -3.265  -2.673  0.00  0.00     0.039 A 
ENDROOT
BRANCH   4   7
ATOM      7  O   UNL d   1      -4.449  -3.576  -1.275  0.00  0.00    -0.526 OA
ATOM      8  H5  UNL d   1      -5.110  -4.273  -1.417  0.00  0.00     0.418 HD
ENDBRANCH   4   7
TORSDOF 1
ENDMDL
