MODEL 1
REMARK minimizedAffinity -2.51722002
REMARK minimizedRMSD -1
REMARK  1 active torsions:
REMARK  status: ('A' for Active; 'I' for Inactive)
REMARK    1  A    between atoms: C3_4  and  O_7 
ROOT
ATOM      1  C   UNL d   1       3.941  -4.597   5.768  0.00  0.00    -0.033 A 
ATOM      2  C1  UNL d   1       3.248  -3.523   5.205  0.00  0.00     0.039 A 
ATOM      3  C2  UNL d   1       3.926  -2.348   4.876  0.00  0.00    -0.080 A 
ATOM      4  C3  UNL d   1       5.295  -2.260   5.114  0.00  0.00     0.150 A 
ATOM      5  C4  UNL d   1       5.992  -3.327   5.671  0.00  0.00    -0.007 A 
ATOM      6  C5  UNL d   1       5.313  -4.499   6.000  0.00  0.00     0.039 A 
ENDROOT
BRANCH   4   7
ATOM      7  O   UNL d   1       5.999  -1.131   4.814  0.00  0.00    -0.526 OA
ATOM      8  H5  UNL d   1       5.382  -0.468   4.462  0.00  0.00     0.418 HD
ENDBRANCH   4   7
TORSDOF 1
ENDMDL
