MODEL 1
REMARK minimizedAffinity -3.67709351
REMARK minimizedRMSD -1
REMARK  1 active torsions:
REMARK  status: ('A' for Active; 'I' for Inactive)
REMARK    1  A    between atoms: C3_4  and  O_7 
ROOT
ATOM      1  C   UNL d   1      -0.323  -0.038  -0.680  0.00  0.00    -0.033 A 
ATOM      2  C1  UNL d   1       0.721  -0.801  -1.208  0.00  0.00     0.039 A 
ATOM      3  C2  UNL d   1       1.123  -1.975  -0.567  0.00  0.00    -0.080 A 
ATOM      4  C3  UNL d   1       0.474  -2.374   0.598  0.00  0.00     0.150 A 
ATOM      5  C4  UNL d   1      -0.569  -1.621   1.127  0.00  0.00    -0.007 A 
ATOM      6  C5  UNL d   1      -0.969  -0.449   0.486  0.00  0.00     0.039 A 
ENDROOT
BRANCH   4   7
ATOM      7  O   UNL d   1       0.835  -3.510   1.261  0.00  0.00    -0.526 OA
ATOM      8  H5  UNL d   1       1.588  -3.911   0.796  0.00  0.00     0.418 HD
ENDBRANCH   4   7
TORSDOF 1
ENDMDL
