MODEL 1
REMARK minimizedAffinity -1.6879611
REMARK minimizedRMSD -1
REMARK  0 active torsions:
REMARK  status: ('A' for Active; 'I' for Inactive)
ROOT
ATOM      1  C   UNL d   1       0.243   0.500   2.823  0.00  0.00     0.172 C 
ATOM      2  N   UNL d   1       0.016   0.460   1.397  0.00  0.00    -0.070 N 
ATOM      3  C1  UNL d   1      -1.190   0.647   0.776  0.00  0.00    -0.004 A 
ATOM      4  C2  UNL d   1      -0.987   0.533  -0.582  0.00  0.00    -0.047 A 
ATOM      5  C3  UNL d   1       0.388   0.267  -0.784  0.00  0.00    -0.047 A 
ATOM      6  C4  UNL d   1       0.985   0.228   0.458  0.00  0.00    -0.004 A 
ENDROOT
TORSDOF 0
ENDMDL
