MODEL 1
REMARK minimizedAffinity -2.01131415
REMARK minimizedRMSD -1
REMARK  0 active torsions:
REMARK  status: ('A' for Active; 'I' for Inactive)
ROOT
ATOM      1  C   UNL d   1       0.079   0.219  -0.578  0.00  0.00     0.172 C 
ATOM      2  N   UNL d   1       0.161  -0.818  -1.579  0.00  0.00    -0.070 N 
ATOM      3  C1  UNL d   1       1.277  -1.142  -2.303  0.00  0.00    -0.004 A 
ATOM      4  C2  UNL d   1       0.946  -2.180  -3.148  0.00  0.00    -0.047 A 
ATOM      5  C3  UNL d   1      -0.416  -2.490  -2.924  0.00  0.00    -0.047 A 
ATOM      6  C4  UNL d   1      -0.877  -1.632  -1.948  0.00  0.00    -0.004 A 
ENDROOT
TORSDOF 0
ENDMDL
