MODEL 1
REMARK minimizedAffinity -2.5186522
REMARK minimizedRMSD -1
REMARK  0 active torsions:
REMARK  status: ('A' for Active; 'I' for Inactive)
ROOT
ATOM      1  C   UNL d   1       0.407   0.272  -0.538  0.00  0.00     0.172 C 
ATOM      2  N   UNL d   1       0.828  -0.371  -1.761  0.00  0.00    -0.070 N 
ATOM      3  C1  UNL d   1       0.462  -1.625  -2.170  0.00  0.00    -0.004 A 
ATOM      4  C2  UNL d   1       1.071  -1.868  -3.383  0.00  0.00    -0.047 A 
ATOM      5  C3  UNL d   1       1.830  -0.720  -3.712  0.00  0.00    -0.047 A 
ATOM      6  C4  UNL d   1       1.662   0.191  -2.691  0.00  0.00    -0.004 A 
ENDROOT
TORSDOF 0
ENDMDL
