MODEL 1
REMARK minimizedAffinity -1.36436403
REMARK minimizedRMSD -1
REMARK  0 active torsions:
REMARK  status: ('A' for Active; 'I' for Inactive)
ROOT
ATOM      1  C   UNL d   1       0.402   1.057  -1.275  0.00  0.00     0.172 C 
ATOM      2  N   UNL d   1       0.719   0.247  -2.428  0.00  0.00    -0.070 N 
ATOM      3  C1  UNL d   1      -0.091  -0.711  -2.978  0.00  0.00    -0.004 A 
ATOM      4  C2  UNL d   1       0.571  -1.254  -4.058  0.00  0.00    -0.047 A 
ATOM      5  C3  UNL d   1       1.822  -0.600  -4.160  0.00  0.00    -0.047 A 
ATOM      6  C4  UNL d   1       1.888   0.324  -3.139  0.00  0.00    -0.004 A 
ENDROOT
TORSDOF 0
ENDMDL
