MODEL 1
REMARK minimizedAffinity 2.6819272
REMARK minimizedRMSD -1
REMARK  0 active torsions:
REMARK  status: ('A' for Active; 'I' for Inactive)
ROOT
ATOM      1  C   UNL d   1       0.663  -1.960   1.566  0.00  0.00     0.172 C 
ATOM      2  N   UNL d   1       1.091  -0.621   1.235  0.00  0.00    -0.070 N 
ATOM      3  C1  UNL d   1       0.497   0.203   0.316  0.00  0.00    -0.004 A 
ATOM      4  C2  UNL d   1       1.200   1.388   0.294  0.00  0.00    -0.047 A 
ATOM      5  C3  UNL d   1       2.253   1.272   1.232  0.00  0.00    -0.047 A 
ATOM      6  C4  UNL d   1       2.162   0.019   1.800  0.00  0.00    -0.004 A 
ENDROOT
TORSDOF 0
ENDMDL
