MODEL 1
REMARK minimizedAffinity -1.336555
REMARK minimizedRMSD -1
REMARK  0 active torsions:
REMARK  status: ('A' for Active; 'I' for Inactive)
ROOT
ATOM      1  C   UNL d   1       0.933  -1.187  -1.986  0.00  0.00     0.172 C 
ATOM      2  N   UNL d   1       0.825  -0.469  -0.738  0.00  0.00    -0.070 N 
ATOM      3  C1  UNL d   1       0.004   0.601  -0.501  0.00  0.00    -0.004 A 
ATOM      4  C2  UNL d   1       0.194   0.998   0.805  0.00  0.00    -0.047 A 
ATOM      5  C3  UNL d   1       1.164   0.138   1.372  0.00  0.00    -0.047 A 
ATOM      6  C4  UNL d   1       1.537  -0.761   0.395  0.00  0.00    -0.004 A 
ENDROOT
TORSDOF 0
ENDMDL
