MODEL 1
REMARK minimizedAffinity -1.41314733
REMARK minimizedRMSD -1
REMARK  0 active torsions:
REMARK  status: ('A' for Active; 'I' for Inactive)
ROOT
ATOM      1  C   UNL d   1       0.569  -0.774  -2.368  0.00  0.00     0.172 C 
ATOM      2  N   UNL d   1       0.492  -0.310  -1.002  0.00  0.00    -0.070 N 
ATOM      3  C1  UNL d   1      -0.240   0.760  -0.562  0.00  0.00    -0.004 A 
ATOM      4  C2  UNL d   1      -0.049   0.872   0.798  0.00  0.00    -0.047 A 
ATOM      5  C3  UNL d   1       0.829  -0.167   1.189  0.00  0.00    -0.047 A 
ATOM      6  C4  UNL d   1       1.148  -0.884   0.055  0.00  0.00    -0.004 A 
ENDROOT
TORSDOF 0
ENDMDL
