MODEL 1
REMARK minimizedAffinity -1.98940325
REMARK minimizedRMSD -1
REMARK  0 active torsions:
REMARK  status: ('A' for Active; 'I' for Inactive)
ROOT
ATOM      1  C   UNL d   1       0.071   0.516   2.958  0.00  0.00     0.172 C 
ATOM      2  N   UNL d   1       0.148   0.453   1.517  0.00  0.00    -0.070 N 
ATOM      3  C1  UNL d   1      -0.889   0.679   0.652  0.00  0.00    -0.004 A 
ATOM      4  C2  UNL d   1      -0.410   0.523  -0.631  0.00  0.00    -0.047 A 
ATOM      5  C3  UNL d   1       0.962   0.191  -0.533  0.00  0.00    -0.047 A 
ATOM      6  C4  UNL d   1       1.281   0.154   0.808  0.00  0.00    -0.004 A 
ENDROOT
TORSDOF 0
ENDMDL
