MODEL 1
REMARK minimizedAffinity -3.61451006
REMARK minimizedRMSD -1
REMARK  0 active torsions:
REMARK  status: ('A' for Active; 'I' for Inactive)
ROOT
ATOM      1  C   UNL d   1       0.202   0.437   0.011  0.00  0.00     0.172 C 
ATOM      2  N   UNL d   1       0.218  -0.118  -1.322  0.00  0.00    -0.070 N 
ATOM      3  C1  UNL d   1       0.624  -1.383  -1.655  0.00  0.00    -0.004 A 
ATOM      4  C2  UNL d   1       0.487  -1.524  -3.019  0.00  0.00    -0.047 A 
ATOM      5  C3  UNL d   1      -0.018  -0.302  -3.523  0.00  0.00    -0.047 A 
ATOM      6  C4  UNL d   1      -0.175   0.551  -2.451  0.00  0.00    -0.004 A 
ENDROOT
TORSDOF 0
ENDMDL
