MODEL 1
REMARK minimizedAffinity -0.764428675
REMARK minimizedRMSD -1
REMARK  0 active torsions:
REMARK  status: ('A' for Active; 'I' for Inactive)
ROOT
ATOM      1  C   UNL d   1      -1.948   0.888  -0.698  0.00  0.00     0.172 C 
ATOM      2  N   UNL d   1      -0.660   0.409  -0.255  0.00  0.00    -0.070 N 
ATOM      3  C1  UNL d   1       0.023  -0.653  -0.786  0.00  0.00    -0.004 A 
ATOM      4  C2  UNL d   1       1.204  -0.786  -0.089  0.00  0.00    -0.047 A 
ATOM      5  C3  UNL d   1       1.232   0.229   0.896  0.00  0.00    -0.047 A 
ATOM      6  C4  UNL d   1       0.066   0.955   0.771  0.00  0.00    -0.004 A 
ENDROOT
TORSDOF 0
ENDMDL
