MODEL 1
REMARK minimizedAffinity 1.04710948
REMARK minimizedRMSD -1
REMARK  0 active torsions:
REMARK  status: ('A' for Active; 'I' for Inactive)
ROOT
ATOM      1  C   UNL d   1      -1.870   0.561  -0.334  0.00  0.00     0.172 C 
ATOM      2  N   UNL d   1      -0.504   0.309   0.060  0.00  0.00    -0.070 N 
ATOM      3  C1  UNL d   1       0.027   0.550   1.299  0.00  0.00    -0.004 A 
ATOM      4  C2  UNL d   1       1.353   0.177   1.270  0.00  0.00    -0.047 A 
ATOM      5  C3  UNL d   1       1.630  -0.303  -0.032  0.00  0.00    -0.047 A 
ATOM      6  C4  UNL d   1       0.462  -0.210  -0.760  0.00  0.00    -0.004 A 
ENDROOT
TORSDOF 0
ENDMDL
