MODEL 1
REMARK minimizedAffinity -3.24270391
REMARK minimizedRMSD -1
REMARK  0 active torsions:
REMARK  status: ('A' for Active; 'I' for Inactive)
ROOT
ATOM      1  C   UNL d   1      -0.813   0.106   3.094  0.00  0.00     0.172 C 
ATOM      2  N   UNL d   1      -0.739   0.336   1.670  0.00  0.00    -0.070 N 
ATOM      3  C1  UNL d   1       0.411   0.399   0.930  0.00  0.00    -0.004 A 
ATOM      4  C2  UNL d   1       0.057   0.632  -0.381  0.00  0.00    -0.047 A 
ATOM      5  C3  UNL d   1      -1.355   0.712  -0.431  0.00  0.00    -0.047 A 
ATOM      6  C4  UNL d   1      -1.822   0.525   0.853  0.00  0.00    -0.004 A 
ENDROOT
TORSDOF 0
ENDMDL
