MODEL 1
REMARK minimizedAffinity -2.39299536
REMARK minimizedRMSD -1
REMARK  0 active torsions:
REMARK  status: ('A' for Active; 'I' for Inactive)
ROOT
ATOM      1  C   UNL d   1       1.045   0.296   1.464  0.00  0.00     0.172 C 
ATOM      2  N   UNL d   1      -0.314  -0.037   1.823  0.00  0.00    -0.070 N 
ATOM      3  C1  UNL d   1      -1.194  -0.741   1.046  0.00  0.00    -0.004 A 
ATOM      4  C2  UNL d   1      -2.379  -0.847   1.742  0.00  0.00    -0.047 A 
ATOM      5  C3  UNL d   1      -2.205  -0.182   2.979  0.00  0.00    -0.047 A 
ATOM      6  C4  UNL d   1      -0.917   0.310   3.003  0.00  0.00    -0.004 A 
ENDROOT
TORSDOF 0
ENDMDL
