MODEL 1
REMARK minimizedAffinity -3.76202202
REMARK minimizedRMSD -1
REMARK  0 active torsions:
REMARK  status: ('A' for Active; 'I' for Inactive)
ROOT
ATOM      1  C   UNL d   1       1.183   0.684   0.198  0.00  0.00     0.172 C 
ATOM      2  N   UNL d   1      -0.009   0.428   0.973  0.00  0.00    -0.070 N 
ATOM      3  C1  UNL d   1      -0.073   0.356   2.339  0.00  0.00    -0.004 A 
ATOM      4  C2  UNL d   1      -1.381   0.098   2.687  0.00  0.00    -0.047 A 
ATOM      5  C3  UNL d   1      -2.129   0.012   1.489  0.00  0.00    -0.047 A 
ATOM      6  C4  UNL d   1      -1.255   0.220   0.443  0.00  0.00    -0.004 A 
ENDROOT
TORSDOF 0
ENDMDL
