MODEL 1
REMARK minimizedAffinity -3.75175071
REMARK minimizedRMSD -1
REMARK  0 active torsions:
REMARK  status: ('A' for Active; 'I' for Inactive)
ROOT
ATOM      1  C   UNL d   1      -2.062   0.555   0.062  0.00  0.00     0.172 C 
ATOM      2  N   UNL d   1      -1.247   0.032   1.134  0.00  0.00    -0.070 N 
ATOM      3  C1  UNL d   1       0.086   0.284   1.319  0.00  0.00    -0.004 A 
ATOM      4  C2  UNL d   1       0.492  -0.396   2.447  0.00  0.00    -0.047 A 
ATOM      5  C3  UNL d   1      -0.637  -1.081   2.957  0.00  0.00    -0.047 A 
ATOM      6  C4  UNL d   1      -1.699  -0.799   2.125  0.00  0.00    -0.004 A 
ENDROOT
TORSDOF 0
ENDMDL
