MODEL 1
REMARK minimizedAffinity -3.08132482
REMARK minimizedRMSD -1
REMARK  0 active torsions:
REMARK  status: ('A' for Active; 'I' for Inactive)
ROOT
ATOM      1  C   UNL d   1      -1.804   0.339   0.822  0.00  0.00     0.172 C 
ATOM      2  N   UNL d   1      -0.429  -0.095   0.740  0.00  0.00    -0.070 N 
ATOM      3  C1  UNL d   1      -0.009  -1.370   0.467  0.00  0.00    -0.004 A 
ATOM      4  C2  UNL d   1       1.369  -1.372   0.478  0.00  0.00    -0.047 A 
ATOM      5  C3  UNL d   1       1.792  -0.053   0.769  0.00  0.00    -0.047 A 
ATOM      6  C4  UNL d   1       0.658   0.717   0.926  0.00  0.00    -0.004 A 
ENDROOT
TORSDOF 0
ENDMDL
