MODEL 1
REMARK minimizedAffinity -3.74364829
REMARK minimizedRMSD -1
REMARK  0 active torsions:
REMARK  status: ('A' for Active; 'I' for Inactive)
ROOT
ATOM      1  C   UNL d   1      -3.020  -0.003   0.260  0.00  0.00     0.172 C 
ATOM      2  N   UNL d   1      -2.070  -0.417   1.265  0.00  0.00    -0.070 N 
ATOM      3  C1  UNL d   1      -2.135  -0.111   2.599  0.00  0.00    -0.004 A 
ATOM      4  C2  UNL d   1      -1.048  -0.690   3.218  0.00  0.00    -0.047 A 
ATOM      5  C3  UNL d   1      -0.304  -1.365   2.222  0.00  0.00    -0.047 A 
ATOM      6  C4  UNL d   1      -0.959  -1.180   1.023  0.00  0.00    -0.004 A 
ENDROOT
TORSDOF 0
ENDMDL
