MODEL 1
REMARK minimizedAffinity -4.11970282
REMARK minimizedRMSD -1
REMARK  1 active torsions:
REMARK  status: ('A' for Active; 'I' for Inactive)
REMARK    1  A    between atoms: C1_2  and  C2_3 
ROOT
ATOM      1  C2  UNL d   1      -0.321  -0.406  -0.072  0.00  0.00    -0.076 A 
ATOM      2  C3  UNL d   1      -1.600  -0.339   0.509  0.00  0.00     0.004 A 
ATOM      3  C4  UNL d   1      -1.772  -0.505   1.882  0.00  0.00    -0.003 A 
ATOM      4  C5  UNL d   1      -0.670  -0.739   2.697  0.00  0.00     0.000 A 
ATOM      5  C6  UNL d   1       0.607  -0.790   2.139  0.00  0.00     0.000 A 
ATOM      6  C7  UNL d   1       0.801  -0.610   0.759  0.00  0.00    -0.073 A 
ATOM      7  C8  UNL d   1       2.200  -0.682   0.210  0.00  0.00     0.078 C 
ENDROOT
BRANCH   1   8
ATOM      8  C1  UNL d   1      -0.198  -0.247  -1.571  0.00  0.00     0.053 C 
ATOM      9  C   UNL d   1      -1.116   0.836  -2.119  0.00  0.00     0.018 C 
ENDBRANCH   1   8
TORSDOF 1
ENDMDL
