MODEL 1
REMARK minimizedAffinity -2.57064342
REMARK minimizedRMSD -1
REMARK  1 active torsions:
REMARK  status: ('A' for Active; 'I' for Inactive)
REMARK    1  A    between atoms: C1_2  and  C2_3 
ROOT
ATOM      1  C2  UNL d   1      -0.665  -1.094   1.746  0.00  0.00    -0.076 A 
ATOM      2  C3  UNL d   1      -1.547  -0.786   0.695  0.00  0.00     0.004 A 
ATOM      3  C4  UNL d   1      -1.140   0.009  -0.374  0.00  0.00    -0.003 A 
ATOM      4  C5  UNL d   1       0.157   0.510  -0.411  0.00  0.00     0.000 A 
ATOM      5  C6  UNL d   1       1.051   0.201   0.613  0.00  0.00     0.000 A 
ATOM      6  C7  UNL d   1       0.661  -0.613   1.691  0.00  0.00    -0.073 A 
ATOM      7  C8  UNL d   1       1.665  -0.910   2.771  0.00  0.00     0.078 C 
ENDROOT
BRANCH   1   8
ATOM      8  C1  UNL d   1      -1.171  -1.938   2.893  0.00  0.00     0.053 C 
ATOM      9  C   UNL d   1      -0.794  -3.405   2.748  0.00  0.00     0.018 C 
ENDBRANCH   1   8
TORSDOF 1
ENDMDL
