MODEL 1
REMARK minimizedAffinity -1.28133535
REMARK minimizedRMSD -1
REMARK  1 active torsions:
REMARK  status: ('A' for Active; 'I' for Inactive)
REMARK    1  A    between atoms: C1_2  and  C2_3 
ROOT
ATOM      1  C2  UNL d   1      -0.142   0.356  -1.549  0.00  0.00    -0.076 A 
ATOM      2  C3  UNL d   1       0.702  -0.577  -2.177  0.00  0.00     0.004 A 
ATOM      3  C4  UNL d   1       1.721  -1.213  -1.470  0.00  0.00    -0.003 A 
ATOM      4  C5  UNL d   1       1.912  -0.927  -0.122  0.00  0.00     0.000 A 
ATOM      5  C6  UNL d   1       1.074  -0.017   0.521  0.00  0.00     0.000 A 
ATOM      6  C7  UNL d   1       0.031   0.621  -0.174  0.00  0.00    -0.073 A 
ATOM      7  C8  UNL d   1      -0.839   1.597   0.569  0.00  0.00     0.078 C 
ENDROOT
BRANCH   1   8
ATOM      8  C1  UNL d   1      -1.212   1.034  -2.374  0.00  0.00     0.053 C 
ATOM      9  C   UNL d   1      -0.727   2.330  -3.006  0.00  0.00     0.018 C 
ENDBRANCH   1   8
TORSDOF 1
ENDMDL
