MODEL 1
REMARK minimizedAffinity -2.22579432
REMARK minimizedRMSD -1
REMARK  1 active torsions:
REMARK  status: ('A' for Active; 'I' for Inactive)
REMARK    1  A    between atoms: C1_2  and  C2_3 
ROOT
ATOM      1  C2  UNL d   1      -0.319  -0.004  -0.441  0.00  0.00    -0.076 A 
ATOM      2  C3  UNL d   1      -1.523   0.267   0.233  0.00  0.00     0.004 A 
ATOM      3  C4  UNL d   1      -1.652   0.022   1.599  0.00  0.00    -0.003 A 
ATOM      4  C5  UNL d   1      -0.579  -0.497   2.314  0.00  0.00     0.000 A 
ATOM      5  C6  UNL d   1       0.629  -0.755   1.666  0.00  0.00     0.000 A 
ATOM      6  C7  UNL d   1       0.781  -0.499   0.293  0.00  0.00    -0.073 A 
ATOM      7  C8  UNL d   1       2.103  -0.801  -0.357  0.00  0.00     0.078 C 
ENDROOT
BRANCH   1   8
ATOM      8  C1  UNL d   1      -0.247   0.256  -1.928  0.00  0.00     0.053 C 
ATOM      9  C   UNL d   1      -0.460   1.722  -2.275  0.00  0.00     0.018 C 
ENDBRANCH   1   8
TORSDOF 1
ENDMDL
