MODEL 1
REMARK minimizedAffinity -4.80323792
REMARK minimizedRMSD -1
REMARK  1 active torsions:
REMARK  status: ('A' for Active; 'I' for Inactive)
REMARK    1  A    between atoms: C1_2  and  C2_3 
ROOT
ATOM      1  C2  UNL d   1      -0.706   1.721  -1.021  0.00  0.00    -0.076 A 
ATOM      2  C3  UNL d   1      -0.913   0.939   0.128  0.00  0.00     0.004 A 
ATOM      3  C4  UNL d   1       0.028  -0.007   0.531  0.00  0.00    -0.003 A 
ATOM      4  C5  UNL d   1       1.193  -0.185  -0.208  0.00  0.00     0.000 A 
ATOM      5  C6  UNL d   1       1.423   0.595  -1.341  0.00  0.00     0.000 A 
ATOM      6  C7  UNL d   1       0.491   1.564  -1.752  0.00  0.00    -0.073 A 
ATOM      7  C8  UNL d   1       0.787   2.373  -2.985  0.00  0.00     0.078 C 
ENDROOT
BRANCH   1   8
ATOM      8  C1  UNL d   1      -1.775   2.712  -1.425  0.00  0.00     0.053 C 
ATOM      9  C   UNL d   1      -2.947   2.048  -2.131  0.00  0.00     0.018 C 
ENDBRANCH   1   8
TORSDOF 1
ENDMDL
