MODEL 1
REMARK minimizedAffinity -2.87084794
REMARK minimizedRMSD -1
REMARK  1 active torsions:
REMARK  status: ('A' for Active; 'I' for Inactive)
REMARK    1  A    between atoms: C1_2  and  C2_3 
ROOT
ATOM      1  C2  UNL d   1      -0.229  -0.375  -0.264  0.00  0.00    -0.076 A 
ATOM      2  C3  UNL d   1      -1.376  -0.038   0.476  0.00  0.00     0.004 A 
ATOM      3  C4  UNL d   1      -1.530  -0.462   1.795  0.00  0.00    -0.003 A 
ATOM      4  C5  UNL d   1      -0.538  -1.229   2.396  0.00  0.00     0.000 A 
ATOM      5  C6  UNL d   1       0.614  -1.558   1.683  0.00  0.00     0.000 A 
ATOM      6  C7  UNL d   1       0.792  -1.125   0.358  0.00  0.00    -0.073 A 
ATOM      7  C8  UNL d   1       2.052  -1.514  -0.365  0.00  0.00     0.078 C 
ENDROOT
BRANCH   1   8
ATOM      8  C1  UNL d   1      -0.130   0.090  -1.699  0.00  0.00     0.053 C 
ATOM      9  C   UNL d   1      -0.818   1.427  -1.927  0.00  0.00     0.018 C 
ENDBRANCH   1   8
TORSDOF 1
ENDMDL
