MODEL 1
REMARK minimizedAffinity -1.6719048
REMARK minimizedRMSD -1
REMARK  0 active torsions:
REMARK  status: ('A' for Active; 'I' for Inactive)
ROOT
ATOM      1  C4' PXY d   1       2.949  -1.928   4.247  0.00  0.00     0.077 C 
ATOM      2  C1' PXY d   1      -2.225  -0.166   2.365  0.00  0.00     0.077 C 
ATOM      3  C1  PXY d   1      -0.864  -0.630   2.846  0.00  0.00    -0.082 A 
ATOM      4  C2  PXY d   1      -0.742  -1.159   4.053  0.00  0.00     0.003 A 
ATOM      5  C3  PXY d   1       0.486  -1.554   4.516  0.00  0.00     0.003 A 
ATOM      6  C4  PXY d   1       1.593  -1.455   3.716  0.00  0.00    -0.082 A 
ATOM      7  C5  PXY d   1       1.475  -0.926   2.480  0.00  0.00     0.003 A 
ATOM      8  C6  PXY d   1       0.226  -0.493   2.044  0.00  0.00     0.003 A 
ENDROOT
TORSDOF 0
ENDMDL
