MODEL 1
REMARK minimizedAffinity 3.14640427
REMARK minimizedRMSD -1
REMARK  0 active torsions:
REMARK  status: ('A' for Active; 'I' for Inactive)
ROOT
ATOM      1  C4' PXY d   1      -0.918  -0.095   0.770  0.00  0.00     0.077 C 
ATOM      2  C1' PXY d   1       3.723  -0.679   4.166  0.00  0.00     0.077 C 
ATOM      3  C1  PXY d   1       2.512  -0.516   3.268  0.00  0.00    -0.082 A 
ATOM      4  C2  PXY d   1       1.316  -0.863   3.715  0.00  0.00     0.003 A 
ATOM      5  C3  PXY d   1       0.214  -0.753   2.905  0.00  0.00     0.003 A 
ATOM      6  C4  PXY d   1       0.331  -0.232   1.644  0.00  0.00    -0.082 A 
ATOM      7  C5  PXY d   1       1.546   0.134   1.185  0.00  0.00     0.003 A 
ATOM      8  C6  PXY d   1       2.658  -0.025   2.008  0.00  0.00     0.003 A 
ENDROOT
TORSDOF 0
ENDMDL
