MODEL 1
REMARK minimizedAffinity 2.32938337
REMARK minimizedRMSD -1
REMARK  0 active torsions:
REMARK  status: ('A' for Active; 'I' for Inactive)
ROOT
ATOM      1  C4' PXY d   1      -0.129  -1.040   4.480  0.00  0.00     0.077 C 
ATOM      2  C1' PXY d   1      -2.367   0.002  -0.747  0.00  0.00     0.077 C 
ATOM      3  C1  PXY d   1      -1.770  -0.278   0.618  0.00  0.00    -0.082 A 
ATOM      4  C2  PXY d   1      -2.549  -0.264   1.688  0.00  0.00     0.003 A 
ATOM      5  C3  PXY d   1      -2.020  -0.484   2.933  0.00  0.00     0.003 A 
ATOM      6  C4  PXY d   1      -0.690  -0.772   3.080  0.00  0.00    -0.082 A 
ATOM      7  C5  PXY d   1       0.109  -0.799   1.993  0.00  0.00     0.003 A 
ATOM      8  C6  PXY d   1      -0.439  -0.532   0.742  0.00  0.00     0.003 A 
ENDROOT
TORSDOF 0
ENDMDL
