MODEL 1
REMARK minimizedAffinity 4.18889761
REMARK minimizedRMSD -1
REMARK  0 active torsions:
REMARK  status: ('A' for Active; 'I' for Inactive)
ROOT
ATOM      1  C4' PXY d   1      -3.521  -1.277   3.091  0.00  0.00     0.077 C 
ATOM      2  C1' PXY d   1       0.044   0.967  -0.867  0.00  0.00     0.077 C 
ATOM      3  C1  PXY d   1      -0.882   0.380   0.180  0.00  0.00    -0.082 A 
ATOM      4  C2  PXY d   1      -1.896  -0.382  -0.197  0.00  0.00     0.003 A 
ATOM      5  C3  PXY d   1      -2.761  -0.895   0.735  0.00  0.00     0.003 A 
ATOM      6  C4  PXY d   1      -2.556  -0.670   2.069  0.00  0.00    -0.082 A 
ATOM      7  C5  PXY d   1      -1.517   0.097   2.463  0.00  0.00     0.003 A 
ATOM      8  C6  PXY d   1      -0.674   0.643   1.499  0.00  0.00     0.003 A 
ENDROOT
TORSDOF 0
ENDMDL
