MODEL 1
REMARK minimizedAffinity 7.08388376
REMARK minimizedRMSD -1
REMARK  0 active torsions:
REMARK  status: ('A' for Active; 'I' for Inactive)
ROOT
ATOM      1  C4' PXY d   1      -1.943   0.218   2.007  0.00  0.00     0.077 C 
ATOM      2  C1' PXY d   1       2.819  -1.742   4.634  0.00  0.00     0.077 C 
ATOM      3  C1  PXY d   1       1.577  -1.221   3.936  0.00  0.00    -0.082 A 
ATOM      4  C2  PXY d   1       0.436  -1.146   4.602  0.00  0.00     0.003 A 
ATOM      5  C3  PXY d   1      -0.703  -0.708   3.977  0.00  0.00     0.003 A 
ATOM      6  C4  PXY d   1      -0.663  -0.293   2.673  0.00  0.00    -0.082 A 
ATOM      7  C5  PXY d   1       0.500  -0.356   1.990  0.00  0.00     0.003 A 
ATOM      8  C6  PXY d   1       1.636  -0.843   2.631  0.00  0.00     0.003 A 
ENDROOT
TORSDOF 0
ENDMDL
