MODEL 1
REMARK minimizedAffinity 4.07782841
REMARK minimizedRMSD -1
REMARK  0 active torsions:
REMARK  status: ('A' for Active; 'I' for Inactive)
ROOT
ATOM      1  C4' PXY d   1       1.504  -1.500   4.740  0.00  0.00     0.077 C 
ATOM      2  C1' PXY d   1      -1.667   0.227   0.225  0.00  0.00     0.077 C 
ATOM      3  C1  PXY d   1      -0.826  -0.231   1.401  0.00  0.00    -0.082 A 
ATOM      4  C2  PXY d   1      -1.398  -0.417   2.580  0.00  0.00     0.003 A 
ATOM      5  C3  PXY d   1      -0.647  -0.800   3.661  0.00  0.00     0.003 A 
ATOM      6  C4  PXY d   1       0.693  -1.047   3.522  0.00  0.00    -0.082 A 
ATOM      7  C5  PXY d   1       1.281  -0.870   2.320  0.00  0.00     0.003 A 
ATOM      8  C6  PXY d   1       0.509  -0.441   1.245  0.00  0.00     0.003 A 
ENDROOT
TORSDOF 0
ENDMDL
