MODEL 1
REMARK minimizedAffinity 1.50324118
REMARK minimizedRMSD -1
REMARK  0 active torsions:
REMARK  status: ('A' for Active; 'I' for Inactive)
ROOT
ATOM      1  C4' PXY d   1       1.751  -0.501   1.866  0.00  0.00     0.077 C 
ATOM      2  C1' PXY d   1      -3.397  -0.072  -0.728  0.00  0.00     0.077 C 
ATOM      3  C1  PXY d   1      -2.043  -0.193  -0.057  0.00  0.00    -0.082 A 
ATOM      4  C2  PXY d   1      -1.930   0.057   1.237  0.00  0.00     0.003 A 
ATOM      5  C3  PXY d   1      -0.707  -0.016   1.853  0.00  0.00     0.003 A 
ATOM      6  C4  PXY d   1       0.402  -0.401   1.149  0.00  0.00    -0.082 A 
ATOM      7  C5  PXY d   1       0.293  -0.669  -0.170  0.00  0.00     0.003 A 
ATOM      8  C6  PXY d   1      -0.950  -0.548  -0.785  0.00  0.00     0.003 A 
ENDROOT
TORSDOF 0
ENDMDL
