MODEL 1
REMARK minimizedAffinity 2.48222685
REMARK minimizedRMSD -1
REMARK  0 active torsions:
REMARK  status: ('A' for Active; 'I' for Inactive)
ROOT
ATOM      1  C4' PXY d   1      -1.847   0.006   1.375  0.00  0.00     0.077 C 
ATOM      2  C1' PXY d   1       3.034  -1.557   4.049  0.00  0.00     0.077 C 
ATOM      3  C1  PXY d   1       1.761  -1.139   3.339  0.00  0.00    -0.082 A 
ATOM      4  C2  PXY d   1       0.601  -1.227   3.971  0.00  0.00     0.003 A 
ATOM      5  C3  PXY d   1      -0.563  -0.883   3.334  0.00  0.00     0.003 A 
ATOM      6  C4  PXY d   1      -0.535  -0.396   2.055  0.00  0.00    -0.082 A 
ATOM      7  C5  PXY d   1       0.645  -0.293   1.407  0.00  0.00     0.003 A 
ATOM      8  C6  PXY d   1       1.811  -0.686   2.057  0.00  0.00     0.003 A 
ENDROOT
TORSDOF 0
ENDMDL
