MODEL 1
REMARK minimizedAffinity -3.59524632
REMARK minimizedRMSD -1
REMARK  0 active torsions:
REMARK  status: ('A' for Active; 'I' for Inactive)
ROOT
ATOM      1  C4' PXY d   1       1.898  -1.235   5.390  0.00  0.00     0.077 C 
ATOM      2  C1' PXY d   1      -0.763   0.125   0.442  0.00  0.00     0.077 C 
ATOM      3  C1  PXY d   1      -0.056  -0.238   1.733  0.00  0.00    -0.082 A 
ATOM      4  C2  PXY d   1      -0.729  -0.227   2.872  0.00  0.00     0.003 A 
ATOM      5  C3  PXY d   1      -0.097  -0.522   4.053  0.00  0.00     0.003 A 
ATOM      6  C4  PXY d   1       1.223  -0.884   4.061  0.00  0.00    -0.082 A 
ATOM      7  C5  PXY d   1       1.913  -0.909   2.901  0.00  0.00     0.003 A 
ATOM      8  C6  PXY d   1       1.264  -0.566   1.718  0.00  0.00     0.003 A 
ENDROOT
TORSDOF 0
ENDMDL
