MODEL 1
REMARK minimizedAffinity 0.96314913
REMARK minimizedRMSD -1
REMARK  0 active torsions:
REMARK  status: ('A' for Active; 'I' for Inactive)
ROOT
ATOM      1  C4' PXY d   1       1.050  -0.589   1.272  0.00  0.00     0.077 C 
ATOM      2  C1' PXY d   1      -4.213   0.411  -0.899  0.00  0.00     0.077 C 
ATOM      3  C1  PXY d   1      -2.834   0.159  -0.322  0.00  0.00    -0.082 A 
ATOM      4  C2  PXY d   1      -1.949  -0.532  -1.022  0.00  0.00     0.003 A 
ATOM      5  C3  PXY d   1      -0.708  -0.796  -0.502  0.00  0.00     0.003 A 
ATOM      6  C4  PXY d   1      -0.351  -0.303   0.725  0.00  0.00    -0.082 A 
ATOM      7  C5  PXY d   1      -1.246   0.412   1.440  0.00  0.00     0.003 A 
ATOM      8  C6  PXY d   1      -2.514   0.634   0.912  0.00  0.00     0.003 A 
ENDROOT
TORSDOF 0
ENDMDL
