MODEL 1
REMARK minimizedAffinity -1.74981177
REMARK minimizedRMSD -1
REMARK  0 active torsions:
REMARK  status: ('A' for Active; 'I' for Inactive)
ROOT
ATOM      1  C4' PXY d   1      -1.127  -3.146   6.000  0.00  0.00     0.077 C 
ATOM      2  C1' PXY d   1      -2.262   0.713   1.849  0.00  0.00     0.077 C 
ATOM      3  C1  PXY d   1      -1.951  -0.299   2.934  0.00  0.00    -0.082 A 
ATOM      4  C2  PXY d   1      -2.914  -1.082   3.392  0.00  0.00     0.003 A 
ATOM      5  C3  PXY d   1      -2.659  -1.981   4.395  0.00  0.00     0.003 A 
ATOM      6  C4  PXY d   1      -1.392  -2.116   4.898  0.00  0.00    -0.082 A 
ATOM      7  C5  PXY d   1      -0.402  -1.328   4.429  0.00  0.00     0.003 A 
ATOM      8  C6  PXY d   1      -0.691  -0.393   3.439  0.00  0.00     0.003 A 
ENDROOT
TORSDOF 0
ENDMDL
