MODEL 1
REMARK minimizedAffinity -2.2908268
REMARK minimizedRMSD -1
REMARK  0 active torsions:
REMARK  status: ('A' for Active; 'I' for Inactive)
ROOT
ATOM      1  C   UNL d   1      -1.422   1.107   0.353  0.00  0.00     0.124 A 
ATOM      2  C1  UNL d   1      -0.388   0.218   0.614  0.00  0.00     0.062 A 
ATOM      3  C2  UNL d   1       0.458  -0.192  -0.413  0.00  0.00     0.162 A 
ATOM      4  C3  UNL d   1       0.273   0.286  -1.710  0.00  0.00    -0.034 A 
ATOM      5  C4  UNL d   1      -0.769   1.179  -1.964  0.00  0.00     0.162 A 
ATOM      6  C5  UNL d   1      -1.612   1.586  -0.935  0.00  0.00     0.062 A 
ATOM      7  F   UNL d   1      -2.610   2.445  -1.189  0.00  0.00    -0.097 F 
ATOM      8  F1  UNL d   1      -0.975   1.658  -3.200  0.00  0.00    -0.096 F 
ATOM      9  I   UNL d   1       1.535  -0.325  -3.248  0.00  0.00    -0.060 I 
ATOM     10  F2  UNL d   1       1.449  -1.051  -0.132  0.00  0.00    -0.096 F 
ATOM     11  F3  UNL d   1      -0.203  -0.247   1.858  0.00  0.00    -0.097 F 
ATOM     12  F4  UNL d   1      -2.234   1.500   1.343  0.00  0.00    -0.092 F 
ENDROOT
TORSDOF 0
ENDMDL
