MODEL 1
REMARK minimizedAffinity 6.38575983
REMARK minimizedRMSD -1
REMARK  0 active torsions:
REMARK  status: ('A' for Active; 'I' for Inactive)
ROOT
ATOM      1  C   UNL d   1      -1.146   0.205   0.816  0.00  0.00     0.124 A 
ATOM      2  C1  UNL d   1      -1.752   0.825  -0.268  0.00  0.00     0.062 A 
ATOM      3  C2  UNL d   1      -1.156   0.778  -1.525  0.00  0.00     0.162 A 
ATOM      4  C3  UNL d   1       0.054   0.108  -1.705  0.00  0.00    -0.034 A 
ATOM      5  C4  UNL d   1       0.658  -0.513  -0.610  0.00  0.00     0.162 A 
ATOM      6  C5  UNL d   1       0.058  -0.463   0.644  0.00  0.00     0.062 A 
ATOM      7  F   UNL d   1       0.645  -1.063   1.690  0.00  0.00    -0.097 F 
ATOM      8  F1  UNL d   1       1.821  -1.166  -0.748  0.00  0.00    -0.096 F 
ATOM      9  I   UNL d   1       0.949   0.035  -3.583  0.00  0.00    -0.060 I 
ATOM     10  F2  UNL d   1      -1.764   1.386  -2.554  0.00  0.00    -0.096 F 
ATOM     11  F3  UNL d   1      -2.915   1.472  -0.104  0.00  0.00    -0.097 F 
ATOM     12  F4  UNL d   1      -1.722   0.252   2.024  0.00  0.00    -0.092 F 
ENDROOT
TORSDOF 0
ENDMDL
