MODEL 1
REMARK minimizedAffinity 2.86054254
REMARK minimizedRMSD -1
REMARK  0 active torsions:
REMARK  status: ('A' for Active; 'I' for Inactive)
ROOT
ATOM      1  C   UNL d   1      -0.709   0.108   2.103  0.00  0.00     0.124 A 
ATOM      2  C1  UNL d   1      -1.610   0.646   1.195  0.00  0.00     0.062 A 
ATOM      3  C2  UNL d   1      -1.372   0.542  -0.173  0.00  0.00     0.162 A 
ATOM      4  C3  UNL d   1      -0.228  -0.103  -0.641  0.00  0.00    -0.034 A 
ATOM      5  C4  UNL d   1       0.675  -0.641   0.279  0.00  0.00     0.162 A 
ATOM      6  C5  UNL d   1       0.432  -0.535   1.645  0.00  0.00     0.062 A 
ATOM      7  F   UNL d   1       1.304  -1.055   2.521  0.00  0.00    -0.097 F 
ATOM      8  F1  UNL d   1       1.785  -1.268  -0.137  0.00  0.00    -0.096 F 
ATOM      9  I   UNL d   1       0.132  -0.260  -2.685  0.00  0.00    -0.060 I 
ATOM     10  F2  UNL d   1      -2.260   1.072  -1.027  0.00  0.00    -0.096 F 
ATOM     11  F3  UNL d   1      -2.713   1.268   1.635  0.00  0.00    -0.097 F 
ATOM     12  F4  UNL d   1      -0.940   0.210   3.418  0.00  0.00    -0.092 F 
ENDROOT
TORSDOF 0
ENDMDL
