MODEL 1
REMARK minimizedAffinity -3.35128832
REMARK minimizedRMSD -1
REMARK  0 active torsions:
REMARK  status: ('A' for Active; 'I' for Inactive)
ROOT
ATOM      1  C   UNL d   1      -0.179  -0.056   1.773  0.00  0.00     0.124 A 
ATOM      2  C1  UNL d   1       0.913  -0.765   1.293  0.00  0.00     0.062 A 
ATOM      3  C2  UNL d   1       1.215  -0.752  -0.066  0.00  0.00     0.162 A 
ATOM      4  C3  UNL d   1       0.423  -0.025  -0.955  0.00  0.00    -0.034 A 
ATOM      5  C4  UNL d   1      -0.675   0.685  -0.466  0.00  0.00     0.162 A 
ATOM      6  C5  UNL d   1      -0.972   0.668   0.893  0.00  0.00     0.062 A 
ATOM      7  F   UNL d   1      -2.028   1.354   1.355  0.00  0.00    -0.097 F 
ATOM      8  F1  UNL d   1      -1.457   1.394  -1.293  0.00  0.00    -0.096 F 
ATOM      9  I   UNL d   1       0.871  -0.002  -2.988  0.00  0.00    -0.060 I 
ATOM     10  F2  UNL d   1       2.277  -1.446  -0.501  0.00  0.00    -0.096 F 
ATOM     11  F3  UNL d   1       1.680  -1.466   2.140  0.00  0.00    -0.097 F 
ATOM     12  F4  UNL d   1      -0.468  -0.072   3.080  0.00  0.00    -0.092 F 
ENDROOT
TORSDOF 0
ENDMDL
