MODEL 1
REMARK minimizedAffinity -3.93566012
REMARK minimizedRMSD -1
REMARK  0 active torsions:
REMARK  status: ('A' for Active; 'I' for Inactive)
ROOT
ATOM      1  C   UNL d   1      -0.240   0.578   3.225  0.00  0.00     0.124 A 
ATOM      2  C1  UNL d   1       0.914  -0.143   2.952  0.00  0.00     0.062 A 
ATOM      3  C2  UNL d   1       1.149  -0.628   1.668  0.00  0.00     0.162 A 
ATOM      4  C3  UNL d   1       0.228  -0.392   0.647  0.00  0.00    -0.034 A 
ATOM      5  C4  UNL d   1      -0.931   0.334   0.930  0.00  0.00     0.162 A 
ATOM      6  C5  UNL d   1      -1.161   0.815   2.215  0.00  0.00     0.062 A 
ATOM      7  F   UNL d   1      -2.277   1.512   2.477  0.00  0.00    -0.097 F 
ATOM      8  F1  UNL d   1      -1.837   0.579  -0.028  0.00  0.00    -0.096 F 
ATOM      9  I   UNL d   1       0.575  -1.114  -1.274  0.00  0.00    -0.060 I 
ATOM     10  F2  UNL d   1       2.272  -1.321   1.432  0.00  0.00    -0.096 F 
ATOM     11  F3  UNL d   1       1.805  -0.375   3.926  0.00  0.00    -0.097 F 
ATOM     12  F4  UNL d   1      -0.464   1.041   4.461  0.00  0.00    -0.092 F 
ENDROOT
TORSDOF 0
ENDMDL
