MODEL 1
REMARK minimizedAffinity -2.87867737
REMARK minimizedRMSD -1
REMARK  0 active torsions:
REMARK  status: ('A' for Active; 'I' for Inactive)
ROOT
ATOM      1  C   UNL d   1      -0.031  -0.063   2.918  0.00  0.00     0.124 A 
ATOM      2  C1  UNL d   1      -1.106   0.365   2.151  0.00  0.00     0.062 A 
ATOM      3  C2  UNL d   1      -1.123   0.133   0.779  0.00  0.00     0.162 A 
ATOM      4  C3  UNL d   1      -0.062  -0.533   0.165  0.00  0.00    -0.034 A 
ATOM      5  C4  UNL d   1       1.016  -0.960   0.942  0.00  0.00     0.162 A 
ATOM      6  C5  UNL d   1       1.028  -0.725   2.313  0.00  0.00     0.062 A 
ATOM      7  F   UNL d   1       2.067  -1.140   3.053  0.00  0.00    -0.097 F 
ATOM      8  F1  UNL d   1       2.052  -1.602   0.384  0.00  0.00    -0.096 F 
ATOM      9  I   UNL d   1      -0.084  -0.882  -1.887  0.00  0.00    -0.060 I 
ATOM     10  F2  UNL d   1      -2.174   0.558   0.063  0.00  0.00    -0.096 F 
ATOM     11  F3  UNL d   1      -2.130   1.005   2.733  0.00  0.00    -0.097 F 
ATOM     12  F4  UNL d   1      -0.016   0.162   4.238  0.00  0.00    -0.092 F 
ENDROOT
TORSDOF 0
ENDMDL
