MODEL 1
REMARK minimizedAffinity -5.19650221
REMARK minimizedRMSD -1
REMARK  1 active torsions:
REMARK  status: ('A' for Active; 'I' for Inactive)
REMARK    1  A    between atoms: C1_2  and  C2_3 
ROOT
ATOM      1  C2  UNL d   1      -0.056   0.049  -0.059  0.00  0.00    -0.076 A 
ATOM      2  C3  UNL d   1      -1.285  -0.477   0.377  0.00  0.00     0.004 A 
ATOM      3  C4  UNL d   1      -1.507  -0.761   1.723  0.00  0.00    -0.003 A 
ATOM      4  C5  UNL d   1      -0.503  -0.524   2.656  0.00  0.00     0.000 A 
ATOM      5  C6  UNL d   1       0.716   0.014   2.244  0.00  0.00     0.000 A 
ATOM      6  C7  UNL d   1       0.950   0.321   0.892  0.00  0.00    -0.073 A 
ATOM      7  C8  UNL d   1       2.285   0.894   0.503  0.00  0.00     0.078 C 
ENDROOT
BRANCH   1   8
ATOM      8  C1  UNL d   1       0.136   0.312  -1.536  0.00  0.00     0.053 C 
ATOM      9  C   UNL d   1       0.840  -0.834  -2.245  0.00  0.00     0.018 C 
ENDBRANCH   1   8
TORSDOF 1
ENDMDL
