MODEL 1
REMARK minimizedAffinity -3.58675551
REMARK minimizedRMSD -1
REMARK  1 active torsions:
REMARK  status: ('A' for Active; 'I' for Inactive)
REMARK    1  A    between atoms: C1_2  and  C2_3 
ROOT
ATOM      1  C2  UNL d   1      -0.303   0.056   0.190  0.00  0.00    -0.076 A 
ATOM      2  C3  UNL d   1      -1.588  -0.438   0.475  0.00  0.00     0.004 A 
ATOM      3  C4  UNL d   1      -1.943  -0.807   1.772  0.00  0.00    -0.003 A 
ATOM      4  C5  UNL d   1      -1.019  -0.687   2.804  0.00  0.00     0.000 A 
ATOM      5  C6  UNL d   1       0.254  -0.182   2.542  0.00  0.00     0.000 A 
ATOM      6  C7  UNL d   1       0.623   0.210   1.244  0.00  0.00    -0.073 A 
ATOM      7  C8  UNL d   1       2.011   0.743   1.017  0.00  0.00     0.078 C 
ENDROOT
BRANCH   1   8
ATOM      8  C1  UNL d   1       0.033   0.415  -1.240  0.00  0.00     0.053 C 
ATOM      9  C   UNL d   1       0.523  -0.781  -2.041  0.00  0.00     0.018 C 
ENDBRANCH   1   8
TORSDOF 1
ENDMDL
