MODEL 1
REMARK minimizedAffinity -4.98304176
REMARK minimizedRMSD -1
REMARK  1 active torsions:
REMARK  status: ('A' for Active; 'I' for Inactive)
REMARK    1  A    between atoms: C1_2  and  C2_3 
ROOT
ATOM      1  C2  UNL d   1      -0.677  -0.431   0.901  0.00  0.00    -0.076 A 
ATOM      2  C3  UNL d   1       0.561  -0.615   0.261  0.00  0.00     0.004 A 
ATOM      3  C4  UNL d   1       0.737  -0.261  -1.076  0.00  0.00    -0.003 A 
ATOM      4  C5  UNL d   1      -0.322   0.283  -1.794  0.00  0.00     0.000 A 
ATOM      5  C6  UNL d   1      -1.552   0.488  -1.170  0.00  0.00     0.000 A 
ATOM      6  C7  UNL d   1      -1.742   0.152   0.181  0.00  0.00    -0.073 A 
ATOM      7  C8  UNL d   1      -3.091   0.390   0.802  0.00  0.00     0.078 C 
ENDROOT
BRANCH   1   8
ATOM      8  C1  UNL d   1      -0.817  -0.859   2.344  0.00  0.00     0.053 C 
ATOM      9  C   UNL d   1      -0.418   0.239   3.318  0.00  0.00     0.018 C 
ENDBRANCH   1   8
TORSDOF 1
ENDMDL
