MODEL 1
REMARK minimizedAffinity -5.38316202
REMARK minimizedRMSD -1
REMARK  1 active torsions:
REMARK  status: ('A' for Active; 'I' for Inactive)
REMARK    1  A    between atoms: C1_2  and  C2_3 
ROOT
ATOM      1  C2  UNL d   1       0.305  -0.071  -0.280  0.00  0.00    -0.076 A 
ATOM      2  C3  UNL d   1      -0.928  -0.678   0.018  0.00  0.00     0.004 A 
ATOM      3  C4  UNL d   1      -1.321  -0.893   1.338  0.00  0.00    -0.003 A 
ATOM      4  C5  UNL d   1      -0.489  -0.503   2.381  0.00  0.00     0.000 A 
ATOM      5  C6  UNL d   1       0.729   0.117   2.105  0.00  0.00     0.000 A 
ATOM      6  C7  UNL d   1       1.134   0.356   0.780  0.00  0.00    -0.073 A 
ATOM      7  C8  UNL d   1       2.460   1.023   0.539  0.00  0.00     0.078 C 
ENDROOT
BRANCH   1   8
ATOM      8  C1  UNL d   1       0.690   0.112  -1.730  0.00  0.00     0.053 C 
ATOM      9  C   UNL d   1       0.411  -1.126  -2.568  0.00  0.00     0.018 C 
ENDBRANCH   1   8
TORSDOF 1
ENDMDL
