MODEL 1
REMARK minimizedAffinity -3.83764243
REMARK minimizedRMSD -1
REMARK  1 active torsions:
REMARK  status: ('A' for Active; 'I' for Inactive)
REMARK    1  A    between atoms: C1_2  and  C2_3 
ROOT
ATOM      1  C2  UNL d   1       0.185   0.129  -0.133  0.00  0.00    -0.076 A 
ATOM      2  C3  UNL d   1       1.442   0.319   0.468  0.00  0.00     0.004 A 
ATOM      3  C4  UNL d   1       1.654  -0.011   1.805  0.00  0.00    -0.003 A 
ATOM      4  C5  UNL d   1       0.614  -0.539   2.563  0.00  0.00     0.000 A 
ATOM      5  C6  UNL d   1      -0.634  -0.751   1.977  0.00  0.00     0.000 A 
ATOM      6  C7  UNL d   1      -0.860  -0.438   0.626  0.00  0.00    -0.073 A 
ATOM      7  C8  UNL d   1      -2.227  -0.681   0.048  0.00  0.00     0.078 C 
ENDROOT
BRANCH   1   8
ATOM      8  C1  UNL d   1       0.007   0.531  -1.580  0.00  0.00     0.053 C 
ATOM      9  C   UNL d   1       0.629  -0.467  -2.544  0.00  0.00     0.018 C 
ENDBRANCH   1   8
TORSDOF 1
ENDMDL
