MODEL 1
REMARK minimizedAffinity -4.48110723
REMARK minimizedRMSD -1
REMARK  1 active torsions:
REMARK  status: ('A' for Active; 'I' for Inactive)
REMARK    1  A    between atoms: C1_2  and  C2_3 
ROOT
ATOM      1  C2  UNL d   1      -0.126   0.031   1.601  0.00  0.00    -0.076 A 
ATOM      2  C3  UNL d   1      -1.448  -0.030   1.126  0.00  0.00     0.004 A 
ATOM      3  C4  UNL d   1      -1.746   0.259  -0.205  0.00  0.00    -0.003 A 
ATOM      4  C5  UNL d   1      -0.727   0.613  -1.083  0.00  0.00     0.000 A 
ATOM      5  C6  UNL d   1       0.592   0.661  -0.633  0.00  0.00     0.000 A 
ATOM      6  C7  UNL d   1       0.912   0.357   0.702  0.00  0.00    -0.073 A 
ATOM      7  C8  UNL d   1       2.350   0.431   1.134  0.00  0.00     0.078 C 
ENDROOT
BRANCH   1   8
ATOM      8  C1  UNL d   1       0.133  -0.266   3.060  0.00  0.00     0.053 C 
ATOM      9  C   UNL d   1      -1.142  -0.589   3.825  0.00  0.00     0.018 C 
ENDBRANCH   1   8
TORSDOF 1
ENDMDL
