MODEL 1
REMARK minimizedAffinity -6.31181669
REMARK minimizedRMSD -1
REMARK  1 active torsions:
REMARK  status: ('A' for Active; 'I' for Inactive)
REMARK    1  A    between atoms: C1_2  and  C2_3 
ROOT
ATOM      1  C2  UNL d   1      -0.837  -0.246   1.012  0.00  0.00    -0.076 A 
ATOM      2  C3  UNL d   1      -2.161  -0.467   1.431  0.00  0.00     0.004 A 
ATOM      3  C4  UNL d   1      -2.537  -0.264   2.758  0.00  0.00    -0.003 A 
ATOM      4  C5  UNL d   1      -1.595   0.165   3.687  0.00  0.00     0.000 A 
ATOM      5  C6  UNL d   1      -0.282   0.406   3.285  0.00  0.00     0.000 A 
ATOM      6  C7  UNL d   1       0.110   0.222   1.948  0.00  0.00    -0.073 A 
ATOM      7  C8  UNL d   1       1.541   0.492   1.571  0.00  0.00     0.078 C 
ENDROOT
BRANCH   1   8
ATOM      8  C1  UNL d   1      -0.482  -0.509  -0.434  0.00  0.00     0.053 C 
ATOM      9  C   UNL d   1      -0.843   0.654  -1.344  0.00  0.00     0.018 C 
ENDBRANCH   1   8
TORSDOF 1
ENDMDL
