MODEL 1
REMARK minimizedAffinity -5.67564821
REMARK minimizedRMSD -1
REMARK  1 active torsions:
REMARK  status: ('A' for Active; 'I' for Inactive)
REMARK    1  A    between atoms: C1_2  and  C2_3 
ROOT
ATOM      1  C2  UNL d   1      -1.840   0.192   0.875  0.00  0.00    -0.076 A 
ATOM      2  C3  UNL d   1      -1.844   0.629  -0.461  0.00  0.00     0.004 A 
ATOM      3  C4  UNL d   1      -0.652   0.801  -1.163  0.00  0.00    -0.003 A 
ATOM      4  C5  UNL d   1       0.563   0.538  -0.540  0.00  0.00     0.000 A 
ATOM      5  C6  UNL d   1       0.585   0.087   0.779  0.00  0.00     0.000 A 
ATOM      6  C7  UNL d   1      -0.609  -0.107   1.496  0.00  0.00    -0.073 A 
ATOM      7  C8  UNL d   1      -0.526  -0.590   2.918  0.00  0.00     0.078 C 
ENDROOT
BRANCH   1   8
ATOM      8  C1  UNL d   1      -3.163   0.050   1.594  0.00  0.00     0.053 C 
ATOM      9  C   UNL d   1      -3.480   1.250   2.473  0.00  0.00     0.018 C 
ENDBRANCH   1   8
TORSDOF 1
ENDMDL
