MODEL 1
REMARK minimizedAffinity -4.2840414
REMARK minimizedRMSD -1
REMARK  1 active torsions:
REMARK  status: ('A' for Active; 'I' for Inactive)
REMARK    1  A    between atoms: C1_2  and  C2_3 
ROOT
ATOM      1  C2  UNL d   1      -0.195   0.295   0.073  0.00  0.00    -0.076 A 
ATOM      2  C3  UNL d   1       0.977   0.104   0.826  0.00  0.00     0.004 A 
ATOM      3  C4  UNL d   1       0.915  -0.213   2.182  0.00  0.00    -0.003 A 
ATOM      4  C5  UNL d   1      -0.320  -0.344   2.807  0.00  0.00     0.000 A 
ATOM      5  C6  UNL d   1      -1.493  -0.175   2.072  0.00  0.00     0.000 A 
ATOM      6  C7  UNL d   1      -1.448   0.128   0.701  0.00  0.00    -0.073 A 
ATOM      7  C8  UNL d   1      -2.744   0.306  -0.042  0.00  0.00     0.078 C 
ENDROOT
BRANCH   1   8
ATOM      8  C1  UNL d   1      -0.066   0.664  -1.387  0.00  0.00     0.053 C 
ATOM      9  C   UNL d   1       0.642  -0.409  -2.199  0.00  0.00     0.018 C 
ENDBRANCH   1   8
TORSDOF 1
ENDMDL
