MODEL 1
REMARK minimizedAffinity -4.86743927
REMARK minimizedRMSD -1
REMARK  1 active torsions:
REMARK  status: ('A' for Active; 'I' for Inactive)
REMARK    1  A    between atoms: C1_2  and  C2_3 
ROOT
ATOM      1  C2  UNL d   1      -0.363   0.337   0.041  0.00  0.00    -0.076 A 
ATOM      2  C3  UNL d   1       0.819  -0.174   0.605  0.00  0.00     0.004 A 
ATOM      3  C4  UNL d   1       0.821  -0.734   1.882  0.00  0.00    -0.003 A 
ATOM      4  C5  UNL d   1      -0.360  -0.793   2.614  0.00  0.00     0.000 A 
ATOM      5  C6  UNL d   1      -1.545  -0.308   2.062  0.00  0.00     0.000 A 
ATOM      6  C7  UNL d   1      -1.567   0.245   0.770  0.00  0.00    -0.073 A 
ATOM      7  C8  UNL d   1      -2.872   0.759   0.227  0.00  0.00     0.078 C 
ENDROOT
BRANCH   1   8
ATOM      8  C1  UNL d   1      -0.298   0.957  -1.337  0.00  0.00     0.053 C 
ATOM      9  C   UNL d   1       0.396   0.058  -2.349  0.00  0.00     0.018 C 
ENDBRANCH   1   8
TORSDOF 1
ENDMDL
