MODEL 1
REMARK minimizedAffinity -2.6796608
REMARK minimizedRMSD -1
REMARK  1 active torsions:
REMARK  status: ('A' for Active; 'I' for Inactive)
REMARK    1  A    between atoms: C1_2  and  C2_3 
ROOT
ATOM      1  C2  UNL d   1      -0.197   0.503  -1.033  0.00  0.00    -0.076 A 
ATOM      2  C3  UNL d   1      -1.485   1.066  -1.065  0.00  0.00     0.004 A 
ATOM      3  C4  UNL d   1      -2.432   0.747  -0.093  0.00  0.00    -0.003 A 
ATOM      4  C5  UNL d   1      -2.106  -0.141   0.927  0.00  0.00     0.000 A 
ATOM      5  C6  UNL d   1      -0.827  -0.695   0.984  0.00  0.00     0.000 A 
ATOM      6  C7  UNL d   1       0.144  -0.371   0.021  0.00  0.00    -0.073 A 
ATOM      7  C8  UNL d   1       1.505  -1.002   0.127  0.00  0.00     0.078 C 
ENDROOT
BRANCH   1   8
ATOM      8  C1  UNL d   1       0.779   0.866  -2.130  0.00  0.00     0.053 C 
ATOM      9  C   UNL d   1       0.982  -0.265  -3.127  0.00  0.00     0.018 C 
ENDBRANCH   1   8
TORSDOF 1
ENDMDL
