MODEL 1
REMARK minimizedAffinity -1.50861526
REMARK minimizedRMSD -1
REMARK  1 active torsions:
REMARK  status: ('A' for Active; 'I' for Inactive)
REMARK    1  A    between atoms: C1_2  and  C2_3 
ROOT
ATOM      1  C2  UNL d   1      -0.532   0.061   1.324  0.00  0.00    -0.076 A 
ATOM      2  C3  UNL d   1      -1.765  -0.138   0.679  0.00  0.00     0.004 A 
ATOM      3  C4  UNL d   1      -1.914   0.125  -0.682  0.00  0.00    -0.003 A 
ATOM      4  C5  UNL d   1      -0.831   0.590  -1.420  0.00  0.00     0.000 A 
ATOM      5  C6  UNL d   1       0.404   0.776  -0.801  0.00  0.00     0.000 A 
ATOM      6  C7  UNL d   1       0.575   0.500   0.567  0.00  0.00    -0.073 A 
ATOM      7  C8  UNL d   1       1.928   0.725   1.185  0.00  0.00     0.078 C 
ENDROOT
BRANCH   1   8
ATOM      8  C1  UNL d   1      -0.437  -0.216   2.807  0.00  0.00     0.053 C 
ATOM      9  C   UNL d   1      -1.403  -1.299   3.261  0.00  0.00     0.018 C 
ENDBRANCH   1   8
TORSDOF 1
ENDMDL
