MODEL 1
REMARK minimizedAffinity -1.88489175
REMARK minimizedRMSD -1
REMARK  1 active torsions:
REMARK  status: ('A' for Active; 'I' for Inactive)
REMARK    1  A    between atoms: C1_2  and  C2_3 
ROOT
ATOM      1  C2  UNL d   1       0.811  -0.196  -2.851  0.00  0.00    -0.076 A 
ATOM      2  C3  UNL d   1       2.082   0.381  -3.019  0.00  0.00     0.004 A 
ATOM      3  C4  UNL d   1       3.068  -0.261  -3.766  0.00  0.00    -0.003 A 
ATOM      4  C5  UNL d   1       2.799  -1.490  -4.359  0.00  0.00     0.000 A 
ATOM      5  C6  UNL d   1       1.538  -2.068  -4.218  0.00  0.00     0.000 A 
ATOM      6  C7  UNL d   1       0.527  -1.427  -3.482  0.00  0.00    -0.073 A 
ATOM      7  C8  UNL d   1      -0.813  -2.099  -3.358  0.00  0.00     0.078 C 
ENDROOT
BRANCH   1   8
ATOM      8  C1  UNL d   1      -0.210   0.533  -2.007  0.00  0.00     0.053 C 
ATOM      9  C   UNL d   1      -0.017   0.289  -0.519  0.00  0.00     0.018 C 
ENDBRANCH   1   8
TORSDOF 1
ENDMDL
