MODEL 1
REMARK minimizedAffinity -3.97667623
REMARK minimizedRMSD -1
REMARK  2 active torsions:
REMARK  status: ('A' for Active; 'I' for Inactive)
REMARK    1  A    between atoms: C2'_3  and  C1'_4 
REMARK    2  A    between atoms: C1'_4  and  C1_5 
ROOT
ATOM      1  C1  I4B d   1      -0.878   1.665   0.419  0.00  0.00    -0.075 A 
ATOM      2  C2  I4B d   1      -0.439   2.908   0.800  0.00  0.00     0.003 A 
ATOM      3  C3  I4B d   1       0.889   3.086   1.258  0.00  0.00     0.002 A 
ATOM      4  C4  I4B d   1       1.723   1.992   1.366  0.00  0.00    -0.004 A 
ATOM      5  C5  I4B d   1       1.284   0.736   0.957  0.00  0.00     0.002 A 
ATOM      6  C6  I4B d   1      -0.021   0.573   0.469  0.00  0.00     0.003 A 
ENDROOT
BRANCH   1   7
ATOM      7  C1' I4B d   1      -2.297   1.506  -0.028  0.00  0.00     0.060 C 
BRANCH   7   8
ATOM      8  C2' I4B d   1      -3.149   1.266   1.201  0.00  0.00    -0.013 C 
ATOM      9  C4' I4B d   1      -4.605   1.519   0.913  0.00  0.00     0.013 C 
ATOM     10  C3' I4B d   1      -2.925  -0.147   1.651  0.00  0.00     0.013 C 
ENDBRANCH   7   8
ENDBRANCH   1   7
TORSDOF 2
ENDMDL
