MODEL 1
REMARK minimizedAffinity 9.49105072
REMARK minimizedRMSD -1
REMARK  2 active torsions:
REMARK  status: ('A' for Active; 'I' for Inactive)
REMARK    1  A    between atoms: C2'_3  and  C1'_4 
REMARK    2  A    between atoms: C1'_4  and  C1_5 
ROOT
ATOM      1  C1  I4B d   1       3.189   5.520   3.303  0.00  0.00    -0.075 A 
ATOM      2  C2  I4B d   1       2.147   5.638   4.187  0.00  0.00     0.003 A 
ATOM      3  C3  I4B d   1       2.399   5.907   5.555  0.00  0.00     0.002 A 
ATOM      4  C4  I4B d   1       3.702   6.000   6.000  0.00  0.00    -0.004 A 
ATOM      5  C5  I4B d   1       4.757   5.903   5.097  0.00  0.00     0.002 A 
ATOM      6  C6  I4B d   1       4.499   5.674   3.738  0.00  0.00     0.003 A 
ENDROOT
BRANCH   1   7
ATOM      7  C1' I4B d   1       2.888   5.204   1.872  0.00  0.00     0.060 C 
BRANCH   7   8
ATOM      8  C2' I4B d   1       2.989   3.702   1.695  0.00  0.00    -0.013 C 
ATOM      9  C4' I4B d   1       3.547   3.349   0.342  0.00  0.00     0.013 C 
ATOM     10  C3' I4B d   1       3.855   3.164   2.795  0.00  0.00     0.013 C 
ENDBRANCH   7   8
ENDBRANCH   1   7
TORSDOF 2
ENDMDL
