MODEL 1
REMARK minimizedAffinity -3.58931041
REMARK minimizedRMSD -1
REMARK  2 active torsions:
REMARK  status: ('A' for Active; 'I' for Inactive)
REMARK    1  A    between atoms: C2'_3  and  C1'_4 
REMARK    2  A    between atoms: C1'_4  and  C1_5 
ROOT
ATOM      1  C1  I4B d   1      -0.051   1.430   0.327  0.00  0.00    -0.075 A 
ATOM      2  C2  I4B d   1       1.258   1.258  -0.047  0.00  0.00     0.003 A 
ATOM      3  C3  I4B d   1       2.095   2.382  -0.250  0.00  0.00     0.002 A 
ATOM      4  C4  I4B d   1       1.571   3.652  -0.118  0.00  0.00    -0.004 A 
ATOM      5  C5  I4B d   1       0.250   3.825   0.284  0.00  0.00     0.002 A 
ATOM      6  C6  I4B d   1      -0.564   2.707   0.520  0.00  0.00     0.003 A 
ENDROOT
BRANCH   1   7
ATOM      7  C1' I4B d   1      -0.916   0.222   0.501  0.00  0.00     0.060 C 
BRANCH   7   8
ATOM      8  C2' I4B d   1      -0.465  -0.822  -0.500  0.00  0.00    -0.013 C 
ATOM      9  C4' I4B d   1       0.548  -1.756   0.106  0.00  0.00     0.013 C 
ATOM     10  C3' I4B d   1      -1.679  -1.569  -0.968  0.00  0.00     0.013 C 
ENDBRANCH   7   8
ENDBRANCH   1   7
TORSDOF 2
ENDMDL
