MODEL 1
REMARK minimizedAffinity -3.64612818
REMARK minimizedRMSD -1
REMARK  2 active torsions:
REMARK  status: ('A' for Active; 'I' for Inactive)
REMARK    1  A    between atoms: C2'_3  and  C1'_4 
REMARK    2  A    between atoms: C1'_4  and  C1_5 
ROOT
ATOM      1  C1  I4B d   1       0.654   2.584   0.512  0.00  0.00    -0.075 A 
ATOM      2  C2  I4B d   1       0.510   1.232   0.322  0.00  0.00     0.003 A 
ATOM      3  C3  I4B d   1      -0.781   0.658   0.237  0.00  0.00     0.002 A 
ATOM      4  C4  I4B d   1      -1.893   1.459   0.395  0.00  0.00    -0.004 A 
ATOM      5  C5  I4B d   1      -1.746   2.833   0.565  0.00  0.00     0.002 A 
ATOM      6  C6  I4B d   1      -0.464   3.401   0.611  0.00  0.00     0.003 A 
ENDROOT
BRANCH   1   7
ATOM      7  C1' I4B d   1       2.033   3.153   0.631  0.00  0.00     0.060 C 
BRANCH   7   8
ATOM      8  C2' I4B d   1       2.972   2.024   1.006  0.00  0.00    -0.013 C 
ATOM      9  C4' I4B d   1       4.075   1.874  -0.009  0.00  0.00     0.013 C 
ATOM     10  C3' I4B d   1       3.526   2.316   2.368  0.00  0.00     0.013 C 
ENDBRANCH   7   8
ENDBRANCH   1   7
TORSDOF 2
ENDMDL
