MODEL 1
REMARK minimizedAffinity -4.44103146
REMARK minimizedRMSD -1
REMARK  2 active torsions:
REMARK  status: ('A' for Active; 'I' for Inactive)
REMARK    1  A    between atoms: C2'_3  and  C1'_4 
REMARK    2  A    between atoms: C1'_4  and  C1_5 
ROOT
ATOM      1  C1  I4B d   1      -1.078  -0.052  -0.787  0.00  0.00    -0.075 A 
ATOM      2  C2  I4B d   1      -2.006  -0.808  -1.458  0.00  0.00     0.003 A 
ATOM      3  C3  I4B d   1      -1.866  -2.215  -1.523  0.00  0.00     0.002 A 
ATOM      4  C4  I4B d   1      -0.763  -2.816  -0.951  0.00  0.00    -0.004 A 
ATOM      5  C5  I4B d   1       0.165  -2.050  -0.252  0.00  0.00     0.002 A 
ATOM      6  C6  I4B d   1       0.001  -0.661  -0.158  0.00  0.00     0.003 A 
ENDROOT
BRANCH   1   7
ATOM      7  C1' I4B d   1      -1.239   1.435  -0.765  0.00  0.00     0.060 C 
BRANCH   7   8
ATOM      8  C2' I4B d   1      -1.176   1.891   0.678  0.00  0.00    -0.013 C 
ATOM      9  C4' I4B d   1      -0.034   2.849   0.898  0.00  0.00     0.013 C 
ATOM     10  C3' I4B d   1      -2.490   2.527   1.021  0.00  0.00     0.013 C 
ENDBRANCH   7   8
ENDBRANCH   1   7
TORSDOF 2
ENDMDL
