MODEL 1
REMARK minimizedAffinity 6.21426487
REMARK minimizedRMSD -1
REMARK  2 active torsions:
REMARK  status: ('A' for Active; 'I' for Inactive)
REMARK    1  A    between atoms: C2'_3  and  C1'_4 
REMARK    2  A    between atoms: C1'_4  and  C1_5 
ROOT
ATOM      1  C1  I4B d   1      -1.543  -2.135  -1.061  0.00  0.00    -0.075 A 
ATOM      2  C2  I4B d   1      -0.836  -3.200  -1.561  0.00  0.00     0.003 A 
ATOM      3  C3  I4B d   1      -1.512  -4.373  -1.975  0.00  0.00     0.002 A 
ATOM      4  C4  I4B d   1      -2.881  -4.458  -1.824  0.00  0.00    -0.004 A 
ATOM      5  C5  I4B d   1      -3.599  -3.368  -1.337  0.00  0.00     0.002 A 
ATOM      6  C6  I4B d   1      -2.927  -2.195  -0.965  0.00  0.00     0.003 A 
ENDROOT
BRANCH   1   7
ATOM      7  C1' I4B d   1      -0.794  -0.924  -0.603  0.00  0.00     0.060 C 
BRANCH   7   8
ATOM      8  C2' I4B d   1      -1.706  -0.126   0.306  0.00  0.00    -0.013 C 
ATOM      9  C4' I4B d   1      -1.053   0.142   1.636  0.00  0.00     0.013 C 
ATOM     10  C3' I4B d   1      -2.054   1.153  -0.395  0.00  0.00     0.013 C 
ENDBRANCH   7   8
ENDBRANCH   1   7
TORSDOF 2
ENDMDL
