MODEL 1
REMARK minimizedAffinity -0.896425903
REMARK minimizedRMSD -1
REMARK  2 active torsions:
REMARK  status: ('A' for Active; 'I' for Inactive)
REMARK    1  A    between atoms: C2'_3  and  C1'_4 
REMARK    2  A    between atoms: C1'_4  and  C1_5 
ROOT
ATOM      1  C1  I4B d   1      -4.357   2.883  -2.190  0.00  0.00    -0.075 A 
ATOM      2  C2  I4B d   1      -5.149   3.347  -1.169  0.00  0.00     0.003 A 
ATOM      3  C3  I4B d   1      -5.056   2.772   0.122  0.00  0.00     0.002 A 
ATOM      4  C4  I4B d   1      -4.200   1.711   0.334  0.00  0.00    -0.004 A 
ATOM      5  C5  I4B d   1      -3.382   1.258  -0.696  0.00  0.00     0.002 A 
ATOM      6  C6  I4B d   1      -3.451   1.855  -1.963  0.00  0.00     0.003 A 
ENDROOT
BRANCH   1   7
ATOM      7  C1' I4B d   1      -4.505   3.491  -3.549  0.00  0.00     0.060 C 
BRANCH   7   8
ATOM      8  C2' I4B d   1      -3.320   3.054  -4.386  0.00  0.00    -0.013 C 
ATOM      9  C4' I4B d   1      -3.444   3.546  -5.804  0.00  0.00     0.013 C 
ATOM     10  C3' I4B d   1      -2.075   3.580  -3.737  0.00  0.00     0.013 C 
ENDBRANCH   7   8
ENDBRANCH   1   7
TORSDOF 2
ENDMDL
