MODEL 1
REMARK minimizedAffinity -2.72687769
REMARK minimizedRMSD -1
REMARK  2 active torsions:
REMARK  status: ('A' for Active; 'I' for Inactive)
REMARK    1  A    between atoms: C2'_3  and  C1'_4 
REMARK    2  A    between atoms: C1'_4  and  C1_5 
ROOT
ATOM      1  C1  I4B d   1       0.371  -2.084  -1.122  0.00  0.00    -0.075 A 
ATOM      2  C2  I4B d   1       0.612  -3.156  -1.944  0.00  0.00     0.003 A 
ATOM      3  C3  I4B d   1      -0.461  -3.962  -2.397  0.00  0.00     0.002 A 
ATOM      4  C4  I4B d   1      -1.743  -3.693  -1.965  0.00  0.00    -0.004 A 
ATOM      5  C5  I4B d   1      -1.988  -2.592  -1.150  0.00  0.00     0.002 A 
ATOM      6  C6  I4B d   1      -0.927  -1.775  -0.735  0.00  0.00     0.003 A 
ENDROOT
BRANCH   1   7
ATOM      7  C1' I4B d   1       1.530  -1.274  -0.636  0.00  0.00     0.060 C 
BRANCH   7   8
ATOM      8  C2' I4B d   1       1.174   0.191  -0.790  0.00  0.00    -0.013 C 
ATOM      9  C4' I4B d   1       2.245   1.077  -0.211  0.00  0.00     0.013 C 
ATOM     10  C3' I4B d   1       0.973   0.467  -2.250  0.00  0.00     0.013 C 
ENDBRANCH   7   8
ENDBRANCH   1   7
TORSDOF 2
ENDMDL
