MODEL 1
REMARK minimizedAffinity 3.28870296
REMARK minimizedRMSD -1
REMARK  2 active torsions:
REMARK  status: ('A' for Active; 'I' for Inactive)
REMARK    1  A    between atoms: C2'_3  and  C1'_4 
REMARK    2  A    between atoms: C1'_4  and  C1_5 
ROOT
ATOM      1  C1  I4B d   1       1.208   2.523   1.294  0.00  0.00    -0.075 A 
ATOM      2  C2  I4B d   1       2.042   1.651   0.640  0.00  0.00     0.003 A 
ATOM      3  C3  I4B d   1       2.780   2.082  -0.489  0.00  0.00     0.002 A 
ATOM      4  C4  I4B d   1       2.616   3.369  -0.958  0.00  0.00    -0.004 A 
ATOM      5  C5  I4B d   1       1.788   4.259  -0.280  0.00  0.00     0.002 A 
ATOM      6  C6  I4B d   1       1.088   3.837   0.860  0.00  0.00     0.003 A 
ENDROOT
BRANCH   1   7
ATOM      7  C1' I4B d   1       0.418   2.026   2.463  0.00  0.00     0.060 C 
BRANCH   7   8
ATOM      8  C2' I4B d   1       0.577   3.025   3.592  0.00  0.00    -0.013 C 
ATOM      9  C4' I4B d   1      -0.551   2.911   4.583  0.00  0.00     0.013 C 
ATOM     10  C3' I4B d   1       1.902   2.774   4.248  0.00  0.00     0.013 C 
ENDBRANCH   7   8
ENDBRANCH   1   7
TORSDOF 2
ENDMDL
