MODEL 1
REMARK minimizedAffinity 1.89368248
REMARK minimizedRMSD -1
REMARK  2 active torsions:
REMARK  status: ('A' for Active; 'I' for Inactive)
REMARK    1  A    between atoms: C2'_3  and  C1'_4 
REMARK    2  A    between atoms: C1'_4  and  C1_5 
ROOT
ATOM      1  C1  I4B d   1       1.954   2.667   0.445  0.00  0.00    -0.075 A 
ATOM      2  C2  I4B d   1       2.364   2.530  -0.858  0.00  0.00     0.003 A 
ATOM      3  C3  I4B d   1       2.421   3.660  -1.709  0.00  0.00     0.002 A 
ATOM      4  C4  I4B d   1       2.014   4.890  -1.234  0.00  0.00    -0.004 A 
ATOM      5  C5  I4B d   1       1.621   5.031   0.094  0.00  0.00     0.002 A 
ATOM      6  C6  I4B d   1       1.602   3.915   0.942  0.00  0.00     0.003 A 
ENDROOT
BRANCH   1   7
ATOM      7  C1' I4B d   1       1.874   1.447   1.307  0.00  0.00     0.060 C 
BRANCH   7   8
ATOM      8  C2' I4B d   1       1.049   0.410   0.573  0.00  0.00    -0.013 C 
ATOM      9  C4' I4B d   1       1.531  -0.985   0.875  0.00  0.00     0.013 C 
ATOM     10  C3' I4B d   1      -0.384   0.587   0.978  0.00  0.00     0.013 C 
ENDBRANCH   7   8
ENDBRANCH   1   7
TORSDOF 2
ENDMDL
