MODEL 1
REMARK minimizedAffinity -4.58369684
REMARK minimizedRMSD -1
REMARK  2 active torsions:
REMARK  status: ('A' for Active; 'I' for Inactive)
REMARK    1  A    between atoms: C2'_3  and  C1'_4 
REMARK    2  A    between atoms: C1'_4  and  C1_5 
ROOT
ATOM      1  C1  I4B d   1       0.461  -1.505  -0.489  0.00  0.00    -0.075 A 
ATOM      2  C2  I4B d   1       0.135  -2.518   0.377  0.00  0.00     0.003 A 
ATOM      3  C3  I4B d   1      -0.319  -3.764  -0.120  0.00  0.00     0.002 A 
ATOM      4  C4  I4B d   1      -0.479  -3.935  -1.480  0.00  0.00    -0.004 A 
ATOM      5  C5  I4B d   1      -0.127  -2.914  -2.359  0.00  0.00     0.002 A 
ATOM      6  C6  I4B d   1       0.358  -1.696  -1.861  0.00  0.00     0.003 A 
ENDROOT
BRANCH   1   7
ATOM      7  C1' I4B d   1       0.906  -0.192   0.072  0.00  0.00     0.060 C 
BRANCH   7   8
ATOM      8  C2' I4B d   1      -0.288   0.742   0.077  0.00  0.00    -0.013 C 
ATOM      9  C4' I4B d   1      -1.209   0.442   1.230  0.00  0.00     0.013 C 
ATOM     10  C3' I4B d   1       0.226   2.149   0.146  0.00  0.00     0.013 C 
ENDBRANCH   7   8
ENDBRANCH   1   7
TORSDOF 2
ENDMDL
