MODEL 1
REMARK minimizedAffinity -4.08499861
REMARK minimizedRMSD -1
REMARK  2 active torsions:
REMARK  status: ('A' for Active; 'I' for Inactive)
REMARK    1  A    between atoms: C2'_3  and  C1'_4 
REMARK    2  A    between atoms: C1'_4  and  C1_5 
ROOT
ATOM      1  C1  I4B d   1       0.213   1.334  -0.408  0.00  0.00    -0.075 A 
ATOM      2  C2  I4B d   1      -0.153   1.187  -1.723  0.00  0.00     0.003 A 
ATOM      3  C3  I4B d   1      -0.258  -0.105  -2.293  0.00  0.00     0.002 A 
ATOM      4  C4  I4B d   1       0.058  -1.212  -1.531  0.00  0.00    -0.004 A 
ATOM      5  C5  I4B d   1       0.407  -1.062  -0.192  0.00  0.00     0.002 A 
ATOM      6  C6  I4B d   1       0.473   0.218   0.377  0.00  0.00     0.003 A 
ENDROOT
BRANCH   1   7
ATOM      7  C1' I4B d   1       0.347   2.715   0.152  0.00  0.00     0.060 C 
BRANCH   7   8
ATOM      8  C2' I4B d   1       1.724   2.835   0.774  0.00  0.00    -0.013 C 
ATOM      9  C4' I4B d   1       2.768   3.138  -0.268  0.00  0.00     0.013 C 
ATOM     10  C3' I4B d   1       1.669   3.912   1.815  0.00  0.00     0.013 C 
ENDBRANCH   7   8
ENDBRANCH   1   7
TORSDOF 2
ENDMDL
