MODEL 1
REMARK minimizedAffinity 0.0394533724
REMARK minimizedRMSD -1
REMARK  2 active torsions:
REMARK  status: ('A' for Active; 'I' for Inactive)
REMARK    1  A    between atoms: C2'_3  and  C1'_4 
REMARK    2  A    between atoms: C1'_4  and  C1_5 
ROOT
ATOM      1  C1  I4B d   1      -0.396   0.255  -0.093  0.00  0.00    -0.075 A 
ATOM      2  C2  I4B d   1      -1.162   0.021   1.022  0.00  0.00     0.003 A 
ATOM      3  C3  I4B d   1      -1.380  -1.303   1.472  0.00  0.00     0.002 A 
ATOM      4  C4  I4B d   1      -0.858  -2.360   0.754  0.00  0.00    -0.004 A 
ATOM      5  C5  I4B d   1      -0.062  -2.120  -0.363  0.00  0.00     0.002 A 
ATOM      6  C6  I4B d   1       0.181  -0.804  -0.782  0.00  0.00     0.003 A 
ENDROOT
BRANCH   1   7
ATOM      7  C1' I4B d   1      -0.214   1.664  -0.560  0.00  0.00     0.060 C 
BRANCH   7   8
ATOM      8  C2' I4B d   1       0.477   2.437   0.545  0.00  0.00    -0.013 C 
ATOM      9  C4' I4B d   1       1.854   2.878   0.124  0.00  0.00     0.013 C 
ATOM     10  C3' I4B d   1      -0.384   3.613   0.897  0.00  0.00     0.013 C 
ENDBRANCH   7   8
ENDBRANCH   1   7
TORSDOF 2
ENDMDL
