MODEL 1
REMARK minimizedAffinity -5.14134455
REMARK minimizedRMSD -1
REMARK  2 active torsions:
REMARK  status: ('A' for Active; 'I' for Inactive)
REMARK    1  A    between atoms: C2'_3  and  C1'_4 
REMARK    2  A    between atoms: C1'_4  and  C1_5 
ROOT
ATOM      1  C1  I4B d   1       0.223   0.070  -0.182  0.00  0.00    -0.075 A 
ATOM      2  C2  I4B d   1       0.786  -1.004  -0.824  0.00  0.00     0.003 A 
ATOM      3  C3  I4B d   1       0.579  -2.316  -0.333  0.00  0.00     0.002 A 
ATOM      4  C4  I4B d   1      -0.151  -2.502   0.823  0.00  0.00    -0.004 A 
ATOM      5  C5  I4B d   1      -0.741  -1.414   1.459  0.00  0.00     0.002 A 
ATOM      6  C6  I4B d   1      -0.563  -0.120   0.947  0.00  0.00     0.003 A 
ENDROOT
BRANCH   1   7
ATOM      7  C1' I4B d   1       0.489   1.445  -0.709  0.00  0.00     0.060 C 
BRANCH   7   8
ATOM      8  C2' I4B d   1       0.965   2.303   0.445  0.00  0.00    -0.013 C 
ATOM      9  C4' I4B d   1       2.390   2.747   0.242  0.00  0.00     0.013 C 
ATOM     10  C3' I4B d   1       0.043   3.479   0.560  0.00  0.00     0.013 C 
ENDBRANCH   7   8
ENDBRANCH   1   7
TORSDOF 2
ENDMDL
