MODEL 1
REMARK minimizedAffinity -0.503762603
REMARK minimizedRMSD -1
REMARK  2 active torsions:
REMARK  status: ('A' for Active; 'I' for Inactive)
REMARK    1  A    between atoms: C2'_3  and  C1'_4 
REMARK    2  A    between atoms: C1'_4  and  C1_5 
ROOT
ATOM      1  C1  I4B d   1       0.252   0.521   0.364  0.00  0.00    -0.075 A 
ATOM      2  C2  I4B d   1       0.912  -0.274  -0.539  0.00  0.00     0.003 A 
ATOM      3  C3  I4B d   1       0.714  -1.676  -0.533  0.00  0.00     0.002 A 
ATOM      4  C4  I4B d   1      -0.110  -2.242   0.419  0.00  0.00    -0.004 A 
ATOM      5  C5  I4B d   1      -0.796  -1.432   1.319  0.00  0.00     0.002 A 
ATOM      6  C6  I4B d   1      -0.625  -0.041   1.284  0.00  0.00     0.003 A 
ENDROOT
BRANCH   1   7
ATOM      7  C1' I4B d   1       0.510   1.994   0.351  0.00  0.00     0.060 C 
BRANCH   7   8
ATOM      8  C2' I4B d   1       1.945   2.220   0.782  0.00  0.00    -0.013 C 
ATOM      9  C4' I4B d   1       2.735   2.913  -0.297  0.00  0.00     0.013 C 
ATOM     10  C3' I4B d   1       1.928   3.029   2.044  0.00  0.00     0.013 C 
ENDBRANCH   7   8
ENDBRANCH   1   7
TORSDOF 2
ENDMDL
