MODEL 1
REMARK minimizedAffinity -2.86677957
REMARK minimizedRMSD -1
REMARK  2 active torsions:
REMARK  status: ('A' for Active; 'I' for Inactive)
REMARK    1  A    between atoms: C2'_3  and  C1'_4 
REMARK    2  A    between atoms: C1'_4  and  C1_5 
ROOT
ATOM      1  C1  I4B d   1       0.308   0.335  -0.093  0.00  0.00    -0.075 A 
ATOM      2  C2  I4B d   1      -0.540   0.006   0.934  0.00  0.00     0.003 A 
ATOM      3  C3  I4B d   1      -0.666  -1.341   1.351  0.00  0.00     0.002 A 
ATOM      4  C4  I4B d   1       0.032  -2.327   0.684  0.00  0.00    -0.004 A 
ATOM      5  C5  I4B d   1       0.909  -1.989  -0.343  0.00  0.00     0.002 A 
ATOM      6  C6  I4B d   1       1.057  -0.648  -0.726  0.00  0.00     0.003 A 
ENDROOT
BRANCH   1   7
ATOM      7  C1' I4B d   1       0.391   1.763  -0.530  0.00  0.00     0.060 C 
BRANCH   7   8
ATOM      8  C2' I4B d   1       1.222   2.515   0.489  0.00  0.00    -0.013 C 
ATOM      9  C4' I4B d   1       2.554   2.921  -0.086  0.00  0.00     0.013 C 
ATOM     10  C3' I4B d   1       0.437   3.713   0.935  0.00  0.00     0.013 C 
ENDBRANCH   7   8
ENDBRANCH   1   7
TORSDOF 2
ENDMDL
