MODEL 1
REMARK minimizedAffinity 0.730262697
REMARK minimizedRMSD -1
REMARK  2 active torsions:
REMARK  status: ('A' for Active; 'I' for Inactive)
REMARK    1  A    between atoms: C2'_3  and  C1'_4 
REMARK    2  A    between atoms: C1'_4  and  C1_5 
ROOT
ATOM      1  C1  I4B d   1      -0.197  -0.918   0.365  0.00  0.00    -0.075 A 
ATOM      2  C2  I4B d   1      -0.907  -0.087   1.195  0.00  0.00     0.003 A 
ATOM      3  C3  I4B d   1      -1.208   1.237   0.791  0.00  0.00     0.002 A 
ATOM      4  C4  I4B d   1      -0.739   1.701  -0.421  0.00  0.00    -0.004 A 
ATOM      5  C5  I4B d   1      -0.039   0.850  -1.271  0.00  0.00     0.002 A 
ATOM      6  C6  I4B d   1       0.224  -0.471  -0.882  0.00  0.00     0.003 A 
ENDROOT
BRANCH   1   7
ATOM      7  C1' I4B d   1       0.132  -2.298   0.836  0.00  0.00     0.060 C 
BRANCH   7   8
ATOM      8  C2' I4B d   1      -0.774  -3.269   0.107  0.00  0.00    -0.013 C 
ATOM      9  C4' I4B d   1      -0.199  -4.661   0.112  0.00  0.00     0.013 C 
ATOM     10  C3' I4B d   1      -2.118  -3.236   0.771  0.00  0.00     0.013 C 
ENDBRANCH   7   8
ENDBRANCH   1   7
TORSDOF 2
ENDMDL
