MODEL 1
REMARK minimizedAffinity -4.29969978
REMARK minimizedRMSD -1
REMARK  2 active torsions:
REMARK  status: ('A' for Active; 'I' for Inactive)
REMARK    1  A    between atoms: C2'_3  and  C1'_4 
REMARK    2  A    between atoms: C1'_4  and  C1_5 
ROOT
ATOM      1  C1  I4B d   1      -0.211  -1.122   0.032  0.00  0.00    -0.075 A 
ATOM      2  C2  I4B d   1       0.684  -1.470  -0.949  0.00  0.00     0.003 A 
ATOM      3  C3  I4B d   1       0.728  -2.800  -1.433  0.00  0.00     0.002 A 
ATOM      4  C4  I4B d   1      -0.099  -3.754  -0.877  0.00  0.00    -0.004 A 
ATOM      5  C5  I4B d   1      -1.022  -3.394   0.101  0.00  0.00     0.002 A 
ATOM      6  C6  I4B d   1      -1.087  -2.067   0.550  0.00  0.00     0.003 A 
ENDROOT
BRANCH   1   7
ATOM      7  C1' I4B d   1      -0.208   0.284   0.544  0.00  0.00     0.060 C 
BRANCH   7   8
ATOM      8  C2' I4B d   1       0.557   1.139  -0.445  0.00  0.00    -0.013 C 
ATOM      9  C4' I4B d   1      -0.289   1.475  -1.645  0.00  0.00     0.013 C 
ATOM     10  C3' I4B d   1       1.006   2.381   0.266  0.00  0.00     0.013 C 
ENDBRANCH   7   8
ENDBRANCH   1   7
TORSDOF 2
ENDMDL
