MODEL 1
REMARK minimizedAffinity -4.37528133
REMARK minimizedRMSD -1
REMARK  2 active torsions:
REMARK  status: ('A' for Active; 'I' for Inactive)
REMARK    1  A    between atoms: C2'_3  and  C1'_4 
REMARK    2  A    between atoms: C1'_4  and  C1_5 
ROOT
ATOM      1  C1  I4B d   1      -0.090   0.415  -0.360  0.00  0.00    -0.075 A 
ATOM      2  C2  I4B d   1       0.511  -0.687  -0.917  0.00  0.00     0.003 A 
ATOM      3  C3  I4B d   1       0.251  -1.979  -0.399  0.00  0.00     0.002 A 
ATOM      4  C4  I4B d   1      -0.571  -2.117   0.701  0.00  0.00    -0.004 A 
ATOM      5  C5  I4B d   1      -1.197  -1.001   1.250  0.00  0.00     0.002 A 
ATOM      6  C6  I4B d   1      -0.965   0.271   0.709  0.00  0.00     0.003 A 
ENDROOT
BRANCH   1   7
ATOM      7  C1' I4B d   1       0.233   1.767  -0.912  0.00  0.00     0.060 C 
BRANCH   7   8
ATOM      8  C2' I4B d   1       0.933   2.559   0.174  0.00  0.00    -0.013 C 
ATOM      9  C4' I4B d   1       2.294   3.018  -0.277  0.00  0.00     0.013 C 
ATOM     10  C3' I4B d   1       0.060   3.725   0.532  0.00  0.00     0.013 C 
ENDBRANCH   7   8
ENDBRANCH   1   7
TORSDOF 2
ENDMDL
