MODEL 1
REMARK minimizedAffinity -1.26540184
REMARK minimizedRMSD -1
REMARK  2 active torsions:
REMARK  status: ('A' for Active; 'I' for Inactive)
REMARK    1  A    between atoms: C2'_3  and  C1'_4 
REMARK    2  A    between atoms: C1'_4  and  C1_5 
ROOT
ATOM      1  C1  I4B d   1       0.387   0.530  -0.673  0.00  0.00    -0.075 A 
ATOM      2  C2  I4B d   1       0.613   0.186  -1.982  0.00  0.00     0.003 A 
ATOM      3  C3  I4B d   1       0.842  -1.166  -2.335  0.00  0.00     0.002 A 
ATOM      4  C4  I4B d   1       0.885  -2.128  -1.347  0.00  0.00    -0.004 A 
ATOM      5  C5  I4B d   1       0.633  -1.782  -0.023  0.00  0.00     0.002 A 
ATOM      6  C6  I4B d   1       0.370  -0.446   0.315  0.00  0.00     0.003 A 
ENDROOT
BRANCH   1   7
ATOM      7  C1' I4B d   1       0.182   1.971  -0.331  0.00  0.00     0.060 C 
BRANCH   7   8
ATOM      8  C2' I4B d   1       1.359   2.423   0.510  0.00  0.00    -0.013 C 
ATOM      9  C4' I4B d   1       2.614   2.522  -0.317  0.00  0.00     0.013 C 
ATOM     10  C3' I4B d   1       1.009   3.747   1.122  0.00  0.00     0.013 C 
ENDBRANCH   7   8
ENDBRANCH   1   7
TORSDOF 2
ENDMDL
