MODEL 1
REMARK minimizedAffinity -5.13613129
REMARK minimizedRMSD -1
REMARK  2 active torsions:
REMARK  status: ('A' for Active; 'I' for Inactive)
REMARK    1  A    between atoms: C2'_3  and  C1'_4 
REMARK    2  A    between atoms: C1'_4  and  C1_5 
ROOT
ATOM      1  C1  I4B d   1      -0.321  -1.208   0.247  0.00  0.00    -0.075 A 
ATOM      2  C2  I4B d   1       0.134  -1.594  -0.989  0.00  0.00     0.003 A 
ATOM      3  C3  I4B d   1       0.579  -2.921  -1.202  0.00  0.00     0.002 A 
ATOM      4  C4  I4B d   1       0.599  -3.809  -0.146  0.00  0.00    -0.004 A 
ATOM      5  C5  I4B d   1       0.116  -3.423   1.101  0.00  0.00     0.002 A 
ATOM      6  C6  I4B d   1      -0.359  -2.118   1.296  0.00  0.00     0.003 A 
ENDROOT
BRANCH   1   7
ATOM      7  C1' I4B d   1      -0.752   0.210   0.446  0.00  0.00     0.060 C 
BRANCH   7   8
ATOM      8  C2' I4B d   1       0.059   1.081  -0.493  0.00  0.00    -0.013 C 
ATOM      9  C4' I4B d   1      -0.782   1.576  -1.640  0.00  0.00     0.013 C 
ATOM     10  C3' I4B d   1       0.617   2.223   0.302  0.00  0.00     0.013 C 
ENDBRANCH   7   8
ENDBRANCH   1   7
TORSDOF 2
ENDMDL
