MODEL 1
REMARK minimizedAffinity -2.31907988
REMARK minimizedRMSD -1
REMARK  2 active torsions:
REMARK  status: ('A' for Active; 'I' for Inactive)
REMARK    1  A    between atoms: C2'_3  and  C1'_4 
REMARK    2  A    between atoms: C1'_4  and  C1_5 
ROOT
ATOM      1  C1  I4B d   1      -0.076   0.795  -0.218  0.00  0.00    -0.075 A 
ATOM      2  C2  I4B d   1       0.523  -0.020  -1.147  0.00  0.00     0.003 A 
ATOM      3  C3  I4B d   1       0.474  -1.427  -0.998  0.00  0.00     0.002 A 
ATOM      4  C4  I4B d   1      -0.135  -1.972   0.114  0.00  0.00    -0.004 A 
ATOM      5  C5  I4B d   1      -0.761  -1.146   1.043  0.00  0.00     0.002 A 
ATOM      6  C6  I4B d   1      -0.742   0.246   0.870  0.00  0.00     0.003 A 
ENDROOT
BRANCH   1   7
ATOM      7  C1' I4B d   1       0.023   2.277  -0.389  0.00  0.00     0.060 C 
BRANCH   7   8
ATOM      8  C2' I4B d   1       0.669   2.849   0.856  0.00  0.00    -0.013 C 
ATOM      9  C4' I4B d   1       2.171   2.848   0.741  0.00  0.00     0.013 C 
ATOM     10  C3' I4B d   1       0.143   4.239   1.055  0.00  0.00     0.013 C 
ENDBRANCH   7   8
ENDBRANCH   1   7
TORSDOF 2
ENDMDL
