MODEL 1
REMARK minimizedAffinity -4.18790674
REMARK minimizedRMSD -1
REMARK  2 active torsions:
REMARK  status: ('A' for Active; 'I' for Inactive)
REMARK    1  A    between atoms: C2'_3  and  C1'_4 
REMARK    2  A    between atoms: C1'_4  and  C1_5 
ROOT
ATOM      1  C1  I4B d   1      -0.306   0.004  -0.193  0.00  0.00    -0.075 A 
ATOM      2  C2  I4B d   1      -0.233  -0.864  -1.253  0.00  0.00     0.003 A 
ATOM      3  C3  I4B d   1      -0.672  -2.203  -1.110  0.00  0.00     0.002 A 
ATOM      4  C4  I4B d   1      -1.125  -2.642   0.118  0.00  0.00    -0.004 A 
ATOM      5  C5  I4B d   1      -1.219  -1.754   1.186  0.00  0.00     0.002 A 
ATOM      6  C6  I4B d   1      -0.818  -0.420   1.026  0.00  0.00     0.003 A 
ENDROOT
BRANCH   1   7
ATOM      7  C1' I4B d   1       0.196   1.402  -0.370  0.00  0.00     0.060 C 
BRANCH   7   8
ATOM      8  C2' I4B d   1       1.324   1.621   0.617  0.00  0.00    -0.013 C 
ATOM      9  C4' I4B d   1       2.477   0.691   0.345  0.00  0.00     0.013 C 
ATOM     10  C3' I4B d   1       1.752   3.056   0.520  0.00  0.00     0.013 C 
ENDBRANCH   7   8
ENDBRANCH   1   7
TORSDOF 2
ENDMDL
