MODEL 1
REMARK minimizedAffinity -1.05395937
REMARK minimizedRMSD -1
REMARK  2 active torsions:
REMARK  status: ('A' for Active; 'I' for Inactive)
REMARK    1  A    between atoms: C2'_3  and  C1'_4 
REMARK    2  A    between atoms: C1'_4  and  C1_5 
ROOT
ATOM      1  C1  I4B d   1      -0.171  -0.016  -0.097  0.00  0.00    -0.075 A 
ATOM      2  C2  I4B d   1      -0.971  -0.452   0.930  0.00  0.00     0.003 A 
ATOM      3  C3  I4B d   1      -1.064  -1.834   1.224  0.00  0.00     0.002 A 
ATOM      4  C4  I4B d   1      -0.384  -2.743   0.440  0.00  0.00    -0.004 A 
ATOM      5  C5  I4B d   1       0.446  -2.298  -0.585  0.00  0.00     0.002 A 
ATOM      6  C6  I4B d   1       0.563  -0.925  -0.848  0.00  0.00     0.003 A 
ENDROOT
BRANCH   1   7
ATOM      7  C1' I4B d   1      -0.121   1.447  -0.401  0.00  0.00     0.060 C 
BRANCH   7   8
ATOM      8  C2' I4B d   1       0.879   2.087   0.540  0.00  0.00    -0.013 C 
ATOM      9  C4' I4B d   1       2.210   2.290  -0.134  0.00  0.00     0.013 C 
ATOM     10  C3' I4B d   1       0.305   3.390   1.010  0.00  0.00     0.013 C 
ENDBRANCH   7   8
ENDBRANCH   1   7
TORSDOF 2
ENDMDL
