MODEL 1
REMARK minimizedAffinity -3.00423098
REMARK minimizedRMSD -1
REMARK  2 active torsions:
REMARK  status: ('A' for Active; 'I' for Inactive)
REMARK    1  A    between atoms: C2'_3  and  C1'_4 
REMARK    2  A    between atoms: C1'_4  and  C1_5 
ROOT
ATOM      1  C1  I4B d   1       0.099   0.114  -0.393  0.00  0.00    -0.075 A 
ATOM      2  C2  I4B d   1      -0.786  -0.247   0.592  0.00  0.00     0.003 A 
ATOM      3  C3  I4B d   1      -0.900  -1.602   0.986  0.00  0.00     0.002 A 
ATOM      4  C4  I4B d   1      -0.152  -2.563   0.338  0.00  0.00    -0.004 A 
ATOM      5  C5  I4B d   1       0.762  -2.193  -0.644  0.00  0.00     0.002 A 
ATOM      6  C6  I4B d   1       0.898  -0.844  -1.003  0.00  0.00     0.003 A 
ENDROOT
BRANCH   1   7
ATOM      7  C1' I4B d   1       0.170   1.550  -0.807  0.00  0.00     0.060 C 
BRANCH   7   8
ATOM      8  C2' I4B d   1       0.389   2.385   0.438  0.00  0.00    -0.013 C 
ATOM      9  C4' I4B d   1       1.709   3.108   0.386  0.00  0.00     0.013 C 
ATOM     10  C3' I4B d   1      -0.753   3.350   0.554  0.00  0.00     0.013 C 
ENDBRANCH   7   8
ENDBRANCH   1   7
TORSDOF 2
ENDMDL
