MODEL 1
REMARK minimizedAffinity 2.1640985
REMARK minimizedRMSD -1
REMARK  0 active torsions:
REMARK  status: ('A' for Active; 'I' for Inactive)
ROOT
ATOM      1  C   UNL d   1       2.520  -1.473   2.284  0.00  0.00     0.023 A 
ATOM      2  C1  UNL d   1       2.372  -0.236   2.912  0.00  0.00     0.003 A 
ATOM      3  C2  UNL d   1       1.101   0.318   3.077  0.00  0.00     0.048 A 
ATOM      4  C3  UNL d   1      -0.018  -0.370   2.611  0.00  0.00     0.023 A 
ATOM      5  C4  UNL d   1       0.124  -1.608   1.982  0.00  0.00     0.048 A 
ATOM      6  C5  UNL d   1       1.397  -2.158   1.819  0.00  0.00     0.003 A 
ATOM      7  I   UNL d   1      -1.911   0.453   2.855  0.00  0.00    -0.146 I 
ENDROOT
TORSDOF 0
ENDMDL
