MODEL 1
REMARK minimizedAffinity 7.1342063
REMARK minimizedRMSD -1
REMARK  0 active torsions:
REMARK  status: ('A' for Active; 'I' for Inactive)
ROOT
ATOM      1  C   UNL d   1       1.485  -1.906   3.367  0.00  0.00     0.023 A 
ATOM      2  C1  UNL d   1       2.456  -2.251   2.426  0.00  0.00     0.003 A 
ATOM      3  C2  UNL d   1       2.400  -1.719   1.136  0.00  0.00     0.048 A 
ATOM      4  C3  UNL d   1       1.371  -0.842   0.794  0.00  0.00     0.023 A 
ATOM      5  C4  UNL d   1       0.399  -0.493   1.732  0.00  0.00     0.048 A 
ATOM      6  C5  UNL d   1       0.458  -1.028   3.020  0.00  0.00     0.003 A 
ATOM      7  I   UNL d   1       1.286  -0.048  -1.125  0.00  0.00    -0.146 I 
ENDROOT
TORSDOF 0
ENDMDL
