MODEL 1
REMARK minimizedAffinity 6.32546711
REMARK minimizedRMSD -1
REMARK  0 active torsions:
REMARK  status: ('A' for Active; 'I' for Inactive)
ROOT
ATOM      1  C   UNL d   1       2.002   1.582  -2.336  0.00  0.00     0.023 A 
ATOM      2  C1  UNL d   1       2.316   1.879  -1.010  0.00  0.00     0.003 A 
ATOM      3  C2  UNL d   1       1.980   0.982   0.006  0.00  0.00     0.048 A 
ATOM      4  C3  UNL d   1       1.331  -0.211  -0.312  0.00  0.00     0.023 A 
ATOM      5  C4  UNL d   1       1.016  -0.512  -1.637  0.00  0.00     0.048 A 
ATOM      6  C5  UNL d   1       1.353   0.388  -2.650  0.00  0.00     0.003 A 
ATOM      7  I   UNL d   1       0.830  -1.548   1.199  0.00  0.00    -0.146 I 
ENDROOT
TORSDOF 0
ENDMDL
