MODEL 1
REMARK minimizedAffinity 8.01067066
REMARK minimizedRMSD -1
REMARK  0 active torsions:
REMARK  status: ('A' for Active; 'I' for Inactive)
ROOT
ATOM      1  C   UNL d   1       2.760  -1.926  -1.235  0.00  0.00     0.023 A 
ATOM      2  C1  UNL d   1       1.480  -1.398  -1.404  0.00  0.00     0.003 A 
ATOM      3  C2  UNL d   1       0.674  -1.146  -0.292  0.00  0.00     0.048 A 
ATOM      4  C3  UNL d   1       1.154  -1.425   0.987  0.00  0.00     0.023 A 
ATOM      5  C4  UNL d   1       2.434  -1.952   1.162  0.00  0.00     0.048 A 
ATOM      6  C5  UNL d   1       3.236  -2.203   0.047  0.00  0.00     0.003 A 
ATOM      7  I   UNL d   1      -0.044  -1.051   2.644  0.00  0.00    -0.146 I 
ENDROOT
TORSDOF 0
ENDMDL
