MODEL 1
REMARK minimizedAffinity 1.5950675
REMARK minimizedRMSD -1
REMARK  0 active torsions:
REMARK  status: ('A' for Active; 'I' for Inactive)
ROOT
ATOM      1  C   UNL d   1       1.235  -0.865  -1.644  0.00  0.00     0.023 A 
ATOM      2  C1  UNL d   1       2.073  -1.120  -0.559  0.00  0.00     0.003 A 
ATOM      3  C2  UNL d   1       1.546  -1.185   0.732  0.00  0.00     0.048 A 
ATOM      4  C3  UNL d   1       0.179  -0.994   0.931  0.00  0.00     0.023 A 
ATOM      5  C4  UNL d   1      -0.664  -0.740  -0.152  0.00  0.00     0.048 A 
ATOM      6  C5  UNL d   1      -0.132  -0.675  -1.441  0.00  0.00     0.003 A 
ATOM      7  I   UNL d   1      -0.609  -1.090   2.852  0.00  0.00    -0.146 I 
ENDROOT
TORSDOF 0
ENDMDL
