MODEL 1
REMARK minimizedAffinity 3.81792974
REMARK minimizedRMSD -1
REMARK  0 active torsions:
REMARK  status: ('A' for Active; 'I' for Inactive)
ROOT
ATOM      1  C   UNL d   1       2.952  -2.698   0.845  0.00  0.00     0.023 A 
ATOM      2  C1  UNL d   1       2.076  -1.868   0.145  0.00  0.00     0.003 A 
ATOM      3  C2  UNL d   1       1.091  -1.154   0.831  0.00  0.00     0.048 A 
ATOM      4  C3  UNL d   1       0.988  -1.274   2.216  0.00  0.00     0.023 A 
ATOM      5  C4  UNL d   1       1.863  -2.102   2.921  0.00  0.00     0.048 A 
ATOM      6  C5  UNL d   1       2.846  -2.814   2.231  0.00  0.00     0.003 A 
ATOM      7  I   UNL d   1      -0.477  -0.212   3.239  0.00  0.00    -0.146 I 
ENDROOT
TORSDOF 0
ENDMDL
