MODEL 1
REMARK minimizedAffinity 5.78833914
REMARK minimizedRMSD -1
REMARK  0 active torsions:
REMARK  status: ('A' for Active; 'I' for Inactive)
ROOT
ATOM      1  C   UNL d   1       1.258   1.490  -1.427  0.00  0.00     0.023 A 
ATOM      2  C1  UNL d   1       0.944   0.156  -1.686  0.00  0.00     0.003 A 
ATOM      3  C2  UNL d   1       1.354  -0.844  -0.802  0.00  0.00     0.048 A 
ATOM      4  C3  UNL d   1       2.077  -0.503   0.341  0.00  0.00     0.023 A 
ATOM      5  C4  UNL d   1       2.392   0.831   0.605  0.00  0.00     0.048 A 
ATOM      6  C5  UNL d   1       1.981   1.827  -0.282  0.00  0.00     0.003 A 
ATOM      7  I   UNL d   1       2.688  -1.989   1.659  0.00  0.00    -0.146 I 
ENDROOT
TORSDOF 0
ENDMDL
