MODEL 1
REMARK minimizedAffinity 6.43622112
REMARK minimizedRMSD -1
REMARK  0 active torsions:
REMARK  status: ('A' for Active; 'I' for Inactive)
ROOT
ATOM      1  C   UNL d   1       3.403  -1.751   2.223  0.00  0.00     0.023 A 
ATOM      2  C1  UNL d   1       2.933  -1.067   3.344  0.00  0.00     0.003 A 
ATOM      3  C2  UNL d   1       1.563  -0.854   3.509  0.00  0.00     0.048 A 
ATOM      4  C3  UNL d   1       0.669  -1.327   2.550  0.00  0.00     0.023 A 
ATOM      5  C4  UNL d   1       1.135  -2.013   1.427  0.00  0.00     0.048 A 
ATOM      6  C5  UNL d   1       2.506  -2.223   1.266  0.00  0.00     0.003 A 
ATOM      7  I   UNL d   1      -1.371  -1.011   2.794  0.00  0.00    -0.146 I 
ENDROOT
TORSDOF 0
ENDMDL
