MODEL 1
REMARK minimizedAffinity -1.98846591
REMARK minimizedRMSD -1
REMARK  0 active torsions:
REMARK  status: ('A' for Active; 'I' for Inactive)
ROOT
ATOM      1  C   UNL d   1       3.423   4.813  -1.903  0.00  0.00     0.023 A 
ATOM      2  C1  UNL d   1       4.545   5.638  -1.817  0.00  0.00     0.003 A 
ATOM      3  C2  UNL d   1       5.252   5.979  -2.972  0.00  0.00     0.048 A 
ATOM      4  C3  UNL d   1       4.831   5.493  -4.209  0.00  0.00     0.023 A 
ATOM      5  C4  UNL d   1       3.709   4.668  -4.300  0.00  0.00     0.048 A 
ATOM      6  C5  UNL d   1       3.006   4.329  -3.142  0.00  0.00     0.003 A 
ATOM      7  I   UNL d   1       5.881   6.000  -5.930  0.00  0.00    -0.146 I 
ENDROOT
TORSDOF 0
ENDMDL
