MODEL 1
REMARK minimizedAffinity 2.59660888
REMARK minimizedRMSD -1
REMARK  0 active torsions:
REMARK  status: ('A' for Active; 'I' for Inactive)
ROOT
ATOM      1  C   UNL d   1       1.381  -0.330   0.858  0.00  0.00     0.023 A 
ATOM      2  C1  UNL d   1       1.006   0.228   2.080  0.00  0.00     0.003 A 
ATOM      3  C2  UNL d   1       0.842  -0.589   3.201  0.00  0.00     0.048 A 
ATOM      4  C3  UNL d   1       1.058  -1.962   3.093  0.00  0.00     0.023 A 
ATOM      5  C4  UNL d   1       1.434  -2.525   1.873  0.00  0.00     0.048 A 
ATOM      6  C5  UNL d   1       1.595  -1.705   0.754  0.00  0.00     0.003 A 
ATOM      7  I   UNL d   1       0.816  -3.179   4.761  0.00  0.00    -0.146 I 
ENDROOT
TORSDOF 0
ENDMDL
