MODEL 1
REMARK minimizedAffinity 5.79780865
REMARK minimizedRMSD -1
REMARK  0 active torsions:
REMARK  status: ('A' for Active; 'I' for Inactive)
ROOT
ATOM      1  C   UNL d   1       1.277  -0.793   2.648  0.00  0.00     0.023 A 
ATOM      2  C1  UNL d   1       1.776  -1.254   1.430  0.00  0.00     0.003 A 
ATOM      3  C2  UNL d   1       2.029  -2.615   1.249  0.00  0.00     0.048 A 
ATOM      4  C3  UNL d   1       1.781  -3.510   2.289  0.00  0.00     0.023 A 
ATOM      5  C4  UNL d   1       1.281  -3.052   3.510  0.00  0.00     0.048 A 
ATOM      6  C5  UNL d   1       1.030  -1.690   3.687  0.00  0.00     0.003 A 
ATOM      7  I   UNL d   1       2.157  -5.536   2.022  0.00  0.00    -0.146 I 
ENDROOT
TORSDOF 0
ENDMDL
