MODEL 1
REMARK minimizedAffinity 7.51111174
REMARK minimizedRMSD -1
REMARK  0 active torsions:
REMARK  status: ('A' for Active; 'I' for Inactive)
ROOT
ATOM      1  C   UNL d   1       0.989  -2.447   3.107  0.00  0.00     0.023 A 
ATOM      2  C1  UNL d   1       1.362  -2.087   1.812  0.00  0.00     0.003 A 
ATOM      3  C2  UNL d   1       1.664  -0.756   1.516  0.00  0.00     0.048 A 
ATOM      4  C3  UNL d   1       1.594   0.209   2.519  0.00  0.00     0.023 A 
ATOM      5  C4  UNL d   1       1.223  -0.147   3.817  0.00  0.00     0.048 A 
ATOM      6  C5  UNL d   1       0.920  -1.478   4.109  0.00  0.00     0.003 A 
ATOM      7  I   UNL d   1       2.045   2.190   2.081  0.00  0.00    -0.146 I 
ENDROOT
TORSDOF 0
ENDMDL
