MODEL 1
REMARK minimizedAffinity 12.138073
REMARK minimizedRMSD -1
REMARK  0 active torsions:
REMARK  status: ('A' for Active; 'I' for Inactive)
ROOT
ATOM      1  C   UNL d   1      -2.314   2.873   1.094  0.00  0.00     0.023 A 
ATOM      2  C1  UNL d   1      -3.152   3.345   0.084  0.00  0.00     0.003 A 
ATOM      3  C2  UNL d   1      -3.516   2.506  -0.971  0.00  0.00     0.048 A 
ATOM      4  C3  UNL d   1      -3.041   1.196  -1.009  0.00  0.00     0.023 A 
ATOM      5  C4  UNL d   1      -2.203   0.719   0.001  0.00  0.00     0.048 A 
ATOM      6  C5  UNL d   1      -1.841   1.561   1.053  0.00  0.00     0.003 A 
ATOM      7  I   UNL d   1      -3.582  -0.055  -2.578  0.00  0.00    -0.146 I 
ENDROOT
TORSDOF 0
ENDMDL
