MODEL 1
REMARK minimizedAffinity 13.1542883
REMARK minimizedRMSD -1
REMARK  0 active torsions:
REMARK  status: ('A' for Active; 'I' for Inactive)
ROOT
ATOM      1  C   UNL d   1      -4.224  -0.289  -3.628  0.00  0.00     0.023 A 
ATOM      2  C1  UNL d   1      -3.038  -0.788  -3.088  0.00  0.00     0.003 A 
ATOM      3  C2  UNL d   1      -2.491  -0.204  -1.944  0.00  0.00     0.048 A 
ATOM      4  C3  UNL d   1      -3.136   0.877  -1.343  0.00  0.00     0.023 A 
ATOM      5  C4  UNL d   1      -4.323   1.378  -1.879  0.00  0.00     0.048 A 
ATOM      6  C5  UNL d   1      -4.866   0.792  -3.024  0.00  0.00     0.003 A 
ATOM      7  I   UNL d   1      -2.324   1.746   0.361  0.00  0.00    -0.146 I 
ENDROOT
TORSDOF 0
ENDMDL
