MODEL 1
REMARK minimizedAffinity 6.46787119
REMARK minimizedRMSD -1
REMARK  0 active torsions:
REMARK  status: ('A' for Active; 'I' for Inactive)
ROOT
ATOM      1  C   UNL d   1       1.537  -0.734   1.200  0.00  0.00     0.023 A 
ATOM      2  C1  UNL d   1       0.839   0.059   2.110  0.00  0.00     0.003 A 
ATOM      3  C2  UNL d   1       0.777  -0.309   3.456  0.00  0.00     0.048 A 
ATOM      4  C3  UNL d   1       1.416  -1.472   3.884  0.00  0.00     0.023 A 
ATOM      5  C4  UNL d   1       2.116  -2.269   2.977  0.00  0.00     0.048 A 
ATOM      6  C5  UNL d   1       2.175  -1.897   1.633  0.00  0.00     0.003 A 
ATOM      7  I   UNL d   1       1.324  -2.023   5.886  0.00  0.00    -0.146 I 
ENDROOT
TORSDOF 0
ENDMDL
