MODEL 1
REMARK minimizedAffinity 1.34692109
REMARK minimizedRMSD -1
REMARK  0 active torsions:
REMARK  status: ('A' for Active; 'I' for Inactive)
ROOT
ATOM      1  C   UNL d   1       5.086  -2.848   0.140  0.00  0.00     0.023 A 
ATOM      2  C1  UNL d   1       3.731  -2.933  -0.181  0.00  0.00     0.003 A 
ATOM      3  C2  UNL d   1       2.770  -2.446   0.707  0.00  0.00     0.048 A 
ATOM      4  C3  UNL d   1       3.170  -1.874   1.914  0.00  0.00     0.023 A 
ATOM      5  C4  UNL d   1       4.525  -1.786   2.239  0.00  0.00     0.048 A 
ATOM      6  C5  UNL d   1       5.482  -2.275   1.349  0.00  0.00     0.003 A 
ATOM      7  I   UNL d   1       1.741  -1.148   3.238  0.00  0.00    -0.146 I 
ENDROOT
TORSDOF 0
ENDMDL
