MODEL 1
REMARK minimizedAffinity 4.3562398
REMARK minimizedRMSD -1
REMARK  0 active torsions:
REMARK  status: ('A' for Active; 'I' for Inactive)
ROOT
ATOM      1  C   UNL d   1       0.843  -1.472   4.736  0.00  0.00     0.023 A 
ATOM      2  C1  UNL d   1       1.652  -2.607   4.774  0.00  0.00     0.003 A 
ATOM      3  C2  UNL d   1       2.577  -2.841   3.754  0.00  0.00     0.048 A 
ATOM      4  C3  UNL d   1       2.689  -1.935   2.701  0.00  0.00     0.023 A 
ATOM      5  C4  UNL d   1       1.882  -0.797   2.659  0.00  0.00     0.048 A 
ATOM      6  C5  UNL d   1       0.958  -0.567   3.680  0.00  0.00     0.003 A 
ATOM      7  I   UNL d   1       4.065  -2.281   1.182  0.00  0.00    -0.146 I 
ENDROOT
TORSDOF 0
ENDMDL
