MODEL 1
REMARK minimizedAffinity 0.171331584
REMARK minimizedRMSD -1
REMARK  0 active torsions:
REMARK  status: ('A' for Active; 'I' for Inactive)
ROOT
ATOM      1  C1  BNZ d   1      -0.707  -3.506   0.380  0.00  0.00     0.000 A 
ATOM      2  C2  BNZ d   1      -1.500  -2.627   1.069  0.00  0.00     0.000 A 
ATOM      3  C3  BNZ d   1      -1.888  -2.893   2.353  0.00  0.00     0.000 A 
ATOM      4  C4  BNZ d   1      -1.517  -4.054   2.931  0.00  0.00     0.000 A 
ATOM      5  C5  BNZ d   1      -0.726  -4.954   2.245  0.00  0.00     0.000 A 
ATOM      6  C6  BNZ d   1      -0.305  -4.666   0.968  0.00  0.00     0.000 A 
ENDROOT
TORSDOF 0
ENDMDL
