MODEL 1
REMARK minimizedAffinity 10.0321369
REMARK minimizedRMSD -1
REMARK  0 active torsions:
REMARK  status: ('A' for Active; 'I' for Inactive)
ROOT
ATOM      1  C1  BNZ d   1      -0.386  -5.997   1.138  0.00  0.00     0.000 A 
ATOM      2  C2  BNZ d   1      -0.591  -4.880   0.373  0.00  0.00     0.000 A 
ATOM      3  C3  BNZ d   1      -1.141  -3.752   0.915  0.00  0.00     0.000 A 
ATOM      4  C4  BNZ d   1      -1.522  -3.755   2.208  0.00  0.00     0.000 A 
ATOM      5  C5  BNZ d   1      -1.330  -4.877   2.990  0.00  0.00     0.000 A 
ATOM      6  C6  BNZ d   1      -0.741  -5.998   2.452  0.00  0.00     0.000 A 
ENDROOT
TORSDOF 0
ENDMDL
