MODEL 1
REMARK minimizedAffinity -0.511721373
REMARK minimizedRMSD -1
REMARK  0 active torsions:
REMARK  status: ('A' for Active; 'I' for Inactive)
ROOT
ATOM      1  C1  BNZ d   1      -3.946   4.966  -4.141  0.00  0.00     0.000 A 
ATOM      2  C2  BNZ d   1      -4.078   3.969  -5.071  0.00  0.00     0.000 A 
ATOM      3  C3  BNZ d   1      -5.094   3.994  -5.985  0.00  0.00     0.000 A 
ATOM      4  C4  BNZ d   1      -5.999   4.993  -5.943  0.00  0.00     0.000 A 
ATOM      5  C5  BNZ d   1      -5.886   6.000  -5.006  0.00  0.00     0.000 A 
ATOM      6  C6  BNZ d   1      -4.839   5.992  -4.112  0.00  0.00     0.000 A 
ENDROOT
TORSDOF 0
ENDMDL
