MODEL 1
REMARK minimizedAffinity 9.00768661
REMARK minimizedRMSD -1
REMARK  0 active torsions:
REMARK  status: ('A' for Active; 'I' for Inactive)
ROOT
ATOM      1  C1  BNZ d   1      -2.720  -1.451   0.710  0.00  0.00     0.000 A 
ATOM      2  C2  BNZ d   1      -2.468  -2.561   1.470  0.00  0.00     0.000 A 
ATOM      3  C3  BNZ d   1      -1.435  -3.401   1.161  0.00  0.00     0.000 A 
ATOM      4  C4  BNZ d   1      -0.682  -3.152   0.070  0.00  0.00     0.000 A 
ATOM      5  C5  BNZ d   1      -0.930  -2.042  -0.712  0.00  0.00     0.000 A 
ATOM      6  C6  BNZ d   1      -1.946  -1.177  -0.375  0.00  0.00     0.000 A 
ENDROOT
TORSDOF 0
ENDMDL
