MODEL 1
REMARK minimizedAffinity 1.47470152
REMARK minimizedRMSD -1
REMARK  0 active torsions:
REMARK  status: ('A' for Active; 'I' for Inactive)
ROOT
ATOM      1  C1  BNZ d   1      -6.000   5.454   0.129  0.00  0.00     0.000 A 
ATOM      2  C2  BNZ d   1      -6.000   4.147  -0.278  0.00  0.00     0.000 A 
ATOM      3  C3  BNZ d   1      -4.883   3.371  -0.141  0.00  0.00     0.000 A 
ATOM      4  C4  BNZ d   1      -3.757   3.914   0.366  0.00  0.00     0.000 A 
ATOM      5  C5  BNZ d   1      -3.738   5.233   0.772  0.00  0.00     0.000 A 
ATOM      6  C6  BNZ d   1      -4.876   6.000   0.669  0.00  0.00     0.000 A 
ENDROOT
TORSDOF 0
ENDMDL
