MODEL 1
REMARK minimizedAffinity 5.69737864
REMARK minimizedRMSD -1
REMARK  0 active torsions:
REMARK  status: ('A' for Active; 'I' for Inactive)
ROOT
ATOM      1  C1  BNZ d   1      -0.741  -2.573  -0.350  0.00  0.00     0.000 A 
ATOM      2  C2  BNZ d   1      -0.078  -3.718  -0.703  0.00  0.00     0.000 A 
ATOM      3  C3  BNZ d   1      -0.197  -4.855   0.046  0.00  0.00     0.000 A 
ATOM      4  C4  BNZ d   1      -0.945  -4.835   1.168  0.00  0.00     0.000 A 
ATOM      5  C5  BNZ d   1      -1.612  -3.685   1.542  0.00  0.00     0.000 A 
ATOM      6  C6  BNZ d   1      -1.522  -2.554   0.764  0.00  0.00     0.000 A 
ENDROOT
TORSDOF 0
ENDMDL
