MODEL 1
REMARK minimizedAffinity 3.3748076
REMARK minimizedRMSD -1
REMARK  0 active torsions:
REMARK  status: ('A' for Active; 'I' for Inactive)
ROOT
ATOM      1  C1  BNZ d   1      -1.121  -3.551   1.456  0.00  0.00     0.000 A 
ATOM      2  C2  BNZ d   1      -1.590  -2.273   1.307  0.00  0.00     0.000 A 
ATOM      3  C3  BNZ d   1      -1.994  -1.814   0.084  0.00  0.00     0.000 A 
ATOM      4  C4  BNZ d   1      -1.890  -2.618  -0.994  0.00  0.00     0.000 A 
ATOM      5  C5  BNZ d   1      -1.410  -3.906  -0.861  0.00  0.00     0.000 A 
ATOM      6  C6  BNZ d   1      -1.041  -4.378   0.377  0.00  0.00     0.000 A 
ENDROOT
TORSDOF 0
ENDMDL
