MODEL 1
REMARK minimizedAffinity 10.2913933
REMARK minimizedRMSD -1
REMARK  0 active torsions:
REMARK  status: ('A' for Active; 'I' for Inactive)
ROOT
ATOM      1  C1  BNZ d   1      -3.446   0.594   5.583  0.00  0.00     0.000 A 
ATOM      2  C2  BNZ d   1      -3.597   1.915   5.914  0.00  0.00     0.000 A 
ATOM      3  C3  BNZ d   1      -4.839   2.480   5.988  0.00  0.00     0.000 A 
ATOM      4  C4  BNZ d   1      -5.925   1.737   5.692  0.00  0.00     0.000 A 
ATOM      5  C5  BNZ d   1      -5.789   0.407   5.348  0.00  0.00     0.000 A 
ATOM      6  C6  BNZ d   1      -4.540  -0.169   5.312  0.00  0.00     0.000 A 
ENDROOT
TORSDOF 0
ENDMDL
