MODEL 1
REMARK minimizedAffinity 5.16517782
REMARK minimizedRMSD -1
REMARK  0 active torsions:
REMARK  status: ('A' for Active; 'I' for Inactive)
ROOT
ATOM      1  C1  BNZ d   1      -5.902   1.585   6.000  0.00  0.00     0.000 A 
ATOM      2  C2  BNZ d   1      -5.950   0.229   5.814  0.00  0.00     0.000 A 
ATOM      3  C3  BNZ d   1      -4.803  -0.493   5.636  0.00  0.00     0.000 A 
ATOM      4  C4  BNZ d   1      -3.616   0.145   5.604  0.00  0.00     0.000 A 
ATOM      5  C5  BNZ d   1      -3.552   1.513   5.780  0.00  0.00     0.000 A 
ATOM      6  C6  BNZ d   1      -4.705   2.232   5.998  0.00  0.00     0.000 A 
ENDROOT
TORSDOF 0
ENDMDL
