MODEL 1
REMARK minimizedAffinity 7.45620728
REMARK minimizedRMSD -1
REMARK  0 active torsions:
REMARK  status: ('A' for Active; 'I' for Inactive)
ROOT
ATOM      1  C1  BNZ d   1      -0.748  -1.932  -1.505  0.00  0.00     0.000 A 
ATOM      2  C2  BNZ d   1      -0.631  -3.030  -0.694  0.00  0.00     0.000 A 
ATOM      3  C3  BNZ d   1      -0.572  -4.288  -1.224  0.00  0.00     0.000 A 
ATOM      4  C4  BNZ d   1      -0.669  -4.451  -2.559  0.00  0.00     0.000 A 
ATOM      5  C5  BNZ d   1      -0.797  -3.355  -3.390  0.00  0.00     0.000 A 
ATOM      6  C6  BNZ d   1      -0.817  -2.087  -2.855  0.00  0.00     0.000 A 
ENDROOT
TORSDOF 0
ENDMDL
