MODEL 1
REMARK minimizedAffinity 11.8499622
REMARK minimizedRMSD -1
REMARK  0 active torsions:
REMARK  status: ('A' for Active; 'I' for Inactive)
ROOT
ATOM      1  C1  BNZ d   1      -2.985   5.997  -4.867  0.00  0.00     0.000 A 
ATOM      2  C2  BNZ d   1      -4.138   5.996  -5.607  0.00  0.00     0.000 A 
ATOM      3  C3  BNZ d   1      -4.718   4.821  -5.996  0.00  0.00     0.000 A 
ATOM      4  C4  BNZ d   1      -4.125   3.652  -5.680  0.00  0.00     0.000 A 
ATOM      5  C5  BNZ d   1      -2.957   3.637  -4.942  0.00  0.00     0.000 A 
ATOM      6  C6  BNZ d   1      -2.397   4.820  -4.519  0.00  0.00     0.000 A 
ENDROOT
TORSDOF 0
ENDMDL
