MODEL 1
REMARK minimizedAffinity 2.13863659
REMARK minimizedRMSD -1
REMARK  0 active torsions:
REMARK  status: ('A' for Active; 'I' for Inactive)
ROOT
ATOM      1  C1  BNZ d   1      -4.932   5.970  -0.657  0.00  0.00     0.000 A 
ATOM      2  C2  BNZ d   1      -3.895   5.165  -1.048  0.00  0.00     0.000 A 
ATOM      3  C3  BNZ d   1      -3.915   3.823  -0.789  0.00  0.00     0.000 A 
ATOM      4  C4  BNZ d   1      -4.951   3.294  -0.106  0.00  0.00     0.000 A 
ATOM      5  C5  BNZ d   1      -6.000   4.094   0.303  0.00  0.00     0.000 A 
ATOM      6  C6  BNZ d   1      -5.995   5.438   0.006  0.00  0.00     0.000 A 
ENDROOT
TORSDOF 0
ENDMDL
