MODEL 1
REMARK minimizedAffinity 10.4492407
REMARK minimizedRMSD -1
REMARK  0 active torsions:
REMARK  status: ('A' for Active; 'I' for Inactive)
ROOT
ATOM      1  C1  BNZ d   1       6.000   3.564  -1.484  0.00  0.00     0.000 A 
ATOM      2  C2  BNZ d   1       5.250   2.643  -0.801  0.00  0.00     0.000 A 
ATOM      3  C3  BNZ d   1       4.488   3.017   0.270  0.00  0.00     0.000 A 
ATOM      4  C4  BNZ d   1       4.507   4.302   0.681  0.00  0.00     0.000 A 
ATOM      5  C5  BNZ d   1       5.264   5.240   0.008  0.00  0.00     0.000 A 
ATOM      6  C6  BNZ d   1       6.000   4.867  -1.093  0.00  0.00     0.000 A 
ENDROOT
TORSDOF 0
ENDMDL
