MODEL 1
REMARK minimizedAffinity 1.45995617
REMARK minimizedRMSD -1
REMARK  0 active torsions:
REMARK  status: ('A' for Active; 'I' for Inactive)
ROOT
ATOM      1  C1  BNZ d   1      -3.204  -2.977   5.992  0.00  0.00     0.000 A 
ATOM      2  C2  BNZ d   1      -4.053  -1.902   5.999  0.00  0.00     0.000 A 
ATOM      3  C3  BNZ d   1      -3.565  -0.625   5.981  0.00  0.00     0.000 A 
ATOM      4  C4  BNZ d   1      -2.231  -0.425   5.997  0.00  0.00     0.000 A 
ATOM      5  C5  BNZ d   1      -1.363  -1.498   6.000  0.00  0.00     0.000 A 
ATOM      6  C6  BNZ d   1      -1.857  -2.782   5.978  0.00  0.00     0.000 A 
ENDROOT
TORSDOF 0
ENDMDL
