MODEL 1
REMARK minimizedAffinity 5.47117662
REMARK minimizedRMSD -1
REMARK  0 active torsions:
REMARK  status: ('A' for Active; 'I' for Inactive)
ROOT
ATOM      1  C1  BNZ d   1      -5.982   5.859   3.093  0.00  0.00     0.000 A 
ATOM      2  C2  BNZ d   1      -5.976   5.981   1.729  0.00  0.00     0.000 A 
ATOM      3  C3  BNZ d   1      -5.999   4.874   0.927  0.00  0.00     0.000 A 
ATOM      4  C4  BNZ d   1      -5.986   3.648   1.489  0.00  0.00     0.000 A 
ATOM      5  C5  BNZ d   1      -5.982   3.508   2.863  0.00  0.00     0.000 A 
ATOM      6  C6  BNZ d   1      -5.999   4.625   3.667  0.00  0.00     0.000 A 
ENDROOT
TORSDOF 0
ENDMDL
