MODEL 1
REMARK minimizedAffinity 5.48569965
REMARK minimizedRMSD -1
REMARK  0 active torsions:
REMARK  status: ('A' for Active; 'I' for Inactive)
ROOT
ATOM      1  C1  BNZ d   1      -3.984  -1.253   5.992  0.00  0.00     0.000 A 
ATOM      2  C2  BNZ d   1      -4.939  -0.272   6.000  0.00  0.00     0.000 A 
ATOM      3  C3  BNZ d   1      -4.589   1.047   5.926  0.00  0.00     0.000 A 
ATOM      4  C4  BNZ d   1      -3.284   1.385   5.885  0.00  0.00     0.000 A 
ATOM      5  C5  BNZ d   1      -2.309   0.408   5.886  0.00  0.00     0.000 A 
ATOM      6  C6  BNZ d   1      -2.666  -0.920   5.922  0.00  0.00     0.000 A 
ENDROOT
TORSDOF 0
ENDMDL
