MODEL 1
REMARK minimizedAffinity 0.624307156
REMARK minimizedRMSD -1
REMARK  0 active torsions:
REMARK  status: ('A' for Active; 'I' for Inactive)
ROOT
ATOM      1  C1  BNZ d   1      -4.500   4.870  -0.805  0.00  0.00     0.000 A 
ATOM      2  C2  BNZ d   1      -5.266   5.958  -0.479  0.00  0.00     0.000 A 
ATOM      3  C3  BNZ d   1      -6.000   5.977   0.674  0.00  0.00     0.000 A 
ATOM      4  C4  BNZ d   1      -5.999   4.895   1.479  0.00  0.00     0.000 A 
ATOM      5  C5  BNZ d   1      -5.240   3.787   1.159  0.00  0.00     0.000 A 
ATOM      6  C6  BNZ d   1      -4.472   3.786   0.017  0.00  0.00     0.000 A 
ENDROOT
TORSDOF 0
ENDMDL
