MODEL 1
REMARK minimizedAffinity 6.00291538
REMARK minimizedRMSD -1
REMARK  0 active torsions:
REMARK  status: ('A' for Active; 'I' for Inactive)
ROOT
ATOM      1  C1  BNZ d   1       4.833   2.857   0.090  0.00  0.00     0.000 A 
ATOM      2  C2  BNZ d   1       5.948   2.137   0.427  0.00  0.00     0.000 A 
ATOM      3  C3  BNZ d   1       5.999   1.433   1.597  0.00  0.00     0.000 A 
ATOM      4  C4  BNZ d   1       4.953   1.480   2.446  0.00  0.00     0.000 A 
ATOM      5  C5  BNZ d   1       3.825   2.209   2.125  0.00  0.00     0.000 A 
ATOM      6  C6  BNZ d   1       3.761   2.886   0.929  0.00  0.00     0.000 A 
ENDROOT
TORSDOF 0
ENDMDL
