MODEL 1
REMARK minimizedAffinity -5.2015686
REMARK minimizedRMSD -1
REMARK  2 active torsions:
REMARK  status: ('A' for Active; 'I' for Inactive)
REMARK    1  A    between atoms: C1_2  and  C2_3 
REMARK    2  A    between atoms: C2_3  and  C3_4 
ROOT
ATOM      1  C3  UNL d   1       0.100   0.021  -0.442  0.00  0.00    -0.075 A 
ATOM      2  C4  UNL d   1      -1.293   0.179  -0.405  0.00  0.00     0.002 A 
ATOM      3  C5  UNL d   1      -1.918   0.688   0.733  0.00  0.00     0.002 A 
ATOM      4  C6  UNL d   1      -1.162   1.034   1.851  0.00  0.00    -0.004 A 
ATOM      5  C7  UNL d   1       0.221   0.865   1.831  0.00  0.00     0.002 A 
ATOM      6  C8  UNL d   1       0.849   0.361   0.692  0.00  0.00     0.002 A 
ENDROOT
BRANCH   1   7
ATOM      7  C2  UNL d   1       0.785  -0.502  -1.682  0.00  0.00     0.056 C 
BRANCH   7   8
ATOM      8  C1  UNL d   1       1.151   0.586  -2.698  0.00  0.00     0.007 C 
ATOM      9  C   UNL d   1       1.930   0.054  -3.893  0.00  0.00     0.009 C 
ENDBRANCH   7   8
ENDBRANCH   1   7
TORSDOF 2
ENDMDL
