MODEL 1
REMARK minimizedAffinity -4.67955399
REMARK minimizedRMSD -1
REMARK  2 active torsions:
REMARK  status: ('A' for Active; 'I' for Inactive)
REMARK    1  A    between atoms: C1_2  and  C2_3 
REMARK    2  A    between atoms: C2_3  and  C3_4 
ROOT
ATOM      1  C3  UNL d   1       0.319  -0.051  -0.032  0.00  0.00    -0.075 A 
ATOM      2  C4  UNL d   1       0.971   0.614   1.016  0.00  0.00     0.002 A 
ATOM      3  C5  UNL d   1       0.257   1.046   2.134  0.00  0.00     0.002 A 
ATOM      4  C6  UNL d   1      -1.117   0.829   2.212  0.00  0.00    -0.004 A 
ATOM      5  C7  UNL d   1      -1.778   0.185   1.169  0.00  0.00     0.002 A 
ATOM      6  C8  UNL d   1      -1.065  -0.253   0.052  0.00  0.00     0.002 A 
ENDROOT
BRANCH   1   7
ATOM      7  C2  UNL d   1       1.092  -0.548  -1.231  0.00  0.00     0.056 C 
BRANCH   7   8
ATOM      8  C1  UNL d   1       0.297  -0.519  -2.541  0.00  0.00     0.007 C 
ATOM      9  C   UNL d   1       0.869   0.448  -3.569  0.00  0.00     0.009 C 
ENDBRANCH   7   8
ENDBRANCH   1   7
TORSDOF 2
ENDMDL
