MODEL 1
REMARK minimizedAffinity -5.94477081
REMARK minimizedRMSD -1
REMARK  2 active torsions:
REMARK  status: ('A' for Active; 'I' for Inactive)
REMARK    1  A    between atoms: C1_2  and  C2_3 
REMARK    2  A    between atoms: C2_3  and  C3_4 
ROOT
ATOM      1  C3  UNL d   1       0.191   0.090   0.006  0.00  0.00    -0.075 A 
ATOM      2  C4  UNL d   1       1.045   0.498   1.041  0.00  0.00     0.002 A 
ATOM      3  C5  UNL d   1       0.527   1.078   2.199  0.00  0.00     0.002 A 
ATOM      4  C6  UNL d   1      -0.847   1.268   2.333  0.00  0.00    -0.004 A 
ATOM      5  C7  UNL d   1      -1.703   0.882   1.304  0.00  0.00     0.002 A 
ATOM      6  C8  UNL d   1      -1.188   0.296   0.146  0.00  0.00     0.002 A 
ENDROOT
BRANCH   1   7
ATOM      7  C2  UNL d   1       0.743  -0.566  -1.237  0.00  0.00     0.056 C 
BRANCH   7   8
ATOM      8  C1  UNL d   1       1.649   0.344  -2.073  0.00  0.00     0.007 C 
ATOM      9  C   UNL d   1       1.238   0.420  -3.537  0.00  0.00     0.009 C 
ENDBRANCH   7   8
ENDBRANCH   1   7
TORSDOF 2
ENDMDL
