MODEL 1
REMARK minimizedAffinity -4.02654409
REMARK minimizedRMSD -1
REMARK  2 active torsions:
REMARK  status: ('A' for Active; 'I' for Inactive)
REMARK    1  A    between atoms: C1_2  and  C2_3 
REMARK    2  A    between atoms: C2_3  and  C3_4 
ROOT
ATOM      1  C3  UNL d   1      -0.002  -0.176  -0.078  0.00  0.00    -0.075 A 
ATOM      2  C4  UNL d   1       0.711   0.465   0.944  0.00  0.00     0.002 A 
ATOM      3  C5  UNL d   1       0.039   1.046   2.020  0.00  0.00     0.002 A 
ATOM      4  C6  UNL d   1      -1.352   1.002   2.082  0.00  0.00    -0.004 A 
ATOM      5  C7  UNL d   1      -2.072   0.382   1.063  0.00  0.00     0.002 A 
ATOM      6  C8  UNL d   1      -1.401  -0.204  -0.012  0.00  0.00     0.002 A 
ENDROOT
BRANCH   1   7
ATOM      7  C2  UNL d   1       0.721  -0.832  -1.230  0.00  0.00     0.056 C 
BRANCH   7   8
ATOM      8  C1  UNL d   1       0.035  -0.641  -2.587  0.00  0.00     0.007 C 
ATOM      9  C   UNL d   1       0.793   0.298  -3.516  0.00  0.00     0.009 C 
ENDBRANCH   7   8
ENDBRANCH   1   7
TORSDOF 2
ENDMDL
