MODEL 1
REMARK minimizedAffinity -4.1438942
REMARK minimizedRMSD -1
REMARK  2 active torsions:
REMARK  status: ('A' for Active; 'I' for Inactive)
REMARK    1  A    between atoms: C1_2  and  C2_3 
REMARK    2  A    between atoms: C2_3  and  C3_4 
ROOT
ATOM      1  C3  UNL d   1      -0.039  -0.259  -0.106  0.00  0.00    -0.075 A 
ATOM      2  C4  UNL d   1       0.522   0.182   1.101  0.00  0.00     0.002 A 
ATOM      3  C5  UNL d   1      -0.287   0.713   2.106  0.00  0.00     0.002 A 
ATOM      4  C6  UNL d   1      -1.663   0.819   1.914  0.00  0.00    -0.004 A 
ATOM      5  C7  UNL d   1      -2.229   0.398   0.712  0.00  0.00     0.002 A 
ATOM      6  C8  UNL d   1      -1.422  -0.137  -0.293  0.00  0.00     0.002 A 
ENDROOT
BRANCH   1   7
ATOM      7  C2  UNL d   1       0.828  -0.862  -1.186  0.00  0.00     0.056 C 
BRANCH   7   8
ATOM      8  C1  UNL d   1       0.247  -0.730  -2.597  0.00  0.00     0.007 C 
ATOM      9  C   UNL d   1       1.120   0.098  -3.531  0.00  0.00     0.009 C 
ENDBRANCH   7   8
ENDBRANCH   1   7
TORSDOF 2
ENDMDL
