MODEL 1
REMARK minimizedAffinity -5.33832407
REMARK minimizedRMSD -1
REMARK  2 active torsions:
REMARK  status: ('A' for Active; 'I' for Inactive)
REMARK    1  A    between atoms: C1_2  and  C2_3 
REMARK    2  A    between atoms: C2_3  and  C3_4 
ROOT
ATOM      1  C3  UNL d   1      -0.026  -0.020   0.331  0.00  0.00    -0.075 A 
ATOM      2  C4  UNL d   1       0.679   0.803   1.222  0.00  0.00     0.002 A 
ATOM      3  C5  UNL d   1       0.002   1.526   2.205  0.00  0.00     0.002 A 
ATOM      4  C6  UNL d   1      -1.385   1.444   2.303  0.00  0.00    -0.004 A 
ATOM      5  C7  UNL d   1      -2.097   0.643   1.413  0.00  0.00     0.002 A 
ATOM      6  C8  UNL d   1      -1.422  -0.085   0.431  0.00  0.00     0.002 A 
ENDROOT
BRANCH   1   7
ATOM      7  C2  UNL d   1       0.703  -0.828  -0.716  0.00  0.00     0.056 C 
BRANCH   7   8
ATOM      8  C1  UNL d   1       0.914  -0.087  -2.040  0.00  0.00     0.007 C 
ATOM      9  C   UNL d   1       0.560  -0.926  -3.261  0.00  0.00     0.009 C 
ENDBRANCH   7   8
ENDBRANCH   1   7
TORSDOF 2
ENDMDL
