MODEL 1
REMARK minimizedAffinity -4.25560331
REMARK minimizedRMSD -1
REMARK  2 active torsions:
REMARK  status: ('A' for Active; 'I' for Inactive)
REMARK    1  A    between atoms: C1_2  and  C2_3 
REMARK    2  A    between atoms: C2_3  and  C3_4 
ROOT
ATOM      1  C3  UNL d   1       0.069  -0.173  -0.264  0.00  0.00    -0.075 A 
ATOM      2  C4  UNL d   1      -1.322  -0.012  -0.338  0.00  0.00     0.002 A 
ATOM      3  C5  UNL d   1      -2.019   0.608   0.700  0.00  0.00     0.002 A 
ATOM      4  C6  UNL d   1      -1.338   1.063   1.826  0.00  0.00    -0.004 A 
ATOM      5  C7  UNL d   1       0.041   0.893   1.918  0.00  0.00     0.002 A 
ATOM      6  C8  UNL d   1       0.743   0.278   0.880  0.00  0.00     0.002 A 
ENDROOT
BRANCH   1   7
ATOM      7  C2  UNL d   1       0.834  -0.816  -1.396  0.00  0.00     0.056 C 
BRANCH   7   8
ATOM      8  C1  UNL d   1       0.374  -0.374  -2.789  0.00  0.00     0.007 C 
ATOM      9  C   UNL d   1       1.360   0.560  -3.479  0.00  0.00     0.009 C 
ENDBRANCH   7   8
ENDBRANCH   1   7
TORSDOF 2
ENDMDL
