MODEL 1
REMARK minimizedAffinity -5.24498796
REMARK minimizedRMSD -1
REMARK  2 active torsions:
REMARK  status: ('A' for Active; 'I' for Inactive)
REMARK    1  A    between atoms: C1_2  and  C2_3 
REMARK    2  A    between atoms: C2_3  and  C3_4 
ROOT
ATOM      1  C3  UNL d   1      -0.002  -0.063   0.448  0.00  0.00    -0.075 A 
ATOM      2  C4  UNL d   1       0.965   0.457   1.320  0.00  0.00     0.002 A 
ATOM      3  C5  UNL d   1       0.585   1.076   2.511  0.00  0.00     0.002 A 
ATOM      4  C6  UNL d   1      -0.763   1.191   2.841  0.00  0.00    -0.004 A 
ATOM      5  C7  UNL d   1      -1.733   0.692   1.975  0.00  0.00     0.002 A 
ATOM      6  C8  UNL d   1      -1.356   0.069   0.784  0.00  0.00     0.002 A 
ENDROOT
BRANCH   1   7
ATOM      7  C2  UNL d   1       0.403  -0.760  -0.829  0.00  0.00     0.056 C 
BRANCH   7   8
ATOM      8  C1  UNL d   1       0.827   0.193  -1.952  0.00  0.00     0.007 C 
ATOM      9  C   UNL d   1       0.457  -0.313  -3.340  0.00  0.00     0.009 C 
ENDBRANCH   7   8
ENDBRANCH   1   7
TORSDOF 2
ENDMDL
