MODEL 1
REMARK minimizedAffinity -2.85397649
REMARK minimizedRMSD -1
REMARK  2 active torsions:
REMARK  status: ('A' for Active; 'I' for Inactive)
REMARK    1  A    between atoms: C1_2  and  C2_3 
REMARK    2  A    between atoms: C2_3  and  C3_4 
ROOT
ATOM      1  C3  UNL d   1       0.385  -0.553  -1.509  0.00  0.00    -0.075 A 
ATOM      2  C4  UNL d   1      -1.009  -0.690  -1.433  0.00  0.00     0.002 A 
ATOM      3  C5  UNL d   1      -1.668  -0.554  -0.210  0.00  0.00     0.002 A 
ATOM      4  C6  UNL d   1      -0.943  -0.288   0.949  0.00  0.00    -0.004 A 
ATOM      5  C7  UNL d   1       0.443  -0.166   0.887  0.00  0.00     0.002 A 
ATOM      6  C8  UNL d   1       1.105  -0.298  -0.335  0.00  0.00     0.002 A 
ENDROOT
BRANCH   1   7
ATOM      7  C2  UNL d   1       1.101  -0.670  -2.834  0.00  0.00     0.056 C 
BRANCH   7   8
ATOM      8  C1  UNL d   1       1.929   0.564  -3.207  0.00  0.00     0.007 C 
ATOM      9  C   UNL d   1       1.113   1.647  -3.900  0.00  0.00     0.009 C 
ENDBRANCH   7   8
ENDBRANCH   1   7
TORSDOF 2
ENDMDL
