MODEL 1
REMARK minimizedAffinity -2.60744977
REMARK minimizedRMSD -1
REMARK  2 active torsions:
REMARK  status: ('A' for Active; 'I' for Inactive)
REMARK    1  A    between atoms: C1_2  and  C2_3 
REMARK    2  A    between atoms: C2_3  and  C3_4 
ROOT
ATOM      1  C3  UNL d   1      -0.365  -0.331  -0.622  0.00  0.00    -0.075 A 
ATOM      2  C4  UNL d   1      -1.742  -0.173  -0.406  0.00  0.00     0.002 A 
ATOM      3  C5  UNL d   1      -2.231   0.114   0.868  0.00  0.00     0.002 A 
ATOM      4  C6  UNL d   1      -1.353   0.236   1.943  0.00  0.00    -0.004 A 
ATOM      5  C7  UNL d   1       0.015   0.064   1.744  0.00  0.00     0.002 A 
ATOM      6  C8  UNL d   1       0.508  -0.219   0.469  0.00  0.00     0.002 A 
ENDROOT
BRANCH   1   7
ATOM      7  C2  UNL d   1       0.174  -0.613  -2.004  0.00  0.00     0.056 C 
BRANCH   7   8
ATOM      8  C1  UNL d   1       1.164   0.439  -2.514  0.00  0.00     0.007 C 
ATOM      9  C   UNL d   1       0.909   0.855  -3.957  0.00  0.00     0.009 C 
ENDBRANCH   7   8
ENDBRANCH   1   7
TORSDOF 2
ENDMDL
