MODEL 1
REMARK minimizedAffinity 3.2293272
REMARK minimizedRMSD -1
REMARK  0 active torsions:
REMARK  status: ('A' for Active; 'I' for Inactive)
ROOT
ATOM      1  C   UNL d   1       1.929   2.109  -2.117  0.00  0.00     0.020 A 
ATOM      2  C1  UNL d   1       0.781   2.322  -1.354  0.00  0.00     0.020 A 
ATOM      3  C2  UNL d   1       0.504   1.494  -0.264  0.00  0.00     0.034 A 
ATOM      4  C3  UNL d   1       1.374   0.449   0.066  0.00  0.00     0.017 A 
ATOM      5  C4  UNL d   1       2.526   0.236  -0.700  0.00  0.00     0.017 A 
ATOM      6  C5  UNL d   1       2.799   1.068  -1.790  0.00  0.00     0.034 A 
ATOM      7 Cl   UNL d   1       3.648  -1.032  -0.354  0.00  0.00    -0.070 Cl
ATOM      8 Cl1  UNL d   1       0.969  -0.535   1.427  0.00  0.00    -0.070 Cl
ENDROOT
TORSDOF 0
ENDMDL
