MODEL 1
REMARK minimizedAffinity 1.50438952
REMARK minimizedRMSD -1
REMARK  0 active torsions:
REMARK  status: ('A' for Active; 'I' for Inactive)
ROOT
ATOM      1  C   UNL d   1       1.728  -0.339  -1.391  0.00  0.00     0.020 A 
ATOM      2  C1  UNL d   1       0.991  -0.399  -0.208  0.00  0.00     0.020 A 
ATOM      3  C2  UNL d   1       0.701   0.773   0.493  0.00  0.00     0.034 A 
ATOM      4  C3  UNL d   1       1.146   2.010   0.013  0.00  0.00     0.017 A 
ATOM      5  C4  UNL d   1       1.885   2.069  -1.174  0.00  0.00     0.017 A 
ATOM      6  C5  UNL d   1       2.173   0.892  -1.873  0.00  0.00     0.034 A 
ATOM      7 Cl   UNL d   1       2.469   3.558  -1.829  0.00  0.00    -0.070 Cl
ATOM      8 Cl1  UNL d   1       0.750   3.419   0.932  0.00  0.00    -0.070 Cl
ENDROOT
TORSDOF 0
ENDMDL
