MODEL 1
REMARK minimizedAffinity -3.37701106
REMARK minimizedRMSD -1
REMARK  0 active torsions:
REMARK  status: ('A' for Active; 'I' for Inactive)
ROOT
ATOM      1  C   UNL d   1       1.461   4.383  -0.257  0.00  0.00     0.020 A 
ATOM      2  C1  UNL d   1       1.129   4.024  -1.563  0.00  0.00     0.020 A 
ATOM      3  C2  UNL d   1       0.950   2.679  -1.894  0.00  0.00     0.034 A 
ATOM      4  C3  UNL d   1       1.103   1.688  -0.918  0.00  0.00     0.017 A 
ATOM      5  C4  UNL d   1       1.436   2.049   0.393  0.00  0.00     0.017 A 
ATOM      6  C5  UNL d   1       1.614   3.397   0.718  0.00  0.00     0.034 A 
ATOM      7 Cl   UNL d   1       1.642   0.882   1.651  0.00  0.00    -0.070 Cl
ATOM      8 Cl1  UNL d   1       0.866   0.045  -1.397  0.00  0.00    -0.070 Cl
ENDROOT
TORSDOF 0
ENDMDL
