MODEL 1
REMARK minimizedAffinity -3.14187384
REMARK minimizedRMSD -1
REMARK  0 active torsions:
REMARK  status: ('A' for Active; 'I' for Inactive)
ROOT
ATOM      1  C   UNL d   1       1.348   0.222  -1.223  0.00  0.00     0.020 A 
ATOM      2  C1  UNL d   1       1.838   1.267  -2.005  0.00  0.00     0.020 A 
ATOM      3  C2  UNL d   1       1.666   2.589  -1.589  0.00  0.00     0.034 A 
ATOM      4  C3  UNL d   1       1.002   2.869  -0.389  0.00  0.00     0.017 A 
ATOM      5  C4  UNL d   1       0.511   1.819   0.395  0.00  0.00     0.017 A 
ATOM      6  C5  UNL d   1       0.686   0.497  -0.026  0.00  0.00     0.034 A 
ATOM      7 Cl   UNL d   1      -0.318   2.085   1.888  0.00  0.00    -0.070 Cl
ATOM      8 Cl1  UNL d   1       0.825   4.527   0.064  0.00  0.00    -0.070 Cl
ENDROOT
TORSDOF 0
ENDMDL
