MODEL 1
REMARK minimizedAffinity 0.0462544523
REMARK minimizedRMSD -1
REMARK  0 active torsions:
REMARK  status: ('A' for Active; 'I' for Inactive)
ROOT
ATOM      1  C   UNL d   1       1.069   1.033  -2.510  0.00  0.00     0.020 A 
ATOM      2  C1  UNL d   1       1.161  -0.217  -1.899  0.00  0.00     0.020 A 
ATOM      3  C2  UNL d   1       1.287  -0.309  -0.511  0.00  0.00     0.034 A 
ATOM      4  C3  UNL d   1       1.322   0.851   0.271  0.00  0.00     0.017 A 
ATOM      5  C4  UNL d   1       1.229   2.106  -0.343  0.00  0.00     0.017 A 
ATOM      6  C5  UNL d   1       1.103   2.192  -1.733  0.00  0.00     0.034 A 
ATOM      7 Cl   UNL d   1       1.264   3.582   0.555  0.00  0.00    -0.070 Cl
ATOM      8 Cl1  UNL d   1       1.479   0.663   1.981  0.00  0.00    -0.070 Cl
ENDROOT
TORSDOF 0
ENDMDL
