MODEL 1
REMARK minimizedAffinity 0.850865901
REMARK minimizedRMSD -1
REMARK  0 active torsions:
REMARK  status: ('A' for Active; 'I' for Inactive)
ROOT
ATOM      1  C   UNL d   1       1.012   0.166  -1.340  0.00  0.00     0.020 A 
ATOM      2  C1  UNL d   1       1.008   0.091   0.052  0.00  0.00     0.020 A 
ATOM      3  C2  UNL d   1       1.194   1.246   0.815  0.00  0.00     0.034 A 
ATOM      4  C3  UNL d   1       1.384   2.481   0.186  0.00  0.00     0.017 A 
ATOM      5  C4  UNL d   1       1.388   2.556  -1.212  0.00  0.00     0.017 A 
ATOM      6  C5  UNL d   1       1.201   1.397  -1.971  0.00  0.00     0.034 A 
ATOM      7 Cl   UNL d   1       1.616   4.045  -2.059  0.00  0.00    -0.070 Cl
ATOM      8 Cl1  UNL d   1       1.607   3.869   1.191  0.00  0.00    -0.070 Cl
ENDROOT
TORSDOF 0
ENDMDL
