MODEL 1
REMARK minimizedAffinity 1.79055762
REMARK minimizedRMSD -1
REMARK  0 active torsions:
REMARK  status: ('A' for Active; 'I' for Inactive)
ROOT
ATOM      1  C   UNL d   1       1.250  -0.149  -0.271  0.00  0.00     0.020 A 
ATOM      2  C1  UNL d   1       1.567   0.684   0.802  0.00  0.00     0.020 A 
ATOM      3  C2  UNL d   1       1.591   2.069   0.627  0.00  0.00     0.034 A 
ATOM      4  C3  UNL d   1       1.297   2.626  -0.624  0.00  0.00     0.017 A 
ATOM      5  C4  UNL d   1       0.979   1.789  -1.699  0.00  0.00     0.017 A 
ATOM      6  C5  UNL d   1       0.957   0.403  -1.518  0.00  0.00     0.034 A 
ATOM      7 Cl   UNL d   1       0.605   2.402  -3.272  0.00  0.00    -0.070 Cl
ATOM      8 Cl1  UNL d   1       1.345   4.347  -0.768  0.00  0.00    -0.070 Cl
ENDROOT
TORSDOF 0
ENDMDL
