MODEL 1
REMARK minimizedAffinity 1.0350666
REMARK minimizedRMSD -1
REMARK  0 active torsions:
REMARK  status: ('A' for Active; 'I' for Inactive)
ROOT
ATOM      1  C   UNL d   1       0.998   0.346  -0.054  0.00  0.00     0.020 A 
ATOM      2  C1  UNL d   1       1.209   0.424  -1.430  0.00  0.00     0.020 A 
ATOM      3  C2  UNL d   1       1.536   1.648  -2.018  0.00  0.00     0.034 A 
ATOM      4  C3  UNL d   1       1.652   2.799  -1.229  0.00  0.00     0.017 A 
ATOM      5  C4  UNL d   1       1.440   2.719   0.152  0.00  0.00     0.017 A 
ATOM      6  C5  UNL d   1       1.114   1.491   0.735  0.00  0.00     0.034 A 
ATOM      7 Cl   UNL d   1       1.566   4.095   1.190  0.00  0.00    -0.070 Cl
ATOM      8 Cl1  UNL d   1       2.059   4.279  -2.023  0.00  0.00    -0.070 Cl
ENDROOT
TORSDOF 0
ENDMDL
