MODEL 1
REMARK minimizedAffinity -1.02332163
REMARK minimizedRMSD -1
REMARK  0 active torsions:
REMARK  status: ('A' for Active; 'I' for Inactive)
ROOT
ATOM      1  C   UNL d   1       1.081   1.740  -1.717  0.00  0.00     0.020 A 
ATOM      2  C1  UNL d   1       0.805   1.244  -0.443  0.00  0.00     0.020 A 
ATOM      3  C2  UNL d   1       1.000   2.054   0.678  0.00  0.00     0.034 A 
ATOM      4  C3  UNL d   1       1.472   3.363   0.528  0.00  0.00     0.017 A 
ATOM      5  C4  UNL d   1       1.749   3.859  -0.751  0.00  0.00     0.017 A 
ATOM      6  C5  UNL d   1       1.552   3.045  -1.870  0.00  0.00     0.034 A 
ATOM      7 Cl   UNL d   1       2.334   5.464  -1.016  0.00  0.00    -0.070 Cl
ATOM      8 Cl1  UNL d   1       1.690   4.307   1.959  0.00  0.00    -0.070 Cl
ENDROOT
TORSDOF 0
ENDMDL
