MODEL 1
REMARK minimizedAffinity 7.19299364
REMARK minimizedRMSD -1
REMARK  0 active torsions:
REMARK  status: ('A' for Active; 'I' for Inactive)
ROOT
ATOM      1  C   UNL d   1       1.743   1.117  -1.218  0.00  0.00     0.020 A 
ATOM      2  C1  UNL d   1       0.588   0.511  -1.710  0.00  0.00     0.020 A 
ATOM      3  C2  UNL d   1      -0.490   1.295  -2.123  0.00  0.00     0.034 A 
ATOM      4  C3  UNL d   1      -0.416   2.691  -2.045  0.00  0.00     0.017 A 
ATOM      5  C4  UNL d   1       0.744   3.299  -1.551  0.00  0.00     0.017 A 
ATOM      6  C5  UNL d   1       1.821   2.508  -1.138  0.00  0.00     0.034 A 
ATOM      7 Cl   UNL d   1       0.909   5.014  -1.425  0.00  0.00    -0.070 Cl
ATOM      8 Cl1  UNL d   1      -1.788   3.599  -2.574  0.00  0.00    -0.070 Cl
ENDROOT
TORSDOF 0
ENDMDL
