MODEL 1
REMARK minimizedAffinity -2.36431026
REMARK minimizedRMSD -1
REMARK  0 active torsions:
REMARK  status: ('A' for Active; 'I' for Inactive)
ROOT
ATOM      1  C   UNL d   1       0.793  -0.163   0.015  0.00  0.00     0.020 A 
ATOM      2  C1  UNL d   1       0.908   0.023  -1.362  0.00  0.00     0.020 A 
ATOM      3  C2  UNL d   1       1.127   1.302  -1.877  0.00  0.00     0.034 A 
ATOM      4  C3  UNL d   1       1.233   2.400  -1.015  0.00  0.00     0.017 A 
ATOM      5  C4  UNL d   1       1.118   2.212   0.367  0.00  0.00     0.017 A 
ATOM      6  C5  UNL d   1       0.898   0.929   0.878  0.00  0.00     0.034 A 
ATOM      7 Cl   UNL d   1       1.238   3.517   1.494  0.00  0.00    -0.070 Cl
ATOM      8 Cl1  UNL d   1       1.506   3.953  -1.721  0.00  0.00    -0.070 Cl
ENDROOT
TORSDOF 0
ENDMDL
