MODEL 1
REMARK minimizedAffinity -1.21236932
REMARK minimizedRMSD -1
REMARK  0 active torsions:
REMARK  status: ('A' for Active; 'I' for Inactive)
ROOT
ATOM      1  C   UNL d   1       1.433   0.949   0.848  0.00  0.00     0.020 A 
ATOM      2  C1  UNL d   1       1.280   0.109  -0.254  0.00  0.00     0.020 A 
ATOM      3  C2  UNL d   1       1.171   0.651  -1.536  0.00  0.00     0.034 A 
ATOM      4  C3  UNL d   1       1.214   2.038  -1.720  0.00  0.00     0.017 A 
ATOM      5  C4  UNL d   1       1.368   2.881  -0.613  0.00  0.00     0.017 A 
ATOM      6  C5  UNL d   1       1.477   2.332   0.669  0.00  0.00     0.034 A 
ATOM      7 Cl   UNL d   1       1.430   4.602  -0.760  0.00  0.00    -0.070 Cl
ATOM      8 Cl1  UNL d   1       1.073   2.640  -3.333  0.00  0.00    -0.070 Cl
ENDROOT
TORSDOF 0
ENDMDL
