MODEL 1
REMARK minimizedAffinity 5.63769293
REMARK minimizedRMSD -1
REMARK  0 active torsions:
REMARK  status: ('A' for Active; 'I' for Inactive)
ROOT
ATOM      1  C   UNL d   1       1.192   2.922  -2.488  0.00  0.00     0.020 A 
ATOM      2  C1  UNL d   1       1.732   3.541  -1.361  0.00  0.00     0.020 A 
ATOM      3  C2  UNL d   1       1.931   2.808  -0.190  0.00  0.00     0.034 A 
ATOM      4  C3  UNL d   1       1.591   1.451  -0.142  0.00  0.00     0.017 A 
ATOM      5  C4  UNL d   1       1.049   0.831  -1.273  0.00  0.00     0.017 A 
ATOM      6  C5  UNL d   1       0.852   1.569  -2.444  0.00  0.00     0.034 A 
ATOM      7 Cl   UNL d   1       0.605  -0.840  -1.290  0.00  0.00    -0.070 Cl
ATOM      8 Cl1  UNL d   1       1.865   0.606   1.340  0.00  0.00    -0.070 Cl
ENDROOT
TORSDOF 0
ENDMDL
