MODEL 1
REMARK minimizedAffinity -1.33159661
REMARK minimizedRMSD -1
REMARK  0 active torsions:
REMARK  status: ('A' for Active; 'I' for Inactive)
ROOT
ATOM      1  C   UNL d   1       0.693   1.115  -0.700  0.00  0.00     0.020 A 
ATOM      2  C1  UNL d   1       0.940   1.591  -1.987  0.00  0.00     0.020 A 
ATOM      3  C2  UNL d   1       1.304   2.926  -2.179  0.00  0.00     0.034 A 
ATOM      4  C3  UNL d   1       1.421   3.789  -1.084  0.00  0.00     0.017 A 
ATOM      5  C4  UNL d   1       1.173   3.310   0.208  0.00  0.00     0.017 A 
ATOM      6  C5  UNL d   1       0.810   1.973   0.395  0.00  0.00     0.034 A 
ATOM      7 Cl   UNL d   1       1.298   4.314   1.609  0.00  0.00    -0.070 Cl
ATOM      8 Cl1  UNL d   1       1.875   5.426  -1.396  0.00  0.00    -0.070 Cl
ENDROOT
TORSDOF 0
ENDMDL
