MODEL 1
REMARK minimizedAffinity 4.19683599
REMARK minimizedRMSD -1
REMARK  0 active torsions:
REMARK  status: ('A' for Active; 'I' for Inactive)
ROOT
ATOM      1  C   UNL d   1       1.869   4.028   2.305  0.00  0.00     0.020 A 
ATOM      2  C1  UNL d   1       1.863   2.639   2.184  0.00  0.00     0.020 A 
ATOM      3  C2  UNL d   1       1.767   2.049   0.922  0.00  0.00     0.034 A 
ATOM      4  C3  UNL d   1       1.676   2.848  -0.224  0.00  0.00     0.017 A 
ATOM      5  C4  UNL d   1       1.682   4.242  -0.101  0.00  0.00     0.017 A 
ATOM      6  C5  UNL d   1       1.779   4.828   1.165  0.00  0.00     0.034 A 
ATOM      7 Cl   UNL d   1       1.573   5.293  -1.468  0.00  0.00    -0.070 Cl
ATOM      8 Cl1  UNL d   1       1.559   2.050  -1.752  0.00  0.00    -0.070 Cl
ENDROOT
TORSDOF 0
ENDMDL
