MODEL 1
REMARK minimizedAffinity 4.92589712
REMARK minimizedRMSD -1
REMARK  0 active torsions:
REMARK  status: ('A' for Active; 'I' for Inactive)
ROOT
ATOM      1  C   UNL d   1       0.956  -2.650  -0.493  0.00  0.00     0.020 A 
ATOM      2  C1  UNL d   1       0.453  -2.212  -1.718  0.00  0.00     0.020 A 
ATOM      3  C2  UNL d   1       0.456  -0.850  -2.027  0.00  0.00     0.034 A 
ATOM      4  C3  UNL d   1       0.963   0.078  -1.111  0.00  0.00     0.017 A 
ATOM      5  C4  UNL d   1       1.468  -0.362   0.118  0.00  0.00     0.017 A 
ATOM      6  C5  UNL d   1       1.462  -1.727   0.422  0.00  0.00     0.034 A 
ATOM      7 Cl   UNL d   1       2.109   0.724   1.299  0.00  0.00    -0.070 Cl
ATOM      8 Cl1  UNL d   1       0.935   1.747  -1.560  0.00  0.00    -0.070 Cl
ENDROOT
TORSDOF 0
ENDMDL
