MODEL 1
REMARK minimizedAffinity -1.86620212
REMARK minimizedRMSD -1
REMARK  0 active torsions:
REMARK  status: ('A' for Active; 'I' for Inactive)
ROOT
ATOM      1  C   UNL d   1       0.983   1.622  -0.591  0.00  0.00     0.020 A 
ATOM      2  C1  UNL d   1       1.105   2.137  -1.881  0.00  0.00     0.020 A 
ATOM      3  C2  UNL d   1       1.390   3.491  -2.068  0.00  0.00     0.034 A 
ATOM      4  C3  UNL d   1       1.554   4.335  -0.963  0.00  0.00     0.017 A 
ATOM      5  C4  UNL d   1       1.432   3.817   0.331  0.00  0.00     0.017 A 
ATOM      6  C5  UNL d   1       1.147   2.460   0.512  0.00  0.00     0.034 A 
ATOM      7 Cl   UNL d   1       1.621   4.795   1.743  0.00  0.00    -0.070 Cl
ATOM      8 Cl1  UNL d   1       1.906   5.999  -1.268  0.00  0.00    -0.070 Cl
ENDROOT
TORSDOF 0
ENDMDL
