MODEL 1
REMARK minimizedAffinity 7.08670712
REMARK minimizedRMSD -1
REMARK  0 active torsions:
REMARK  status: ('A' for Active; 'I' for Inactive)
ROOT
ATOM      1  C   UNL d   1       0.903   1.202  -1.805  0.00  0.00     0.020 A 
ATOM      2  C1  UNL d   1       1.187   2.108  -2.827  0.00  0.00     0.020 A 
ATOM      3  C2  UNL d   1       1.479   3.438  -2.519  0.00  0.00     0.034 A 
ATOM      4  C3  UNL d   1       1.488   3.867  -1.187  0.00  0.00     0.017 A 
ATOM      5  C4  UNL d   1       1.202   2.957  -0.162  0.00  0.00     0.017 A 
ATOM      6  C5  UNL d   1       0.910   1.626  -0.476  0.00  0.00     0.034 A 
ATOM      7 Cl   UNL d   1       1.194   3.412   1.505  0.00  0.00    -0.070 Cl
ATOM      8 Cl1  UNL d   1       1.858   5.526  -0.879  0.00  0.00    -0.070 Cl
ENDROOT
TORSDOF 0
ENDMDL
