MODEL 1
REMARK minimizedAffinity -1.14998078
REMARK minimizedRMSD -1
REMARK  0 active torsions:
REMARK  status: ('A' for Active; 'I' for Inactive)
ROOT
ATOM      1  C   UNL d   1       1.620   2.182  -1.867  0.00  0.00     0.020 A 
ATOM      2  C1  UNL d   1       1.515   1.495  -0.659  0.00  0.00     0.020 A 
ATOM      3  C2  UNL d   1       1.534   2.198   0.548  0.00  0.00     0.034 A 
ATOM      4  C3  UNL d   1       1.659   3.592   0.548  0.00  0.00     0.017 A 
ATOM      5  C4  UNL d   1       1.765   4.281  -0.666  0.00  0.00     0.017 A 
ATOM      6  C5  UNL d   1       1.745   3.572  -1.871  0.00  0.00     0.034 A 
ATOM      7 Cl   UNL d   1       1.922   6.000  -0.745  0.00  0.00    -0.070 Cl
ATOM      8 Cl1  UNL d   1       1.675   4.397   2.077  0.00  0.00    -0.070 Cl
ENDROOT
TORSDOF 0
ENDMDL
