MODEL 1
REMARK minimizedAffinity 1.93079472
REMARK minimizedRMSD -1
REMARK  0 active torsions:
REMARK  status: ('A' for Active; 'I' for Inactive)
ROOT
ATOM      1  C4' PXY d   1      -2.557  -0.284   3.162  0.00  0.00     0.077 C 
ATOM      2  C1' PXY d   1       2.440  -2.910   1.916  0.00  0.00     0.077 C 
ATOM      3  C1  PXY d   1       1.135  -2.216   2.254  0.00  0.00    -0.082 A 
ATOM      4  C2  PXY d   1      -0.004  -2.701   1.786  0.00  0.00     0.003 A 
ATOM      5  C3  PXY d   1      -1.190  -2.068   2.055  0.00  0.00     0.003 A 
ATOM      6  C4  PXY d   1      -1.217  -0.957   2.854  0.00  0.00    -0.082 A 
ATOM      7  C5  PXY d   1      -0.060  -0.462   3.344  0.00  0.00     0.003 A 
ATOM      8  C6  PXY d   1       1.137  -1.095   3.025  0.00  0.00     0.003 A 
ENDROOT
TORSDOF 0
ENDMDL
