MODEL 1
REMARK minimizedAffinity 4.83654881
REMARK minimizedRMSD -1
REMARK  0 active torsions:
REMARK  status: ('A' for Active; 'I' for Inactive)
ROOT
ATOM      1  C4' PXY d   1      -0.260   3.795  -5.920  0.00  0.00     0.077 C 
ATOM      2  C1' PXY d   1      -6.000   3.839  -5.235  0.00  0.00     0.077 C 
ATOM      3  C1  PXY d   1      -4.494   3.816  -5.410  0.00  0.00    -0.082 A 
ATOM      4  C2  PXY d   1      -3.820   4.954  -5.430  0.00  0.00     0.003 A 
ATOM      5  C3  PXY d   1      -2.462   4.952  -5.619  0.00  0.00     0.003 A 
ATOM      6  C4  PXY d   1      -1.780   3.771  -5.736  0.00  0.00    -0.082 A 
ATOM      7  C5  PXY d   1      -2.460   2.605  -5.707  0.00  0.00     0.003 A 
ATOM      8  C6  PXY d   1      -3.843   2.630  -5.555  0.00  0.00     0.003 A 
ENDROOT
TORSDOF 0
ENDMDL
