MODEL 1
REMARK minimizedAffinity 6.64938927
REMARK minimizedRMSD -1
REMARK  0 active torsions:
REMARK  status: ('A' for Active; 'I' for Inactive)
ROOT
ATOM      1  C4' PXY d   1      -2.330  -0.080   3.969  0.00  0.00     0.077 C 
ATOM      2  C1' PXY d   1       1.978  -3.495   2.182  0.00  0.00     0.077 C 
ATOM      3  C1  PXY d   1       0.854  -2.598   2.662  0.00  0.00    -0.082 A 
ATOM      4  C2  PXY d   1      -0.349  -2.710   2.122  0.00  0.00     0.003 A 
ATOM      5  C3  PXY d   1      -1.368  -1.885   2.522  0.00  0.00     0.003 A 
ATOM      6  C4  PXY d   1      -1.168  -0.971   3.522  0.00  0.00    -0.082 A 
ATOM      7  C5  PXY d   1       0.053  -0.858   4.085  0.00  0.00     0.003 A 
ATOM      8  C6  PXY d   1       1.085  -1.677   3.636  0.00  0.00     0.003 A 
ENDROOT
TORSDOF 0
ENDMDL
