MODEL 1
REMARK minimizedAffinity 8.68453598
REMARK minimizedRMSD -1
REMARK  0 active torsions:
REMARK  status: ('A' for Active; 'I' for Inactive)
ROOT
ATOM      1  C4' PXY d   1      -4.080   1.315  -1.485  0.00  0.00     0.077 C 
ATOM      2  C1' PXY d   1      -5.178  -3.679  -4.182  0.00  0.00     0.077 C 
ATOM      3  C1  PXY d   1      -4.886  -2.376  -3.464  0.00  0.00    -0.082 A 
ATOM      4  C2  PXY d   1      -5.477  -1.262  -3.865  0.00  0.00     0.003 A 
ATOM      5  C3  PXY d   1      -5.200  -0.069  -3.248  0.00  0.00     0.003 A 
ATOM      6  C4  PXY d   1      -4.351  -0.025  -2.174  0.00  0.00    -0.082 A 
ATOM      7  C5  PXY d   1      -3.753  -1.159  -1.752  0.00  0.00     0.003 A 
ATOM      8  C6  PXY d   1      -4.016  -2.353  -2.419  0.00  0.00     0.003 A 
ENDROOT
TORSDOF 0
ENDMDL
