MODEL 1
REMARK minimizedAffinity 14.911026
REMARK minimizedRMSD -1
REMARK  0 active torsions:
REMARK  status: ('A' for Active; 'I' for Inactive)
ROOT
ATOM      1  C4' PXY d   1      -3.661   1.029  -1.044  0.00  0.00     0.077 C 
ATOM      2  C1' PXY d   1      -4.885  -3.522  -4.392  0.00  0.00     0.077 C 
ATOM      3  C1  PXY d   1      -4.567  -2.320  -3.523  0.00  0.00    -0.082 A 
ATOM      4  C2  PXY d   1      -3.715  -2.446  -2.519  0.00  0.00     0.003 A 
ATOM      5  C3  PXY d   1      -3.441  -1.378  -1.704  0.00  0.00     0.003 A 
ATOM      6  C4  PXY d   1      -4.004  -0.155  -1.952  0.00  0.00    -0.082 A 
ATOM      7  C5  PXY d   1      -4.866  -0.016  -2.982  0.00  0.00     0.003 A 
ATOM      8  C6  PXY d   1      -5.163  -1.122  -3.772  0.00  0.00     0.003 A 
ENDROOT
TORSDOF 0
ENDMDL
