MODEL 1
REMARK minimizedAffinity 11.8346043
REMARK minimizedRMSD -1
REMARK  0 active torsions:
REMARK  status: ('A' for Active; 'I' for Inactive)
ROOT
ATOM      1  C4' PXY d   1       2.242   0.836   0.629  0.00  0.00     0.077 C 
ATOM      2  C1' PXY d   1       2.103  -4.849   1.666  0.00  0.00     0.077 C 
ATOM      3  C1  PXY d   1       2.150  -3.357   1.401  0.00  0.00    -0.082 A 
ATOM      4  C2  PXY d   1       1.040  -2.716   1.073  0.00  0.00     0.003 A 
ATOM      5  C3  PXY d   1       1.071  -1.372   0.799  0.00  0.00     0.003 A 
ATOM      6  C4  PXY d   1       2.239  -0.668   0.914  0.00  0.00    -0.082 A 
ATOM      7  C5  PXY d   1       3.374  -1.314   1.259  0.00  0.00     0.003 A 
ATOM      8  C6  PXY d   1       3.330  -2.685   1.493  0.00  0.00     0.003 A 
ENDROOT
TORSDOF 0
ENDMDL
