MODEL 1
REMARK minimizedAffinity 14.1086826
REMARK minimizedRMSD -1
REMARK  0 active torsions:
REMARK  status: ('A' for Active; 'I' for Inactive)
ROOT
ATOM      1  C4' PXY d   1       1.017  -2.133   2.151  0.00  0.00     0.077 C 
ATOM      2  C1' PXY d   1       1.449   1.497  -2.326  0.00  0.00     0.077 C 
ATOM      3  C1  PXY d   1       1.324   0.541  -1.157  0.00  0.00    -0.082 A 
ATOM      4  C2  PXY d   1       2.005   0.774  -0.046  0.00  0.00     0.003 A 
ATOM      5  C3  PXY d   1       1.928  -0.097   1.010  0.00  0.00     0.003 A 
ATOM      6  C4  PXY d   1       1.105  -1.190   0.948  0.00  0.00    -0.082 A 
ATOM      7  C5  PXY d   1       0.399  -1.428  -0.177  0.00  0.00     0.003 A 
ATOM      8  C6  PXY d   1       0.522  -0.554  -1.253  0.00  0.00     0.003 A 
ENDROOT
TORSDOF 0
ENDMDL
