MODEL 1
REMARK minimizedAffinity 10.6610765
REMARK minimizedRMSD -1
REMARK  0 active torsions:
REMARK  status: ('A' for Active; 'I' for Inactive)
ROOT
ATOM      1  C4' PXY d   1      -2.986   1.293  -6.000  0.00  0.00     0.077 C 
ATOM      2  C1' PXY d   1      -5.208  -3.026  -2.865  0.00  0.00     0.077 C 
ATOM      3  C1  PXY d   1      -4.618  -1.902  -3.694  0.00  0.00    -0.082 A 
ATOM      4  C2  PXY d   1      -4.616  -0.668  -3.216  0.00  0.00     0.003 A 
ATOM      5  C3  PXY d   1      -4.115   0.365  -3.965  0.00  0.00     0.003 A 
ATOM      6  C4  PXY d   1      -3.563   0.126  -5.194  0.00  0.00    -0.082 A 
ATOM      7  C5  PXY d   1      -3.551  -1.132  -5.685  0.00  0.00     0.003 A 
ATOM      8  C6  PXY d   1      -4.102  -2.161  -4.926  0.00  0.00     0.003 A 
ENDROOT
TORSDOF 0
ENDMDL
