MODEL 1
REMARK minimizedAffinity 10.7327137
REMARK minimizedRMSD -1
REMARK  0 active torsions:
REMARK  status: ('A' for Active; 'I' for Inactive)
ROOT
ATOM      1  C4' PXY d   1       1.198  -2.613   1.941  0.00  0.00     0.077 C 
ATOM      2  C1' PXY d   1       0.988   1.049  -2.527  0.00  0.00     0.077 C 
ATOM      3  C1  PXY d   1       1.056   0.091  -1.354  0.00  0.00    -0.082 A 
ATOM      4  C2  PXY d   1       0.200  -0.915  -1.280  0.00  0.00     0.003 A 
ATOM      5  C3  PXY d   1       0.226  -1.771  -0.209  0.00  0.00     0.003 A 
ATOM      6  C4  PXY d   1       1.173  -1.628   0.769  0.00  0.00    -0.082 A 
ATOM      7  C5  PXY d   1       2.057  -0.610   0.696  0.00  0.00     0.003 A 
ATOM      8  C6  PXY d   1       1.987   0.273  -0.378  0.00  0.00     0.003 A 
ENDROOT
TORSDOF 0
ENDMDL
