MODEL 1
REMARK minimizedAffinity 9.73011875
REMARK minimizedRMSD -1
REMARK  0 active torsions:
REMARK  status: ('A' for Active; 'I' for Inactive)
ROOT
ATOM      1  C4' PXY d   1       1.050  -2.466   1.881  0.00  0.00     0.077 C 
ATOM      2  C1' PXY d   1       1.185   1.901  -1.904  0.00  0.00     0.077 C 
ATOM      3  C1  PXY d   1       1.137   0.753  -0.915  0.00  0.00    -0.082 A 
ATOM      4  C2  PXY d   1       1.953   0.753   0.127  0.00  0.00     0.003 A 
ATOM      5  C3  PXY d   1       1.945  -0.293   1.014  0.00  0.00     0.003 A 
ATOM      6  C4  PXY d   1       1.056  -1.323   0.862  0.00  0.00    -0.082 A 
ATOM      7  C5  PXY d   1       0.214  -1.325  -0.193  0.00  0.00     0.003 A 
ATOM      8  C6  PXY d   1       0.265  -0.275  -1.104  0.00  0.00     0.003 A 
ENDROOT
TORSDOF 0
ENDMDL
