MODEL 1
REMARK minimizedAffinity 9.43458939
REMARK minimizedRMSD -1
REMARK  0 active torsions:
REMARK  status: ('A' for Active; 'I' for Inactive)
ROOT
ATOM      1  C4' PXY d   1       1.075  -2.466   2.171  0.00  0.00     0.077 C 
ATOM      2  C1' PXY d   1      -3.297   1.010   3.659  0.00  0.00     0.077 C 
ATOM      3  C1  PXY d   1      -2.142   0.107   3.274  0.00  0.00    -0.082 A 
ATOM      4  C2  PXY d   1      -2.277  -0.733   2.261  0.00  0.00     0.003 A 
ATOM      5  C3  PXY d   1      -1.254  -1.579   1.919  0.00  0.00     0.003 A 
ATOM      6  C4  PXY d   1      -0.061  -1.529   2.589  0.00  0.00    -0.082 A 
ATOM      7  C5  PXY d   1       0.089  -0.668   3.618  0.00  0.00     0.003 A 
ATOM      8  C6  PXY d   1      -0.976   0.154   3.975  0.00  0.00     0.003 A 
ENDROOT
TORSDOF 0
ENDMDL
