MODEL 1
REMARK minimizedAffinity 9.08394337
REMARK minimizedRMSD -1
REMARK  0 active torsions:
REMARK  status: ('A' for Active; 'I' for Inactive)
ROOT
ATOM      1  C4' PXY d   1       0.795  -1.904   2.033  0.00  0.00     0.077 C 
ATOM      2  C1' PXY d   1       1.614   1.453  -2.601  0.00  0.00     0.077 C 
ATOM      3  C1  PXY d   1       1.387   0.570  -1.389  0.00  0.00    -0.082 A 
ATOM      4  C2  PXY d   1       2.105   0.764  -0.295  0.00  0.00     0.003 A 
ATOM      5  C3  PXY d   1       1.935  -0.046   0.798  0.00  0.00     0.003 A 
ATOM      6  C4  PXY d   1       0.983  -1.031   0.790  0.00  0.00    -0.082 A 
ATOM      7  C5  PXY d   1       0.239  -1.228  -0.319  0.00  0.00     0.003 A 
ATOM      8  C6  PXY d   1       0.456  -0.421  -1.433  0.00  0.00     0.003 A 
ENDROOT
TORSDOF 0
ENDMDL
