MODEL 1
REMARK minimizedAffinity 14.6152201
REMARK minimizedRMSD -1
REMARK  0 active torsions:
REMARK  status: ('A' for Active; 'I' for Inactive)
ROOT
ATOM      1  C4' PXY d   1       2.162  -2.797   2.214  0.00  0.00     0.077 C 
ATOM      2  C1' PXY d   1       0.607   1.343  -1.509  0.00  0.00     0.077 C 
ATOM      3  C1  PXY d   1       1.002   0.254  -0.532  0.00  0.00    -0.082 A 
ATOM      4  C2  PXY d   1       2.102   0.391   0.191  0.00  0.00     0.003 A 
ATOM      5  C3  PXY d   1       2.491  -0.599   1.056  0.00  0.00     0.003 A 
ATOM      6  C4  PXY d   1       1.719  -1.718   1.222  0.00  0.00    -0.082 A 
ATOM      7  C5  PXY d   1       0.590  -1.860   0.495  0.00  0.00     0.003 A 
ATOM      8  C6  PXY d   1       0.234  -0.863  -0.408  0.00  0.00     0.003 A 
ENDROOT
TORSDOF 0
ENDMDL
