MODEL 1
REMARK minimizedAffinity 5.27209234
REMARK minimizedRMSD -1
REMARK  1 active torsions:
REMARK  status: ('A' for Active; 'I' for Inactive)
REMARK    1  A    between atoms: C1_2  and  C2_3 
ROOT
ATOM      1  C2  UNL d   1       4.618  -4.009   0.106  0.00  0.00    -0.076 A 
ATOM      2  C3  UNL d   1       3.387  -4.687   0.063  0.00  0.00     0.004 A 
ATOM      3  C4  UNL d   1       2.209  -4.062   0.468  0.00  0.00    -0.003 A 
ATOM      4  C5  UNL d   1       2.243  -2.748   0.923  0.00  0.00     0.000 A 
ATOM      5  C6  UNL d   1       3.452  -2.054   0.955  0.00  0.00     0.000 A 
ATOM      6  C7  UNL d   1       4.646  -2.664   0.535  0.00  0.00    -0.073 A 
ATOM      7  C8  UNL d   1       5.923  -1.871   0.597  0.00  0.00     0.078 C 
ENDROOT
BRANCH   1   8
ATOM      8  C1  UNL d   1       5.867  -4.747  -0.321  0.00  0.00     0.053 C 
ATOM      9  C   UNL d   1       5.557  -6.000  -1.125  0.00  0.00     0.018 C 
ENDBRANCH   1   8
TORSDOF 1
ENDMDL
