MODEL 1
REMARK minimizedAffinity -0.457296729
REMARK minimizedRMSD -1
REMARK  1 active torsions:
REMARK  status: ('A' for Active; 'I' for Inactive)
REMARK    1  A    between atoms: C1_2  and  C2_3 
ROOT
ATOM      1  C2  UNL d   1      -3.093  -0.172  -5.209  0.00  0.00    -0.076 A 
ATOM      2  C3  UNL d   1      -4.407   0.179  -5.566  0.00  0.00     0.004 A 
ATOM      3  C4  UNL d   1      -5.502  -0.377  -4.908  0.00  0.00    -0.003 A 
ATOM      4  C5  UNL d   1      -5.302  -1.293  -3.881  0.00  0.00     0.000 A 
ATOM      5  C6  UNL d   1      -4.006  -1.639  -3.502  0.00  0.00     0.000 A 
ATOM      6  C7  UNL d   1      -2.890  -1.076  -4.144  0.00  0.00    -0.073 A 
ATOM      7  C8  UNL d   1      -1.515  -1.490  -3.698  0.00  0.00     0.078 C 
ENDROOT
BRANCH   1   8
ATOM      8  C1  UNL d   1      -1.945   0.443  -5.977  0.00  0.00     0.053 C 
ATOM      9  C   UNL d   1      -2.002   1.963  -5.993  0.00  0.00     0.018 C 
ENDBRANCH   1   8
TORSDOF 1
ENDMDL
