MODEL 1
REMARK minimizedAffinity 16.9496021
REMARK minimizedRMSD -1
REMARK  1 active torsions:
REMARK  status: ('A' for Active; 'I' for Inactive)
REMARK    1  A    between atoms: C1_2  and  C2_3 
ROOT
ATOM      1  C2  UNL d   1      -4.143   0.913  -3.050  0.00  0.00    -0.076 A 
ATOM      2  C3  UNL d   1      -5.277   0.118  -3.294  0.00  0.00     0.004 A 
ATOM      3  C4  UNL d   1      -5.996   0.240  -4.482  0.00  0.00    -0.003 A 
ATOM      4  C5  UNL d   1      -5.593   1.157  -5.445  0.00  0.00     0.000 A 
ATOM      5  C6  UNL d   1      -4.461   1.942  -5.228  0.00  0.00     0.000 A 
ATOM      6  C7  UNL d   1      -3.715   1.820  -4.043  0.00  0.00    -0.073 A 
ATOM      7  C8  UNL d   1      -2.505   2.695  -3.859  0.00  0.00     0.078 C 
ENDROOT
BRANCH   1   8
ATOM      8  C1  UNL d   1      -3.418   0.757  -1.733  0.00  0.00     0.053 C 
ATOM      9  C   UNL d   1      -2.876  -0.650  -1.529  0.00  0.00     0.018 C 
ENDBRANCH   1   8
TORSDOF 1
ENDMDL
