MODEL 1
REMARK minimizedAffinity 8.47328663
REMARK minimizedRMSD -1
REMARK  1 active torsions:
REMARK  status: ('A' for Active; 'I' for Inactive)
REMARK    1  A    between atoms: C1_2  and  C2_3 
ROOT
ATOM      1  C2  UNL d   1      -4.230   1.994  -3.715  0.00  0.00    -0.076 A 
ATOM      2  C3  UNL d   1      -3.967   3.375  -3.757  0.00  0.00     0.004 A 
ATOM      3  C4  UNL d   1      -4.701   4.220  -4.588  0.00  0.00    -0.003 A 
ATOM      4  C5  UNL d   1      -5.711   3.698  -5.389  0.00  0.00     0.000 A 
ATOM      5  C6  UNL d   1      -5.996   2.334  -5.348  0.00  0.00     0.000 A 
ATOM      6  C7  UNL d   1      -5.277   1.471  -4.504  0.00  0.00    -0.073 A 
ATOM      7  C8  UNL d   1      -5.623   0.007  -4.503  0.00  0.00     0.078 C 
ENDROOT
BRANCH   1   8
ATOM      8  C1  UNL d   1      -3.383   1.123  -2.816  0.00  0.00     0.053 C 
ATOM      9  C   UNL d   1      -2.209   1.878  -2.210  0.00  0.00     0.018 C 
ENDBRANCH   1   8
TORSDOF 1
ENDMDL
