MODEL 1
REMARK minimizedAffinity 6.69538975
REMARK minimizedRMSD -1
REMARK  1 active torsions:
REMARK  status: ('A' for Active; 'I' for Inactive)
REMARK    1  A    between atoms: C1_2  and  C2_3 
ROOT
ATOM      1  C2  UNL d   1       2.978   3.772  -5.957  0.00  0.00    -0.076 A 
ATOM      2  C3  UNL d   1       1.675   3.246  -5.998  0.00  0.00     0.004 A 
ATOM      3  C4  UNL d   1       0.561   4.083  -5.944  0.00  0.00    -0.003 A 
ATOM      4  C5  UNL d   1       0.733   5.459  -5.850  0.00  0.00     0.000 A 
ATOM      5  C6  UNL d   1       2.018   6.000  -5.827  0.00  0.00     0.000 A 
ATOM      6  C7  UNL d   1       3.151   5.171  -5.897  0.00  0.00    -0.073 A 
ATOM      7  C8  UNL d   1       4.514   5.807  -5.862  0.00  0.00     0.078 C 
ENDROOT
BRANCH   1   8
ATOM      8  C1  UNL d   1       4.147   2.814  -5.992  0.00  0.00     0.053 C 
ATOM      9  C   UNL d   1       4.595   2.391  -4.601  0.00  0.00     0.018 C 
ENDBRANCH   1   8
TORSDOF 1
ENDMDL
