MODEL 1
REMARK minimizedAffinity 11.8288136
REMARK minimizedRMSD -1
REMARK  1 active torsions:
REMARK  status: ('A' for Active; 'I' for Inactive)
REMARK    1  A    between atoms: C1_2  and  C2_3 
ROOT
ATOM      1  C2  UNL d   1       4.705  -5.016   0.198  0.00  0.00    -0.076 A 
ATOM      2  C3  UNL d   1       5.553  -5.934   0.843  0.00  0.00     0.004 A 
ATOM      3  C4  UNL d   1       5.615  -5.998   2.234  0.00  0.00    -0.003 A 
ATOM      4  C5  UNL d   1       4.831  -5.146   3.003  0.00  0.00     0.000 A 
ATOM      5  C6  UNL d   1       3.971  -4.241   2.380  0.00  0.00     0.000 A 
ATOM      6  C7  UNL d   1       3.884  -4.175   0.979  0.00  0.00    -0.073 A 
ATOM      7  C8  UNL d   1       2.945  -3.176   0.361  0.00  0.00     0.078 C 
ENDROOT
BRANCH   1   8
ATOM      8  C1  UNL d   1       4.700  -4.973  -1.313  0.00  0.00     0.053 C 
ATOM      9  C   UNL d   1       5.639  -5.999  -1.929  0.00  0.00     0.018 C 
ENDBRANCH   1   8
TORSDOF 1
ENDMDL
