MODEL 1
REMARK minimizedAffinity 13.8327436
REMARK minimizedRMSD -1
REMARK  1 active torsions:
REMARK  status: ('A' for Active; 'I' for Inactive)
REMARK    1  A    between atoms: C1_2  and  C2_3 
ROOT
ATOM      1  C2  UNL d   1       4.969   3.595  -5.606  0.00  0.00    -0.076 A 
ATOM      2  C3  UNL d   1       5.408   4.871  -6.000  0.00  0.00     0.004 A 
ATOM      3  C4  UNL d   1       4.621   6.000  -5.779  0.00  0.00    -0.003 A 
ATOM      4  C5  UNL d   1       3.383   5.871  -5.160  0.00  0.00     0.000 A 
ATOM      5  C6  UNL d   1       2.939   4.615  -4.747  0.00  0.00     0.000 A 
ATOM      6  C7  UNL d   1       3.727   3.469  -4.948  0.00  0.00    -0.073 A 
ATOM      7  C8  UNL d   1       3.197   2.139  -4.488  0.00  0.00     0.078 C 
ENDROOT
BRANCH   1   8
ATOM      8  C1  UNL d   1       5.854   2.403  -5.896  0.00  0.00     0.053 C 
ATOM      9  C   UNL d   1       5.979   1.467  -4.705  0.00  0.00     0.018 C 
ENDBRANCH   1   8
TORSDOF 1
ENDMDL
