MODEL 1
REMARK minimizedAffinity 14.0576935
REMARK minimizedRMSD -1
REMARK  1 active torsions:
REMARK  status: ('A' for Active; 'I' for Inactive)
REMARK    1  A    between atoms: C1_2  and  C2_3 
ROOT
ATOM      1  C2  UNL d   1       3.502  -3.952   0.549  0.00  0.00    -0.076 A 
ATOM      2  C3  UNL d   1       3.476  -4.129  -0.846  0.00  0.00     0.004 A 
ATOM      3  C4  UNL d   1       4.426  -4.923  -1.486  0.00  0.00    -0.003 A 
ATOM      4  C5  UNL d   1       5.418  -5.553  -0.742  0.00  0.00     0.000 A 
ATOM      5  C6  UNL d   1       5.448  -5.403   0.644  0.00  0.00     0.000 A 
ATOM      6  C7  UNL d   1       4.488  -4.620   1.307  0.00  0.00    -0.073 A 
ATOM      7  C8  UNL d   1       4.572  -4.488   2.803  0.00  0.00     0.078 C 
ENDROOT
BRANCH   1   8
ATOM      8  C1  UNL d   1       2.462  -3.058   1.185  0.00  0.00     0.053 C 
ATOM      9  C   UNL d   1       2.049  -1.909   0.278  0.00  0.00     0.018 C 
ENDBRANCH   1   8
TORSDOF 1
ENDMDL
