MODEL 1
REMARK minimizedAffinity 15.3150434
REMARK minimizedRMSD -1
REMARK  1 active torsions:
REMARK  status: ('A' for Active; 'I' for Inactive)
REMARK    1  A    between atoms: C1_2  and  C2_3 
ROOT
ATOM      1  C2  UNL d   1      -3.809   3.138  -4.143  0.00  0.00    -0.076 A 
ATOM      2  C3  UNL d   1      -4.144   1.902  -4.722  0.00  0.00     0.004 A 
ATOM      3  C4  UNL d   1      -5.231   1.786  -5.588  0.00  0.00    -0.003 A 
ATOM      4  C5  UNL d   1      -5.999   2.906  -5.889  0.00  0.00     0.000 A 
ATOM      5  C6  UNL d   1      -5.670   4.143  -5.337  0.00  0.00     0.000 A 
ATOM      6  C7  UNL d   1      -4.568   4.280  -4.475  0.00  0.00    -0.073 A 
ATOM      7  C8  UNL d   1      -4.263   5.637  -3.903  0.00  0.00     0.078 C 
ENDROOT
BRANCH   1   8
ATOM      8  C1  UNL d   1      -2.637   3.196  -3.190  0.00  0.00     0.053 C 
ATOM      9  C   UNL d   1      -2.892   2.425  -1.904  0.00  0.00     0.018 C 
ENDBRANCH   1   8
TORSDOF 1
ENDMDL
