MODEL 1
REMARK minimizedAffinity 11.6551304
REMARK minimizedRMSD -1
REMARK  1 active torsions:
REMARK  status: ('A' for Active; 'I' for Inactive)
REMARK    1  A    between atoms: C1_2  and  C2_3 
ROOT
ATOM      1  C2  UNL d   1       2.691   0.440   1.010  0.00  0.00    -0.076 A 
ATOM      2  C3  UNL d   1       3.734   0.184   0.103  0.00  0.00     0.004 A 
ATOM      3  C4  UNL d   1       4.757   1.110  -0.095  0.00  0.00    -0.003 A 
ATOM      4  C5  UNL d   1       4.753   2.308   0.611  0.00  0.00     0.000 A 
ATOM      5  C6  UNL d   1       3.736   2.571   1.528  0.00  0.00     0.000 A 
ATOM      6  C7  UNL d   1       2.706   1.641   1.752  0.00  0.00    -0.073 A 
ATOM      7  C8  UNL d   1       1.631   1.979   2.748  0.00  0.00     0.078 C 
ENDROOT
BRANCH   1   8
ATOM      8  C1  UNL d   1       1.595  -0.590   1.163  0.00  0.00     0.053 C 
ATOM      9  C   UNL d   1       1.776  -1.777   0.230  0.00  0.00     0.018 C 
ENDBRANCH   1   8
TORSDOF 1
ENDMDL
