MODEL 1
REMARK minimizedAffinity 14.0194921
REMARK minimizedRMSD -1
REMARK  1 active torsions:
REMARK  status: ('A' for Active; 'I' for Inactive)
REMARK    1  A    between atoms: C1_2  and  C2_3 
ROOT
ATOM      1  C2  UNL d   1       3.760   4.091  -4.767  0.00  0.00    -0.076 A 
ATOM      2  C3  UNL d   1       2.445   3.716  -4.441  0.00  0.00     0.004 A 
ATOM      3  C4  UNL d   1       1.356   4.472  -4.871  0.00  0.00    -0.003 A 
ATOM      4  C5  UNL d   1       1.564   5.614  -5.637  0.00  0.00     0.000 A 
ATOM      5  C6  UNL d   1       2.861   5.990  -5.986  0.00  0.00     0.000 A 
ATOM      6  C7  UNL d   1       3.969   5.231  -5.573  0.00  0.00    -0.073 A 
ATOM      7  C8  UNL d   1       5.346   5.686  -5.973  0.00  0.00     0.078 C 
ENDROOT
BRANCH   1   8
ATOM      8  C1  UNL d   1       4.904   3.248  -4.249  0.00  0.00     0.053 C 
ATOM      9  C   UNL d   1       5.310   2.154  -5.224  0.00  0.00     0.018 C 
ENDBRANCH   1   8
TORSDOF 1
ENDMDL
