MODEL 1
REMARK minimizedAffinity -2.59085536
REMARK minimizedRMSD -1
REMARK  0 active torsions:
REMARK  status: ('A' for Active; 'I' for Inactive)
ROOT
ATOM      1  C   UNL d   1      -0.156  -3.935  -0.112  0.00  0.00    -0.002 A 
ATOM      2  C1  UNL d   1       0.151  -3.352  -1.333  0.00  0.00     0.010 A 
ATOM      3  C2  UNL d   1       0.251  -1.965  -1.453  0.00  0.00     0.041 A 
ATOM      4  C3  UNL d   1       0.037  -1.165  -0.313  0.00  0.00    -0.075 A 
ATOM      5  S   UNL d   1       0.108   0.555  -0.222  0.00  0.00     0.015 SA
ATOM      6  C4  UNL d   1      -0.266   0.557   1.441  0.00  0.00     0.022 A 
ATOM      7  C5  UNL d   1      -0.445  -0.715   1.931  0.00  0.00     0.026 A 
ATOM      8  C6  UNL d   1      -0.272  -1.728   0.928  0.00  0.00    -0.082 A 
ATOM      9  C7  UNL d   1      -0.367  -3.138   1.017  0.00  0.00     0.045 A 
ENDROOT
TORSDOF 0
ENDMDL
