MODEL 1
REMARK minimizedAffinity 0.465681612
REMARK minimizedRMSD -1
REMARK  0 active torsions:
REMARK  status: ('A' for Active; 'I' for Inactive)
ROOT
ATOM      1  C   UNL d   1      -2.331  -0.355   2.544  0.00  0.00    -0.002 A 
ATOM      2  C1  UNL d   1      -2.298   0.566   1.506  0.00  0.00     0.010 A 
ATOM      3  C2  UNL d   1      -1.612   0.279   0.325  0.00  0.00     0.041 A 
ATOM      4  C3  UNL d   1      -0.954  -0.960   0.202  0.00  0.00    -0.075 A 
ATOM      5  S   UNL d   1      -0.051  -1.529  -1.152  0.00  0.00     0.015 SA
ATOM      6  C4  UNL d   1       0.311  -3.007  -0.385  0.00  0.00     0.022 A 
ATOM      7  C5  UNL d   1      -0.235  -3.082   0.874  0.00  0.00     0.026 A 
ATOM      8  C6  UNL d   1      -0.974  -1.904   1.234  0.00  0.00    -0.082 A 
ATOM      9  C7  UNL d   1      -1.678  -1.583   2.419  0.00  0.00     0.045 A 
ENDROOT
TORSDOF 0
ENDMDL
