MODEL 1
REMARK minimizedAffinity -3.86138058
REMARK minimizedRMSD -1
REMARK  0 active torsions:
REMARK  status: ('A' for Active; 'I' for Inactive)
ROOT
ATOM      1  C   UNL d   1      -0.609  -3.605  -1.226  0.00  0.00    -0.002 A 
ATOM      2  C1  UNL d   1      -0.104  -2.847  -2.272  0.00  0.00     0.010 A 
ATOM      3  C2  UNL d   1       0.179  -1.491  -2.095  0.00  0.00     0.041 A 
ATOM      4  C3  UNL d   1      -0.054  -0.905  -0.835  0.00  0.00    -0.075 A 
ATOM      5  S   UNL d   1       0.219   0.737  -0.386  0.00  0.00     0.015 SA
ATOM      6  C4  UNL d   1      -0.328   0.470   1.207  0.00  0.00     0.022 A 
ATOM      7  C5  UNL d   1      -0.713  -0.834   1.408  0.00  0.00     0.026 A 
ATOM      8  C6  UNL d   1      -0.562  -1.649   0.234  0.00  0.00    -0.082 A 
ATOM      9  C7  UNL d   1      -0.839  -3.021   0.023  0.00  0.00     0.045 A 
ENDROOT
TORSDOF 0
ENDMDL
