MODEL 1
REMARK minimizedAffinity -2.79127097
REMARK minimizedRMSD -1
REMARK  0 active torsions:
REMARK  status: ('A' for Active; 'I' for Inactive)
ROOT
ATOM      1  C   UNL d   1       0.262  -0.480  -2.956  0.00  0.00    -0.002 A 
ATOM      2  C1  UNL d   1       0.062  -1.853  -2.958  0.00  0.00     0.010 A 
ATOM      3  C2  UNL d   1      -0.406  -2.505  -1.816  0.00  0.00     0.041 A 
ATOM      4  C3  UNL d   1      -0.673  -1.746  -0.659  0.00  0.00    -0.075 A 
ATOM      5  S   UNL d   1      -1.253  -2.329   0.856  0.00  0.00     0.015 SA
ATOM      6  C4  UNL d   1      -1.250  -0.769   1.542  0.00  0.00     0.022 A 
ATOM      7  C5  UNL d   1      -0.820   0.186   0.651  0.00  0.00     0.026 A 
ATOM      8  C6  UNL d   1      -0.480  -0.361  -0.632  0.00  0.00    -0.082 A 
ATOM      9  C7  UNL d   1      -0.004   0.270  -1.807  0.00  0.00     0.045 A 
ENDROOT
TORSDOF 0
ENDMDL
