MODEL 1
REMARK minimizedAffinity -4.06125021
REMARK minimizedRMSD -1
REMARK  0 active torsions:
REMARK  status: ('A' for Active; 'I' for Inactive)
ROOT
ATOM      1  C   UNL d   1       0.323  -3.368  -1.929  0.00  0.00    -0.002 A 
ATOM      2  C1  UNL d   1       0.463  -2.187  -2.645  0.00  0.00     0.010 A 
ATOM      3  C2  UNL d   1       0.302  -0.951  -2.014  0.00  0.00     0.041 A 
ATOM      4  C3  UNL d   1      -0.002  -0.922  -0.639  0.00  0.00    -0.075 A 
ATOM      5  S   UNL d   1      -0.243   0.474   0.343  0.00  0.00     0.015 SA
ATOM      6  C4  UNL d   1      -0.535  -0.464   1.736  0.00  0.00     0.022 A 
ATOM      7  C5  UNL d   1      -0.456  -1.811   1.476  0.00  0.00     0.026 A 
ATOM      8  C6  UNL d   1      -0.147  -2.098   0.103  0.00  0.00    -0.082 A 
ATOM      9  C7  UNL d   1       0.021  -3.335  -0.565  0.00  0.00     0.045 A 
ENDROOT
TORSDOF 0
ENDMDL
