MODEL 1
REMARK minimizedAffinity 2.71110296
REMARK minimizedRMSD -1
REMARK  0 active torsions:
REMARK  status: ('A' for Active; 'I' for Inactive)
ROOT
ATOM      1  C   UNL d   1      -0.768  -0.452  -0.256  0.00  0.00    -0.002 A 
ATOM      2  C1  UNL d   1      -0.045  -0.896   0.842  0.00  0.00     0.010 A 
ATOM      3  C2  UNL d   1       0.894  -0.066   1.457  0.00  0.00     0.041 A 
ATOM      4  C3  UNL d   1       1.095   1.232   0.946  0.00  0.00    -0.075 A 
ATOM      5  S   UNL d   1       2.191   2.424   1.538  0.00  0.00     0.015 SA
ATOM      6  C4  UNL d   1       1.725   3.550   0.347  0.00  0.00     0.022 A 
ATOM      7  C5  UNL d   1       0.758   3.046  -0.490  0.00  0.00     0.026 A 
ATOM      8  C6  UNL d   1       0.379   1.701  -0.159  0.00  0.00    -0.082 A 
ATOM      9  C7  UNL d   1      -0.565   0.835  -0.761  0.00  0.00     0.045 A 
ENDROOT
TORSDOF 0
ENDMDL
