MODEL 1
REMARK minimizedAffinity -4.7438693
REMARK minimizedRMSD -1
REMARK  0 active torsions:
REMARK  status: ('A' for Active; 'I' for Inactive)
ROOT
ATOM      1  C   UNL d   1      -0.772  -2.281   1.620  0.00  0.00    -0.002 A 
ATOM      2  C1  UNL d   1      -0.899  -0.900   1.683  0.00  0.00     0.010 A 
ATOM      3  C2  UNL d   1      -0.675  -0.114   0.551  0.00  0.00     0.041 A 
ATOM      4  C3  UNL d   1      -0.320  -0.745  -0.658  0.00  0.00    -0.075 A 
ATOM      5  S   UNL d   1       0.001   0.014  -2.172  0.00  0.00     0.015 SA
ATOM      6  C4  UNL d   1       0.312  -1.476  -2.938  0.00  0.00     0.022 A 
ATOM      7  C5  UNL d   1       0.179  -2.538  -2.074  0.00  0.00     0.026 A 
ATOM      8  C6  UNL d   1      -0.188  -2.134  -0.746  0.00  0.00    -0.082 A 
ATOM      9  C7  UNL d   1      -0.421  -2.903   0.419  0.00  0.00     0.045 A 
ENDROOT
TORSDOF 0
ENDMDL
