MODEL 1
REMARK minimizedAffinity -4.37879515
REMARK minimizedRMSD -1
REMARK  0 active torsions:
REMARK  status: ('A' for Active; 'I' for Inactive)
ROOT
ATOM      1  C   UNL d   1       0.057  -3.389  -1.850  0.00  0.00    -0.002 A 
ATOM      2  C1  UNL d   1       0.290  -2.334  -2.721  0.00  0.00     0.010 A 
ATOM      3  C2  UNL d   1       0.217  -1.014  -2.274  0.00  0.00     0.041 A 
ATOM      4  C3  UNL d   1      -0.094  -0.769  -0.922  0.00  0.00    -0.075 A 
ATOM      5  S   UNL d   1      -0.237   0.766  -0.150  0.00  0.00     0.015 SA
ATOM      6  C4  UNL d   1      -0.609   0.058   1.355  0.00  0.00     0.022 A 
ATOM      7  C5  UNL d   1      -0.628  -1.315   1.289  0.00  0.00     0.026 A 
ATOM      8  C6  UNL d   1      -0.331  -1.814  -0.025  0.00  0.00    -0.082 A 
ATOM      9  C7  UNL d   1      -0.251  -3.142  -0.509  0.00  0.00     0.045 A 
ENDROOT
TORSDOF 0
ENDMDL
