MODEL 1
REMARK minimizedAffinity -1.136356
REMARK minimizedRMSD -1
REMARK  0 active torsions:
REMARK  status: ('A' for Active; 'I' for Inactive)
ROOT
ATOM      1  C   UNL d   1      -1.181  -1.968   1.300  0.00  0.00    -0.002 A 
ATOM      2  C1  UNL d   1      -1.219  -2.277  -0.053  0.00  0.00     0.010 A 
ATOM      3  C2  UNL d   1      -0.815  -1.339  -1.006  0.00  0.00     0.041 A 
ATOM      4  C3  UNL d   1      -0.368  -0.076  -0.573  0.00  0.00    -0.075 A 
ATOM      5  S   UNL d   1       0.175   1.229  -1.560  0.00  0.00     0.015 SA
ATOM      6  C4  UNL d   1       0.471   2.226  -0.210  0.00  0.00     0.022 A 
ATOM      7  C5  UNL d   1       0.167   1.595   0.973  0.00  0.00     0.026 A 
ATOM      8  C6  UNL d   1      -0.321   0.258   0.784  0.00  0.00    -0.082 A 
ATOM      9  C7  UNL d   1      -0.737  -0.714   1.726  0.00  0.00     0.045 A 
ENDROOT
TORSDOF 0
ENDMDL
