MODEL 1
REMARK minimizedAffinity -3.75272536
REMARK minimizedRMSD -1
REMARK  0 active torsions:
REMARK  status: ('A' for Active; 'I' for Inactive)
ROOT
ATOM      1  C   UNL d   1       0.493  -1.516  -3.066  0.00  0.00    -0.002 A 
ATOM      2  C1  UNL d   1       0.598  -0.193  -2.659  0.00  0.00     0.010 A 
ATOM      3  C2  UNL d   1       0.200   0.189  -1.376  0.00  0.00     0.041 A 
ATOM      4  C3  UNL d   1      -0.308  -0.790  -0.500  0.00  0.00    -0.075 A 
ATOM      5  S   UNL d   1      -0.856  -0.553   1.118  0.00  0.00     0.015 SA
ATOM      6  C4  UNL d   1      -1.241  -2.203   1.307  0.00  0.00     0.022 A 
ATOM      7  C5  UNL d   1      -0.966  -2.930   0.174  0.00  0.00     0.026 A 
ATOM      8  C6  UNL d   1      -0.423  -2.128  -0.886  0.00  0.00    -0.082 A 
ATOM      9  C7  UNL d   1      -0.012  -2.484  -2.194  0.00  0.00     0.045 A 
ENDROOT
TORSDOF 0
ENDMDL
