MODEL 1
REMARK minimizedAffinity 8.70715046
REMARK minimizedRMSD -1
REMARK  0 active torsions:
REMARK  status: ('A' for Active; 'I' for Inactive)
ROOT
ATOM      1  C2' OXE d   1       3.969  -0.463   0.685  0.00  0.00     0.078 C 
ATOM      2  C1' OXE d   1       2.664   1.800  -0.343  0.00  0.00     0.078 C 
ATOM      3  C1  OXE d   1       2.185   1.251   0.977  0.00  0.00    -0.078 A 
ATOM      4  C2  OXE d   1       2.798   0.116   1.450  0.00  0.00    -0.078 A 
ATOM      5  C3  OXE d   1       2.432  -0.400   2.690  0.00  0.00     0.003 A 
ATOM      6  C4  OXE d   1       1.341   0.135   3.386  0.00  0.00    -0.002 A 
ATOM      7  C5  OXE d   1       0.676   1.267   2.902  0.00  0.00    -0.002 A 
ATOM      8  C6  OXE d   1       1.112   1.861   1.723  0.00  0.00     0.003 A 
ENDROOT
TORSDOF 0
ENDMDL
