MODEL 1
REMARK minimizedAffinity 20.5453014
REMARK minimizedRMSD -1
REMARK  0 active torsions:
REMARK  status: ('A' for Active; 'I' for Inactive)
ROOT
ATOM      1  C2' OXE d   1       4.594   1.809  -1.068  0.00  0.00     0.078 C 
ATOM      2  C1' OXE d   1       5.270  -0.080   0.896  0.00  0.00     0.078 C 
ATOM      3  C1  OXE d   1       3.813   0.275   0.732  0.00  0.00    -0.078 A 
ATOM      4  C2  OXE d   1       3.496   1.234  -0.199  0.00  0.00    -0.078 A 
ATOM      5  C3  OXE d   1       2.162   1.559  -0.428  0.00  0.00     0.003 A 
ATOM      6  C4  OXE d   1       1.154   1.030   0.387  0.00  0.00    -0.002 A 
ATOM      7  C5  OXE d   1       1.460   0.080   1.368  0.00  0.00    -0.002 A 
ATOM      8  C6  OXE d   1       2.776  -0.339   1.525  0.00  0.00     0.003 A 
ENDROOT
TORSDOF 0
ENDMDL
