MODEL 1
REMARK minimizedAffinity 16.586916
REMARK minimizedRMSD -1
REMARK  0 active torsions:
REMARK  status: ('A' for Active; 'I' for Inactive)
ROOT
ATOM      1  C2' OXE d   1       1.074   2.871   0.501  0.00  0.00     0.078 C 
ATOM      2  C1' OXE d   1       1.103   0.886   2.486  0.00  0.00     0.078 C 
ATOM      3  C1  OXE d   1       2.085   0.758   1.349  0.00  0.00    -0.078 A 
ATOM      4  C2  OXE d   1       2.032   1.708   0.357  0.00  0.00    -0.078 A 
ATOM      5  C3  OXE d   1       2.952   1.668  -0.686  0.00  0.00     0.003 A 
ATOM      6  C4  OXE d   1       3.828   0.584  -0.817  0.00  0.00    -0.002 A 
ATOM      7  C5  OXE d   1       3.872  -0.416   0.161  0.00  0.00    -0.002 A 
ATOM      8  C6  OXE d   1       3.038  -0.321   1.269  0.00  0.00     0.003 A 
ENDROOT
TORSDOF 0
ENDMDL
