MODEL 1
REMARK minimizedAffinity 7.36298466
REMARK minimizedRMSD -1
REMARK  0 active torsions:
REMARK  status: ('A' for Active; 'I' for Inactive)
ROOT
ATOM      1  C2' OXE d   1       2.891   1.546  -3.332  0.00  0.00     0.078 C 
ATOM      2  C1' OXE d   1       0.469   2.312  -2.138  0.00  0.00     0.078 C 
ATOM      3  C1  OXE d   1       1.553   1.768  -1.242  0.00  0.00    -0.078 A 
ATOM      4  C2  OXE d   1       2.718   1.352  -1.841  0.00  0.00    -0.078 A 
ATOM      5  C3  OXE d   1       3.771   0.892  -1.055  0.00  0.00     0.003 A 
ATOM      6  C4  OXE d   1       3.599   0.706   0.322  0.00  0.00    -0.002 A 
ATOM      7  C5  OXE d   1       2.406   1.087   0.946  0.00  0.00    -0.002 A 
ATOM      8  C6  OXE d   1       1.391   1.657   0.186  0.00  0.00     0.003 A 
ENDROOT
TORSDOF 0
ENDMDL
