MODEL 1
REMARK minimizedAffinity 3.63121676
REMARK minimizedRMSD -1
REMARK  0 active torsions:
REMARK  status: ('A' for Active; 'I' for Inactive)
ROOT
ATOM      1  C2' OXE d   1       1.130   2.028  -2.087  0.00  0.00     0.078 C 
ATOM      2  C1' OXE d   1       3.670   1.653  -3.223  0.00  0.00     0.078 C 
ATOM      3  C1  OXE d   1       3.444   1.144  -1.821  0.00  0.00    -0.078 A 
ATOM      4  C2  OXE d   1       2.213   1.374  -1.256  0.00  0.00    -0.078 A 
ATOM      5  C3  OXE d   1       1.934   0.877   0.015  0.00  0.00     0.003 A 
ATOM      6  C4  OXE d   1       2.944   0.282   0.780  0.00  0.00    -0.002 A 
ATOM      7  C5  OXE d   1       4.217   0.075   0.238  0.00  0.00    -0.002 A 
ATOM      8  C6  OXE d   1       4.470   0.460  -1.073  0.00  0.00     0.003 A 
ENDROOT
TORSDOF 0
ENDMDL
