MODEL 1
REMARK minimizedAffinity 11.9892883
REMARK minimizedRMSD -1
REMARK  0 active torsions:
REMARK  status: ('A' for Active; 'I' for Inactive)
ROOT
ATOM      1  C2' OXE d   1      -5.999  -5.974  -2.678  0.00  0.00     0.078 C 
ATOM      2  C1' OXE d   1      -5.993  -3.560  -4.111  0.00  0.00     0.078 C 
ATOM      3  C1  OXE d   1      -4.924  -3.761  -3.066  0.00  0.00    -0.078 A 
ATOM      4  C2  OXE d   1      -4.963  -4.925  -2.337  0.00  0.00    -0.078 A 
ATOM      5  C3  OXE d   1      -3.969  -5.184  -1.398  0.00  0.00     0.003 A 
ATOM      6  C4  OXE d   1      -3.020  -4.205  -1.081  0.00  0.00    -0.002 A 
ATOM      7  C5  OXE d   1      -2.987  -2.995  -1.784  0.00  0.00    -0.002 A 
ATOM      8  C6  OXE d   1      -3.903  -2.776  -2.806  0.00  0.00     0.003 A 
ENDROOT
TORSDOF 0
ENDMDL
