MODEL 1
REMARK minimizedAffinity 19.370182
REMARK minimizedRMSD -1
REMARK  0 active torsions:
REMARK  status: ('A' for Active; 'I' for Inactive)
ROOT
ATOM      1  C2' OXE d   1      -2.573  -2.612  -1.920  0.00  0.00     0.078 C 
ATOM      2  C1' OXE d   1      -2.150  -5.235  -2.826  0.00  0.00     0.078 C 
ATOM      3  C1  OXE d   1      -1.895  -4.107  -3.794  0.00  0.00    -0.078 A 
ATOM      4  C2  OXE d   1      -2.150  -2.830  -3.357  0.00  0.00    -0.078 A 
ATOM      5  C3  OXE d   1      -1.879  -1.749  -4.191  0.00  0.00     0.003 A 
ATOM      6  C4  OXE d   1      -1.497  -1.959  -5.522  0.00  0.00    -0.002 A 
ATOM      7  C5  OXE d   1      -1.271  -3.254  -5.999  0.00  0.00    -0.002 A 
ATOM      8  C6  OXE d   1      -1.424  -4.335  -5.138  0.00  0.00     0.003 A 
ENDROOT
TORSDOF 0
ENDMDL
