MODEL 1
REMARK minimizedAffinity 19.0931225
REMARK minimizedRMSD -1
REMARK  0 active torsions:
REMARK  status: ('A' for Active; 'I' for Inactive)
ROOT
ATOM      1  C2' OXE d   1      -2.182  -3.600  -3.262  0.00  0.00     0.078 C 
ATOM      2  C1' OXE d   1      -2.231  -6.000  -1.807  0.00  0.00     0.078 C 
ATOM      3  C1  OXE d   1      -3.553  -5.385  -2.195  0.00  0.00    -0.078 A 
ATOM      4  C2  OXE d   1      -3.520  -4.187  -2.866  0.00  0.00    -0.078 A 
ATOM      5  C3  OXE d   1      -4.709  -3.604  -3.295  0.00  0.00     0.003 A 
ATOM      6  C4  OXE d   1      -5.942  -4.149  -2.917  0.00  0.00    -0.002 A 
ATOM      7  C5  OXE d   1      -5.998  -5.348  -2.199  0.00  0.00    -0.002 A 
ATOM      8  C6  OXE d   1      -4.815  -6.000  -1.868  0.00  0.00     0.003 A 
ENDROOT
TORSDOF 0
ENDMDL
