MODEL 1
REMARK minimizedAffinity 5.44211912
REMARK minimizedRMSD -1
REMARK  0 active torsions:
REMARK  status: ('A' for Active; 'I' for Inactive)
ROOT
ATOM      1  C2' OXE d   1      -0.318  -2.312   0.914  0.00  0.00     0.078 C 
ATOM      2  C1' OXE d   1      -2.757  -2.514  -0.460  0.00  0.00     0.078 C 
ATOM      3  C1  OXE d   1      -2.414  -3.602   0.527  0.00  0.00    -0.078 A 
ATOM      4  C2  OXE d   1      -1.197  -3.519   1.160  0.00  0.00    -0.078 A 
ATOM      5  C3  OXE d   1      -0.854  -4.467   2.120  0.00  0.00     0.003 A 
ATOM      6  C4  OXE d   1      -1.669  -5.586   2.334  0.00  0.00    -0.002 A 
ATOM      7  C5  OXE d   1      -2.894  -5.710   1.670  0.00  0.00    -0.002 A 
ATOM      8  C6  OXE d   1      -3.300  -4.707   0.797  0.00  0.00     0.003 A 
ENDROOT
TORSDOF 0
ENDMDL
