MODEL 1
REMARK minimizedAffinity 8.47517204
REMARK minimizedRMSD -1
REMARK  0 active torsions:
REMARK  status: ('A' for Active; 'I' for Inactive)
ROOT
ATOM      1  C2' OXE d   1      -1.773  -3.213   1.663  0.00  0.00     0.078 C 
ATOM      2  C1' OXE d   1       0.543  -2.483   0.255  0.00  0.00     0.078 C 
ATOM      3  C1  OXE d   1      -0.754  -2.555  -0.512  0.00  0.00    -0.078 A 
ATOM      4  C2  OXE d   1      -1.874  -2.958   0.175  0.00  0.00    -0.078 A 
ATOM      5  C3  OXE d   1      -3.106  -2.988  -0.472  0.00  0.00     0.003 A 
ATOM      6  C4  OXE d   1      -3.188  -2.761  -1.851  0.00  0.00    -0.002 A 
ATOM      7  C5  OXE d   1      -2.053  -2.387  -2.578  0.00  0.00    -0.002 A 
ATOM      8  C6  OXE d   1      -0.839  -2.239  -1.917  0.00  0.00     0.003 A 
ENDROOT
TORSDOF 0
ENDMDL
