MODEL 1
REMARK minimizedAffinity 11.7809801
REMARK minimizedRMSD -1
REMARK  0 active torsions:
REMARK  status: ('A' for Active; 'I' for Inactive)
ROOT
ATOM      1  C2' OXE d   1      -0.900  -2.659   1.128  0.00  0.00     0.078 C 
ATOM      2  C1' OXE d   1      -3.377  -2.611  -0.192  0.00  0.00     0.078 C 
ATOM      3  C1  OXE d   1      -3.062  -3.808   0.669  0.00  0.00    -0.078 A 
ATOM      4  C2  OXE d   1      -1.828  -3.845   1.274  0.00  0.00    -0.078 A 
ATOM      5  C3  OXE d   1      -1.508  -4.901   2.123  0.00  0.00     0.003 A 
ATOM      6  C4  OXE d   1      -2.368  -5.999   2.244  0.00  0.00    -0.002 A 
ATOM      7  C5  OXE d   1      -3.613  -6.000   1.604  0.00  0.00    -0.002 A 
ATOM      8  C6  OXE d   1      -3.992  -4.896   0.849  0.00  0.00     0.003 A 
ENDROOT
TORSDOF 0
ENDMDL
