MODEL 1
REMARK minimizedAffinity 2.48884964
REMARK minimizedRMSD -1
REMARK  0 active torsions:
REMARK  status: ('A' for Active; 'I' for Inactive)
ROOT
ATOM      1  C2' OXE d   1      -1.442  -3.275   1.813  0.00  0.00     0.078 C 
ATOM      2  C1' OXE d   1      -3.034  -5.531   1.309  0.00  0.00     0.078 C 
ATOM      3  C1  OXE d   1      -2.874  -4.522   0.200  0.00  0.00    -0.078 A 
ATOM      4  C2  OXE d   1      -2.131  -3.398   0.471  0.00  0.00    -0.078 A 
ATOM      5  C3  OXE d   1      -1.905  -2.462  -0.534  0.00  0.00     0.003 A 
ATOM      6  C4  OXE d   1      -2.555  -2.578  -1.770  0.00  0.00    -0.002 A 
ATOM      7  C5  OXE d   1      -3.348  -3.695  -2.052  0.00  0.00    -0.002 A 
ATOM      8  C6  OXE d   1      -3.483  -4.695  -1.096  0.00  0.00     0.003 A 
ENDROOT
TORSDOF 0
ENDMDL
