MODEL 1
REMARK minimizedAffinity 0.948844671
REMARK minimizedRMSD -1
REMARK  0 active torsions:
REMARK  status: ('A' for Active; 'I' for Inactive)
ROOT
ATOM      1  C2' OXE d   1      -2.678   5.999  -3.464  0.00  0.00     0.078 C 
ATOM      2  C1' OXE d   1      -1.812   5.195  -0.918  0.00  0.00     0.078 C 
ATOM      3  C1  OXE d   1      -3.291   5.404  -1.124  0.00  0.00    -0.078 A 
ATOM      4  C2  OXE d   1      -3.702   5.843  -2.360  0.00  0.00    -0.078 A 
ATOM      5  C3  OXE d   1      -5.060   5.999  -2.621  0.00  0.00     0.003 A 
ATOM      6  C4  OXE d   1      -5.999   5.862  -1.591  0.00  0.00    -0.002 A 
ATOM      7  C5  OXE d   1      -5.599   5.455  -0.314  0.00  0.00    -0.002 A 
ATOM      8  C6  OXE d   1      -4.256   5.181  -0.076  0.00  0.00     0.003 A 
ENDROOT
TORSDOF 0
ENDMDL
