MODEL 1
REMARK minimizedAffinity 5.88541365
REMARK minimizedRMSD -1
REMARK  0 active torsions:
REMARK  status: ('A' for Active; 'I' for Inactive)
ROOT
ATOM      1  C2' OXE d   1       5.318  -0.357  -0.256  0.00  0.00     0.078 C 
ATOM      2  C1' OXE d   1       3.568   1.237  -1.765  0.00  0.00     0.078 C 
ATOM      3  C1  OXE d   1       3.186   0.930  -0.338  0.00  0.00    -0.078 A 
ATOM      4  C2  OXE d   1       4.025   0.111   0.378  0.00  0.00    -0.078 A 
ATOM      5  C3  OXE d   1       3.749  -0.160   1.715  0.00  0.00     0.003 A 
ATOM      6  C4  OXE d   1       2.546   0.269   2.291  0.00  0.00    -0.002 A 
ATOM      7  C5  OXE d   1       1.659   1.071   1.567  0.00  0.00    -0.002 A 
ATOM      8  C6  OXE d   1       1.983   1.445   0.267  0.00  0.00     0.003 A 
ENDROOT
TORSDOF 0
ENDMDL
