MODEL 1
REMARK minimizedAffinity 1.07522571
REMARK minimizedRMSD -1
REMARK  0 active torsions:
REMARK  status: ('A' for Active; 'I' for Inactive)
ROOT
ATOM      1  C2' OXE d   1       5.670  -0.878  -0.396  0.00  0.00     0.078 C 
ATOM      2  C1' OXE d   1       3.898   0.699  -1.897  0.00  0.00     0.078 C 
ATOM      3  C1  OXE d   1       3.628   0.549  -0.421  0.00  0.00    -0.078 A 
ATOM      4  C2  OXE d   1       4.473  -0.263   0.297  0.00  0.00    -0.078 A 
ATOM      5  C3  OXE d   1       4.302  -0.392   1.673  0.00  0.00     0.003 A 
ATOM      6  C4  OXE d   1       3.187   0.172   2.304  0.00  0.00    -0.002 A 
ATOM      7  C5  OXE d   1       2.291   0.970   1.584  0.00  0.00    -0.002 A 
ATOM      8  C6  OXE d   1       2.520   1.202   0.232  0.00  0.00     0.003 A 
ENDROOT
TORSDOF 0
ENDMDL
