MODEL 1
REMARK minimizedAffinity 14.6470556
REMARK minimizedRMSD -1
REMARK  0 active torsions:
REMARK  status: ('A' for Active; 'I' for Inactive)
ROOT
ATOM      1  C2' OXE d   1      -1.502  -2.589   0.443  0.00  0.00     0.078 C 
ATOM      2  C1' OXE d   1      -1.478  -1.849   3.151  0.00  0.00     0.078 C 
ATOM      3  C1  OXE d   1      -1.591  -3.317   2.824  0.00  0.00    -0.078 A 
ATOM      4  C2  OXE d   1      -1.649  -3.666   1.496  0.00  0.00    -0.078 A 
ATOM      5  C3  OXE d   1      -1.698  -5.011   1.139  0.00  0.00     0.003 A 
ATOM      6  C4  OXE d   1      -1.844  -6.000   2.119  0.00  0.00    -0.002 A 
ATOM      7  C5  OXE d   1      -1.827  -5.662   3.476  0.00  0.00    -0.002 A 
ATOM      8  C6  OXE d   1      -1.659  -4.332   3.846  0.00  0.00     0.003 A 
ENDROOT
TORSDOF 0
ENDMDL
