MODEL 1
REMARK minimizedAffinity 3.65095639
REMARK minimizedRMSD -1
REMARK  0 active torsions:
REMARK  status: ('A' for Active; 'I' for Inactive)
ROOT
ATOM      1  C2' OXE d   1      -3.123   2.203   2.850  0.00  0.00     0.078 C 
ATOM      2  C1' OXE d   1      -2.215  -0.383   2.243  0.00  0.00     0.078 C 
ATOM      3  C1  OXE d   1      -1.249   0.762   2.065  0.00  0.00    -0.078 A 
ATOM      4  C2  OXE d   1      -1.716   2.029   2.319  0.00  0.00    -0.078 A 
ATOM      5  C3  OXE d   1      -0.851   3.115   2.223  0.00  0.00     0.003 A 
ATOM      6  C4  OXE d   1       0.446   2.946   1.722  0.00  0.00    -0.002 A 
ATOM      7  C5  OXE d   1       0.929   1.668   1.419  0.00  0.00    -0.002 A 
ATOM      8  C6  OXE d   1       0.110   0.564   1.625  0.00  0.00     0.003 A 
ENDROOT
TORSDOF 0
ENDMDL
