MODEL 1
REMARK minimizedAffinity 2.37949824
REMARK minimizedRMSD -1
REMARK  0 active torsions:
REMARK  status: ('A' for Active; 'I' for Inactive)
ROOT
ATOM      1  C2' OXE d   1      -4.663   1.670   4.556  0.00  0.00     0.078 C 
ATOM      2  C1' OXE d   1      -3.438  -0.690   3.656  0.00  0.00     0.078 C 
ATOM      3  C1  OXE d   1      -2.788   0.622   3.295  0.00  0.00    -0.078 A 
ATOM      4  C2  OXE d   1      -3.419   1.773   3.700  0.00  0.00    -0.078 A 
ATOM      5  C3  OXE d   1      -2.833   3.008   3.441  0.00  0.00     0.003 A 
ATOM      6  C4  OXE d   1      -1.687   3.096   2.641  0.00  0.00    -0.002 A 
ATOM      7  C5  OXE d   1      -1.050   1.937   2.185  0.00  0.00    -0.002 A 
ATOM      8  C6  OXE d   1      -1.562   0.693   2.538  0.00  0.00     0.003 A 
ENDROOT
TORSDOF 0
ENDMDL
