MODEL 1
REMARK minimizedAffinity 7.4729414
REMARK minimizedRMSD -1
REMARK  0 active torsions:
REMARK  status: ('A' for Active; 'I' for Inactive)
ROOT
ATOM      1  C2' OXE d   1       0.944  -0.114   3.200  0.00  0.00     0.078 C 
ATOM      2  C1' OXE d   1       2.251   1.338   1.184  0.00  0.00     0.078 C 
ATOM      3  C1  OXE d   1       0.804   1.662   1.459  0.00  0.00    -0.078 A 
ATOM      4  C2  OXE d   1       0.159   0.914   2.415  0.00  0.00    -0.078 A 
ATOM      5  C3  OXE d   1      -1.161   1.209   2.746  0.00  0.00     0.003 A 
ATOM      6  C4  OXE d   1      -1.883   2.155   2.008  0.00  0.00    -0.002 A 
ATOM      7  C5  OXE d   1      -1.256   2.899   1.003  0.00  0.00    -0.002 A 
ATOM      8  C6  OXE d   1       0.095   2.695   0.745  0.00  0.00     0.003 A 
ENDROOT
TORSDOF 0
ENDMDL
