MODEL 1
REMARK minimizedAffinity 12.1276951
REMARK minimizedRMSD -1
REMARK  0 active torsions:
REMARK  status: ('A' for Active; 'I' for Inactive)
ROOT
ATOM      1  C   UNL d   1      -5.920  -5.997  -5.990  0.00  0.00     0.077 C 
ATOM      2  C1  UNL d   1      -5.859  -4.705  -5.230  0.00  0.00    -0.074 A 
ATOM      3  C2  UNL d   1      -5.899  -4.691  -3.832  0.00  0.00    -0.005 A 
ATOM      4  C3  UNL d   1      -5.832  -3.483  -3.139  0.00  0.00     0.006 A 
ATOM      5  C4  UNL d   1      -5.726  -2.278  -3.835  0.00  0.00    -0.005 A 
ATOM      6  C5  UNL d   1      -5.684  -2.273  -5.233  0.00  0.00    -0.074 A 
ATOM      7  C6  UNL d   1      -5.560  -0.988  -5.997  0.00  0.00     0.077 C 
ATOM      8  C7  UNL d   1      -5.745  -3.492  -5.922  0.00  0.00    -0.001 A 
ENDROOT
TORSDOF 0
ENDMDL
