MODEL 1
REMARK minimizedAffinity 8.84079552
REMARK minimizedRMSD -1
REMARK  0 active torsions:
REMARK  status: ('A' for Active; 'I' for Inactive)
ROOT
ATOM      1  C   UNL d   1      -4.190   4.455   1.362  0.00  0.00     0.077 C 
ATOM      2  C1  UNL d   1      -2.725   4.619   1.087  0.00  0.00    -0.074 A 
ATOM      3  C2  UNL d   1      -2.216   5.826   0.597  0.00  0.00    -0.005 A 
ATOM      4  C3  UNL d   1      -0.850   5.967   0.355  0.00  0.00     0.006 A 
ATOM      5  C4  UNL d   1       0.020   4.904   0.601  0.00  0.00    -0.005 A 
ATOM      6  C5  UNL d   1      -0.470   3.690   1.091  0.00  0.00    -0.074 A 
ATOM      7  C6  UNL d   1       0.453   2.540   1.370  0.00  0.00     0.077 C 
ATOM      8  C7  UNL d   1      -1.843   3.558   1.338  0.00  0.00    -0.001 A 
ENDROOT
TORSDOF 0
ENDMDL
