MODEL 1
REMARK minimizedAffinity 2.90644741
REMARK minimizedRMSD -1
REMARK  0 active torsions:
REMARK  status: ('A' for Active; 'I' for Inactive)
ROOT
ATOM      1  C   UNL d   1      -1.140  -1.437   0.852  0.00  0.00     0.077 C 
ATOM      2  C1  UNL d   1      -1.188  -2.885   0.463  0.00  0.00    -0.074 A 
ATOM      3  C2  UNL d   1      -2.291  -3.680   0.788  0.00  0.00    -0.005 A 
ATOM      4  C3  UNL d   1      -2.326  -5.023   0.411  0.00  0.00     0.006 A 
ATOM      5  C4  UNL d   1      -1.259  -5.583  -0.293  0.00  0.00    -0.005 A 
ATOM      6  C5  UNL d   1      -0.147  -4.803  -0.626  0.00  0.00    -0.074 A 
ATOM      7  C6  UNL d   1       1.004  -5.387  -1.391  0.00  0.00     0.077 C 
ATOM      8  C7  UNL d   1      -0.123  -3.453  -0.251  0.00  0.00    -0.001 A 
ENDROOT
TORSDOF 0
ENDMDL
