MODEL 1
REMARK minimizedAffinity 4.10325909
REMARK minimizedRMSD -1
REMARK  0 active torsions:
REMARK  status: ('A' for Active; 'I' for Inactive)
ROOT
ATOM      1  C   UNL d   1       2.424  -3.930   5.634  0.00  0.00     0.077 C 
ATOM      2  C1  UNL d   1       2.090  -2.996   4.510  0.00  0.00    -0.074 A 
ATOM      3  C2  UNL d   1       1.247  -1.899   4.714  0.00  0.00    -0.005 A 
ATOM      4  C3  UNL d   1       0.952  -1.033   3.661  0.00  0.00     0.006 A 
ATOM      5  C4  UNL d   1       1.496  -1.255   2.395  0.00  0.00    -0.005 A 
ATOM      6  C5  UNL d   1       2.341  -2.346   2.173  0.00  0.00    -0.074 A 
ATOM      7  C6  UNL d   1       2.942  -2.594   0.821  0.00  0.00     0.077 C 
ATOM      8  C7  UNL d   1       2.639  -3.208   3.238  0.00  0.00    -0.001 A 
ENDROOT
TORSDOF 0
ENDMDL
