MODEL 1
REMARK minimizedAffinity 13.7270041
REMARK minimizedRMSD -1
REMARK  0 active torsions:
REMARK  status: ('A' for Active; 'I' for Inactive)
ROOT
ATOM      1  C   UNL d   1      -3.339   1.188  -1.932  0.00  0.00     0.077 C 
ATOM      2  C1  UNL d   1      -3.547   2.212  -3.008  0.00  0.00    -0.074 A 
ATOM      3  C2  UNL d   1      -3.915   1.831  -4.302  0.00  0.00    -0.005 A 
ATOM      4  C3  UNL d   1      -4.114   2.795  -5.290  0.00  0.00     0.006 A 
ATOM      5  C4  UNL d   1      -3.947   4.149  -4.994  0.00  0.00    -0.005 A 
ATOM      6  C5  UNL d   1      -3.581   4.549  -3.705  0.00  0.00    -0.074 A 
ATOM      7  C6  UNL d   1      -3.408   6.000  -3.367  0.00  0.00     0.077 C 
ATOM      8  C7  UNL d   1      -3.390   3.574  -2.716  0.00  0.00    -0.001 A 
ENDROOT
TORSDOF 0
ENDMDL
