MODEL 1
REMARK minimizedAffinity 4.09891701
REMARK minimizedRMSD -1
REMARK  0 active torsions:
REMARK  status: ('A' for Active; 'I' for Inactive)
ROOT
ATOM      1  C   UNL d   1       0.687  -2.851   6.000  0.00  0.00     0.077 C 
ATOM      2  C1  UNL d   1       1.137  -2.755   4.573  0.00  0.00    -0.074 A 
ATOM      3  C2  UNL d   1       1.847  -3.799   3.971  0.00  0.00    -0.005 A 
ATOM      4  C3  UNL d   1       2.251  -3.699   2.640  0.00  0.00     0.006 A 
ATOM      5  C4  UNL d   1       1.950  -2.556   1.898  0.00  0.00    -0.005 A 
ATOM      6  C5  UNL d   1       1.240  -1.503   2.482  0.00  0.00    -0.074 A 
ATOM      7  C6  UNL d   1       0.900  -0.272   1.696  0.00  0.00     0.077 C 
ATOM      8  C7  UNL d   1       0.832  -1.613   3.818  0.00  0.00    -0.001 A 
ENDROOT
TORSDOF 0
ENDMDL
