MODEL 1
REMARK minimizedAffinity 10.4118395
REMARK minimizedRMSD -1
REMARK  0 active torsions:
REMARK  status: ('A' for Active; 'I' for Inactive)
ROOT
ATOM      1  C   UNL d   1       3.868   0.050  -1.091  0.00  0.00     0.077 C 
ATOM      2  C1  UNL d   1       3.435  -1.082  -0.207  0.00  0.00    -0.074 A 
ATOM      3  C2  UNL d   1       3.939  -2.373  -0.395  0.00  0.00    -0.005 A 
ATOM      4  C3  UNL d   1       3.535  -3.414   0.440  0.00  0.00     0.006 A 
ATOM      5  C4  UNL d   1       2.624  -3.176   1.470  0.00  0.00    -0.005 A 
ATOM      6  C5  UNL d   1       2.110  -1.891   1.674  0.00  0.00    -0.074 A 
ATOM      7  C6  UNL d   1       1.138  -1.615   2.782  0.00  0.00     0.077 C 
ATOM      8  C7  UNL d   1       2.527  -0.849   0.835  0.00  0.00    -0.001 A 
ENDROOT
TORSDOF 0
ENDMDL
