MODEL 1
REMARK minimizedAffinity 10.8946562
REMARK minimizedRMSD -1
REMARK  0 active torsions:
REMARK  status: ('A' for Active; 'I' for Inactive)
ROOT
ATOM      1  C   UNL d   1       0.996   0.095   1.490  0.00  0.00     0.077 C 
ATOM      2  C1  UNL d   1       1.255  -1.199   2.203  0.00  0.00    -0.074 A 
ATOM      3  C2  UNL d   1       1.660  -2.339   1.501  0.00  0.00    -0.005 A 
ATOM      4  C3  UNL d   1       1.906  -3.532   2.179  0.00  0.00     0.006 A 
ATOM      5  C4  UNL d   1       1.751  -3.598   3.564  0.00  0.00    -0.005 A 
ATOM      6  C5  UNL d   1       1.348  -2.469   4.283  0.00  0.00    -0.074 A 
ATOM      7  C6  UNL d   1       1.186  -2.520   5.774  0.00  0.00     0.077 C 
ATOM      8  C7  UNL d   1       1.109  -1.271   3.596  0.00  0.00    -0.001 A 
ENDROOT
TORSDOF 0
ENDMDL
