MODEL 1
REMARK minimizedAffinity 10.028327
REMARK minimizedRMSD -1
REMARK  0 active torsions:
REMARK  status: ('A' for Active; 'I' for Inactive)
ROOT
ATOM      1  C   UNL d   1       1.149  -3.010   5.989  0.00  0.00     0.077 C 
ATOM      2  C1  UNL d   1       1.404  -2.890   4.516  0.00  0.00    -0.074 A 
ATOM      3  C2  UNL d   1       1.881  -3.977   3.777  0.00  0.00    -0.005 A 
ATOM      4  C3  UNL d   1       2.103  -3.853   2.406  0.00  0.00     0.006 A 
ATOM      5  C4  UNL d   1       1.852  -2.642   1.760  0.00  0.00    -0.005 A 
ATOM      6  C5  UNL d   1       1.373  -1.544   2.482  0.00  0.00    -0.074 A 
ATOM      7  C6  UNL d   1       1.088  -0.238   1.801  0.00  0.00     0.077 C 
ATOM      8  C7  UNL d   1       1.145  -1.679   3.858  0.00  0.00    -0.001 A 
ENDROOT
TORSDOF 0
ENDMDL
