MODEL 1
REMARK minimizedAffinity 6.07442999
REMARK minimizedRMSD -1
REMARK  0 active torsions:
REMARK  status: ('A' for Active; 'I' for Inactive)
ROOT
ATOM      1  C   UNL d   1      -0.447  -2.585   1.600  0.00  0.00     0.077 C 
ATOM      2  C1  UNL d   1      -0.694  -3.780   0.728  0.00  0.00    -0.074 A 
ATOM      3  C2  UNL d   1      -1.884  -4.509   0.828  0.00  0.00    -0.005 A 
ATOM      4  C3  UNL d   1      -2.104  -5.612   0.003  0.00  0.00     0.006 A 
ATOM      5  C4  UNL d   1      -1.138  -5.998  -0.928  0.00  0.00    -0.005 A 
ATOM      6  C5  UNL d   1       0.057  -5.281  -1.042  0.00  0.00    -0.074 A 
ATOM      7  C6  UNL d   1       1.101  -5.676  -2.045  0.00  0.00     0.077 C 
ATOM      8  C7  UNL d   1       0.268  -4.169  -0.215  0.00  0.00    -0.001 A 
ENDROOT
TORSDOF 0
ENDMDL
