MODEL 1
REMARK minimizedAffinity 8.45687103
REMARK minimizedRMSD -1
REMARK  0 active torsions:
REMARK  status: ('A' for Active; 'I' for Inactive)
ROOT
ATOM      1  C   UNL d   1      -2.469  -4.420  -0.092  0.00  0.00     0.077 C 
ATOM      2  C1  UNL d   1      -1.037  -4.817  -0.295  0.00  0.00    -0.074 A 
ATOM      3  C2  UNL d   1      -0.474  -4.850  -1.575  0.00  0.00    -0.005 A 
ATOM      4  C3  UNL d   1       0.862  -5.212  -1.747  0.00  0.00     0.006 A 
ATOM      5  C4  UNL d   1       1.647  -5.546  -0.643  0.00  0.00    -0.005 A 
ATOM      6  C5  UNL d   1       1.102  -5.518   0.645  0.00  0.00    -0.074 A 
ATOM      7  C6  UNL d   1       1.935  -5.864   1.843  0.00  0.00     0.077 C 
ATOM      8  C7  UNL d   1      -0.239  -5.146   0.810  0.00  0.00    -0.001 A 
ENDROOT
TORSDOF 0
ENDMDL
