MODEL 1
REMARK minimizedAffinity 3.98912096
REMARK minimizedRMSD -1
REMARK  1 active torsions:
REMARK  status: ('A' for Active; 'I' for Inactive)
REMARK    1  A    between atoms: N_2  and  C1_3 
ROOT
ATOM      1  C1  UNL d   1       0.732  -1.993   0.764  0.00  0.00     0.143 A 
ATOM      2  C2  UNL d   1       2.061  -1.899   1.190  0.00  0.00    -0.057 A 
ATOM      3  C3  UNL d   1       2.781  -0.705   1.067  0.00  0.00     0.033 A 
ATOM      4  C4  UNL d   1       2.191   0.413   0.487  0.00  0.00    -0.042 A 
ATOM      5  C5  UNL d   1       0.879   0.336   0.033  0.00  0.00     0.033 A 
ATOM      6  C6  UNL d   1       0.163  -0.858   0.165  0.00  0.00    -0.057 A 
ENDROOT
BRANCH   1   7
ATOM      7  N   UNL d   1      -0.005  -3.180   0.769  0.00  0.00    -0.732 N 
ATOM      8  C   UNL d   1       0.246  -4.207  -0.218  0.00  0.00     0.284 C 
ATOM      9  H3  UNL d   1      -0.161  -3.536   1.709  0.00  0.00     0.395 HD
ENDBRANCH   1   7
TORSDOF 1
ENDMDL
