MODEL 1
REMARK minimizedAffinity -2.19640899
REMARK minimizedRMSD -1
REMARK  1 active torsions:
REMARK  status: ('A' for Active; 'I' for Inactive)
REMARK    1  A    between atoms: N_2  and  C1_3 
ROOT
ATOM      1  C1  UNL d   1      -0.893  -5.793  -3.571  0.00  0.00     0.143 A 
ATOM      2  C2  UNL d   1       0.498  -5.920  -3.490  0.00  0.00    -0.057 A 
ATOM      3  C3  UNL d   1       1.299  -5.875  -4.637  0.00  0.00     0.033 A 
ATOM      4  C4  UNL d   1       0.719  -5.732  -5.893  0.00  0.00    -0.042 A 
ATOM      5  C5  UNL d   1      -0.663  -5.630  -6.000  0.00  0.00     0.033 A 
ATOM      6  C6  UNL d   1      -1.458  -5.668  -4.850  0.00  0.00    -0.057 A 
ENDROOT
BRANCH   1   7
ATOM      7  N   UNL d   1      -1.752  -5.928  -2.478  0.00  0.00    -0.732 N 
ATOM      8  C   UNL d   1      -3.185  -6.000  -2.670  0.00  0.00     0.284 C 
ATOM      9  H3  UNL d   1      -1.393  -6.576  -1.780  0.00  0.00     0.395 HD
ENDBRANCH   1   7
TORSDOF 1
ENDMDL
