MODEL 1
REMARK minimizedAffinity 5.55023956
REMARK minimizedRMSD -1
REMARK  1 active torsions:
REMARK  status: ('A' for Active; 'I' for Inactive)
REMARK    1  A    between atoms: N_2  and  C1_3 
ROOT
ATOM      1  C1  UNL d   1       1.633  -0.787   0.963  0.00  0.00     0.143 A 
ATOM      2  C2  UNL d   1       0.738   0.211   0.560  0.00  0.00    -0.057 A 
ATOM      3  C3  UNL d   1      -0.577  -0.098   0.194  0.00  0.00     0.033 A 
ATOM      4  C4  UNL d   1      -1.015  -1.418   0.197  0.00  0.00    -0.042 A 
ATOM      5  C5  UNL d   1      -0.136  -2.429   0.570  0.00  0.00     0.033 A 
ATOM      6  C6  UNL d   1       1.175  -2.113   0.941  0.00  0.00    -0.057 A 
ENDROOT
BRANCH   1   7
ATOM      7  N   UNL d   1       2.981  -0.555   1.244  0.00  0.00    -0.732 N 
ATOM      8  C   UNL d   1       3.957  -0.494   0.177  0.00  0.00     0.284 C 
ATOM      9  H3  UNL d   1       3.112   0.149   1.968  0.00  0.00     0.395 HD
ENDBRANCH   1   7
TORSDOF 1
ENDMDL
