MODEL 1
REMARK minimizedAffinity 7.46844673
REMARK minimizedRMSD -1
REMARK  1 active torsions:
REMARK  status: ('A' for Active; 'I' for Inactive)
REMARK    1  A    between atoms: N_2  and  C1_3 
ROOT
ATOM      1  C1  UNL d   1      -4.623  -5.047   1.948  0.00  0.00     0.143 A 
ATOM      2  C2  UNL d   1      -5.193  -5.995   1.091  0.00  0.00    -0.057 A 
ATOM      3  C3  UNL d   1      -4.907  -5.999  -0.279  0.00  0.00     0.033 A 
ATOM      4  C4  UNL d   1      -4.066  -5.035  -0.824  0.00  0.00    -0.042 A 
ATOM      5  C5  UNL d   1      -3.507  -4.068   0.005  0.00  0.00     0.033 A 
ATOM      6  C6  UNL d   1      -3.792  -4.073   1.374  0.00  0.00    -0.057 A 
ENDROOT
BRANCH   1   7
ATOM      7  N   UNL d   1      -4.945  -4.929   3.303  0.00  0.00    -0.732 N 
ATOM      8  C   UNL d   1      -5.275  -3.641   3.873  0.00  0.00     0.284 C 
ATOM      9  H3  UNL d   1      -5.534  -5.692   3.629  0.00  0.00     0.395 HD
ENDBRANCH   1   7
TORSDOF 1
ENDMDL
