MODEL 1
REMARK minimizedAffinity 5.44066238
REMARK minimizedRMSD -1
REMARK  1 active torsions:
REMARK  status: ('A' for Active; 'I' for Inactive)
REMARK    1  A    between atoms: N_2  and  C1_3 
ROOT
ATOM      1  C1  UNL d   1      -2.211  -5.898  -4.223  0.00  0.00     0.143 A 
ATOM      2  C2  UNL d   1      -1.185  -5.946  -3.273  0.00  0.00    -0.057 A 
ATOM      3  C3  UNL d   1       0.161  -5.947  -3.658  0.00  0.00     0.033 A 
ATOM      4  C4  UNL d   1       0.506  -5.929  -5.005  0.00  0.00    -0.042 A 
ATOM      5  C5  UNL d   1      -0.497  -5.907  -5.968  0.00  0.00     0.033 A 
ATOM      6  C6  UNL d   1      -1.840  -5.899  -5.577  0.00  0.00    -0.057 A 
ENDROOT
BRANCH   1   7
ATOM      7  N   UNL d   1      -3.569  -5.994  -3.908  0.00  0.00    -0.732 N 
ATOM      8  C   UNL d   1      -4.048  -5.625  -2.593  0.00  0.00     0.284 C 
ATOM      9  H3  UNL d   1      -4.167  -5.686  -4.670  0.00  0.00     0.395 HD
ENDBRANCH   1   7
TORSDOF 1
ENDMDL
