MODEL 1
REMARK minimizedAffinity -1.02647722
REMARK minimizedRMSD -1
REMARK  1 active torsions:
REMARK  status: ('A' for Active; 'I' for Inactive)
REMARK    1  A    between atoms: N_2  and  C1_3 
ROOT
ATOM      1  C1  UNL d   1       1.247  -0.896   0.621  0.00  0.00     0.143 A 
ATOM      2  C2  UNL d   1       0.091  -0.126   0.786  0.00  0.00    -0.057 A 
ATOM      3  C3  UNL d   1      -1.147  -0.722   1.057  0.00  0.00     0.033 A 
ATOM      4  C4  UNL d   1      -1.256  -2.106   1.140  0.00  0.00    -0.042 A 
ATOM      5  C5  UNL d   1      -0.125  -2.893   0.956  0.00  0.00     0.033 A 
ATOM      6  C6  UNL d   1       1.110  -2.292   0.691  0.00  0.00    -0.057 A 
ENDROOT
BRANCH   1   7
ATOM      7  N   UNL d   1       2.487  -0.370   0.252  0.00  0.00    -0.732 N 
ATOM      8  C   UNL d   1       3.713  -1.046   0.617  0.00  0.00     0.284 C 
ATOM      9  H3  UNL d   1       2.484   0.004  -0.694  0.00  0.00     0.395 HD
ENDBRANCH   1   7
TORSDOF 1
ENDMDL
