MODEL 1
REMARK minimizedAffinity 2.63459516
REMARK minimizedRMSD -1
REMARK  1 active torsions:
REMARK  status: ('A' for Active; 'I' for Inactive)
REMARK    1  A    between atoms: N_2  and  C1_3 
ROOT
ATOM      1  C1  UNL d   1      -0.424  -5.999  -3.490  0.00  0.00     0.143 A 
ATOM      2  C2  UNL d   1      -1.820  -5.984  -3.580  0.00  0.00    -0.057 A 
ATOM      3  C3  UNL d   1      -2.468  -5.999  -4.821  0.00  0.00     0.033 A 
ATOM      4  C4  UNL d   1      -1.728  -5.999  -5.999  0.00  0.00    -0.042 A 
ATOM      5  C5  UNL d   1      -0.339  -5.988  -5.934  0.00  0.00     0.033 A 
ATOM      6  C6  UNL d   1       0.302  -5.981  -4.691  0.00  0.00    -0.057 A 
ENDROOT
BRANCH   1   7
ATOM      7  N   UNL d   1       0.280  -5.886  -2.289  0.00  0.00    -0.732 N 
ATOM      8  C   UNL d   1      -0.056  -4.853  -1.332  0.00  0.00     0.284 C 
ATOM      9  H3  UNL d   1       0.481  -6.791  -1.869  0.00  0.00     0.395 HD
ENDBRANCH   1   7
TORSDOF 1
ENDMDL
