MODEL 1
REMARK minimizedAffinity -3.70533323
REMARK minimizedRMSD -1
REMARK  1 active torsions:
REMARK  status: ('A' for Active; 'I' for Inactive)
REMARK    1  A    between atoms: N_2  and  C1_3 
ROOT
ATOM      1  C1  UNL d   1      -1.836  -5.705  -3.973  0.00  0.00     0.143 A 
ATOM      2  C2  UNL d   1      -1.266  -5.656  -5.250  0.00  0.00    -0.057 A 
ATOM      3  C3  UNL d   1       0.123  -5.619  -5.424  0.00  0.00     0.033 A 
ATOM      4  C4  UNL d   1       0.968  -5.601  -4.319  0.00  0.00    -0.042 A 
ATOM      5  C5  UNL d   1       0.423  -5.624  -3.040  0.00  0.00     0.033 A 
ATOM      6  C6  UNL d   1      -0.964  -5.668  -2.873  0.00  0.00    -0.057 A 
ENDROOT
BRANCH   1   7
ATOM      7  N   UNL d   1      -3.210  -5.643  -3.732  0.00  0.00    -0.732 N 
ATOM      8  C   UNL d   1      -3.749  -5.999  -2.437  0.00  0.00     0.284 C 
ATOM      9  H3  UNL d   1      -3.642  -4.822  -4.150  0.00  0.00     0.395 HD
ENDBRANCH   1   7
TORSDOF 1
ENDMDL
