MODEL 1
REMARK minimizedAffinity -0.581675649
REMARK minimizedRMSD -1
REMARK  1 active torsions:
REMARK  status: ('A' for Active; 'I' for Inactive)
REMARK    1  A    between atoms: N_2  and  C1_3 
ROOT
ATOM      1  C1  UNL d   1      -0.763  -5.919  -4.326  0.00  0.00     0.143 A 
ATOM      2  C2  UNL d   1      -2.162  -5.938  -4.294  0.00  0.00    -0.057 A 
ATOM      3  C3  UNL d   1      -2.860  -5.959  -3.081  0.00  0.00     0.033 A 
ATOM      4  C4  UNL d   1      -2.169  -5.992  -1.874  0.00  0.00    -0.042 A 
ATOM      5  C5  UNL d   1      -0.778  -5.999  -1.883  0.00  0.00     0.033 A 
ATOM      6  C6  UNL d   1      -0.087  -5.971  -3.097  0.00  0.00    -0.057 A 
ENDROOT
BRANCH   1   7
ATOM      7  N   UNL d   1      -0.011  -5.997  -5.501  0.00  0.00    -0.732 N 
ATOM      8  C   UNL d   1       1.435  -5.959  -5.454  0.00  0.00     0.284 C 
ATOM      9  H3  UNL d   1      -0.387  -6.676  -6.159  0.00  0.00     0.395 HD
ENDBRANCH   1   7
TORSDOF 1
ENDMDL
