MODEL 1
REMARK minimizedAffinity -0.453370363
REMARK minimizedRMSD -1
REMARK  1 active torsions:
REMARK  status: ('A' for Active; 'I' for Inactive)
REMARK    1  A    between atoms: N_2  and  C1_3 
ROOT
ATOM      1  C1  UNL d   1       3.076  -0.483   0.454  0.00  0.00     0.143 A 
ATOM      2  C2  UNL d   1       2.141   0.378  -0.132  0.00  0.00    -0.057 A 
ATOM      3  C3  UNL d   1       0.794   0.016  -0.248  0.00  0.00     0.033 A 
ATOM      4  C4  UNL d   1       0.361  -1.230   0.195  0.00  0.00    -0.042 A 
ATOM      5  C5  UNL d   1       1.277  -2.112   0.758  0.00  0.00     0.033 A 
ATOM      6  C6  UNL d   1       2.621  -1.742   0.877  0.00  0.00    -0.057 A 
ENDROOT
BRANCH   1   7
ATOM      7  N   UNL d   1       4.447  -0.221   0.509  0.00  0.00    -0.732 N 
ATOM      8  C   UNL d   1       5.133  -0.149   1.781  0.00  0.00     0.284 C 
ATOM      9  H3  UNL d   1       4.966  -0.712  -0.216  0.00  0.00     0.395 HD
ENDBRANCH   1   7
TORSDOF 1
ENDMDL
