MODEL 1
REMARK minimizedAffinity 5.52147484
REMARK minimizedRMSD -1
REMARK  1 active torsions:
REMARK  status: ('A' for Active; 'I' for Inactive)
REMARK    1  A    between atoms: N_2  and  C1_3 
ROOT
ATOM      1  C1  UNL d   1       2.170  -1.270   0.819  0.00  0.00     0.143 A 
ATOM      2  C2  UNL d   1       1.043  -0.469   0.605  0.00  0.00    -0.057 A 
ATOM      3  C3  UNL d   1      -0.232  -1.031   0.473  0.00  0.00     0.033 A 
ATOM      4  C4  UNL d   1      -0.399  -2.411   0.524  0.00  0.00    -0.042 A 
ATOM      5  C5  UNL d   1       0.710  -3.228   0.711  0.00  0.00     0.033 A 
ATOM      6  C6  UNL d   1       1.980  -2.660   0.849  0.00  0.00    -0.057 A 
ENDROOT
BRANCH   1   7
ATOM      7  N   UNL d   1       3.477  -0.778   0.860  0.00  0.00    -0.732 N 
ATOM      8  C   UNL d   1       4.066  -0.151  -0.304  0.00  0.00     0.284 C 
ATOM      9  H3  UNL d   1       3.687  -0.306   1.737  0.00  0.00     0.395 HD
ENDBRANCH   1   7
TORSDOF 1
ENDMDL
