MODEL 1
REMARK minimizedAffinity 3.48783445
REMARK minimizedRMSD -1
REMARK  1 active torsions:
REMARK  status: ('A' for Active; 'I' for Inactive)
REMARK    1  A    between atoms: N_2  and  C1_3 
ROOT
ATOM      1  C1  UNL d   1      -4.589  -5.880  -1.183  0.00  0.00     0.143 A 
ATOM      2  C2  UNL d   1      -3.195  -5.986  -1.229  0.00  0.00    -0.057 A 
ATOM      3  C3  UNL d   1      -2.504  -5.958  -2.446  0.00  0.00     0.033 A 
ATOM      4  C4  UNL d   1      -3.201  -5.854  -3.646  0.00  0.00    -0.042 A 
ATOM      5  C5  UNL d   1      -4.588  -5.773  -3.626  0.00  0.00     0.033 A 
ATOM      6  C6  UNL d   1      -5.272  -5.794  -2.406  0.00  0.00    -0.057 A 
ENDROOT
BRANCH   1   7
ATOM      7  N   UNL d   1      -5.340  -6.000  -0.011  0.00  0.00    -0.732 N 
ATOM      8  C   UNL d   1      -4.708  -5.878   1.285  0.00  0.00     0.284 C 
ATOM      9  H3  UNL d   1      -6.243  -5.535  -0.079  0.00  0.00     0.395 HD
ENDBRANCH   1   7
TORSDOF 1
ENDMDL
