MODEL 1
REMARK minimizedAffinity -3.30895472
REMARK minimizedRMSD -1
REMARK  0 active torsions:
REMARK  status: ('A' for Active; 'I' for Inactive)
ROOT
ATOM      1  C2' OXE d   1       2.910  -0.499  -0.253  0.00  0.00     0.078 C 
ATOM      2  C1' OXE d   1       1.588  -0.307   2.215  0.00  0.00     0.078 C 
ATOM      3  C1  OXE d   1       0.745  -0.306   0.964  0.00  0.00    -0.078 A 
ATOM      4  C2  OXE d   1       1.404  -0.353  -0.241  0.00  0.00    -0.078 A 
ATOM      5  C3  OXE d   1       0.672  -0.410  -1.424  0.00  0.00     0.003 A 
ATOM      6  C4  OXE d   1      -0.720  -0.265  -1.405  0.00  0.00    -0.002 A 
ATOM      7  C5  OXE d   1      -1.407  -0.176  -0.189  0.00  0.00    -0.002 A 
ATOM      8  C6  OXE d   1      -0.695  -0.237   1.003  0.00  0.00     0.003 A 
ENDROOT
TORSDOF 0
ENDMDL
