MODEL 1
REMARK minimizedAffinity -1.29925668
REMARK minimizedRMSD -1
REMARK  0 active torsions:
REMARK  status: ('A' for Active; 'I' for Inactive)
ROOT
ATOM      1  C2' OXE d   1       1.488  -0.495   2.029  0.00  0.00     0.078 C 
ATOM      2  C1' OXE d   1      -1.234  -0.003   1.551  0.00  0.00     0.078 C 
ATOM      3  C1  OXE d   1      -0.350  -0.284   0.361  0.00  0.00    -0.078 A 
ATOM      4  C2  OXE d   1       0.989  -0.477   0.600  0.00  0.00    -0.078 A 
ATOM      5  C3  OXE d   1       1.839  -0.794  -0.455  0.00  0.00     0.003 A 
ATOM      6  C4  OXE d   1       1.372  -0.765  -1.775  0.00  0.00    -0.002 A 
ATOM      7  C5  OXE d   1       0.019  -0.531  -2.044  0.00  0.00    -0.002 A 
ATOM      8  C6  OXE d   1      -0.861  -0.331  -0.987  0.00  0.00     0.003 A 
ENDROOT
TORSDOF 0
ENDMDL
