MODEL 1
REMARK minimizedAffinity -4.15628052
REMARK minimizedRMSD -1
REMARK  0 active torsions:
REMARK  status: ('A' for Active; 'I' for Inactive)
ROOT
ATOM      1  C2' OXE d   1      -0.687  -1.640   2.447  0.00  0.00     0.078 C 
ATOM      2  C1' OXE d   1       1.622  -0.044   2.458  0.00  0.00     0.078 C 
ATOM      3  C1  OXE d   1       0.760  -0.027   1.220  0.00  0.00    -0.078 A 
ATOM      4  C2  OXE d   1      -0.342  -0.846   1.205  0.00  0.00    -0.078 A 
ATOM      5  C3  OXE d   1      -1.201  -0.827   0.110  0.00  0.00     0.003 A 
ATOM      6  C4  OXE d   1      -0.869  -0.098  -1.038  0.00  0.00    -0.002 A 
ATOM      7  C5  OXE d   1       0.270   0.713  -1.059  0.00  0.00    -0.002 A 
ATOM      8  C6  OXE d   1       1.071   0.793   0.075  0.00  0.00     0.003 A 
ENDROOT
TORSDOF 0
ENDMDL
