MODEL 1
REMARK minimizedAffinity -3.51547194
REMARK minimizedRMSD -1
REMARK  0 active torsions:
REMARK  status: ('A' for Active; 'I' for Inactive)
ROOT
ATOM      1  C2' OXE d   1      -0.393  -0.035  -1.186  0.00  0.00     0.078 C 
ATOM      2  C1' OXE d   1      -2.149  -0.387   0.976  0.00  0.00     0.078 C 
ATOM      3  C1  OXE d   1      -0.669  -0.498   1.246  0.00  0.00    -0.078 A 
ATOM      4  C2  OXE d   1       0.181  -0.370   0.174  0.00  0.00    -0.078 A 
ATOM      5  C3  OXE d   1       1.557  -0.410   0.376  0.00  0.00     0.003 A 
ATOM      6  C4  OXE d   1       2.080  -0.731   1.635  0.00  0.00    -0.002 A 
ATOM      7  C5  OXE d   1       1.230  -0.904   2.733  0.00  0.00    -0.002 A 
ATOM      8  C6  OXE d   1      -0.141  -0.749   2.564  0.00  0.00     0.003 A 
ENDROOT
TORSDOF 0
ENDMDL
