MODEL 1
REMARK minimizedAffinity -3.64706421
REMARK minimizedRMSD -1
REMARK  0 active torsions:
REMARK  status: ('A' for Active; 'I' for Inactive)
ROOT
ATOM      1  C2' OXE d   1      -2.198  -0.285   1.185  0.00  0.00     0.078 C 
ATOM      2  C1' OXE d   1      -0.482   0.155  -0.993  0.00  0.00     0.078 C 
ATOM      3  C1  OXE d   1       0.144  -0.132   0.349  0.00  0.00    -0.078 A 
ATOM      4  C2  OXE d   1      -0.702  -0.301   1.418  0.00  0.00    -0.078 A 
ATOM      5  C3  OXE d   1      -0.179  -0.623   2.667  0.00  0.00     0.003 A 
ATOM      6  C4  OXE d   1       1.205  -0.625   2.877  0.00  0.00    -0.002 A 
ATOM      7  C5  OXE d   1       2.085  -0.417   1.810  0.00  0.00    -0.002 A 
ATOM      8  C6  OXE d   1       1.572  -0.212   0.534  0.00  0.00     0.003 A 
ENDROOT
TORSDOF 0
ENDMDL
