MODEL 1
REMARK minimizedAffinity -4.23942041
REMARK minimizedRMSD -1
REMARK  0 active torsions:
REMARK  status: ('A' for Active; 'I' for Inactive)
ROOT
ATOM      1  C2' OXE d   1      -0.329  -0.199  -0.593  0.00  0.00     0.078 C 
ATOM      2  C1' OXE d   1       1.871  -1.701  -1.479  0.00  0.00     0.078 C 
ATOM      3  C1  OXE d   1       1.521  -1.763  -0.013  0.00  0.00    -0.078 A 
ATOM      4  C2  OXE d   1       0.472  -0.988   0.420  0.00  0.00    -0.078 A 
ATOM      5  C3  OXE d   1       0.073  -1.050   1.752  0.00  0.00     0.003 A 
ATOM      6  C4  OXE d   1       0.825  -1.775   2.684  0.00  0.00    -0.002 A 
ATOM      7  C5  OXE d   1       1.922  -2.539   2.272  0.00  0.00    -0.002 A 
ATOM      8  C6  OXE d   1       2.256  -2.578   0.923  0.00  0.00     0.003 A 
ENDROOT
TORSDOF 0
ENDMDL
