MODEL 1
REMARK minimizedAffinity -3.98869419
REMARK minimizedRMSD -1
REMARK  0 active torsions:
REMARK  status: ('A' for Active; 'I' for Inactive)
ROOT
ATOM      1  C2' OXE d   1      -0.632   0.380  -1.064  0.00  0.00     0.078 C 
ATOM      2  C1' OXE d   1      -2.195   0.089   1.249  0.00  0.00     0.078 C 
ATOM      3  C1  OXE d   1      -0.734  -0.275   1.337  0.00  0.00    -0.078 A 
ATOM      4  C2  OXE d   1       0.013  -0.174   0.188  0.00  0.00    -0.078 A 
ATOM      5  C3  OXE d   1       1.378  -0.445   0.227  0.00  0.00     0.003 A 
ATOM      6  C4  OXE d   1       1.964  -0.966   1.387  0.00  0.00    -0.002 A 
ATOM      7  C5  OXE d   1       1.212  -1.115   2.558  0.00  0.00    -0.002 A 
ATOM      8  C6  OXE d   1      -0.125  -0.734   2.561  0.00  0.00     0.003 A 
ENDROOT
TORSDOF 0
ENDMDL
