MODEL 1
REMARK minimizedAffinity -4.11313438
REMARK minimizedRMSD -1
REMARK  0 active torsions:
REMARK  status: ('A' for Active; 'I' for Inactive)
ROOT
ATOM      1  C2' OXE d   1      -1.356  -0.506   1.914  0.00  0.00     0.078 C 
ATOM      2  C1' OXE d   1       1.287  -0.869   2.787  0.00  0.00     0.078 C 
ATOM      3  C1  OXE d   1       1.026  -0.898   1.301  0.00  0.00    -0.078 A 
ATOM      4  C2  OXE d   1      -0.277  -0.766   0.885  0.00  0.00    -0.078 A 
ATOM      5  C3  OXE d   1      -0.566  -0.731  -0.476  0.00  0.00     0.003 A 
ATOM      6  C4  OXE d   1       0.437  -0.983  -1.420  0.00  0.00    -0.002 A 
ATOM      7  C5  OXE d   1       1.765  -1.159  -1.016  0.00  0.00    -0.002 A 
ATOM      8  C6  OXE d   1       2.082  -1.077   0.336  0.00  0.00     0.003 A 
ENDROOT
TORSDOF 0
ENDMDL
