MODEL 1
REMARK minimizedAffinity -6.04855871
REMARK minimizedRMSD -1
REMARK  0 active torsions:
REMARK  status: ('A' for Active; 'I' for Inactive)
ROOT
ATOM      1  C2' OXE d   1      -0.334   0.470  -0.838  0.00  0.00     0.078 C 
ATOM      2  C1' OXE d   1      -2.030  -1.040   0.812  0.00  0.00     0.078 C 
ATOM      3  C1  OXE d   1      -0.667  -0.679   1.347  0.00  0.00    -0.078 A 
ATOM      4  C2  OXE d   1       0.173   0.021   0.515  0.00  0.00    -0.078 A 
ATOM      5  C3  OXE d   1       1.421   0.427   0.979  0.00  0.00     0.003 A 
ATOM      6  C4  OXE d   1       1.887  -0.002   2.228  0.00  0.00    -0.002 A 
ATOM      7  C5  OXE d   1       1.062  -0.748   3.075  0.00  0.00    -0.002 A 
ATOM      8  C6  OXE d   1      -0.231  -1.058   2.668  0.00  0.00     0.003 A 
ENDROOT
TORSDOF 0
ENDMDL
