MODEL 1
REMARK minimizedAffinity 15.0153847
REMARK minimizedRMSD -1
REMARK  0 active torsions:
REMARK  status: ('A' for Active; 'I' for Inactive)
ROOT
ATOM      1  C   UNL d   1      -0.769  -1.832   1.311  0.00  0.00     0.124 A 
ATOM      2  C1  UNL d   1      -1.101  -0.489   1.205  0.00  0.00     0.062 A 
ATOM      3  C2  UNL d   1      -0.101   0.478   1.157  0.00  0.00     0.162 A 
ATOM      4  C3  UNL d   1       1.242   0.105   1.214  0.00  0.00    -0.034 A 
ATOM      5  C4  UNL d   1       1.568  -1.248   1.322  0.00  0.00     0.162 A 
ATOM      6  C5  UNL d   1       0.565  -2.211   1.370  0.00  0.00     0.062 A 
ATOM      7  F   UNL d   1       0.888  -3.508   1.472  0.00  0.00    -0.097 F 
ATOM      8  F1  UNL d   1       2.849  -1.642   1.379  0.00  0.00    -0.096 F 
ATOM      9  I   UNL d   1       2.740   1.548   1.143  0.00  0.00    -0.060 I 
ATOM     10  F2  UNL d   1      -0.451   1.769   1.054  0.00  0.00    -0.096 F 
ATOM     11  F3  UNL d   1      -2.389  -0.121   1.150  0.00  0.00    -0.097 F 
ATOM     12  F4  UNL d   1      -1.733  -2.761   1.358  0.00  0.00    -0.092 F 
ENDROOT
TORSDOF 0
ENDMDL
