MODEL 1
REMARK minimizedAffinity 8.0554266
REMARK minimizedRMSD -1
REMARK  0 active torsions:
REMARK  status: ('A' for Active; 'I' for Inactive)
ROOT
ATOM      1  C   UNL d   1       2.973   1.641  -0.675  0.00  0.00     0.124 A 
ATOM      2  C1  UNL d   1       3.476   0.631   0.133  0.00  0.00     0.062 A 
ATOM      3  C2  UNL d   1       3.174   0.606   1.492  0.00  0.00     0.162 A 
ATOM      4  C3  UNL d   1       2.364   1.594   2.051  0.00  0.00    -0.034 A 
ATOM      5  C4  UNL d   1       1.862   2.607   1.232  0.00  0.00     0.162 A 
ATOM      6  C5  UNL d   1       2.166   2.627  -0.125  0.00  0.00     0.062 A 
ATOM      7  F   UNL d   1       1.679   3.604  -0.904  0.00  0.00    -0.097 F 
ATOM      8  F1  UNL d   1       1.079   3.572   1.737  0.00  0.00    -0.096 F 
ATOM      9  I   UNL d   1       1.911   1.560   4.082  0.00  0.00    -0.060 I 
ATOM     10  F2  UNL d   1       3.675  -0.382   2.249  0.00  0.00    -0.096 F 
ATOM     11  F3  UNL d   1       4.256  -0.323  -0.395  0.00  0.00    -0.097 F 
ATOM     12  F4  UNL d   1       3.265   1.663  -1.982  0.00  0.00    -0.092 F 
ENDROOT
TORSDOF 0
ENDMDL
