MODEL 1
REMARK minimizedAffinity 4.58099365
REMARK minimizedRMSD -1
REMARK  0 active torsions:
REMARK  status: ('A' for Active; 'I' for Inactive)
ROOT
ATOM      1  C   UNL d   1       0.149   4.135  -0.389  0.00  0.00     0.124 A 
ATOM      2  C1  UNL d   1      -0.809   3.243   0.072  0.00  0.00     0.062 A 
ATOM      3  C2  UNL d   1      -0.426   2.000   0.567  0.00  0.00     0.162 A 
ATOM      4  C3  UNL d   1       0.921   1.641   0.605  0.00  0.00    -0.034 A 
ATOM      5  C4  UNL d   1       1.879   2.544   0.139  0.00  0.00     0.162 A 
ATOM      6  C5  UNL d   1       1.491   3.785  -0.355  0.00  0.00     0.062 A 
ATOM      7  F   UNL d   1       2.418   4.647  -0.800  0.00  0.00    -0.097 F 
ATOM      8  F1  UNL d   1       3.183   2.232   0.161  0.00  0.00    -0.096 F 
ATOM      9  I   UNL d   1       1.497  -0.217   1.345  0.00  0.00    -0.060 I 
ATOM     10  F2  UNL d   1      -1.373   1.157   1.006  0.00  0.00    -0.096 F 
ATOM     11  F3  UNL d   1      -2.107   3.578   0.039  0.00  0.00    -0.097 F 
ATOM     12  F4  UNL d   1      -0.222   5.331  -0.866  0.00  0.00    -0.092 F 
ENDROOT
TORSDOF 0
ENDMDL
