MODEL 1
REMARK minimizedAffinity 9.6631031
REMARK minimizedRMSD -1
REMARK  0 active torsions:
REMARK  status: ('A' for Active; 'I' for Inactive)
ROOT
ATOM      1  C   UNL d   1      -2.133  -3.247  -1.681  0.00  0.00     0.124 A 
ATOM      2  C1  UNL d   1      -1.189  -2.251  -1.890  0.00  0.00     0.062 A 
ATOM      3  C2  UNL d   1       0.162  -2.512  -1.682  0.00  0.00     0.162 A 
ATOM      4  C3  UNL d   1       0.578  -3.776  -1.264  0.00  0.00    -0.034 A 
ATOM      5  C4  UNL d   1      -0.377  -4.773  -1.055  0.00  0.00     0.162 A 
ATOM      6  C5  UNL d   1      -1.726  -4.506  -1.264  0.00  0.00     0.062 A 
ATOM      7  F   UNL d   1      -2.637  -5.470  -1.061  0.00  0.00    -0.097 F 
ATOM      8  F1  UNL d   1      -0.012  -5.999  -0.652  0.00  0.00    -0.096 F 
ATOM      9  I   UNL d   1       2.598  -4.171  -0.952  0.00  0.00    -0.060 I 
ATOM     10  F2  UNL d   1       1.052  -1.531  -1.892  0.00  0.00    -0.096 F 
ATOM     11  F3  UNL d   1      -1.579  -1.033  -2.293  0.00  0.00    -0.097 F 
ATOM     12  F4  UNL d   1      -3.432  -2.992  -1.881  0.00  0.00    -0.092 F 
ENDROOT
TORSDOF 0
ENDMDL
