MODEL 1
REMARK minimizedAffinity 18.3290901
REMARK minimizedRMSD -1
REMARK  0 active torsions:
REMARK  status: ('A' for Active; 'I' for Inactive)
ROOT
ATOM      1  C   UNL d   1       0.586  -2.819  -0.561  0.00  0.00     0.124 A 
ATOM      2  C1  UNL d   1      -0.611  -3.027   0.112  0.00  0.00     0.062 A 
ATOM      3  C2  UNL d   1      -1.824  -2.867  -0.552  0.00  0.00     0.162 A 
ATOM      4  C3  UNL d   1      -1.847  -2.496  -1.896  0.00  0.00    -0.034 A 
ATOM      5  C4  UNL d   1      -0.640  -2.287  -2.566  0.00  0.00     0.162 A 
ATOM      6  C5  UNL d   1       0.570  -2.449  -1.898  0.00  0.00     0.062 A 
ATOM      7  F   UNL d   1       1.724  -2.247  -2.550  0.00  0.00    -0.097 F 
ATOM      8  F1  UNL d   1      -0.626  -1.931  -3.859  0.00  0.00    -0.096 F 
ATOM      9  I   UNL d   1      -3.659  -2.255  -2.891  0.00  0.00    -0.060 I 
ATOM     10  F2  UNL d   1      -2.964  -3.075   0.123  0.00  0.00    -0.096 F 
ATOM     11  F3  UNL d   1      -0.598  -3.384   1.404  0.00  0.00    -0.097 F 
ATOM     12  F4  UNL d   1       1.751  -2.973   0.080  0.00  0.00    -0.092 F 
ENDROOT
TORSDOF 0
ENDMDL
