MODEL 1
REMARK minimizedAffinity 15.0937462
REMARK minimizedRMSD -1
REMARK  0 active torsions:
REMARK  status: ('A' for Active; 'I' for Inactive)
ROOT
ATOM      1  C   UNL d   1       0.852  -1.855   3.361  0.00  0.00     0.124 A 
ATOM      2  C1  UNL d   1       0.957  -0.515   3.710  0.00  0.00     0.062 A 
ATOM      3  C2  UNL d   1       1.102   0.455   2.723  0.00  0.00     0.162 A 
ATOM      4  C3  UNL d   1       1.143   0.090   1.377  0.00  0.00    -0.034 A 
ATOM      5  C4  UNL d   1       1.038  -1.259   1.034  0.00  0.00     0.162 A 
ATOM      6  C5  UNL d   1       0.893  -2.225   2.024  0.00  0.00     0.062 A 
ATOM      7  F   UNL d   1       0.792  -3.519   1.686  0.00  0.00    -0.097 F 
ATOM      8  F1  UNL d   1       1.073  -1.645  -0.250  0.00  0.00    -0.096 F 
ATOM      9  I   UNL d   1       1.361   1.538  -0.102  0.00  0.00    -0.060 I 
ATOM     10  F2  UNL d   1       1.201   1.742   3.088  0.00  0.00    -0.096 F 
ATOM     11  F3  UNL d   1       0.919  -0.155   5.000  0.00  0.00    -0.097 F 
ATOM     12  F4  UNL d   1       0.713  -2.787   4.313  0.00  0.00    -0.092 F 
ENDROOT
TORSDOF 0
ENDMDL
