MODEL 1
REMARK minimizedAffinity 14.499299
REMARK minimizedRMSD -1
REMARK  0 active torsions:
REMARK  status: ('A' for Active; 'I' for Inactive)
ROOT
ATOM      1  C   UNL d   1       1.038  -1.908   3.558  0.00  0.00     0.124 A 
ATOM      2  C1  UNL d   1       0.990  -2.279   2.222  0.00  0.00     0.062 A 
ATOM      3  C2  UNL d   1       1.243  -1.342   1.225  0.00  0.00     0.162 A 
ATOM      4  C3  UNL d   1       1.549  -0.023   1.561  0.00  0.00    -0.034 A 
ATOM      5  C4  UNL d   1       1.595   0.343   2.908  0.00  0.00     0.162 A 
ATOM      6  C5  UNL d   1       1.341  -0.598   3.900  0.00  0.00     0.062 A 
ATOM      7  F   UNL d   1       1.389  -0.237   5.191  0.00  0.00    -0.097 F 
ATOM      8  F1  UNL d   1       1.886   1.603   3.266  0.00  0.00    -0.096 F 
ATOM      9  I   UNL d   1       1.929   1.383   0.074  0.00  0.00    -0.060 I 
ATOM     10  F2  UNL d   1       1.189  -1.728  -0.058  0.00  0.00    -0.096 F 
ATOM     11  F3  UNL d   1       0.697  -3.545   1.889  0.00  0.00    -0.097 F 
ATOM     12  F4  UNL d   1       0.793  -2.812   4.515  0.00  0.00    -0.092 F 
ENDROOT
TORSDOF 0
ENDMDL
