MODEL 1
REMARK minimizedAffinity 0.472823232
REMARK minimizedRMSD -1
REMARK  0 active torsions:
REMARK  status: ('A' for Active; 'I' for Inactive)
ROOT
ATOM      1  C   UNL d   1       1.861  -0.582   4.737  0.00  0.00     0.124 A 
ATOM      2  C1  UNL d   1       1.116  -1.474   3.978  0.00  0.00     0.062 A 
ATOM      3  C2  UNL d   1       0.776  -1.161   2.665  0.00  0.00     0.162 A 
ATOM      4  C3  UNL d   1       1.181   0.049   2.102  0.00  0.00    -0.034 A 
ATOM      5  C4  UNL d   1       1.930   0.941   2.872  0.00  0.00     0.162 A 
ATOM      6  C5  UNL d   1       2.267   0.624   4.183  0.00  0.00     0.062 A 
ATOM      7  F   UNL d   1       2.988   1.486   4.915  0.00  0.00    -0.097 F 
ATOM      8  F1  UNL d   1       2.336   2.113   2.361  0.00  0.00    -0.096 F 
ATOM      9  I   UNL d   1       0.674   0.520   0.139  0.00  0.00    -0.060 I 
ATOM     10  F2  UNL d   1       0.055  -2.042   1.955  0.00  0.00    -0.096 F 
ATOM     11  F3  UNL d   1       0.722  -2.639   4.510  0.00  0.00    -0.097 F 
ATOM     12  F4  UNL d   1       2.187  -0.885   6.000  0.00  0.00    -0.092 F 
ENDROOT
TORSDOF 0
ENDMDL
