MODEL 1
REMARK minimizedAffinity 0.432740599
REMARK minimizedRMSD -1
REMARK  0 active torsions:
REMARK  status: ('A' for Active; 'I' for Inactive)
ROOT
ATOM      1  C   UNL d   1       0.987   0.913   0.059  0.00  0.00     0.124 A 
ATOM      2  C1  UNL d   1       1.900   1.454   0.953  0.00  0.00     0.062 A 
ATOM      3  C2  UNL d   1       2.180   0.802   2.150  0.00  0.00     0.162 A 
ATOM      4  C3  UNL d   1       1.546  -0.402   2.460  0.00  0.00    -0.034 A 
ATOM      5  C4  UNL d   1       0.628  -0.940   1.557  0.00  0.00     0.162 A 
ATOM      6  C5  UNL d   1       0.352  -0.284   0.362  0.00  0.00     0.062 A 
ATOM      7  F   UNL d   1      -0.531  -0.808  -0.500  0.00  0.00    -0.097 F 
ATOM      8  F1  UNL d   1       0.000  -2.095   1.824  0.00  0.00    -0.096 F 
ATOM      9  I   UNL d   1       1.961  -1.381   4.249  0.00  0.00    -0.060 I 
ATOM     10  F2  UNL d   1       3.067   1.348   2.995  0.00  0.00    -0.096 F 
ATOM     11  F3  UNL d   1       2.514   2.611   0.663  0.00  0.00    -0.097 F 
ATOM     12  F4  UNL d   1       0.719   1.543  -1.091  0.00  0.00    -0.092 F 
ENDROOT
TORSDOF 0
ENDMDL
