MODEL 1
REMARK minimizedAffinity 13.6802826
REMARK minimizedRMSD -1
REMARK  0 active torsions:
REMARK  status: ('A' for Active; 'I' for Inactive)
ROOT
ATOM      1  C   UNL d   1       4.476   1.881  -4.265  0.00  0.00     0.124 A 
ATOM      2  C1  UNL d   1       3.366   1.339  -4.897  0.00  0.00     0.062 A 
ATOM      3  C2  UNL d   1       2.367   2.171  -5.393  0.00  0.00     0.162 A 
ATOM      4  C3  UNL d   1       2.473   3.556  -5.260  0.00  0.00    -0.034 A 
ATOM      5  C4  UNL d   1       3.592   4.094  -4.621  0.00  0.00     0.162 A 
ATOM      6  C5  UNL d   1       4.588   3.257  -4.127  0.00  0.00     0.062 A 
ATOM      7  F   UNL d   1       5.660   3.783  -3.517  0.00  0.00    -0.097 F 
ATOM      8  F1  UNL d   1       3.727   5.420  -4.476  0.00  0.00    -0.096 F 
ATOM      9  I   UNL d   1       0.982   4.804  -6.000  0.00  0.00    -0.060 I 
ATOM     10  F2  UNL d   1       1.305   1.620  -6.000  0.00  0.00    -0.096 F 
ATOM     11  F3  UNL d   1       3.254   0.009  -5.030  0.00  0.00    -0.097 F 
ATOM     12  F4  UNL d   1       5.435   1.078  -3.788  0.00  0.00    -0.092 F 
ENDROOT
TORSDOF 0
ENDMDL
