MODEL 1
REMARK minimizedAffinity 14.0641651
REMARK minimizedRMSD -1
REMARK  0 active torsions:
REMARK  status: ('A' for Active; 'I' for Inactive)
ROOT
ATOM      1  C   UNL d   1      -1.064  -2.404   1.892  0.00  0.00     0.124 A 
ATOM      2  C1  UNL d   1      -0.842  -3.761   1.703  0.00  0.00     0.062 A 
ATOM      3  C2  UNL d   1      -1.499  -4.695   2.499  0.00  0.00     0.162 A 
ATOM      4  C3  UNL d   1      -2.385  -4.276   3.491  0.00  0.00    -0.034 A 
ATOM      5  C4  UNL d   1      -2.602  -2.909   3.676  0.00  0.00     0.162 A 
ATOM      6  C5  UNL d   1      -1.943  -1.979   2.878  0.00  0.00     0.062 A 
ATOM      7  F   UNL d   1      -2.159  -0.669   3.063  0.00  0.00    -0.097 F 
ATOM      8  F1  UNL d   1      -3.447  -2.471   4.621  0.00  0.00    -0.096 F 
ATOM      9  I   UNL d   1      -3.369  -5.670   4.683  0.00  0.00    -0.060 I 
ATOM     10  F2  UNL d   1      -1.265  -6.000   2.293  0.00  0.00    -0.096 F 
ATOM     11  F3  UNL d   1       0.008  -4.173   0.751  0.00  0.00    -0.097 F 
ATOM     12  F4  UNL d   1      -0.430  -1.507   1.126  0.00  0.00    -0.092 F 
ENDROOT
TORSDOF 0
ENDMDL
