MODEL 1
REMARK minimizedAffinity 13.6914082
REMARK minimizedRMSD -1
REMARK  0 active torsions:
REMARK  status: ('A' for Active; 'I' for Inactive)
ROOT
ATOM      1  C   UNL d   1       2.384   2.040  -5.738  0.00  0.00     0.124 A 
ATOM      2  C1  UNL d   1       2.090   3.397  -5.736  0.00  0.00     0.062 A 
ATOM      3  C2  UNL d   1       3.115   4.335  -5.811  0.00  0.00     0.162 A 
ATOM      4  C3  UNL d   1       4.445   3.921  -5.889  0.00  0.00    -0.034 A 
ATOM      5  C4  UNL d   1       4.733   2.555  -5.889  0.00  0.00     0.162 A 
ATOM      6  C5  UNL d   1       3.705   1.621  -5.814  0.00  0.00     0.062 A 
ATOM      7  F   UNL d   1       3.991   0.310  -5.816  0.00  0.00    -0.097 F 
ATOM      8  F1  UNL d   1       6.000   2.121  -5.963  0.00  0.00    -0.096 F 
ATOM      9  I   UNL d   1       5.980   5.321  -6.000  0.00  0.00    -0.060 I 
ATOM     10  F2  UNL d   1       2.802   5.640  -5.807  0.00  0.00    -0.096 F 
ATOM     11  F3  UNL d   1       0.815   3.805  -5.662  0.00  0.00    -0.097 F 
ATOM     12  F4  UNL d   1       1.396   1.139  -5.666  0.00  0.00    -0.092 F 
ENDROOT
TORSDOF 0
ENDMDL
