MODEL 1
REMARK minimizedAffinity 11.3442688
REMARK minimizedRMSD -1
REMARK  0 active torsions:
REMARK  status: ('A' for Active; 'I' for Inactive)
ROOT
ATOM      1  C   UNL d   1       2.518   4.836  -5.834  0.00  0.00     0.124 A 
ATOM      2  C1  UNL d   1       3.899   4.839  -5.697  0.00  0.00     0.062 A 
ATOM      3  C2  UNL d   1       4.589   3.641  -5.536  0.00  0.00     0.162 A 
ATOM      4  C3  UNL d   1       3.899   2.429  -5.513  0.00  0.00    -0.034 A 
ATOM      5  C4  UNL d   1       2.510   2.434  -5.651  0.00  0.00     0.162 A 
ATOM      6  C5  UNL d   1       1.825   3.634  -5.811  0.00  0.00     0.062 A 
ATOM      7  F   UNL d   1       0.490   3.629  -5.944  0.00  0.00    -0.097 F 
ATOM      8  F1  UNL d   1       1.815   1.287  -5.633  0.00  0.00    -0.096 F 
ATOM      9  I   UNL d   1       4.927   0.636  -5.273  0.00  0.00    -0.060 I 
ATOM     10  F2  UNL d   1       5.924   3.674  -5.406  0.00  0.00    -0.096 F 
ATOM     11  F3  UNL d   1       4.570   5.999  -5.718  0.00  0.00    -0.097 F 
ATOM     12  F4  UNL d   1       1.856   5.990  -5.988  0.00  0.00    -0.092 F 
ENDROOT
TORSDOF 0
ENDMDL
