MODEL 1
REMARK minimizedAffinity 16.160305
REMARK minimizedRMSD -1
REMARK  0 active torsions:
REMARK  status: ('A' for Active; 'I' for Inactive)
ROOT
ATOM      1  C   UNL d   1       4.777   0.273   1.492  0.00  0.00     0.124 A 
ATOM      2  C1  UNL d   1       3.680   0.838   0.856  0.00  0.00     0.062 A 
ATOM      3  C2  UNL d   1       2.408   0.705   1.406  0.00  0.00     0.162 A 
ATOM      4  C3  UNL d   1       2.226   0.005   2.598  0.00  0.00    -0.034 A 
ATOM      5  C4  UNL d   1       3.335  -0.561   3.231  0.00  0.00     0.162 A 
ATOM      6  C5  UNL d   1       4.604  -0.425   2.678  0.00  0.00     0.062 A 
ATOM      7  F   UNL d   1       5.663  -0.972   3.293  0.00  0.00    -0.097 F 
ATOM      8  F1  UNL d   1       3.196  -1.241   4.379  0.00  0.00    -0.096 F 
ATOM      9  I   UNL d   1       0.326  -0.197   3.423  0.00  0.00    -0.060 I 
ATOM     10  F2  UNL d   1       1.366   1.261   0.770  0.00  0.00    -0.096 F 
ATOM     11  F3  UNL d   1       3.845   1.513  -0.291  0.00  0.00    -0.097 F 
ATOM     12  F4  UNL d   1       6.000   0.402   0.960  0.00  0.00    -0.092 F 
ENDROOT
TORSDOF 0
ENDMDL
