MODEL 1
REMARK minimizedAffinity 3.14591527
REMARK minimizedRMSD -1
REMARK  0 active torsions:
REMARK  status: ('A' for Active; 'I' for Inactive)
ROOT
ATOM      1  C   UNL d   1       4.428   2.473  -5.227  0.00  0.00     0.124 A 
ATOM      2  C1  UNL d   1       3.106   2.056  -5.167  0.00  0.00     0.062 A 
ATOM      3  C2  UNL d   1       2.075   2.965  -5.387  0.00  0.00     0.162 A 
ATOM      4  C3  UNL d   1       2.362   4.300  -5.670  0.00  0.00    -0.034 A 
ATOM      5  C4  UNL d   1       3.695   4.712  -5.728  0.00  0.00     0.162 A 
ATOM      6  C5  UNL d   1       4.722   3.800  -5.507  0.00  0.00     0.062 A 
ATOM      7  F   UNL d   1       5.999   4.204  -5.565  0.00  0.00    -0.097 F 
ATOM      8  F1  UNL d   1       4.007   5.988  -5.997  0.00  0.00    -0.096 F 
ATOM      9  I   UNL d   1       0.824   5.662  -6.000  0.00  0.00    -0.060 I 
ATOM     10  F2  UNL d   1       0.806   2.534  -5.323  0.00  0.00    -0.096 F 
ATOM     11  F3  UNL d   1       2.820   0.774  -4.896  0.00  0.00    -0.097 F 
ATOM     12  F4  UNL d   1       5.418   1.596  -5.014  0.00  0.00    -0.092 F 
ENDROOT
TORSDOF 0
ENDMDL
