MODEL 1
REMARK minimizedAffinity 6.34437704
REMARK minimizedRMSD -1
REMARK  0 active torsions:
REMARK  status: ('A' for Active; 'I' for Inactive)
ROOT
ATOM      1  C   UNL d   1       4.514   2.420  -5.414  0.00  0.00     0.124 A 
ATOM      2  C1  UNL d   1       3.223   1.949  -5.608  0.00  0.00     0.062 A 
ATOM      3  C2  UNL d   1       2.169   2.842  -5.775  0.00  0.00     0.162 A 
ATOM      4  C3  UNL d   1       2.401   4.218  -5.750  0.00  0.00    -0.034 A 
ATOM      5  C4  UNL d   1       3.703   4.684  -5.554  0.00  0.00     0.162 A 
ATOM      6  C5  UNL d   1       4.752   3.787  -5.387  0.00  0.00     0.062 A 
ATOM      7  F   UNL d   1       5.999   4.244  -5.200  0.00  0.00    -0.097 F 
ATOM      8  F1  UNL d   1       3.962   6.000  -5.524  0.00  0.00    -0.096 F 
ATOM      9  I   UNL d   1       0.828   5.557  -5.999  0.00  0.00    -0.060 I 
ATOM     10  F2  UNL d   1       0.931   2.359  -5.960  0.00  0.00    -0.096 F 
ATOM     11  F3  UNL d   1       2.989   0.629  -5.633  0.00  0.00    -0.097 F 
ATOM     12  F4  UNL d   1       5.526   1.558  -5.253  0.00  0.00    -0.092 F 
ENDROOT
TORSDOF 0
ENDMDL
