MODEL 1
REMARK minimizedAffinity 6.67775154
REMARK minimizedRMSD -1
REMARK  0 active torsions:
REMARK  status: ('A' for Active; 'I' for Inactive)
ROOT
ATOM      1  C   UNL d   1       2.407   2.377  -5.518  0.00  0.00     0.124 A 
ATOM      2  C1  UNL d   1       1.968   3.684  -5.677  0.00  0.00     0.062 A 
ATOM      3  C2  UNL d   1       2.887   4.720  -5.815  0.00  0.00     0.162 A 
ATOM      4  C3  UNL d   1       4.256   4.453  -5.794  0.00  0.00    -0.034 A 
ATOM      5  C4  UNL d   1       4.690   3.136  -5.632  0.00  0.00     0.162 A 
ATOM      6  C5  UNL d   1       3.767   2.104  -5.495  0.00  0.00     0.062 A 
ATOM      7  F   UNL d   1       4.193   0.842  -5.341  0.00  0.00    -0.097 F 
ATOM      8  F1  UNL d   1       5.999   2.844  -5.607  0.00  0.00    -0.096 F 
ATOM      9  I   UNL d   1       5.635   5.998  -5.999  0.00  0.00    -0.060 I 
ATOM     10  F2  UNL d   1       2.434   5.973  -5.968  0.00  0.00    -0.096 F 
ATOM     11  F3  UNL d   1       0.654   3.950  -5.699  0.00  0.00    -0.097 F 
ATOM     12  F4  UNL d   1       1.520   1.383  -5.385  0.00  0.00    -0.092 F 
ENDROOT
TORSDOF 0
ENDMDL
