MODEL 1
REMARK minimizedAffinity 4.08287668
REMARK minimizedRMSD -1
REMARK  0 active torsions:
REMARK  status: ('A' for Active; 'I' for Inactive)
ROOT
ATOM      1  C   UNL d   1       4.378   2.435  -5.429  0.00  0.00     0.124 A 
ATOM      2  C1  UNL d   1       3.043   2.058  -5.377  0.00  0.00     0.062 A 
ATOM      3  C2  UNL d   1       2.040   3.009  -5.534  0.00  0.00     0.162 A 
ATOM      4  C3  UNL d   1       2.367   4.349  -5.747  0.00  0.00    -0.034 A 
ATOM      5  C4  UNL d   1       3.712   4.721  -5.797  0.00  0.00     0.162 A 
ATOM      6  C5  UNL d   1       4.711   3.766  -5.639  0.00  0.00     0.062 A 
ATOM      7  F   UNL d   1       6.000   4.133  -5.690  0.00  0.00    -0.097 F 
ATOM      8  F1  UNL d   1       4.062   6.000  -5.999  0.00  0.00    -0.096 F 
ATOM      9  I   UNL d   1       0.870   5.775  -5.982  0.00  0.00    -0.060 I 
ATOM     10  F2  UNL d   1       0.759   2.616  -5.479  0.00  0.00    -0.096 F 
ATOM     11  F3  UNL d   1       2.719   0.773  -5.174  0.00  0.00    -0.097 F 
ATOM     12  F4  UNL d   1       5.341   1.518  -5.277  0.00  0.00    -0.092 F 
ENDROOT
TORSDOF 0
ENDMDL
