MODEL 1
REMARK minimizedAffinity 2.28845358
REMARK minimizedRMSD -1
REMARK  0 active torsions:
REMARK  status: ('A' for Active; 'I' for Inactive)
ROOT
ATOM      1  C   UNL d   1       4.329   2.304  -5.930  0.00  0.00     0.124 A 
ATOM      2  C1  UNL d   1       2.986   1.955  -5.957  0.00  0.00     0.062 A 
ATOM      3  C2  UNL d   1       2.006   2.944  -5.971  0.00  0.00     0.162 A 
ATOM      4  C3  UNL d   1       2.365   4.291  -5.958  0.00  0.00    -0.034 A 
ATOM      5  C4  UNL d   1       3.718   4.635  -5.930  0.00  0.00     0.162 A 
ATOM      6  C5  UNL d   1       4.694   3.643  -5.916  0.00  0.00     0.062 A 
ATOM      7  F   UNL d   1       5.991   3.982  -5.890  0.00  0.00    -0.097 F 
ATOM      8  F1  UNL d   1       4.099   5.921  -5.917  0.00  0.00    -0.096 F 
ATOM      9  I   UNL d   1       0.903   5.772  -5.978  0.00  0.00    -0.060 I 
ATOM     10  F2  UNL d   1       0.716   2.577  -5.997  0.00  0.00    -0.096 F 
ATOM     11  F3  UNL d   1       2.630   0.662  -5.970  0.00  0.00    -0.097 F 
ATOM     12  F4  UNL d   1       5.269   1.351  -5.916  0.00  0.00    -0.092 F 
ENDROOT
TORSDOF 0
ENDMDL
