MODEL 1
REMARK minimizedAffinity 14.1633368
REMARK minimizedRMSD -1
REMARK  0 active torsions:
REMARK  status: ('A' for Active; 'I' for Inactive)
ROOT
ATOM      1  C   UNL d   1       4.570   2.352  -5.713  0.00  0.00     0.124 A 
ATOM      2  C1  UNL d   1       3.300   1.797  -5.776  0.00  0.00     0.062 A 
ATOM      3  C2  UNL d   1       2.179   2.619  -5.851  0.00  0.00     0.162 A 
ATOM      4  C3  UNL d   1       2.324   4.006  -5.865  0.00  0.00    -0.034 A 
ATOM      5  C4  UNL d   1       3.605   4.558  -5.801  0.00  0.00     0.162 A 
ATOM      6  C5  UNL d   1       4.722   3.732  -5.725  0.00  0.00     0.062 A 
ATOM      7  F   UNL d   1       5.948   4.270  -5.665  0.00  0.00    -0.097 F 
ATOM      8  F1  UNL d   1       3.780   5.887  -5.812  0.00  0.00    -0.096 F 
ATOM      9  I   UNL d   1       0.651   5.239  -5.978  0.00  0.00    -0.060 I 
ATOM     10  F2  UNL d   1       0.964   2.055  -5.911  0.00  0.00    -0.096 F 
ATOM     11  F3  UNL d   1       3.151   0.464  -5.763  0.00  0.00    -0.097 F 
ATOM     12  F4  UNL d   1       5.647   1.559  -5.639  0.00  0.00    -0.092 F 
ENDROOT
TORSDOF 0
ENDMDL
