MODEL 1
REMARK minimizedAffinity 7.37890863
REMARK minimizedRMSD -1
REMARK  0 active torsions:
REMARK  status: ('A' for Active; 'I' for Inactive)
ROOT
ATOM      1  C   UNL d   1       4.871   1.140   1.041  0.00  0.00     0.124 A 
ATOM      2  C1  UNL d   1       4.758   0.037   1.875  0.00  0.00     0.062 A 
ATOM      3  C2  UNL d   1       3.586  -0.180   2.594  0.00  0.00     0.162 A 
ATOM      4  C3  UNL d   1       2.516   0.707   2.481  0.00  0.00    -0.034 A 
ATOM      5  C4  UNL d   1       2.637   1.815   1.641  0.00  0.00     0.162 A 
ATOM      6  C5  UNL d   1       3.810   2.028   0.924  0.00  0.00     0.062 A 
ATOM      7  F   UNL d   1       3.917   3.095   0.119  0.00  0.00    -0.097 F 
ATOM      8  F1  UNL d   1       1.628   2.689   1.509  0.00  0.00    -0.096 F 
ATOM      9  I   UNL d   1       0.763   0.386   3.555  0.00  0.00    -0.060 I 
ATOM     10  F2  UNL d   1       3.505  -1.255   3.393  0.00  0.00    -0.096 F 
ATOM     11  F3  UNL d   1       5.781  -0.822   1.991  0.00  0.00    -0.097 F 
ATOM     12  F4  UNL d   1       6.000   1.348   0.351  0.00  0.00    -0.092 F 
ENDROOT
TORSDOF 0
ENDMDL
