MODEL 1
REMARK minimizedAffinity 2.90386391
REMARK minimizedRMSD -1
REMARK  0 active torsions:
REMARK  status: ('A' for Active; 'I' for Inactive)
ROOT
ATOM      1  C   UNL d   1       4.432   2.412  -5.169  0.00  0.00     0.124 A 
ATOM      2  C1  UNL d   1       4.676   3.772  -5.038  0.00  0.00     0.062 A 
ATOM      3  C2  UNL d   1       3.637   4.687  -5.187  0.00  0.00     0.162 A 
ATOM      4  C3  UNL d   1       2.344   4.244  -5.466  0.00  0.00    -0.034 A 
ATOM      5  C4  UNL d   1       2.107   2.875  -5.597  0.00  0.00     0.162 A 
ATOM      6  C5  UNL d   1       3.149   1.964  -5.448  0.00  0.00     0.062 A 
ATOM      7  F   UNL d   1       2.911   0.651  -5.575  0.00  0.00    -0.097 F 
ATOM      8  F1  UNL d   1       0.876   2.415  -5.866  0.00  0.00    -0.096 F 
ATOM      9  I   UNL d   1       0.789   5.609  -5.689  0.00  0.00    -0.060 I 
ATOM     10  F2  UNL d   1       3.902   5.995  -5.055  0.00  0.00    -0.096 F 
ATOM     11  F3  UNL d   1       5.915   4.207  -4.769  0.00  0.00    -0.097 F 
ATOM     12  F4  UNL d   1       5.434   1.534  -5.027  0.00  0.00    -0.092 F 
ENDROOT
TORSDOF 0
ENDMDL
