MODEL 1
REMARK minimizedAffinity 5.88735294
REMARK minimizedRMSD -1
REMARK  0 active torsions:
REMARK  status: ('A' for Active; 'I' for Inactive)
ROOT
ATOM      1  C   UNL d   1       2.407   2.274  -5.966  0.00  0.00     0.124 A 
ATOM      2  C1  UNL d   1       3.769   2.003  -5.962  0.00  0.00     0.062 A 
ATOM      3  C2  UNL d   1       4.690   3.045  -5.945  0.00  0.00     0.162 A 
ATOM      4  C3  UNL d   1       4.254   4.370  -5.931  0.00  0.00    -0.034 A 
ATOM      5  C4  UNL d   1       2.884   4.636  -5.936  0.00  0.00     0.162 A 
ATOM      6  C5  UNL d   1       1.966   3.590  -5.952  0.00  0.00     0.062 A 
ATOM      7  F   UNL d   1       0.652   3.854  -5.956  0.00  0.00    -0.097 F 
ATOM      8  F1  UNL d   1       2.430   5.898  -5.922  0.00  0.00    -0.096 F 
ATOM      9  I   UNL d   1       5.629   5.932  -5.905  0.00  0.00    -0.060 I 
ATOM     10  F2  UNL d   1       6.000   2.754  -5.941  0.00  0.00    -0.096 F 
ATOM     11  F3  UNL d   1       4.197   0.732  -5.975  0.00  0.00    -0.097 F 
ATOM     12  F4  UNL d   1       1.523   1.269  -5.983  0.00  0.00    -0.092 F 
ENDROOT
TORSDOF 0
ENDMDL
