MODEL 1
REMARK minimizedAffinity 9.54957008
REMARK minimizedRMSD -1
REMARK  0 active torsions:
REMARK  status: ('A' for Active; 'I' for Inactive)
ROOT
ATOM      1  C   UNL d   1       4.558   2.450  -5.643  0.00  0.00     0.124 A 
ATOM      2  C1  UNL d   1       4.730   3.828  -5.615  0.00  0.00     0.062 A 
ATOM      3  C2  UNL d   1       3.628   4.672  -5.717  0.00  0.00     0.162 A 
ATOM      4  C3  UNL d   1       2.344   4.142  -5.847  0.00  0.00    -0.034 A 
ATOM      5  C4  UNL d   1       2.180   2.756  -5.875  0.00  0.00     0.162 A 
ATOM      6  C5  UNL d   1       3.284   1.916  -5.773  0.00  0.00     0.062 A 
ATOM      7  F   UNL d   1       3.117   0.586  -5.800  0.00  0.00    -0.097 F 
ATOM      8  F1  UNL d   1       0.960   2.212  -5.999  0.00  0.00    -0.096 F 
ATOM      9  I   UNL d   1       0.694   5.401  -6.000  0.00  0.00    -0.060 I 
ATOM     10  F2  UNL d   1       3.823   5.999  -5.688  0.00  0.00    -0.096 F 
ATOM     11  F3  UNL d   1       5.960   4.347  -5.491  0.00  0.00    -0.097 F 
ATOM     12  F4  UNL d   1       5.620   1.640  -5.546  0.00  0.00    -0.092 F 
ENDROOT
TORSDOF 0
ENDMDL
