MODEL 1
REMARK minimizedAffinity 22.5709763
REMARK minimizedRMSD -1
REMARK  0 active torsions:
REMARK  status: ('A' for Active; 'I' for Inactive)
ROOT
ATOM      1  C   UNL d   1      -1.790  -3.435  -5.833  0.00  0.00     0.124 A 
ATOM      2  C1  UNL d   1      -1.011  -2.289  -5.750  0.00  0.00     0.062 A 
ATOM      3  C2  UNL d   1       0.378  -2.385  -5.751  0.00  0.00     0.162 A 
ATOM      4  C3  UNL d   1       0.997  -3.633  -5.836  0.00  0.00    -0.034 A 
ATOM      5  C4  UNL d   1       0.206  -4.780  -5.917  0.00  0.00     0.162 A 
ATOM      6  C5  UNL d   1      -1.181  -4.679  -5.916  0.00  0.00     0.062 A 
ATOM      7  F   UNL d   1      -1.932  -5.787  -5.996  0.00  0.00    -0.097 F 
ATOM      8  F1  UNL d   1       0.769  -5.995  -6.000  0.00  0.00    -0.096 F 
ATOM      9  I   UNL d   1       3.072  -3.781  -5.837  0.00  0.00    -0.060 I 
ATOM     10  F2  UNL d   1       1.106  -1.262  -5.670  0.00  0.00    -0.096 F 
ATOM     11  F3  UNL d   1      -1.597  -1.086  -5.668  0.00  0.00    -0.097 F 
ATOM     12  F4  UNL d   1      -3.126  -3.339  -5.830  0.00  0.00    -0.092 F 
ENDROOT
TORSDOF 0
ENDMDL
