MODEL 1
REMARK minimizedAffinity -5.14260197
REMARK minimizedRMSD -1
REMARK  1 active torsions:
REMARK  status: ('A' for Active; 'I' for Inactive)
REMARK    1  A    between atoms: N_2  and  C1_3 
ROOT
ATOM      1  C1  UNL d   1      -1.216   0.139   0.429  0.00  0.00     0.143 A 
ATOM      2  C2  UNL d   1      -0.709  -1.165   0.441  0.00  0.00    -0.057 A 
ATOM      3  C3  UNL d   1      -1.338  -2.181   1.171  0.00  0.00     0.033 A 
ATOM      4  C4  UNL d   1      -2.471  -1.904   1.927  0.00  0.00    -0.042 A 
ATOM      5  C5  UNL d   1      -2.978  -0.609   1.950  0.00  0.00     0.033 A 
ATOM      6  C6  UNL d   1      -2.350   0.400   1.214  0.00  0.00    -0.057 A 
ENDROOT
BRANCH   1   7
ATOM      7  N   UNL d   1      -0.580   1.215  -0.196  0.00  0.00    -0.732 N 
ATOM      8  C   UNL d   1       0.850   1.202  -0.412  0.00  0.00     0.284 C 
ATOM      9  H3  UNL d   1      -1.116   1.579  -0.981  0.00  0.00     0.395 HD
ENDBRANCH   1   7
TORSDOF 1
ENDMDL
