MODEL 1
REMARK minimizedAffinity -4.39030218
REMARK minimizedRMSD -1
REMARK  1 active torsions:
REMARK  status: ('A' for Active; 'I' for Inactive)
REMARK    1  A    between atoms: N_2  and  C1_3 
ROOT
ATOM      1  C1  UNL d   1      -0.635  -0.349   0.590  0.00  0.00     0.143 A 
ATOM      2  C2  UNL d   1      -0.149  -1.640   0.827  0.00  0.00    -0.057 A 
ATOM      3  C3  UNL d   1      -0.885  -2.566   1.576  0.00  0.00     0.033 A 
ATOM      4  C4  UNL d   1      -2.109  -2.207   2.129  0.00  0.00    -0.042 A 
ATOM      5  C5  UNL d   1      -2.600  -0.922   1.928  0.00  0.00     0.033 A 
ATOM      6  C6  UNL d   1      -1.864  -0.003   1.173  0.00  0.00    -0.057 A 
ENDROOT
BRANCH   1   7
ATOM      7  N   UNL d   1       0.094   0.648  -0.063  0.00  0.00    -0.732 N 
ATOM      8  C   UNL d   1       0.109   0.722  -1.508  0.00  0.00     0.284 C 
ATOM      9  H3  UNL d   1       0.016   1.551   0.399  0.00  0.00     0.395 HD
ENDBRANCH   1   7
TORSDOF 1
ENDMDL
