MODEL 1
REMARK minimizedAffinity -5.35730028
REMARK minimizedRMSD -1
REMARK  1 active torsions:
REMARK  status: ('A' for Active; 'I' for Inactive)
REMARK    1  A    between atoms: N_2  and  C1_3 
ROOT
ATOM      1  C1  UNL d   1      -0.767  -0.500   1.074  0.00  0.00     0.143 A 
ATOM      2  C2  UNL d   1      -1.838   0.046   1.790  0.00  0.00    -0.057 A 
ATOM      3  C3  UNL d   1      -2.909  -0.750   2.214  0.00  0.00     0.033 A 
ATOM      4  C4  UNL d   1      -2.942  -2.106   1.902  0.00  0.00    -0.042 A 
ATOM      5  C5  UNL d   1      -1.900  -2.664   1.170  0.00  0.00     0.033 A 
ATOM      6  C6  UNL d   1      -0.830  -1.865   0.756  0.00  0.00    -0.057 A 
ENDROOT
BRANCH   1   7
ATOM      7  N   UNL d   1       0.278   0.258   0.541  0.00  0.00    -0.732 N 
ATOM      8  C   UNL d   1       0.273   0.642  -0.854  0.00  0.00     0.284 C 
ATOM      9  H3  UNL d   1       0.587   0.993   1.173  0.00  0.00     0.395 HD
ENDBRANCH   1   7
TORSDOF 1
ENDMDL
