MODEL 1
REMARK minimizedAffinity -2.64915204
REMARK minimizedRMSD -1
REMARK  1 active torsions:
REMARK  status: ('A' for Active; 'I' for Inactive)
REMARK    1  A    between atoms: N_2  and  C1_3 
ROOT
ATOM      1  C1  UNL d   1      -1.513  -0.402   1.171  0.00  0.00     0.143 A 
ATOM      2  C2  UNL d   1      -0.803   0.330   0.212  0.00  0.00    -0.057 A 
ATOM      3  C3  UNL d   1       0.398  -0.150  -0.324  0.00  0.00     0.033 A 
ATOM      4  C4  UNL d   1       0.927  -1.360   0.111  0.00  0.00    -0.042 A 
ATOM      5  C5  UNL d   1       0.252  -2.092   1.081  0.00  0.00     0.033 A 
ATOM      6  C6  UNL d   1      -0.950  -1.612   1.608  0.00  0.00    -0.057 A 
ENDROOT
BRANCH   1   7
ATOM      7  N   UNL d   1      -2.661   0.066   1.814  0.00  0.00    -0.732 N 
ATOM      8  C   UNL d   1      -3.023  -0.425   3.126  0.00  0.00     0.284 C 
ATOM      9  H3  UNL d   1      -2.791   1.068   1.695  0.00  0.00     0.395 HD
ENDBRANCH   1   7
TORSDOF 1
ENDMDL
