MODEL 1
REMARK minimizedAffinity -5.34271765
REMARK minimizedRMSD -1
REMARK  1 active torsions:
REMARK  status: ('A' for Active; 'I' for Inactive)
REMARK    1  A    between atoms: N_2  and  C1_3 
ROOT
ATOM      1  C1  UNL d   1      -0.381   0.194   0.380  0.00  0.00     0.143 A 
ATOM      2  C2  UNL d   1       0.010  -1.145   0.280  0.00  0.00    -0.057 A 
ATOM      3  C3  UNL d   1      -0.797  -2.176   0.776  0.00  0.00     0.033 A 
ATOM      4  C4  UNL d   1      -2.001  -1.882   1.408  0.00  0.00    -0.042 A 
ATOM      5  C5  UNL d   1      -2.398  -0.557   1.541  0.00  0.00     0.033 A 
ATOM      6  C6  UNL d   1      -1.590   0.468   1.038  0.00  0.00    -0.057 A 
ENDROOT
BRANCH   1   7
ATOM      7  N   UNL d   1       0.423   1.270  -0.004  0.00  0.00    -0.732 N 
ATOM      8  C   UNL d   1       0.509   1.667  -1.393  0.00  0.00     0.284 C 
ATOM      9  H3  UNL d   1       0.368   2.049   0.648  0.00  0.00     0.395 HD
ENDBRANCH   1   7
TORSDOF 1
ENDMDL
