MODEL 1
REMARK minimizedAffinity -4.23471928
REMARK minimizedRMSD -1
REMARK  1 active torsions:
REMARK  status: ('A' for Active; 'I' for Inactive)
REMARK    1  A    between atoms: N_2  and  C1_3 
ROOT
ATOM      1  C1  UNL d   1      -1.450  -0.276   1.297  0.00  0.00     0.143 A 
ATOM      2  C2  UNL d   1      -0.549   0.439   0.501  0.00  0.00    -0.057 A 
ATOM      3  C3  UNL d   1       0.567  -0.183  -0.071  0.00  0.00     0.033 A 
ATOM      4  C4  UNL d   1       0.819  -1.530   0.168  0.00  0.00    -0.042 A 
ATOM      5  C5  UNL d   1      -0.049  -2.255   0.977  0.00  0.00     0.033 A 
ATOM      6  C6  UNL d   1      -1.166  -1.630   1.540  0.00  0.00    -0.057 A 
ENDROOT
BRANCH   1   7
ATOM      7  N   UNL d   1      -2.523   0.308   1.974  0.00  0.00    -0.732 N 
ATOM      8  C   UNL d   1      -2.862  -0.109   3.318  0.00  0.00     0.284 C 
ATOM      9  H3  UNL d   1      -2.576   1.313   1.825  0.00  0.00     0.395 HD
ENDBRANCH   1   7
TORSDOF 1
ENDMDL
