MODEL 1
REMARK minimizedAffinity -3.20411992
REMARK minimizedRMSD -1
REMARK  1 active torsions:
REMARK  status: ('A' for Active; 'I' for Inactive)
REMARK    1  A    between atoms: N_2  and  C1_3 
ROOT
ATOM      1  C1  UNL d   1      -0.350   0.074   0.570  0.00  0.00     0.143 A 
ATOM      2  C2  UNL d   1       0.257  -1.186   0.543  0.00  0.00    -0.057 A 
ATOM      3  C3  UNL d   1      -0.334  -2.290   1.169  0.00  0.00     0.033 A 
ATOM      4  C4  UNL d   1      -1.533  -2.147   1.859  0.00  0.00    -0.042 A 
ATOM      5  C5  UNL d   1      -2.142  -0.899   1.920  0.00  0.00     0.033 A 
ATOM      6  C6  UNL d   1      -1.550   0.199   1.288  0.00  0.00    -0.057 A 
ENDROOT
BRANCH   1   7
ATOM      7  N   UNL d   1       0.236   1.231   0.052  0.00  0.00    -0.732 N 
ATOM      8  C   UNL d   1       0.240   1.481  -1.374  0.00  0.00     0.284 C 
ATOM      9  H3  UNL d   1       0.038   2.054   0.617  0.00  0.00     0.395 HD
ENDBRANCH   1   7
TORSDOF 1
ENDMDL
