MODEL 1
REMARK minimizedAffinity -2.29510522
REMARK minimizedRMSD -1
REMARK  1 active torsions:
REMARK  status: ('A' for Active; 'I' for Inactive)
REMARK    1  A    between atoms: N_2  and  C1_3 
ROOT
ATOM      1  C1  UNL d   1      -0.449  -1.097   0.901  0.00  0.00     0.143 A 
ATOM      2  C2  UNL d   1      -1.202  -2.239   1.197  0.00  0.00    -0.057 A 
ATOM      3  C3  UNL d   1      -2.575  -2.156   1.457  0.00  0.00     0.033 A 
ATOM      4  C4  UNL d   1      -3.216  -0.922   1.456  0.00  0.00    -0.042 A 
ATOM      5  C5  UNL d   1      -2.483   0.229   1.190  0.00  0.00     0.033 A 
ATOM      6  C6  UNL d   1      -1.114   0.140   0.923  0.00  0.00    -0.057 A 
ENDROOT
BRANCH   1   7
ATOM      7  N   UNL d   1       0.937  -1.102   0.730  0.00  0.00    -0.732 N 
ATOM      8  C   UNL d   1       1.733   0.041   1.126  0.00  0.00     0.284 C 
ATOM      9  H3  UNL d   1       1.354  -2.000   0.964  0.00  0.00     0.395 HD
ENDBRANCH   1   7
TORSDOF 1
ENDMDL
