MODEL 1
REMARK minimizedAffinity 3.97665715
REMARK minimizedRMSD -1
REMARK  1 active torsions:
REMARK  status: ('A' for Active; 'I' for Inactive)
REMARK    1  A    between atoms: N_2  and  C1_3 
ROOT
ATOM      1  C1  UNL d   1       0.764   0.566  -0.863  0.00  0.00     0.143 A 
ATOM      2  C2  UNL d   1       1.903   1.000  -1.551  0.00  0.00    -0.057 A 
ATOM      3  C3  UNL d   1       1.801   1.835  -2.670  0.00  0.00     0.033 A 
ATOM      4  C4  UNL d   1       0.552   2.229  -3.140  0.00  0.00    -0.042 A 
ATOM      5  C5  UNL d   1      -0.594   1.790  -2.487  0.00  0.00     0.033 A 
ATOM      6  C6  UNL d   1      -0.485   0.962  -1.366  0.00  0.00    -0.057 A 
ENDROOT
BRANCH   1   7
ATOM      7  N   UNL d   1       0.795  -0.344   0.196  0.00  0.00    -0.732 N 
ATOM      8  C   UNL d   1       1.555  -1.571   0.092  0.00  0.00     0.284 C 
ATOM      9  H3  UNL d   1       0.869   0.115   1.101  0.00  0.00     0.395 HD
ENDBRANCH   1   7
TORSDOF 1
ENDMDL
