MODEL 1
REMARK minimizedAffinity -2.0595901
REMARK minimizedRMSD -1
REMARK  1 active torsions:
REMARK  status: ('A' for Active; 'I' for Inactive)
REMARK    1  A    between atoms: N_2  and  C1_3 
ROOT
ATOM      1  C1  UNL d   1      -1.144  -1.961   0.813  0.00  0.00     0.143 A 
ATOM      2  C2  UNL d   1      -2.092  -2.605   1.615  0.00  0.00    -0.057 A 
ATOM      3  C3  UNL d   1      -3.243  -1.940   2.055  0.00  0.00     0.033 A 
ATOM      4  C4  UNL d   1      -3.451  -0.605   1.725  0.00  0.00    -0.042 A 
ATOM      5  C5  UNL d   1      -2.509   0.063   0.950  0.00  0.00     0.033 A 
ATOM      6  C6  UNL d   1      -1.366  -0.609   0.508  0.00  0.00    -0.057 A 
ENDROOT
BRANCH   1   7
ATOM      7  N   UNL d   1       0.068  -2.538   0.426  0.00  0.00    -0.732 N 
ATOM      8  C   UNL d   1       1.296  -1.773   0.469  0.00  0.00     0.284 C 
ATOM      9  H3  UNL d   1       0.164  -3.497   0.753  0.00  0.00     0.395 HD
ENDBRANCH   1   7
TORSDOF 1
ENDMDL
