MODEL 1
REMARK minimizedAffinity -0.965085089
REMARK minimizedRMSD -1
REMARK  1 active torsions:
REMARK  status: ('A' for Active; 'I' for Inactive)
REMARK    1  A    between atoms: N_2  and  C1_3 
ROOT
ATOM      1  C1  UNL d   1      -0.286   0.241   1.082  0.00  0.00     0.143 A 
ATOM      2  C2  UNL d   1       0.989   0.030   0.545  0.00  0.00    -0.057 A 
ATOM      3  C3  UNL d   1       1.590  -1.234   0.577  0.00  0.00     0.033 A 
ATOM      4  C4  UNL d   1       0.936  -2.307   1.174  0.00  0.00    -0.042 A 
ATOM      5  C5  UNL d   1      -0.321  -2.115   1.736  0.00  0.00     0.033 A 
ATOM      6  C6  UNL d   1      -0.919  -0.851   1.695  0.00  0.00    -0.057 A 
ENDROOT
BRANCH   1   7
ATOM      7  N   UNL d   1      -0.895   1.495   1.169  0.00  0.00    -0.732 N 
ATOM      8  C   UNL d   1      -1.652   2.026   0.056  0.00  0.00     0.284 C 
ATOM      9  H3  UNL d   1      -1.324   1.657   2.078  0.00  0.00     0.395 HD
ENDBRANCH   1   7
TORSDOF 1
ENDMDL
