MODEL 1
REMARK minimizedAffinity -5.49328518
REMARK minimizedRMSD -1
REMARK  1 active torsions:
REMARK  status: ('A' for Active; 'I' for Inactive)
REMARK    1  A    between atoms: N_2  and  C1_3 
ROOT
ATOM      1  C1  UNL d   1      -0.998  -0.637   0.690  0.00  0.00     0.143 A 
ATOM      2  C2  UNL d   1      -1.210  -1.970   1.055  0.00  0.00    -0.057 A 
ATOM      3  C3  UNL d   1      -2.228  -2.326   1.949  0.00  0.00     0.033 A 
ATOM      4  C4  UNL d   1      -3.035  -1.346   2.518  0.00  0.00    -0.042 A 
ATOM      5  C5  UNL d   1      -2.826  -0.012   2.188  0.00  0.00     0.033 A 
ATOM      6  C6  UNL d   1      -1.813   0.336   1.290  0.00  0.00    -0.057 A 
ENDROOT
BRANCH   1   7
ATOM      7  N   UNL d   1       0.060  -0.210  -0.117  0.00  0.00    -0.732 N 
ATOM      8  C   UNL d   1       0.221   1.191  -0.441  0.00  0.00     0.284 C 
ATOM      9  H3  UNL d   1       0.931  -0.689   0.098  0.00  0.00     0.395 HD
ENDBRANCH   1   7
TORSDOF 1
ENDMDL
