MODEL 1
REMARK minimizedAffinity -5.86722088
REMARK minimizedRMSD -1
REMARK  1 active torsions:
REMARK  status: ('A' for Active; 'I' for Inactive)
REMARK    1  A    between atoms: N_2  and  C1_3 
ROOT
ATOM      1  C1  UNL d   1      -0.931  -0.686   0.748  0.00  0.00     0.143 A 
ATOM      2  C2  UNL d   1      -2.049  -0.034   1.278  0.00  0.00    -0.057 A 
ATOM      3  C3  UNL d   1      -3.055  -0.744   1.945  0.00  0.00     0.033 A 
ATOM      4  C4  UNL d   1      -2.974  -2.127   2.068  0.00  0.00    -0.042 A 
ATOM      5  C5  UNL d   1      -1.884  -2.799   1.526  0.00  0.00     0.033 A 
ATOM      6  C6  UNL d   1      -0.879  -2.083   0.868  0.00  0.00    -0.057 A 
ENDROOT
BRANCH   1   7
ATOM      7  N   UNL d   1       0.054  -0.048  -0.011  0.00  0.00    -0.732 N 
ATOM      8  C   UNL d   1       0.433   1.319   0.272  0.00  0.00     0.284 C 
ATOM      9  H3  UNL d   1       0.837  -0.662  -0.225  0.00  0.00     0.395 HD
ENDBRANCH   1   7
TORSDOF 1
ENDMDL
