MODEL 1
REMARK minimizedAffinity -0.265910566
REMARK minimizedRMSD -1
REMARK  0 active torsions:
REMARK  status: ('A' for Active; 'I' for Inactive)
ROOT
ATOM      1  C   UNL d   1      -1.308  -2.108   1.436  0.00  0.00     0.020 A 
ATOM      2  C1  UNL d   1      -1.349  -3.018   0.380  0.00  0.00     0.020 A 
ATOM      3  C2  UNL d   1      -0.846  -2.657  -0.872  0.00  0.00     0.034 A 
ATOM      4  C3  UNL d   1      -0.300  -1.384  -1.071  0.00  0.00     0.017 A 
ATOM      5  C4  UNL d   1      -0.259  -0.472  -0.010  0.00  0.00     0.017 A 
ATOM      6  C5  UNL d   1      -0.764  -0.838   1.241  0.00  0.00     0.034 A 
ATOM      7 Cl   UNL d   1       0.401   1.117  -0.179  0.00  0.00    -0.070 Cl
ATOM      8 Cl1  UNL d   1       0.304  -1.006  -2.645  0.00  0.00    -0.070 Cl
ENDROOT
TORSDOF 0
ENDMDL
