MODEL 1
REMARK minimizedAffinity -1.10069823
REMARK minimizedRMSD -1
REMARK  0 active torsions:
REMARK  status: ('A' for Active; 'I' for Inactive)
ROOT
ATOM      1  C   UNL d   1      -1.000  -1.194   1.615  0.00  0.00     0.020 A 
ATOM      2  C1  UNL d   1      -1.389  -1.940   0.503  0.00  0.00     0.020 A 
ATOM      3  C2  UNL d   1      -1.019  -1.528  -0.779  0.00  0.00     0.034 A 
ATOM      4  C3  UNL d   1      -0.258  -0.366  -0.953  0.00  0.00     0.017 A 
ATOM      5  C4  UNL d   1       0.132   0.382   0.164  0.00  0.00     0.017 A 
ATOM      6  C5  UNL d   1      -0.241  -0.035   1.445  0.00  0.00     0.034 A 
ATOM      7 Cl   UNL d   1       1.072   1.826   0.029  0.00  0.00    -0.070 Cl
ATOM      8 Cl1  UNL d   1       0.164   0.084  -2.567  0.00  0.00    -0.070 Cl
ENDROOT
TORSDOF 0
ENDMDL
