MODEL 1
REMARK minimizedAffinity 0.388587505
REMARK minimizedRMSD -1
REMARK  0 active torsions:
REMARK  status: ('A' for Active; 'I' for Inactive)
ROOT
ATOM      1  C   UNL d   1       1.446   3.614   1.713  0.00  0.00     0.020 A 
ATOM      2  C1  UNL d   1       2.422   3.547   0.719  0.00  0.00     0.020 A 
ATOM      3  C2  UNL d   1       2.383   2.523  -0.229  0.00  0.00     0.034 A 
ATOM      4  C3  UNL d   1       1.366   1.562  -0.186  0.00  0.00     0.017 A 
ATOM      5  C4  UNL d   1       0.387   1.631   0.812  0.00  0.00     0.017 A 
ATOM      6  C5  UNL d   1       0.431   2.658   1.759  0.00  0.00     0.034 A 
ATOM      7 Cl   UNL d   1      -0.899   0.482   0.929  0.00  0.00    -0.070 Cl
ATOM      8 Cl1  UNL d   1       1.379   0.323  -1.391  0.00  0.00    -0.070 Cl
ENDROOT
TORSDOF 0
ENDMDL
