MODEL 1
REMARK minimizedAffinity 3.18328476
REMARK minimizedRMSD -1
REMARK  0 active torsions:
REMARK  status: ('A' for Active; 'I' for Inactive)
ROOT
ATOM      1  C   UNL d   1      -1.404  -0.004   0.340  0.00  0.00     0.020 A 
ATOM      2  C1  UNL d   1      -0.493   0.440   1.298  0.00  0.00     0.020 A 
ATOM      3  C2  UNL d   1       0.833   0.689   0.938  0.00  0.00     0.034 A 
ATOM      4  C3  UNL d   1       1.252   0.496  -0.384  0.00  0.00     0.017 A 
ATOM      5  C4  UNL d   1       0.337   0.051  -1.345  0.00  0.00     0.017 A 
ATOM      6  C5  UNL d   1      -0.990  -0.198  -0.978  0.00  0.00     0.034 A 
ATOM      7 Cl   UNL d   1       0.779  -0.211  -2.995  0.00  0.00    -0.070 Cl
ATOM      8 Cl1  UNL d   1       2.906   0.825  -0.759  0.00  0.00    -0.070 Cl
ENDROOT
TORSDOF 0
ENDMDL
