MODEL 1
REMARK minimizedAffinity -2.10344815
REMARK minimizedRMSD -1
REMARK  0 active torsions:
REMARK  status: ('A' for Active; 'I' for Inactive)
ROOT
ATOM      1  C   UNL d   1       0.184   0.215  -0.795  0.00  0.00     0.020 A 
ATOM      2  C1  UNL d   1      -0.621   0.924   0.095  0.00  0.00     0.020 A 
ATOM      3  C2  UNL d   1      -0.071   1.946   0.871  0.00  0.00     0.034 A 
ATOM      4  C3  UNL d   1       1.287   2.263   0.759  0.00  0.00     0.017 A 
ATOM      5  C4  UNL d   1       2.095   1.550  -0.135  0.00  0.00     0.017 A 
ATOM      6  C5  UNL d   1       1.539   0.527  -0.910  0.00  0.00     0.034 A 
ATOM      7 Cl   UNL d   1       3.780   1.883  -0.329  0.00  0.00    -0.070 Cl
ATOM      8 Cl1  UNL d   1       1.900   3.539   1.749  0.00  0.00    -0.070 Cl
ENDROOT
TORSDOF 0
ENDMDL
