MODEL 1
REMARK minimizedAffinity 5.542696
REMARK minimizedRMSD -1
REMARK  0 active torsions:
REMARK  status: ('A' for Active; 'I' for Inactive)
ROOT
ATOM      1  C   UNL d   1      -0.136  -0.216  -0.041  0.00  0.00     0.020 A 
ATOM      2  C1  UNL d   1      -0.759   0.546   0.947  0.00  0.00     0.020 A 
ATOM      3  C2  UNL d   1      -0.098   1.643   1.504  0.00  0.00     0.034 A 
ATOM      4  C3  UNL d   1       1.190   1.982   1.072  0.00  0.00     0.017 A 
ATOM      5  C4  UNL d   1       1.814   1.217   0.080  0.00  0.00     0.017 A 
ATOM      6  C5  UNL d   1       1.147   0.119  -0.473  0.00  0.00     0.034 A 
ATOM      7 Cl   UNL d   1       3.401   1.573  -0.503  0.00  0.00    -0.070 Cl
ATOM      8 Cl1  UNL d   1       1.948   3.351   1.804  0.00  0.00    -0.070 Cl
ENDROOT
TORSDOF 0
ENDMDL
