MODEL 1
REMARK minimizedAffinity 3.56771922
REMARK minimizedRMSD -1
REMARK  0 active torsions:
REMARK  status: ('A' for Active; 'I' for Inactive)
ROOT
ATOM      1  C   UNL d   1      -1.092  -1.402   1.792  0.00  0.00     0.020 A 
ATOM      2  C1  UNL d   1      -1.276  -2.268   0.715  0.00  0.00     0.020 A 
ATOM      3  C2  UNL d   1      -0.878  -1.882  -0.567  0.00  0.00     0.034 A 
ATOM      4  C3  UNL d   1      -0.296  -0.626  -0.775  0.00  0.00     0.017 A 
ATOM      5  C4  UNL d   1      -0.112   0.242   0.307  0.00  0.00     0.017 A 
ATOM      6  C5  UNL d   1      -0.512  -0.149   1.589  0.00  0.00     0.034 A 
ATOM      7 Cl   UNL d   1       0.600   1.807   0.129  0.00  0.00    -0.070 Cl
ATOM      8 Cl1  UNL d   1       0.172  -0.215  -2.386  0.00  0.00    -0.070 Cl
ENDROOT
TORSDOF 0
ENDMDL
