MODEL 1
REMARK minimizedAffinity 2.64652538
REMARK minimizedRMSD -1
REMARK  0 active torsions:
REMARK  status: ('A' for Active; 'I' for Inactive)
ROOT
ATOM      1  C   UNL d   1      -1.227   1.045  -0.458  0.00  0.00     0.020 A 
ATOM      2  C1  UNL d   1      -0.130   1.773  -0.000  0.00  0.00     0.020 A 
ATOM      3  C2  UNL d   1       0.568   1.348   1.132  0.00  0.00     0.034 A 
ATOM      4  C3  UNL d   1       0.168   0.190   1.811  0.00  0.00     0.017 A 
ATOM      5  C4  UNL d   1      -0.933  -0.540   1.351  0.00  0.00     0.017 A 
ATOM      6  C5  UNL d   1      -1.628  -0.109   0.216  0.00  0.00     0.034 A 
ATOM      7 Cl   UNL d   1      -1.485  -1.978   2.135  0.00  0.00    -0.070 Cl
ATOM      8 Cl1  UNL d   1       1.077  -0.278   3.204  0.00  0.00    -0.070 Cl
ENDROOT
TORSDOF 0
ENDMDL
