MODEL 1
REMARK minimizedAffinity -0.14899759
REMARK minimizedRMSD -1
REMARK  0 active torsions:
REMARK  status: ('A' for Active; 'I' for Inactive)
ROOT
ATOM      1  C   UNL d   1      -0.315   0.451  -0.376  0.00  0.00     0.020 A 
ATOM      2  C1  UNL d   1       0.723  -0.208  -1.034  0.00  0.00     0.020 A 
ATOM      3  C2  UNL d   1       2.023   0.299  -0.970  0.00  0.00     0.034 A 
ATOM      4  C3  UNL d   1       2.288   1.468  -0.248  0.00  0.00     0.017 A 
ATOM      5  C4  UNL d   1       1.245   2.129   0.412  0.00  0.00     0.017 A 
ATOM      6  C5  UNL d   1      -0.054   1.616   0.346  0.00  0.00     0.034 A 
ATOM      7 Cl   UNL d   1       1.495   3.576   1.324  0.00  0.00    -0.070 Cl
ATOM      8 Cl1  UNL d   1       3.919   2.039  -0.212  0.00  0.00    -0.070 Cl
ENDROOT
TORSDOF 0
ENDMDL
