MODEL 1
REMARK minimizedAffinity 0.772705376
REMARK minimizedRMSD -1
REMARK  0 active torsions:
REMARK  status: ('A' for Active; 'I' for Inactive)
ROOT
ATOM      1  C   UNL d   1      -1.340  -2.240   0.556  0.00  0.00     0.020 A 
ATOM      2  C1  UNL d   1      -1.078  -1.442   1.669  0.00  0.00     0.020 A 
ATOM      3  C2  UNL d   1      -0.393  -0.235   1.517  0.00  0.00     0.034 A 
ATOM      4  C3  UNL d   1       0.031   0.179   0.249  0.00  0.00     0.017 A 
ATOM      5  C4  UNL d   1      -0.232  -0.622  -0.868  0.00  0.00     0.017 A 
ATOM      6  C5  UNL d   1      -0.918  -1.831  -0.710  0.00  0.00     0.034 A 
ATOM      7 Cl   UNL d   1       0.260  -0.179  -2.464  0.00  0.00    -0.070 Cl
ATOM      8 Cl1  UNL d   1       0.872   1.684   0.134  0.00  0.00    -0.070 Cl
ENDROOT
TORSDOF 0
ENDMDL
