MODEL 1
REMARK minimizedAffinity 1.49355006
REMARK minimizedRMSD -1
REMARK  0 active torsions:
REMARK  status: ('A' for Active; 'I' for Inactive)
ROOT
ATOM      1  C   UNL d   1      -1.106  -2.229   0.630  0.00  0.00     0.020 A 
ATOM      2  C1  UNL d   1      -1.273  -1.347   1.696  0.00  0.00     0.020 A 
ATOM      3  C2  UNL d   1      -0.857  -0.019   1.576  0.00  0.00     0.034 A 
ATOM      4  C3  UNL d   1      -0.271   0.430   0.386  0.00  0.00     0.017 A 
ATOM      5  C4  UNL d   1      -0.105  -0.457  -0.684  0.00  0.00     0.017 A 
ATOM      6  C5  UNL d   1      -0.524  -1.785  -0.558  0.00  0.00     0.034 A 
ATOM      7 Cl   UNL d   1       0.609   0.024  -2.183  0.00  0.00    -0.070 Cl
ATOM      8 Cl1  UNL d   1       0.220   2.084   0.307  0.00  0.00    -0.070 Cl
ENDROOT
TORSDOF 0
ENDMDL
