MODEL 1
REMARK minimizedAffinity -3.53753734
REMARK minimizedRMSD -1
REMARK  0 active torsions:
REMARK  status: ('A' for Active; 'I' for Inactive)
ROOT
ATOM      1  C   UNL d   1       0.217   1.107  -1.512  0.00  0.00     0.020 A 
ATOM      2  C1  UNL d   1       0.424   0.027  -2.369  0.00  0.00     0.020 A 
ATOM      3  C2  UNL d   1       0.054  -1.260  -1.973  0.00  0.00     0.034 A 
ATOM      4  C3  UNL d   1      -0.526  -1.470  -0.716  0.00  0.00     0.017 A 
ATOM      5  C4  UNL d   1      -0.733  -0.385   0.144  0.00  0.00     0.017 A 
ATOM      6  C5  UNL d   1      -0.360   0.901  -0.258  0.00  0.00     0.034 A 
ATOM      7 Cl   UNL d   1      -1.442  -0.566   1.709  0.00  0.00    -0.070 Cl
ATOM      8 Cl1  UNL d   1      -0.960  -3.088  -0.292  0.00  0.00    -0.070 Cl
ENDROOT
TORSDOF 0
ENDMDL
