MODEL 1
REMARK minimizedAffinity 7.92082119
REMARK minimizedRMSD -1
REMARK  0 active torsions:
REMARK  status: ('A' for Active; 'I' for Inactive)
ROOT
ATOM      1  C   UNL d   1       0.751   3.859   1.316  0.00  0.00     0.020 A 
ATOM      2  C1  UNL d   1       2.078   3.883   0.887  0.00  0.00     0.020 A 
ATOM      3  C2  UNL d   1       2.635   2.758   0.275  0.00  0.00     0.034 A 
ATOM      4  C3  UNL d   1       1.865   1.604   0.091  0.00  0.00     0.017 A 
ATOM      5  C4  UNL d   1       0.534   1.580   0.522  0.00  0.00     0.017 A 
ATOM      6  C5  UNL d   1      -0.019   2.709   1.134  0.00  0.00     0.034 A 
ATOM      7 Cl   UNL d   1      -0.478   0.192   0.329  0.00  0.00    -0.070 Cl
ATOM      8 Cl1  UNL d   1       2.618   0.250  -0.673  0.00  0.00    -0.070 Cl
ENDROOT
TORSDOF 0
ENDMDL
