MODEL 1
REMARK minimizedAffinity 0.254993796
REMARK minimizedRMSD -1
REMARK  0 active torsions:
REMARK  status: ('A' for Active; 'I' for Inactive)
ROOT
ATOM      1  C   UNL d   1      -1.083  -1.298   0.810  0.00  0.00     0.020 A 
ATOM      2  C1  UNL d   1      -0.589  -0.508   1.847  0.00  0.00     0.020 A 
ATOM      3  C2  UNL d   1       0.087   0.680   1.559  0.00  0.00     0.034 A 
ATOM      4  C3  UNL d   1       0.271   1.080   0.231  0.00  0.00     0.017 A 
ATOM      5  C4  UNL d   1      -0.224   0.286  -0.810  0.00  0.00     0.017 A 
ATOM      6  C5  UNL d   1      -0.901  -0.902  -0.516  0.00  0.00     0.034 A 
ATOM      7 Cl   UNL d   1      -0.036   0.715  -2.473  0.00  0.00    -0.070 Cl
ATOM      8 Cl1  UNL d   1       1.116   2.561  -0.052  0.00  0.00    -0.070 Cl
ENDROOT
TORSDOF 0
ENDMDL
