MODEL 1
REMARK minimizedAffinity -1.15235782
REMARK minimizedRMSD -1
REMARK  0 active torsions:
REMARK  status: ('A' for Active; 'I' for Inactive)
ROOT
ATOM      1  C   UNL d   1      -1.382  -1.742   0.709  0.00  0.00     0.020 A 
ATOM      2  C1  UNL d   1      -1.192  -0.824   1.740  0.00  0.00     0.020 A 
ATOM      3  C2  UNL d   1      -0.595   0.410   1.475  0.00  0.00     0.034 A 
ATOM      4  C3  UNL d   1      -0.186   0.730   0.175  0.00  0.00     0.017 A 
ATOM      5  C4  UNL d   1      -0.378  -0.193  -0.860  0.00  0.00     0.017 A 
ATOM      6  C5  UNL d   1      -0.976  -1.428  -0.589  0.00  0.00     0.034 A 
ATOM      7 Cl   UNL d   1       0.100   0.129  -2.490  0.00  0.00    -0.070 Cl
ATOM      8 Cl1  UNL d   1       0.544   2.274  -0.082  0.00  0.00    -0.070 Cl
ENDROOT
TORSDOF 0
ENDMDL
