MODEL 1
REMARK minimizedAffinity -5.47581482
REMARK minimizedRMSD -1
REMARK  0 active torsions:
REMARK  status: ('A' for Active; 'I' for Inactive)
ROOT
ATOM      1  C   UNL d   1      -0.010  -3.264   0.024  0.00  0.00     0.020 A 
ATOM      2  C1  UNL d   1       0.069  -2.620  -1.211  0.00  0.00     0.020 A 
ATOM      3  C2  UNL d   1      -0.019  -1.228  -1.279  0.00  0.00     0.034 A 
ATOM      4  C3  UNL d   1      -0.188  -0.475  -0.112  0.00  0.00     0.017 A 
ATOM      5  C4  UNL d   1      -0.267  -1.122   1.127  0.00  0.00     0.017 A 
ATOM      6  C5  UNL d   1      -0.178  -2.516   1.190  0.00  0.00     0.034 A 
ATOM      7 Cl   UNL d   1      -0.475  -0.260   2.611  0.00  0.00    -0.070 Cl
ATOM      8 Cl1  UNL d   1      -0.289   1.242  -0.271  0.00  0.00    -0.070 Cl
ENDROOT
TORSDOF 0
ENDMDL
