MODEL 1
REMARK minimizedAffinity -3.22134781
REMARK minimizedRMSD -1
REMARK  0 active torsions:
REMARK  status: ('A' for Active; 'I' for Inactive)
ROOT
ATOM      1  C   UNL d   1      -0.945  -0.756   1.860  0.00  0.00     0.020 A 
ATOM      2  C1  UNL d   1      -1.045  -2.091   1.471  0.00  0.00     0.020 A 
ATOM      3  C2  UNL d   1      -0.883  -2.442   0.129  0.00  0.00     0.034 A 
ATOM      4  C3  UNL d   1      -0.620  -1.456  -0.829  0.00  0.00     0.017 A 
ATOM      5  C4  UNL d   1      -0.520  -0.116  -0.438  0.00  0.00     0.017 A 
ATOM      6  C5  UNL d   1      -0.683   0.230   0.907  0.00  0.00     0.034 A 
ATOM      7 Cl   UNL d   1      -0.198   1.156  -1.563  0.00  0.00    -0.070 Cl
ATOM      8 Cl1  UNL d   1      -0.430  -1.962  -2.470  0.00  0.00    -0.070 Cl
ENDROOT
TORSDOF 0
ENDMDL
