MODEL 1
REMARK minimizedAffinity -4.29944992
REMARK minimizedRMSD -1
REMARK  0 active torsions:
REMARK  status: ('A' for Active; 'I' for Inactive)
ROOT
ATOM      1  C   UNL d   1      -0.266  -3.135  -1.216  0.00  0.00     0.020 A 
ATOM      2  C1  UNL d   1      -0.197  -2.790   0.133  0.00  0.00     0.020 A 
ATOM      3  C2  UNL d   1       0.045  -1.465   0.503  0.00  0.00     0.034 A 
ATOM      4  C3  UNL d   1       0.219  -0.481  -0.477  0.00  0.00     0.017 A 
ATOM      5  C4  UNL d   1       0.149  -0.829  -1.831  0.00  0.00     0.017 A 
ATOM      6  C5  UNL d   1      -0.093  -2.157  -2.196  0.00  0.00     0.034 A 
ATOM      7 Cl   UNL d   1       0.353   0.330  -3.097  0.00  0.00    -0.070 Cl
ATOM      8 Cl1  UNL d   1       0.515   1.137   0.052  0.00  0.00    -0.070 Cl
ENDROOT
TORSDOF 0
ENDMDL
