MODEL 1
REMARK minimizedAffinity -0.627065718
REMARK minimizedRMSD -1
REMARK  0 active torsions:
REMARK  status: ('A' for Active; 'I' for Inactive)
ROOT
ATOM      1  C   UNL d   1      -0.449   1.435   0.227  0.00  0.00     0.020 A 
ATOM      2  C1  UNL d   1      -0.614   1.090   1.568  0.00  0.00     0.020 A 
ATOM      3  C2  UNL d   1      -0.641  -0.254   1.945  0.00  0.00     0.034 A 
ATOM      4  C3  UNL d   1      -0.501  -1.259   0.980  0.00  0.00     0.017 A 
ATOM      5  C4  UNL d   1      -0.335  -0.912  -0.365  0.00  0.00     0.017 A 
ATOM      6  C5  UNL d   1      -0.309   0.436  -0.737  0.00  0.00     0.034 A 
ATOM      7 Cl   UNL d   1      -0.156  -2.095  -1.612  0.00  0.00    -0.070 Cl
ATOM      8 Cl1  UNL d   1      -0.543  -2.900   1.518  0.00  0.00    -0.070 Cl
ENDROOT
TORSDOF 0
ENDMDL
