MODEL 1
REMARK minimizedAffinity -3.63825226
REMARK minimizedRMSD -1
REMARK  0 active torsions:
REMARK  status: ('A' for Active; 'I' for Inactive)
ROOT
ATOM      1  C   UNL d   1       1.889   3.412   1.161  0.00  0.00     0.020 A 
ATOM      2  C1  UNL d   1       3.074   3.068   0.511  0.00  0.00     0.020 A 
ATOM      3  C2  UNL d   1       3.102   1.971  -0.353  0.00  0.00     0.034 A 
ATOM      4  C3  UNL d   1       1.944   1.215  -0.569  0.00  0.00     0.017 A 
ATOM      5  C4  UNL d   1       0.756   1.562   0.084  0.00  0.00     0.017 A 
ATOM      6  C5  UNL d   1       0.733   2.661   0.948  0.00  0.00     0.034 A 
ATOM      7 Cl   UNL d   1      -0.713   0.677  -0.132  0.00  0.00    -0.070 Cl
ATOM      8 Cl1  UNL d   1       2.052  -0.128  -1.651  0.00  0.00    -0.070 Cl
ENDROOT
TORSDOF 0
ENDMDL
