MODEL 1
REMARK minimizedAffinity 19.6107578
REMARK minimizedRMSD -1
REMARK  0 active torsions:
REMARK  status: ('A' for Active; 'I' for Inactive)
ROOT
ATOM      1  C   UNL d   1       1.274  -1.574   2.390  0.00  0.00     0.124 A 
ATOM      2  C1  UNL d   1       1.673  -2.187   3.569  0.00  0.00     0.062 A 
ATOM      3  C2  UNL d   1       3.021  -2.438   3.806  0.00  0.00     0.162 A 
ATOM      4  C3  UNL d   1       3.981  -2.075   2.862  0.00  0.00    -0.034 A 
ATOM      5  C4  UNL d   1       3.572  -1.459   1.678  0.00  0.00     0.162 A 
ATOM      6  C5  UNL d   1       2.224  -1.210   1.446  0.00  0.00     0.062 A 
ATOM      7  F   UNL d   1       1.840  -0.617   0.306  0.00  0.00    -0.097 F 
ATOM      8  F1  UNL d   1       4.469  -1.097   0.749  0.00  0.00    -0.096 F 
ATOM      9  I   UNL d   1       5.998  -2.449   3.213  0.00  0.00    -0.060 I 
ATOM     10  F2  UNL d   1       3.378  -3.033   4.955  0.00  0.00    -0.096 F 
ATOM     11  F3  UNL d   1       0.757  -2.540   4.483  0.00  0.00    -0.097 F 
ATOM     12  F4  UNL d   1      -0.024  -1.334   2.164  0.00  0.00    -0.092 F 
ENDROOT
TORSDOF 0
ENDMDL
