MODEL 1
REMARK minimizedAffinity 20.0034885
REMARK minimizedRMSD -1
REMARK  0 active torsions:
REMARK  status: ('A' for Active; 'I' for Inactive)
ROOT
ATOM      1  C   UNL d   1      -1.823   0.524  -1.153  0.00  0.00     0.124 A 
ATOM      2  C1  UNL d   1      -2.705   0.572  -2.223  0.00  0.00     0.062 A 
ATOM      3  C2  UNL d   1      -3.850   1.361  -2.153  0.00  0.00     0.162 A 
ATOM      4  C3  UNL d   1      -4.119   2.110  -1.007  0.00  0.00    -0.034 A 
ATOM      5  C4  UNL d   1      -3.227   2.056   0.066  0.00  0.00     0.162 A 
ATOM      6  C5  UNL d   1      -2.085   1.266  -0.009  0.00  0.00     0.062 A 
ATOM      7  F   UNL d   1      -1.234   1.221   1.026  0.00  0.00    -0.097 F 
ATOM      8  F1  UNL d   1      -3.455   2.764   1.183  0.00  0.00    -0.096 F 
ATOM      9  I   UNL d   1      -5.829   3.291  -0.897  0.00  0.00    -0.060 I 
ATOM     10  F2  UNL d   1      -4.685   1.388  -3.202  0.00  0.00    -0.096 F 
ATOM     11  F3  UNL d   1      -2.455  -0.144  -3.329  0.00  0.00    -0.097 F 
ATOM     12  F4  UNL d   1      -0.723  -0.236  -1.223  0.00  0.00    -0.092 F 
ENDROOT
TORSDOF 0
ENDMDL
