MODEL 1
REMARK minimizedAffinity 11.4877443
REMARK minimizedRMSD -1
REMARK  0 active torsions:
REMARK  status: ('A' for Active; 'I' for Inactive)
ROOT
ATOM      1  C   UNL d   1       2.867   4.136  -1.854  0.00  0.00     0.124 A 
ATOM      2  C1  UNL d   1       3.966   4.976  -1.733  0.00  0.00     0.062 A 
ATOM      3  C2  UNL d   1       4.817   5.177  -2.816  0.00  0.00     0.162 A 
ATOM      4  C3  UNL d   1       4.573   4.537  -4.031  0.00  0.00    -0.034 A 
ATOM      5  C4  UNL d   1       3.466   3.693  -4.145  0.00  0.00     0.162 A 
ATOM      6  C5  UNL d   1       2.619   3.496  -3.060  0.00  0.00     0.062 A 
ATOM      7  F   UNL d   1       1.558   2.684  -3.180  0.00  0.00    -0.097 F 
ATOM      8  F1  UNL d   1       3.202   3.062  -5.299  0.00  0.00    -0.096 F 
ATOM      9  I   UNL d   1       5.843   4.834  -5.652  0.00  0.00    -0.060 I 
ATOM     10  F2  UNL d   1       5.871   5.993  -2.669  0.00  0.00    -0.096 F 
ATOM     11  F3  UNL d   1       4.209   5.595  -0.569  0.00  0.00    -0.097 F 
ATOM     12  F4  UNL d   1       2.051   3.944  -0.811  0.00  0.00    -0.092 F 
ENDROOT
TORSDOF 0
ENDMDL
