MODEL 1
REMARK minimizedAffinity 12.860096
REMARK minimizedRMSD -1
REMARK  0 active torsions:
REMARK  status: ('A' for Active; 'I' for Inactive)
ROOT
ATOM      1  C   UNL d   1       0.901  -1.364   3.876  0.00  0.00     0.124 A 
ATOM      2  C1  UNL d   1       1.250  -1.554   2.546  0.00  0.00     0.062 A 
ATOM      3  C2  UNL d   1       1.729  -0.489   1.788  0.00  0.00     0.162 A 
ATOM      4  C3  UNL d   1       1.863   0.776   2.360  0.00  0.00    -0.034 A 
ATOM      5  C4  UNL d   1       1.509   0.960   3.698  0.00  0.00     0.162 A 
ATOM      6  C5  UNL d   1       1.031  -0.108   4.450  0.00  0.00     0.062 A 
ATOM      7  F   UNL d   1       0.695   0.078   5.735  0.00  0.00    -0.097 F 
ATOM      8  F1  UNL d   1       1.625   2.164   4.278  0.00  0.00    -0.096 F 
ATOM      9  I   UNL d   1       2.578   2.372   1.231  0.00  0.00    -0.060 I 
ATOM     10  F2  UNL d   1       2.058  -0.702   0.506  0.00  0.00    -0.096 F 
ATOM     11  F3  UNL d   1       1.125  -2.767   1.988  0.00  0.00    -0.097 F 
ATOM     12  F4  UNL d   1       0.440  -2.391   4.602  0.00  0.00    -0.092 F 
ENDROOT
TORSDOF 0
ENDMDL
