MODEL 1
REMARK minimizedAffinity 13.6398382
REMARK minimizedRMSD -1
REMARK  0 active torsions:
REMARK  status: ('A' for Active; 'I' for Inactive)
ROOT
ATOM      1  C   UNL d   1      -4.445   1.783  -2.986  0.00  0.00     0.124 A 
ATOM      2  C1  UNL d   1      -4.861   2.843  -2.192  0.00  0.00     0.062 A 
ATOM      3  C2  UNL d   1      -4.152   3.176  -1.042  0.00  0.00     0.162 A 
ATOM      4  C3  UNL d   1      -3.018   2.449  -0.678  0.00  0.00    -0.034 A 
ATOM      5  C4  UNL d   1      -2.606   1.384  -1.481  0.00  0.00     0.162 A 
ATOM      6  C5  UNL d   1      -3.318   1.055  -2.630  0.00  0.00     0.062 A 
ATOM      7  F   UNL d   1      -2.915   0.030  -3.396  0.00  0.00    -0.097 F 
ATOM      8  F1  UNL d   1      -1.521   0.664  -1.161  0.00  0.00    -0.096 F 
ATOM      9  I   UNL d   1      -1.955   2.944   1.041  0.00  0.00    -0.060 I 
ATOM     10  F2  UNL d   1      -4.576   4.205  -0.294  0.00  0.00    -0.096 F 
ATOM     11  F3  UNL d   1      -5.949   3.548  -2.534  0.00  0.00    -0.097 F 
ATOM     12  F4  UNL d   1      -5.129   1.464  -4.092  0.00  0.00    -0.092 F 
ENDROOT
TORSDOF 0
ENDMDL
