MODEL 1
REMARK minimizedAffinity 23.1342716
REMARK minimizedRMSD -1
REMARK  0 active torsions:
REMARK  status: ('A' for Active; 'I' for Inactive)
ROOT
ATOM      1  C   UNL d   1       1.937   0.786   1.191  0.00  0.00     0.124 A 
ATOM      2  C1  UNL d   1       0.766   0.041   1.217  0.00  0.00     0.062 A 
ATOM      3  C2  UNL d   1      -0.471   0.680   1.188  0.00  0.00     0.162 A 
ATOM      4  C3  UNL d   1      -0.543   2.072   1.130  0.00  0.00    -0.034 A 
ATOM      5  C4  UNL d   1       0.639   2.814   1.105  0.00  0.00     0.162 A 
ATOM      6  C5  UNL d   1       1.873   2.171   1.134  0.00  0.00     0.062 A 
ATOM      7  F   UNL d   1       3.003   2.892   1.108  0.00  0.00    -0.097 F 
ATOM      8  F1  UNL d   1       0.606   4.154   1.049  0.00  0.00    -0.096 F 
ATOM      9  I   UNL d   1      -2.389   3.030   1.086  0.00  0.00    -0.060 I 
ATOM     10  F2  UNL d   1      -1.586  -0.065   1.215  0.00  0.00    -0.096 F 
ATOM     11  F3  UNL d   1       0.825  -1.297   1.273  0.00  0.00    -0.097 F 
ATOM     12  F4  UNL d   1       3.125   0.169   1.220  0.00  0.00    -0.092 F 
ENDROOT
TORSDOF 0
ENDMDL
