MODEL 1
REMARK minimizedAffinity 14.2203369
REMARK minimizedRMSD -1
REMARK  0 active torsions:
REMARK  status: ('A' for Active; 'I' for Inactive)
ROOT
ATOM      1  C   UNL d   1       1.373  -0.818   2.516  0.00  0.00     0.124 A 
ATOM      2  C1  UNL d   1       1.638  -1.557   1.372  0.00  0.00     0.062 A 
ATOM      3  C2  UNL d   1       1.712  -2.945   1.437  0.00  0.00     0.162 A 
ATOM      4  C3  UNL d   1       1.520  -3.604   2.651  0.00  0.00    -0.034 A 
ATOM      5  C4  UNL d   1       1.254  -2.854   3.798  0.00  0.00     0.162 A 
ATOM      6  C5  UNL d   1       1.181  -1.466   3.728  0.00  0.00     0.062 A 
ATOM      7  F   UNL d   1       0.925  -0.754   4.834  0.00  0.00    -0.097 F 
ATOM      8  F1  UNL d   1       1.064  -3.455   4.982  0.00  0.00    -0.096 F 
ATOM      9  I   UNL d   1       1.629  -5.680   2.753  0.00  0.00    -0.060 I 
ATOM     10  F2  UNL d   1       1.970  -3.634   0.315  0.00  0.00    -0.096 F 
ATOM     11  F3  UNL d   1       1.825  -0.933   0.200  0.00  0.00    -0.097 F 
ATOM     12  F4  UNL d   1       1.304   0.518   2.451  0.00  0.00    -0.092 F 
ENDROOT
TORSDOF 0
ENDMDL
