MODEL 1
REMARK minimizedAffinity 25.9199066
REMARK minimizedRMSD -1
REMARK  0 active torsions:
REMARK  status: ('A' for Active; 'I' for Inactive)
ROOT
ATOM      1  C   UNL d   1      -4.639  -2.604  -2.498  0.00  0.00     0.124 A 
ATOM      2  C1  UNL d   1      -5.237  -2.380  -3.730  0.00  0.00     0.062 A 
ATOM      3  C2  UNL d   1      -5.166  -3.347  -4.729  0.00  0.00     0.162 A 
ATOM      4  C3  UNL d   1      -4.494  -4.548  -4.499  0.00  0.00    -0.034 A 
ATOM      5  C4  UNL d   1      -3.894  -4.765  -3.258  0.00  0.00     0.162 A 
ATOM      6  C5  UNL d   1      -3.968  -3.796  -2.263  0.00  0.00     0.062 A 
ATOM      7  F   UNL d   1      -3.389  -4.014  -1.073  0.00  0.00    -0.097 F 
ATOM      8  F1  UNL d   1      -3.240  -5.908  -3.004  0.00  0.00    -0.096 F 
ATOM      9  I   UNL d   1      -4.386  -5.996  -5.990  0.00  0.00    -0.060 I 
ATOM     10  F2  UNL d   1      -5.754  -3.103  -5.910  0.00  0.00    -0.096 F 
ATOM     11  F3  UNL d   1      -5.885  -1.229  -3.960  0.00  0.00    -0.097 F 
ATOM     12  F4  UNL d   1      -4.708  -1.671  -1.539  0.00  0.00    -0.092 F 
ENDROOT
TORSDOF 0
ENDMDL
