MODEL 1
REMARK minimizedAffinity 6.39996338
REMARK minimizedRMSD -1
REMARK  0 active torsions:
REMARK  status: ('A' for Active; 'I' for Inactive)
ROOT
ATOM      1  C   UNL d   1       1.695   0.014   2.409  0.00  0.00     0.124 A 
ATOM      2  C1  UNL d   1       1.875  -1.328   2.104  0.00  0.00     0.062 A 
ATOM      3  C2  UNL d   1       1.823  -2.289   3.110  0.00  0.00     0.162 A 
ATOM      4  C3  UNL d   1       1.588  -1.910   4.432  0.00  0.00    -0.034 A 
ATOM      5  C4  UNL d   1       1.410  -0.559   4.732  0.00  0.00     0.162 A 
ATOM      6  C5  UNL d   1       1.463   0.397   3.723  0.00  0.00     0.062 A 
ATOM      7  F   UNL d   1       1.289   1.693   4.020  0.00  0.00    -0.097 F 
ATOM      8  F1  UNL d   1       1.183  -0.160   5.992  0.00  0.00    -0.096 F 
ATOM      9  I   UNL d   1       1.509  -3.343   5.940  0.00  0.00    -0.060 I 
ATOM     10  F2  UNL d   1       2.000  -3.578   2.786  0.00  0.00    -0.096 F 
ATOM     11  F3  UNL d   1       2.101  -1.701   0.836  0.00  0.00    -0.097 F 
ATOM     12  F4  UNL d   1       1.747   0.935   1.439  0.00  0.00    -0.092 F 
ENDROOT
TORSDOF 0
ENDMDL
