MODEL 1
REMARK minimizedAffinity 11.644309
REMARK minimizedRMSD -1
REMARK  1 active torsions:
REMARK  status: ('A' for Active; 'I' for Inactive)
REMARK    1  A    between atoms: C1_2  and  C2_3 
ROOT
ATOM      1  C2  UNL d   1      -0.940   0.755  -0.628  0.00  0.00    -0.076 A 
ATOM      2  C3  UNL d   1      -2.276   0.488  -0.284  0.00  0.00     0.004 A 
ATOM      3  C4  UNL d   1      -2.885  -0.711  -0.651  0.00  0.00    -0.003 A 
ATOM      4  C5  UNL d   1      -2.168  -1.662  -1.368  0.00  0.00     0.000 A 
ATOM      5  C6  UNL d   1      -0.836  -1.421  -1.703  0.00  0.00     0.000 A 
ATOM      6  C7  UNL d   1      -0.202  -0.224  -1.326  0.00  0.00    -0.073 A 
ATOM      7  C8  UNL d   1       1.235  -0.014  -1.719  0.00  0.00     0.078 C 
ENDROOT
BRANCH   1   8
ATOM      8  C1  UNL d   1      -0.341   2.084  -0.226  0.00  0.00     0.053 C 
ATOM      9  C   UNL d   1      -1.182   3.265  -0.685  0.00  0.00     0.018 C 
ENDBRANCH   1   8
TORSDOF 1
ENDMDL
