MODEL 1
REMARK minimizedAffinity 9.2548275
REMARK minimizedRMSD -1
REMARK  1 active torsions:
REMARK  status: ('A' for Active; 'I' for Inactive)
REMARK    1  A    between atoms: C1_2  and  C2_3 
ROOT
ATOM      1  C2  UNL d   1       0.405   1.359   1.861  0.00  0.00    -0.076 A 
ATOM      2  C3  UNL d   1      -0.320   1.337   0.657  0.00  0.00     0.004 A 
ATOM      3  C4  UNL d   1      -0.222   2.384  -0.258  0.00  0.00    -0.003 A 
ATOM      4  C5  UNL d   1       0.602   3.470   0.016  0.00  0.00     0.000 A 
ATOM      5  C6  UNL d   1       1.341   3.500   1.198  0.00  0.00     0.000 A 
ATOM      6  C7  UNL d   1       1.267   2.445   2.123  0.00  0.00    -0.073 A 
ATOM      7  C8  UNL d   1       2.082   2.533   3.385  0.00  0.00     0.078 C 
ENDROOT
BRANCH   1   8
ATOM      8  C1  UNL d   1       0.238   0.209   2.828  0.00  0.00     0.053 C 
ATOM      9  C   UNL d   1       1.257  -0.897   2.598  0.00  0.00     0.018 C 
ENDBRANCH   1   8
TORSDOF 1
ENDMDL
