MODEL 1
REMARK minimizedAffinity 5.44004679
REMARK minimizedRMSD -1
REMARK  1 active torsions:
REMARK  status: ('A' for Active; 'I' for Inactive)
REMARK    1  A    between atoms: C1_2  and  C2_3 
ROOT
ATOM      1  C2  UNL d   1       4.200  -2.896  -2.575  0.00  0.00    -0.076 A 
ATOM      2  C3  UNL d   1       3.014  -3.649  -2.623  0.00  0.00     0.004 A 
ATOM      3  C4  UNL d   1       2.384  -4.071  -1.454  0.00  0.00    -0.003 A 
ATOM      4  C5  UNL d   1       2.929  -3.745  -0.217  0.00  0.00     0.000 A 
ATOM      5  C6  UNL d   1       4.095  -2.984  -0.150  0.00  0.00     0.000 A 
ATOM      6  C7  UNL d   1       4.734  -2.537  -1.319  0.00  0.00    -0.073 A 
ATOM      7  C8  UNL d   1       5.993  -1.723  -1.188  0.00  0.00     0.078 C 
ENDROOT
BRANCH   1   8
ATOM      8  C1  UNL d   1       4.854  -2.490  -3.876  0.00  0.00     0.053 C 
ATOM      9  C   UNL d   1       4.408  -1.114  -4.348  0.00  0.00     0.018 C 
ENDBRANCH   1   8
TORSDOF 1
ENDMDL
