MODEL 1
REMARK minimizedAffinity 11.5038214
REMARK minimizedRMSD -1
REMARK  1 active torsions:
REMARK  status: ('A' for Active; 'I' for Inactive)
REMARK    1  A    between atoms: C1_2  and  C2_3 
ROOT
ATOM      1  C2  UNL d   1      -1.939   3.338  -1.774  0.00  0.00    -0.076 A 
ATOM      2  C3  UNL d   1      -1.024   2.447  -1.186  0.00  0.00     0.004 A 
ATOM      3  C4  UNL d   1       0.230   2.883  -0.762  0.00  0.00    -0.003 A 
ATOM      4  C5  UNL d   1       0.589   4.218  -0.917  0.00  0.00     0.000 A 
ATOM      5  C6  UNL d   1      -0.313   5.119  -1.482  0.00  0.00     0.000 A 
ATOM      6  C7  UNL d   1      -1.587   4.699  -1.900  0.00  0.00    -0.073 A 
ATOM      7  C8  UNL d   1      -2.518   5.713  -2.508  0.00  0.00     0.078 C 
ENDROOT
BRANCH   1   8
ATOM      8  C1  UNL d   1      -3.274   2.802  -2.240  0.00  0.00     0.053 C 
ATOM      9  C   UNL d   1      -3.392   1.296  -2.063  0.00  0.00     0.018 C 
ENDBRANCH   1   8
TORSDOF 1
ENDMDL
