MODEL 1
REMARK minimizedAffinity 6.88330984
REMARK minimizedRMSD -1
REMARK  1 active torsions:
REMARK  status: ('A' for Active; 'I' for Inactive)
REMARK    1  A    between atoms: C1_2  and  C2_3 
ROOT
ATOM      1  C2  UNL d   1       3.168  -4.298  -1.348  0.00  0.00    -0.076 A 
ATOM      2  C3  UNL d   1       3.151  -3.901   0.001  0.00  0.00     0.004 A 
ATOM      3  C4  UNL d   1       3.736  -2.701   0.403  0.00  0.00    -0.003 A 
ATOM      4  C5  UNL d   1       4.346  -1.878  -0.537  0.00  0.00     0.000 A 
ATOM      5  C6  UNL d   1       4.356  -2.247  -1.882  0.00  0.00     0.000 A 
ATOM      6  C7  UNL d   1       3.757  -3.446  -2.306  0.00  0.00    -0.073 A 
ATOM      7  C8  UNL d   1       3.803  -3.798  -3.768  0.00  0.00     0.078 C 
ENDROOT
BRANCH   1   8
ATOM      8  C1  UNL d   1       2.542  -5.622  -1.721  0.00  0.00     0.053 C 
ATOM      9  C   UNL d   1       1.387  -6.000  -0.805  0.00  0.00     0.018 C 
ENDBRANCH   1   8
TORSDOF 1
ENDMDL
