MODEL 1
REMARK minimizedAffinity 7.52128649
REMARK minimizedRMSD -1
REMARK  3 active torsions:
REMARK  status: ('A' for Active; 'I' for Inactive)
REMARK    1  A    between atoms: C3'_2  and  C2'_3 
REMARK    2  A    between atoms: C2'_3  and  C1'_4 
REMARK    3  A    between atoms: C1'_4  and  C1_5 
ROOT
ATOM      1  C1  N4B d   1      -2.151   0.070   2.575  0.00  0.00    -0.075 A 
ATOM      2  C2  N4B d   1      -3.456  -0.462   2.665  0.00  0.00     0.002 A 
ATOM      3  C3  N4B d   1      -3.752  -1.393   3.631  0.00  0.00     0.002 A 
ATOM      4  C4  N4B d   1      -2.759  -1.819   4.501  0.00  0.00    -0.004 A 
ATOM      5  C5  N4B d   1      -1.508  -1.281   4.423  0.00  0.00     0.002 A 
ATOM      6  C6  N4B d   1      -1.197  -0.342   3.461  0.00  0.00     0.002 A 
ENDROOT
BRANCH   1   7
ATOM      7  C1' N4B d   1      -1.757   1.026   1.482  0.00  0.00     0.057 C 
BRANCH   7   8
ATOM      8  C2' N4B d   1      -0.967   0.271   0.417  0.00  0.00     0.009 C 
BRANCH   8   9
ATOM      9  C3' N4B d   1      -1.748   0.135  -0.879  0.00  0.00     0.004 C 
ATOM     10  C4' N4B d   1      -2.697  -1.027  -0.865  0.00  0.00     0.003 C 
ENDBRANCH   8   9
ENDBRANCH   7   8
ENDBRANCH   1   7
TORSDOF 3
ENDMDL
