MODEL 1
REMARK minimizedAffinity 6.01698208
REMARK minimizedRMSD -1
REMARK  3 active torsions:
REMARK  status: ('A' for Active; 'I' for Inactive)
REMARK    1  A    between atoms: C3'_2  and  C2'_3 
REMARK    2  A    between atoms: C2'_3  and  C1'_4 
REMARK    3  A    between atoms: C1'_4  and  C1_5 
ROOT
ATOM      1  C1  N4B d   1      -0.061   0.202   1.786  0.00  0.00    -0.075 A 
ATOM      2  C2  N4B d   1      -0.880  -0.191   2.867  0.00  0.00     0.002 A 
ATOM      3  C3  N4B d   1      -2.230   0.060   2.832  0.00  0.00     0.002 A 
ATOM      4  C4  N4B d   1      -2.777   0.717   1.740  0.00  0.00    -0.004 A 
ATOM      5  C5  N4B d   1      -1.982   1.070   0.689  0.00  0.00     0.002 A 
ATOM      6  C6  N4B d   1      -0.625   0.820   0.709  0.00  0.00     0.002 A 
ENDROOT
BRANCH   1   7
ATOM      7  C1' N4B d   1       1.433   0.025   1.817  0.00  0.00     0.057 C 
BRANCH   7   8
ATOM      8  C2' N4B d   1       2.014   0.433   0.466  0.00  0.00     0.009 C 
BRANCH   8   9
ATOM      9  C3' N4B d   1       2.874   1.680   0.571  0.00  0.00     0.004 C 
ATOM     10  C4' N4B d   1       3.660   1.949  -0.678  0.00  0.00     0.003 C 
ENDBRANCH   8   9
ENDBRANCH   7   8
ENDBRANCH   1   7
TORSDOF 3
ENDMDL
