MODEL 1
REMARK minimizedAffinity 9.90065765
REMARK minimizedRMSD -1
REMARK  3 active torsions:
REMARK  status: ('A' for Active; 'I' for Inactive)
REMARK    1  A    between atoms: C3'_2  and  C2'_3 
REMARK    2  A    between atoms: C2'_3  and  C1'_4 
REMARK    3  A    between atoms: C1'_4  and  C1_5 
ROOT
ATOM      1  C1  N4B d   1      -3.144  -0.124   1.701  0.00  0.00    -0.075 A 
ATOM      2  C2  N4B d   1      -3.178  -1.132   0.712  0.00  0.00     0.002 A 
ATOM      3  C3  N4B d   1      -2.698  -0.874  -0.548  0.00  0.00     0.002 A 
ATOM      4  C4  N4B d   1      -2.199   0.385  -0.848  0.00  0.00    -0.004 A 
ATOM      5  C5  N4B d   1      -2.147   1.345   0.120  0.00  0.00     0.002 A 
ATOM      6  C6  N4B d   1      -2.621   1.099   1.392  0.00  0.00     0.002 A 
ENDROOT
BRANCH   1   7
ATOM      7  C1' N4B d   1      -3.735  -0.332   3.068  0.00  0.00     0.057 C 
BRANCH   7   8
ATOM      8  C2' N4B d   1      -2.905  -1.369   3.820  0.00  0.00     0.009 C 
BRANCH   8   9
ATOM      9  C3' N4B d   1      -1.424  -1.034   3.800  0.00  0.00     0.004 C 
ATOM     10  C4' N4B d   1      -0.645  -1.782   4.840  0.00  0.00     0.003 C 
ENDBRANCH   8   9
ENDBRANCH   7   8
ENDBRANCH   1   7
TORSDOF 3
ENDMDL
