MODEL 1
REMARK minimizedAffinity -1.01243877
REMARK minimizedRMSD -1
REMARK  3 active torsions:
REMARK  status: ('A' for Active; 'I' for Inactive)
REMARK    1  A    between atoms: C3'_2  and  C2'_3 
REMARK    2  A    between atoms: C2'_3  and  C1'_4 
REMARK    3  A    between atoms: C1'_4  and  C1_5 
ROOT
ATOM      1  C1  N4B d   1       0.448  -0.306   1.723  0.00  0.00    -0.075 A 
ATOM      2  C2  N4B d   1      -0.068  -0.462   3.028  0.00  0.00     0.002 A 
ATOM      3  C3  N4B d   1      -1.393  -0.202   3.278  0.00  0.00     0.002 A 
ATOM      4  C4  N4B d   1      -2.213   0.232   2.247  0.00  0.00    -0.004 A 
ATOM      5  C5  N4B d   1      -1.713   0.355   0.984  0.00  0.00     0.002 A 
ATOM      6  C6  N4B d   1      -0.384   0.093   0.717  0.00  0.00     0.002 A 
ENDROOT
BRANCH   1   7
ATOM      7  C1' N4B d   1       1.909  -0.496   1.418  0.00  0.00     0.057 C 
BRANCH   7   8
ATOM      8  C2' N4B d   1       2.269   0.305   0.170  0.00  0.00     0.009 C 
BRANCH   8   9
ATOM      9  C3' N4B d   1       3.003   1.590   0.512  0.00  0.00     0.004 C 
ATOM     10  C4' N4B d   1       3.979   2.002  -0.549  0.00  0.00     0.003 C 
ENDBRANCH   8   9
ENDBRANCH   7   8
ENDBRANCH   1   7
TORSDOF 3
ENDMDL
