MODEL 1
REMARK minimizedAffinity -5.43362951
REMARK minimizedRMSD -1
REMARK  0 active torsions:
REMARK  status: ('A' for Active; 'I' for Inactive)
ROOT
ATOM      1  C1  DEN d   1      -0.229   1.130   0.251  0.00  0.00     0.130 A 
ATOM      2  C2  DEN d   1      -1.167   0.023   0.082  0.00  0.00    -0.031 A 
ATOM      3  C3  DEN d   1      -0.422  -1.239   0.269  0.00  0.00     0.027 A 
ATOM      4  C4  DEN d   1       2.077  -1.584   0.803  0.00  0.00     0.027 A 
ATOM      5  C5  DEN d   1       3.276  -0.944   1.026  0.00  0.00    -0.003 A 
ATOM      6  C6  DEN d   1       3.397   0.420   0.973  0.00  0.00     0.001 A 
ATOM      7  C7  DEN d   1       2.290   1.190   0.735  0.00  0.00     0.017 A 
ATOM      8  C8  DEN d   1       1.079   0.552   0.502  0.00  0.00    -0.094 A 
ATOM      9  C9  DEN d   1       0.975  -0.827   0.572  0.00  0.00    -0.072 A 
ENDROOT
TORSDOF 0
ENDMDL
