MODEL 1
REMARK minimizedAffinity -3.54135013
REMARK minimizedRMSD -1
REMARK  0 active torsions:
REMARK  status: ('A' for Active; 'I' for Inactive)
ROOT
ATOM      1  C1  DEN d   1      -0.863  -0.760  -3.484  0.00  0.00     0.130 A 
ATOM      2  C2  DEN d   1      -2.316  -0.713  -3.619  0.00  0.00    -0.031 A 
ATOM      3  C3  DEN d   1      -2.888  -0.408  -2.292  0.00  0.00     0.027 A 
ATOM      4  C4  DEN d   1      -1.670  -0.002  -0.055  0.00  0.00     0.027 A 
ATOM      5  C5  DEN d   1      -0.439   0.051   0.559  0.00  0.00    -0.003 A 
ATOM      6  C6  DEN d   1       0.726  -0.195  -0.118  0.00  0.00     0.001 A 
ATOM      7  C7  DEN d   1       0.687  -0.460  -1.461  0.00  0.00     0.017 A 
ATOM      8  C8  DEN d   1      -0.552  -0.522  -2.086  0.00  0.00    -0.094 A 
ATOM      9  C9  DEN d   1      -1.717  -0.259  -1.387  0.00  0.00    -0.072 A 
ENDROOT
TORSDOF 0
ENDMDL
