MODEL 1
REMARK minimizedAffinity -2.98149419
REMARK minimizedRMSD -1
REMARK  0 active torsions:
REMARK  status: ('A' for Active; 'I' for Inactive)
ROOT
ATOM      1  C1  DEN d   1       2.528  -0.877   0.267  0.00  0.00     0.130 A 
ATOM      2  C2  DEN d   1       3.256   0.001   1.179  0.00  0.00    -0.031 A 
ATOM      3  C3  DEN d   1       2.333   1.064   1.626  0.00  0.00     0.027 A 
ATOM      4  C4  DEN d   1      -0.142   1.431   1.000  0.00  0.00     0.027 A 
ATOM      5  C5  DEN d   1      -1.193   0.952   0.250  0.00  0.00    -0.003 A 
ATOM      6  C6  DEN d   1      -1.069  -0.141  -0.567  0.00  0.00     0.001 A 
ATOM      7  C7  DEN d   1       0.120  -0.819  -0.618  0.00  0.00     0.017 A 
ATOM      8  C8  DEN d   1       1.187  -0.337   0.130  0.00  0.00    -0.094 A 
ATOM      9  C9  DEN d   1       1.038   0.762   0.959  0.00  0.00    -0.072 A 
ENDROOT
TORSDOF 0
ENDMDL
