MODEL 1
REMARK minimizedAffinity -5.561553
REMARK minimizedRMSD -1
REMARK  0 active torsions:
REMARK  status: ('A' for Active; 'I' for Inactive)
ROOT
ATOM      1  C1  DEN d   1      -0.632  -0.989   0.511  0.00  0.00     0.130 A 
ATOM      2  C2  DEN d   1      -0.955   0.392   0.159  0.00  0.00    -0.031 A 
ATOM      3  C3  DEN d   1       0.303   1.165   0.145  0.00  0.00     0.027 A 
ATOM      4  C4  DEN d   1       2.707   0.363   0.625  0.00  0.00     0.027 A 
ATOM      5  C5  DEN d   1       3.478  -0.722   0.979  0.00  0.00    -0.003 A 
ATOM      6  C6  DEN d   1       2.935  -1.954   1.232  0.00  0.00     0.001 A 
ATOM      7  C7  DEN d   1       1.585  -2.142   1.091  0.00  0.00     0.017 A 
ATOM      8  C8  DEN d   1       0.800  -1.051   0.743  0.00  0.00    -0.094 A 
ATOM      9  C9  DEN d   1       1.370   0.183   0.479  0.00  0.00    -0.072 A 
ENDROOT
TORSDOF 0
ENDMDL
