MODEL 1
REMARK minimizedAffinity -5.35704184
REMARK minimizedRMSD -1
REMARK  0 active torsions:
REMARK  status: ('A' for Active; 'I' for Inactive)
ROOT
ATOM      1  C1  DEN d   1       2.939  -1.337   1.662  0.00  0.00     0.130 A 
ATOM      2  C2  DEN d   1       2.025  -2.412   2.041  0.00  0.00    -0.031 A 
ATOM      3  C3  DEN d   1       0.661  -2.014   1.642  0.00  0.00     0.027 A 
ATOM      4  C4  DEN d   1      -0.123   0.151   0.478  0.00  0.00     0.027 A 
ATOM      5  C5  DEN d   1       0.288   1.363  -0.030  0.00  0.00    -0.003 A 
ATOM      6  C6  DEN d   1       1.594   1.772   0.020  0.00  0.00     0.001 A 
ATOM      7  C7  DEN d   1       2.545   0.941   0.551  0.00  0.00     0.017 A 
ATOM      8  C8  DEN d   1       2.138  -0.280   1.072  0.00  0.00    -0.094 A 
ATOM      9  C9  DEN d   1       0.815  -0.680   1.001  0.00  0.00    -0.072 A 
ENDROOT
TORSDOF 0
ENDMDL
