MODEL 1
REMARK minimizedAffinity -7.0163126
REMARK minimizedRMSD -1
REMARK  0 active torsions:
REMARK  status: ('A' for Active; 'I' for Inactive)
ROOT
ATOM      1  C1  DEN d   1      -0.126   1.077   0.317  0.00  0.00     0.130 A 
ATOM      2  C2  DEN d   1      -1.348   0.283   0.411  0.00  0.00    -0.031 A 
ATOM      3  C3  DEN d   1      -0.976  -1.078   0.848  0.00  0.00     0.027 A 
ATOM      4  C4  DEN d   1       1.361  -2.026   1.390  0.00  0.00     0.027 A 
ATOM      5  C5  DEN d   1       2.706  -1.733   1.444  0.00  0.00    -0.003 A 
ATOM      6  C6  DEN d   1       3.201  -0.505   1.096  0.00  0.00     0.001 A 
ATOM      7  C7  DEN d   1       2.339   0.493   0.721  0.00  0.00     0.017 A 
ATOM      8  C8  DEN d   1       0.983   0.204   0.658  0.00  0.00    -0.094 A 
ATOM      9  C9  DEN d   1       0.501  -1.041   1.025  0.00  0.00    -0.072 A 
ENDROOT
TORSDOF 0
ENDMDL
