MODEL 1
REMARK minimizedAffinity 2.20953679
REMARK minimizedRMSD -1
REMARK  0 active torsions:
REMARK  status: ('A' for Active; 'I' for Inactive)
ROOT
ATOM      1  C1  DEN d   1       1.882  -2.105   2.408  0.00  0.00     0.130 A 
ATOM      2  C2  DEN d   1       2.826  -0.993   2.337  0.00  0.00    -0.031 A 
ATOM      3  C3  DEN d   1       2.288   0.003   1.388  0.00  0.00     0.027 A 
ATOM      4  C4  DEN d   1       0.094  -0.066   0.034  0.00  0.00     0.027 A 
ATOM      5  C5  DEN d   1      -1.029  -0.813  -0.246  0.00  0.00    -0.003 A 
ATOM      6  C6  DEN d   1      -1.243  -2.047   0.308  0.00  0.00     0.001 A 
ATOM      7  C7  DEN d   1      -0.341  -2.553   1.207  0.00  0.00     0.017 A 
ATOM      8  C8  DEN d   1       0.798  -1.809   1.489  0.00  0.00    -0.094 A 
ATOM      9  C9  DEN d   1       0.990  -0.558   0.927  0.00  0.00    -0.072 A 
ENDROOT
TORSDOF 0
ENDMDL
