MODEL 1
REMARK minimizedAffinity -7.0719862
REMARK minimizedRMSD -1
REMARK  0 active torsions:
REMARK  status: ('A' for Active; 'I' for Inactive)
ROOT
ATOM      1  C1  DEN d   1      -0.479   0.010  -0.056  0.00  0.00     0.130 A 
ATOM      2  C2  DEN d   1      -0.370   1.424  -0.405  0.00  0.00    -0.031 A 
ATOM      3  C3  DEN d   1       0.962   1.897   0.020  0.00  0.00     0.027 A 
ATOM      4  C4  DEN d   1       2.860   0.584   1.172  0.00  0.00     0.027 A 
ATOM      5  C5  DEN d   1       3.228  -0.642   1.680  0.00  0.00    -0.003 A 
ATOM      6  C6  DEN d   1       2.382  -1.719   1.675  0.00  0.00     0.001 A 
ATOM      7  C7  DEN d   1       1.139  -1.603   1.111  0.00  0.00     0.017 A 
ATOM      8  C8  DEN d   1       0.757  -0.368   0.604  0.00  0.00    -0.094 A 
ATOM      9  C9  DEN d   1       1.632   0.705   0.607  0.00  0.00    -0.072 A 
ENDROOT
TORSDOF 0
ENDMDL
