MODEL 1
REMARK minimizedAffinity -5.63063145
REMARK minimizedRMSD -1
REMARK  0 active torsions:
REMARK  status: ('A' for Active; 'I' for Inactive)
ROOT
ATOM      1  C1  DEN d   1       2.174  -1.045   0.439  0.00  0.00     0.130 A 
ATOM      2  C2  DEN d   1       3.250  -0.182   0.920  0.00  0.00    -0.031 A 
ATOM      3  C3  DEN d   1       2.714   1.187   1.050  0.00  0.00     0.027 A 
ATOM      4  C4  DEN d   1       0.333   2.051   0.559  0.00  0.00     0.027 A 
ATOM      5  C5  DEN d   1      -0.922   1.694   0.120  0.00  0.00    -0.003 A 
ATOM      6  C6  DEN d   1      -1.222   0.416  -0.273  0.00  0.00     0.001 A 
ATOM      7  C7  DEN d   1      -0.266  -0.561  -0.191  0.00  0.00     0.017 A 
ATOM      8  C8  DEN d   1       1.004  -0.207   0.244  0.00  0.00    -0.094 A 
ATOM      9  C9  DEN d   1       1.285   1.088   0.648  0.00  0.00    -0.072 A 
ENDROOT
TORSDOF 0
ENDMDL
