MODEL 1
REMARK minimizedAffinity -4.58579779
REMARK minimizedRMSD -1
REMARK  0 active torsions:
REMARK  status: ('A' for Active; 'I' for Inactive)
ROOT
ATOM      1  C4' PXY d   1       1.721  -0.938  -0.670  0.00  0.00     0.077 C 
ATOM      2  C1' PXY d   1      -2.409   2.533   1.405  0.00  0.00     0.077 C 
ATOM      3  C1  PXY d   1      -1.323   1.620   0.873  0.00  0.00    -0.082 A 
ATOM      4  C2  PXY d   1      -0.823   1.831  -0.334  0.00  0.00     0.003 A 
ATOM      5  C3  PXY d   1       0.137   0.996  -0.843  0.00  0.00     0.003 A 
ATOM      6  C4  PXY d   1       0.629  -0.035  -0.089  0.00  0.00    -0.082 A 
ATOM      7  C5  PXY d   1       0.132  -0.251   1.148  0.00  0.00     0.003 A 
ATOM      8  C6  PXY d   1      -0.872   0.583   1.630  0.00  0.00     0.003 A 
ENDROOT
TORSDOF 0
ENDMDL
