MODEL 1
REMARK minimizedAffinity -3.77318263
REMARK minimizedRMSD -1
REMARK  0 active torsions:
REMARK  status: ('A' for Active; 'I' for Inactive)
ROOT
ATOM      1  C4' PXY d   1       1.132  -2.079  -1.132  0.00  0.00     0.077 C 
ATOM      2  C1' PXY d   1      -1.271   2.059   2.112  0.00  0.00     0.077 C 
ATOM      3  C1  PXY d   1      -0.641   0.981   1.250  0.00  0.00    -0.082 A 
ATOM      4  C2  PXY d   1      -0.708  -0.284   1.633  0.00  0.00     0.003 A 
ATOM      5  C3  PXY d   1      -0.117  -1.267   0.882  0.00  0.00     0.003 A 
ATOM      6  C4  PXY d   1       0.503  -0.959  -0.299  0.00  0.00    -0.082 A 
ATOM      7  C5  PXY d   1       0.566   0.328  -0.701  0.00  0.00     0.003 A 
ATOM      8  C6  PXY d   1      -0.005   1.316   0.095  0.00  0.00     0.003 A 
ENDROOT
TORSDOF 0
ENDMDL
