MODEL 1
REMARK minimizedAffinity -5.45462132
REMARK minimizedRMSD -1
REMARK  0 active torsions:
REMARK  status: ('A' for Active; 'I' for Inactive)
ROOT
ATOM      1  C4' PXY d   1       0.100  -0.670   2.233  0.00  0.00     0.077 C 
ATOM      2  C1' PXY d   1      -1.500   4.023  -0.738  0.00  0.00     0.077 C 
ATOM      3  C1  PXY d   1      -1.080   2.786   0.030  0.00  0.00    -0.082 A 
ATOM      4  C2  PXY d   1      -1.363   2.688   1.319  0.00  0.00     0.003 A 
ATOM      5  C3  PXY d   1      -0.962   1.590   2.036  0.00  0.00     0.003 A 
ATOM      6  C4  PXY d   1      -0.313   0.557   1.416  0.00  0.00    -0.082 A 
ATOM      7  C5  PXY d   1      -0.031   0.644   0.098  0.00  0.00     0.003 A 
ATOM      8  C6  PXY d   1      -0.409   1.785  -0.602  0.00  0.00     0.003 A 
ENDROOT
TORSDOF 0
ENDMDL
