MODEL 1
REMARK minimizedAffinity -4.84247637
REMARK minimizedRMSD -1
REMARK  0 active torsions:
REMARK  status: ('A' for Active; 'I' for Inactive)
ROOT
ATOM      1  C4' PXY d   1       1.343  -1.451  -0.754  0.00  0.00     0.077 C 
ATOM      2  C1' PXY d   1      -2.311   2.281   1.722  0.00  0.00     0.077 C 
ATOM      3  C1  PXY d   1      -1.358   1.305   1.061  0.00  0.00    -0.082 A 
ATOM      4  C2  PXY d   1      -0.861   0.299   1.762  0.00  0.00     0.003 A 
ATOM      5  C3  PXY d   1       0.027  -0.574   1.189  0.00  0.00     0.003 A 
ATOM      6  C4  PXY d   1       0.370  -0.447  -0.131  0.00  0.00    -0.082 A 
ATOM      7  C5  PXY d   1      -0.140   0.570  -0.856  0.00  0.00     0.003 A 
ATOM      8  C6  PXY d   1      -1.009   1.470  -0.244  0.00  0.00     0.003 A 
ENDROOT
TORSDOF 0
ENDMDL
