MODEL 1
REMARK minimizedAffinity -3.26160717
REMARK minimizedRMSD -1
REMARK  0 active torsions:
REMARK  status: ('A' for Active; 'I' for Inactive)
ROOT
ATOM      1  C4' PXY d   1      -1.515   1.725   1.746  0.00  0.00     0.077 C 
ATOM      2  C1' PXY d   1       1.930  -1.739  -1.344  0.00  0.00     0.077 C 
ATOM      3  C1  PXY d   1       1.030  -0.820  -0.541  0.00  0.00    -0.082 A 
ATOM      4  C2  PXY d   1       0.654  -1.174   0.677  0.00  0.00     0.003 A 
ATOM      5  C3  PXY d   1      -0.185  -0.370   1.405  0.00  0.00     0.003 A 
ATOM      6  C4  PXY d   1      -0.600   0.834   0.902  0.00  0.00    -0.082 A 
ATOM      7  C5  PXY d   1      -0.212   1.207  -0.336  0.00  0.00     0.003 A 
ATOM      8  C6  PXY d   1       0.607   0.358  -1.075  0.00  0.00     0.003 A 
ENDROOT
TORSDOF 0
ENDMDL
