MODEL 1
REMARK minimizedAffinity -3.16040373
REMARK minimizedRMSD -1
REMARK  0 active torsions:
REMARK  status: ('A' for Active; 'I' for Inactive)
ROOT
ATOM      1  C4' PXY d   1       0.649  -2.505  -1.861  0.00  0.00     0.077 C 
ATOM      2  C1' PXY d   1      -1.011   1.450   2.013  0.00  0.00     0.077 C 
ATOM      3  C1  PXY d   1      -0.563   0.416   0.999  0.00  0.00    -0.082 A 
ATOM      4  C2  PXY d   1      -1.391   0.042   0.037  0.00  0.00     0.003 A 
ATOM      5  C3  PXY d   1      -1.014  -0.916  -0.869  0.00  0.00     0.003 A 
ATOM      6  C4  PXY d   1       0.243  -1.457  -0.822  0.00  0.00    -0.082 A 
ATOM      7  C5  PXY d   1       1.097  -1.073   0.150  0.00  0.00     0.003 A 
ATOM      8  C6  PXY d   1       0.681  -0.129   1.085  0.00  0.00     0.003 A 
ENDROOT
TORSDOF 0
ENDMDL
