MODEL 1
REMARK minimizedAffinity -0.828538418
REMARK minimizedRMSD -1
REMARK  0 active torsions:
REMARK  status: ('A' for Active; 'I' for Inactive)
ROOT
ATOM      1  C4' PXY d   1       1.369  -2.437  -1.257  0.00  0.00     0.077 C 
ATOM      2  C1' PXY d   1      -1.422   1.594   1.806  0.00  0.00     0.077 C 
ATOM      3  C1  PXY d   1      -0.694   0.542   0.991  0.00  0.00    -0.082 A 
ATOM      4  C2  PXY d   1      -0.442  -0.641   1.527  0.00  0.00     0.003 A 
ATOM      5  C3  PXY d   1       0.244  -1.592   0.816  0.00  0.00     0.003 A 
ATOM      6  C4  PXY d   1       0.628  -1.348  -0.476  0.00  0.00    -0.082 A 
ATOM      7  C5  PXY d   1       0.365  -0.147  -1.033  0.00  0.00     0.003 A 
ATOM      8  C6  PXY d   1      -0.296   0.819  -0.280  0.00  0.00     0.003 A 
ENDROOT
TORSDOF 0
ENDMDL
