MODEL 1
REMARK minimizedAffinity -4.58792448
REMARK minimizedRMSD -1
REMARK  0 active torsions:
REMARK  status: ('A' for Active; 'I' for Inactive)
ROOT
ATOM      1  C4' PXY d   1       1.139  -1.579  -0.777  0.00  0.00     0.077 C 
ATOM      2  C1' PXY d   1      -1.850   2.980   1.147  0.00  0.00     0.077 C 
ATOM      3  C1  PXY d   1      -1.065   1.780   0.655  0.00  0.00    -0.082 A 
ATOM      4  C2  PXY d   1      -0.373   1.867  -0.470  0.00  0.00     0.003 A 
ATOM      5  C3  PXY d   1       0.316   0.782  -0.946  0.00  0.00     0.003 A 
ATOM      6  C4  PXY d   1       0.340  -0.389  -0.237  0.00  0.00    -0.082 A 
ATOM      7  C5  PXY d   1      -0.355  -0.483   0.916  0.00  0.00     0.003 A 
ATOM      8  C6  PXY d   1      -1.082   0.617   1.362  0.00  0.00     0.003 A 
ENDROOT
TORSDOF 0
ENDMDL
