MODEL 1
REMARK minimizedAffinity -5.38655138
REMARK minimizedRMSD -1
REMARK  0 active torsions:
REMARK  status: ('A' for Active; 'I' for Inactive)
ROOT
ATOM      1  C4' PXY d   1      -0.706   3.930  -0.823  0.00  0.00     0.077 C 
ATOM      2  C1' PXY d   1      -0.795  -0.878   2.385  0.00  0.00     0.077 C 
ATOM      3  C1  PXY d   1      -0.783   0.387   1.549  0.00  0.00    -0.082 A 
ATOM      4  C2  PXY d   1      -0.097   0.417   0.418  0.00  0.00     0.003 A 
ATOM      5  C3  PXY d   1      -0.049   1.562  -0.334  0.00  0.00     0.003 A 
ATOM      6  C4  PXY d   1      -0.754   2.672   0.048  0.00  0.00    -0.082 A 
ATOM      7  C5  PXY d   1      -1.465   2.646   1.195  0.00  0.00     0.003 A 
ATOM      8  C6  PXY d   1      -1.467   1.487   1.966  0.00  0.00     0.003 A 
ENDROOT
TORSDOF 0
ENDMDL
