MODEL 1
REMARK minimizedAffinity -4.83867645
REMARK minimizedRMSD -1
REMARK  0 active torsions:
REMARK  status: ('A' for Active; 'I' for Inactive)
ROOT
ATOM      1  C4' PXY d   1       0.657  -1.398  -0.229  0.00  0.00     0.077 C 
ATOM      2  C1' PXY d   1      -1.458   3.953  -0.780  0.00  0.00     0.077 C 
ATOM      3  C1  PXY d   1      -0.897   2.551  -0.647  0.00  0.00    -0.082 A 
ATOM      4  C2  PXY d   1      -1.516   1.669   0.121  0.00  0.00     0.003 A 
ATOM      5  C3  PXY d   1      -1.005   0.407   0.278  0.00  0.00     0.003 A 
ATOM      6  C4  PXY d   1       0.122   0.026  -0.400  0.00  0.00    -0.082 A 
ATOM      7  C5  PXY d   1       0.753   0.917  -1.194  0.00  0.00     0.003 A 
ATOM      8  C6  PXY d   1       0.241   2.206  -1.308  0.00  0.00     0.003 A 
ENDROOT
TORSDOF 0
ENDMDL
