MODEL 1
REMARK minimizedAffinity -3.5313077
REMARK minimizedRMSD -1
REMARK  0 active torsions:
REMARK  status: ('A' for Active; 'I' for Inactive)
ROOT
ATOM      1  C4' PXY d   1      -0.876   1.400   2.290  0.00  0.00     0.077 C 
ATOM      2  C1' PXY d   1       0.441  -1.863  -2.296  0.00  0.00     0.077 C 
ATOM      3  C1  PXY d   1       0.086  -1.001  -1.100  0.00  0.00    -0.082 A 
ATOM      4  C2  PXY d   1       0.992  -0.780  -0.162  0.00  0.00     0.003 A 
ATOM      5  C3  PXY d   1       0.679  -0.029   0.942  0.00  0.00     0.003 A 
ATOM      6  C4  PXY d   1      -0.559   0.544   1.061  0.00  0.00    -0.082 A 
ATOM      7  C5  PXY d   1      -1.486   0.331   0.103  0.00  0.00     0.003 A 
ATOM      8  C6  PXY d   1      -1.161  -0.468  -0.990  0.00  0.00     0.003 A 
ENDROOT
TORSDOF 0
ENDMDL
