MODEL 1
REMARK minimizedAffinity -4.87224436
REMARK minimizedRMSD -1
REMARK  0 active torsions:
REMARK  status: ('A' for Active; 'I' for Inactive)
ROOT
ATOM      1  C4' PXY d   1       1.139  -1.745  -0.765  0.00  0.00     0.077 C 
ATOM      2  C1' PXY d   1      -2.451   2.195   1.473  0.00  0.00     0.077 C 
ATOM      3  C1  PXY d   1      -1.510   1.168   0.875  0.00  0.00    -0.082 A 
ATOM      4  C2  PXY d   1      -1.416  -0.032   1.425  0.00  0.00     0.003 A 
ATOM      5  C3  PXY d   1      -0.547  -0.962   0.915  0.00  0.00     0.003 A 
ATOM      6  C4  PXY d   1       0.195  -0.680  -0.200  0.00  0.00    -0.082 A 
ATOM      7  C5  PXY d   1       0.097   0.539  -0.773  0.00  0.00     0.003 A 
ATOM      8  C6  PXY d   1      -0.761   1.483  -0.216  0.00  0.00     0.003 A 
ENDROOT
TORSDOF 0
ENDMDL
