MODEL 1
REMARK minimizedAffinity -3.10219765
REMARK minimizedRMSD -1
REMARK  0 active torsions:
REMARK  status: ('A' for Active; 'I' for Inactive)
ROOT
ATOM      1  C4' PXY d   1      -0.594   0.697   1.871  0.00  0.00     0.077 C 
ATOM      2  C1' PXY d   1       0.505  -2.723  -2.658  0.00  0.00     0.077 C 
ATOM      3  C1  PXY d   1       0.228  -1.820  -1.472  0.00  0.00    -0.082 A 
ATOM      4  C2  PXY d   1      -0.566  -2.240  -0.501  0.00  0.00     0.003 A 
ATOM      5  C3  PXY d   1      -0.852  -1.424   0.563  0.00  0.00     0.003 A 
ATOM      6  C4  PXY d   1      -0.278  -0.185   0.660  0.00  0.00    -0.082 A 
ATOM      7  C5  PXY d   1       0.541   0.248  -0.322  0.00  0.00     0.003 A 
ATOM      8  C6  PXY d   1       0.787  -0.580  -1.414  0.00  0.00     0.003 A 
ENDROOT
TORSDOF 0
ENDMDL
