MODEL 1
REMARK minimizedAffinity -3.95517898
REMARK minimizedRMSD -1
REMARK  0 active torsions:
REMARK  status: ('A' for Active; 'I' for Inactive)
ROOT
ATOM      1  C4' PXY d   1       1.223  -1.820  -1.272  0.00  0.00     0.077 C 
ATOM      2  C1' PXY d   1      -1.938   1.758   1.988  0.00  0.00     0.077 C 
ATOM      3  C1  PXY d   1      -1.114   0.825   1.122  0.00  0.00    -0.082 A 
ATOM      4  C2  PXY d   1      -0.750  -0.356   1.595  0.00  0.00     0.003 A 
ATOM      5  C3  PXY d   1       0.023  -1.198   0.837  0.00  0.00     0.003 A 
ATOM      6  C4  PXY d   1       0.382  -0.850  -0.437  0.00  0.00    -0.082 A 
ATOM      7  C5  PXY d   1       0.006   0.349  -0.931  0.00  0.00     0.003 A 
ATOM      8  C6  PXY d   1      -0.744   1.207  -0.131  0.00  0.00     0.003 A 
ENDROOT
TORSDOF 0
ENDMDL
