MODEL 1
REMARK minimizedAffinity -4.1872654
REMARK minimizedRMSD -1
REMARK  0 active torsions:
REMARK  status: ('A' for Active; 'I' for Inactive)
ROOT
ATOM      1  C4' PXY d   1      -1.855   3.728   0.757  0.00  0.00     0.077 C 
ATOM      2  C1' PXY d   1       1.167  -0.991  -0.662  0.00  0.00     0.077 C 
ATOM      3  C1  PXY d   1       0.366   0.239  -0.284  0.00  0.00    -0.082 A 
ATOM      4  C2  PXY d   1       0.482   1.343  -1.004  0.00  0.00     0.003 A 
ATOM      5  C3  PXY d   1      -0.211   2.474  -0.657  0.00  0.00     0.003 A 
ATOM      6  C4  PXY d   1      -1.073   2.460   0.407  0.00  0.00    -0.082 A 
ATOM      7  C5  PXY d   1      -1.205   1.334   1.141  0.00  0.00     0.003 A 
ATOM      8  C6  PXY d   1      -0.461   0.209   0.797  0.00  0.00     0.003 A 
ENDROOT
TORSDOF 0
ENDMDL
