MODEL 1
REMARK minimizedAffinity -5.43325138
REMARK minimizedRMSD -1
REMARK  0 active torsions:
REMARK  status: ('A' for Active; 'I' for Inactive)
ROOT
ATOM      1  C4' PXY d   1       1.244  -0.855  -0.691  0.00  0.00     0.077 C 
ATOM      2  C1' PXY d   1      -2.263   3.098   1.653  0.00  0.00     0.077 C 
ATOM      3  C1  PXY d   1      -1.341   2.056   1.050  0.00  0.00    -0.082 A 
ATOM      4  C2  PXY d   1      -0.785   2.279  -0.130  0.00  0.00     0.003 A 
ATOM      5  C3  PXY d   1       0.027   1.335  -0.704  0.00  0.00     0.003 A 
ATOM      6  C4  PXY d   1       0.314   0.172  -0.040  0.00  0.00    -0.082 A 
ATOM      7  C5  PXY d   1      -0.241  -0.058   1.169  0.00  0.00     0.003 A 
ATOM      8  C6  PXY d   1      -1.095   0.896   1.716  0.00  0.00     0.003 A 
ENDROOT
TORSDOF 0
ENDMDL
