MODEL 1
REMARK minimizedAffinity -4.9153862
REMARK minimizedRMSD -1
REMARK  0 active torsions:
REMARK  status: ('A' for Active; 'I' for Inactive)
ROOT
ATOM      1  C4' PXY d   1       1.516  -0.761  -0.497  0.00  0.00     0.077 C 
ATOM      2  C1' PXY d   1      -2.486   3.005   1.295  0.00  0.00     0.077 C 
ATOM      3  C1  PXY d   1      -1.438   2.010   0.836  0.00  0.00    -0.082 A 
ATOM      4  C2  PXY d   1      -0.492   2.397  -0.005  0.00  0.00     0.003 A 
ATOM      5  C3  PXY d   1       0.444   1.503  -0.455  0.00  0.00     0.003 A 
ATOM      6  C4  PXY d   1       0.444   0.211   0.000  0.00  0.00    -0.082 A 
ATOM      7  C5  PXY d   1      -0.512  -0.188   0.866  0.00  0.00     0.003 A 
ATOM      8  C6  PXY d   1      -1.477   0.725   1.280  0.00  0.00     0.003 A 
ENDROOT
TORSDOF 0
ENDMDL
