MODEL 1
REMARK minimizedAffinity -4.57250977
REMARK minimizedRMSD -1
REMARK  0 active torsions:
REMARK  status: ('A' for Active; 'I' for Inactive)
ROOT
ATOM      1  C4' PXY d   1       0.921  -1.427  -0.670  0.00  0.00     0.077 C 
ATOM      2  C1' PXY d   1      -2.089   3.129   1.226  0.00  0.00     0.077 C 
ATOM      3  C1  PXY d   1      -1.297   1.931   0.741  0.00  0.00    -0.082 A 
ATOM      4  C2  PXY d   1      -0.829   1.914  -0.497  0.00  0.00     0.003 A 
ATOM      5  C3  PXY d   1      -0.138   0.825  -0.961  0.00  0.00     0.003 A 
ATOM      6  C4  PXY d   1       0.124  -0.235  -0.135  0.00  0.00    -0.082 A 
ATOM      7  C5  PXY d   1      -0.341  -0.220   1.133  0.00  0.00     0.003 A 
ATOM      8  C6  PXY d   1      -1.076   0.877   1.573  0.00  0.00     0.003 A 
ENDROOT
TORSDOF 0
ENDMDL
