MODEL 1
REMARK minimizedAffinity -4.53018951
REMARK minimizedRMSD -1
REMARK  0 active torsions:
REMARK  status: ('A' for Active; 'I' for Inactive)
ROOT
ATOM      1  C4' PXY d   1      -0.683   3.627  -1.243  0.00  0.00     0.077 C 
ATOM      2  C1' PXY d   1      -0.541  -1.079   2.110  0.00  0.00     0.077 C 
ATOM      3  C1  PXY d   1      -0.589   0.159   1.237  0.00  0.00    -0.082 A 
ATOM      4  C2  PXY d   1       0.004   0.148   0.054  0.00  0.00     0.003 A 
ATOM      5  C3  PXY d   1      -0.003   1.270  -0.735  0.00  0.00     0.003 A 
ATOM      6  C4  PXY d   1      -0.668   2.397  -0.332  0.00  0.00    -0.082 A 
ATOM      7  C5  PXY d   1      -1.284   2.412   0.869  0.00  0.00     0.003 A 
ATOM      8  C6  PXY d   1      -1.231   1.277   1.673  0.00  0.00     0.003 A 
ENDROOT
TORSDOF 0
ENDMDL
