MODEL 1
REMARK minimizedAffinity -2.69852448
REMARK minimizedRMSD -1
REMARK  0 active torsions:
REMARK  status: ('A' for Active; 'I' for Inactive)
ROOT
ATOM      1  C   UNL d   1      -6.000   3.381  -5.371  0.00  0.00     0.172 C 
ATOM      2  N   UNL d   1      -5.359   3.026  -4.126  0.00  0.00    -0.070 N 
ATOM      3  C1  UNL d   1      -6.000   2.622  -2.985  0.00  0.00    -0.004 A 
ATOM      4  C2  UNL d   1      -5.040   2.377  -2.027  0.00  0.00    -0.047 A 
ATOM      5  C3  UNL d   1      -3.779   2.645  -2.612  0.00  0.00    -0.047 A 
ATOM      6  C4  UNL d   1      -4.006   3.044  -3.912  0.00  0.00    -0.004 A 
ENDROOT
TORSDOF 0
ENDMDL
