MODEL 1
REMARK minimizedAffinity 2.14697838
REMARK minimizedRMSD -1
REMARK  0 active torsions:
REMARK  status: ('A' for Active; 'I' for Inactive)
ROOT
ATOM      1  C   UNL d   1       1.061   0.487  -1.432  0.00  0.00     0.172 C 
ATOM      2  N   UNL d   1       0.568   1.615  -0.677  0.00  0.00    -0.070 N 
ATOM      3  C1  UNL d   1      -0.387   2.501  -1.098  0.00  0.00    -0.004 A 
ATOM      4  C2  UNL d   1      -0.576   3.426  -0.094  0.00  0.00    -0.047 A 
ATOM      5  C3  UNL d   1       0.297   3.085   0.966  0.00  0.00    -0.047 A 
ATOM      6  C4  UNL d   1       0.994   1.960   0.578  0.00  0.00    -0.004 A 
ENDROOT
TORSDOF 0
ENDMDL
