MODEL 1
REMARK minimizedAffinity -1.45683706
REMARK minimizedRMSD -1
REMARK  0 active torsions:
REMARK  status: ('A' for Active; 'I' for Inactive)
ROOT
ATOM      1  C   UNL d   1      -5.991   1.928  -2.725  0.00  0.00     0.172 C 
ATOM      2  N   UNL d   1      -5.546   1.591  -4.058  0.00  0.00    -0.070 N 
ATOM      3  C1  UNL d   1      -4.616   2.282  -4.787  0.00  0.00    -0.004 A 
ATOM      4  C2  UNL d   1      -4.472   1.643  -6.000  0.00  0.00    -0.047 A 
ATOM      5  C3  UNL d   1      -5.346   0.530  -5.999  0.00  0.00    -0.047 A 
ATOM      6  C4  UNL d   1      -5.999   0.522  -4.785  0.00  0.00    -0.004 A 
ENDROOT
TORSDOF 0
ENDMDL
