MODEL 1
REMARK minimizedAffinity -0.940630734
REMARK minimizedRMSD -1
REMARK  0 active torsions:
REMARK  status: ('A' for Active; 'I' for Inactive)
ROOT
ATOM      1  C   UNL d   1       0.302   2.074   2.638  0.00  0.00     0.172 C 
ATOM      2  N   UNL d   1       0.144   2.559   1.287  0.00  0.00    -0.070 N 
ATOM      3  C1  UNL d   1       0.039   1.780   0.166  0.00  0.00    -0.004 A 
ATOM      4  C2  UNL d   1      -0.098   2.618  -0.919  0.00  0.00    -0.047 A 
ATOM      5  C3  UNL d   1      -0.073   3.947  -0.433  0.00  0.00    -0.047 A 
ATOM      6  C4  UNL d   1       0.078   3.882   0.936  0.00  0.00    -0.004 A 
ENDROOT
TORSDOF 0
ENDMDL
