MODEL 1
REMARK minimizedAffinity -2.71628428
REMARK minimizedRMSD -1
REMARK  0 active torsions:
REMARK  status: ('A' for Active; 'I' for Inactive)
ROOT
ATOM      1  C   UNL d   1      -5.967   2.826  -5.470  0.00  0.00     0.172 C 
ATOM      2  N   UNL d   1      -4.968   1.794  -5.614  0.00  0.00    -0.070 N 
ATOM      3  C1  UNL d   1      -5.207   0.495  -5.976  0.00  0.00    -0.004 A 
ATOM      4  C2  UNL d   1      -3.998  -0.166  -6.000  0.00  0.00    -0.047 A 
ATOM      5  C3  UNL d   1      -2.998   0.767  -5.638  0.00  0.00    -0.047 A 
ATOM      6  C4  UNL d   1      -3.626   1.972  -5.405  0.00  0.00    -0.004 A 
ENDROOT
TORSDOF 0
ENDMDL
