MODEL 1
REMARK minimizedAffinity 0.278017074
REMARK minimizedRMSD -1
REMARK  0 active torsions:
REMARK  status: ('A' for Active; 'I' for Inactive)
ROOT
ATOM      1  C   UNL d   1       1.279   0.091  -1.195  0.00  0.00     0.172 C 
ATOM      2  N   UNL d   1       0.808   1.310  -0.581  0.00  0.00    -0.070 N 
ATOM      3  C1  UNL d   1      -0.188   2.115  -1.067  0.00  0.00    -0.004 A 
ATOM      4  C2  UNL d   1      -0.338   3.173  -0.197  0.00  0.00    -0.047 A 
ATOM      5  C3  UNL d   1       0.601   2.999   0.847  0.00  0.00    -0.047 A 
ATOM      6  C4  UNL d   1       1.298   1.838   0.584  0.00  0.00    -0.004 A 
ENDROOT
TORSDOF 0
ENDMDL
