MODEL 1
REMARK minimizedAffinity -0.60579741
REMARK minimizedRMSD -1
REMARK  0 active torsions:
REMARK  status: ('A' for Active; 'I' for Inactive)
ROOT
ATOM      1  C   UNL d   1       1.009  -1.138  -1.605  0.00  0.00     0.172 C 
ATOM      2  N   UNL d   1       0.612  -2.526  -1.654  0.00  0.00    -0.070 N 
ATOM      3  C1  UNL d   1      -0.448  -3.028  -2.361  0.00  0.00    -0.004 A 
ATOM      4  C2  UNL d   1      -0.490  -4.389  -2.149  0.00  0.00    -0.047 A 
ATOM      5  C3  UNL d   1       0.581  -4.716  -1.283  0.00  0.00    -0.047 A 
ATOM      6  C4  UNL d   1       1.247  -3.544  -0.993  0.00  0.00    -0.004 A 
ENDROOT
TORSDOF 0
ENDMDL
