MODEL 1
REMARK minimizedAffinity 4.25415945
REMARK minimizedRMSD -1
REMARK  0 active torsions:
REMARK  status: ('A' for Active; 'I' for Inactive)
ROOT
ATOM      1  C   UNL d   1       2.347  -3.324   0.193  0.00  0.00     0.172 C 
ATOM      2  N   UNL d   1       1.179  -3.913  -0.419  0.00  0.00    -0.070 N 
ATOM      3  C1  UNL d   1       0.926  -5.255  -0.527  0.00  0.00    -0.004 A 
ATOM      4  C2  UNL d   1      -0.283  -5.405  -1.171  0.00  0.00    -0.047 A 
ATOM      5  C3  UNL d   1      -0.773  -4.110  -1.461  0.00  0.00    -0.047 A 
ATOM      6  C4  UNL d   1       0.152  -3.205  -0.985  0.00  0.00    -0.004 A 
ENDROOT
TORSDOF 0
ENDMDL
