MODEL 1
REMARK minimizedAffinity 2.31483221
REMARK minimizedRMSD -1
REMARK  0 active torsions:
REMARK  status: ('A' for Active; 'I' for Inactive)
ROOT
ATOM      1  C   UNL d   1       0.467   1.333  -1.462  0.00  0.00     0.172 C 
ATOM      2  N   UNL d   1      -0.195   2.484  -0.894  0.00  0.00    -0.070 N 
ATOM      3  C1  UNL d   1      -1.477   2.882  -1.163  0.00  0.00    -0.004 A 
ATOM      4  C2  UNL d   1      -1.731   4.017  -0.425  0.00  0.00    -0.047 A 
ATOM      5  C3  UNL d   1      -0.560   4.313   0.313  0.00  0.00    -0.047 A 
ATOM      6  C4  UNL d   1       0.375   3.348   0.004  0.00  0.00    -0.004 A 
ENDROOT
TORSDOF 0
ENDMDL
