MODEL 1
REMARK minimizedAffinity 1.95270431
REMARK minimizedRMSD -1
REMARK  0 active torsions:
REMARK  status: ('A' for Active; 'I' for Inactive)
ROOT
ATOM      1  C   UNL d   1      -4.913   4.085  -5.995  0.00  0.00     0.172 C 
ATOM      2  N   UNL d   1      -4.860   3.707  -4.603  0.00  0.00    -0.070 N 
ATOM      3  C1  UNL d   1      -3.807   3.087  -3.984  0.00  0.00    -0.004 A 
ATOM      4  C2  UNL d   1      -4.146   2.899  -2.661  0.00  0.00    -0.047 A 
ATOM      5  C3  UNL d   1      -5.448   3.423  -2.479  0.00  0.00    -0.047 A 
ATOM      6  C4  UNL d   1      -5.866   3.917  -3.697  0.00  0.00    -0.004 A 
ENDROOT
TORSDOF 0
ENDMDL
