MODEL 1
REMARK minimizedAffinity 15.3425274
REMARK minimizedRMSD -1
REMARK  1 active torsions:
REMARK  status: ('A' for Active; 'I' for Inactive)
REMARK    1  A    between atoms: C1_2  and  C2_3 
ROOT
ATOM      1  C2  UNL d   1       5.998   1.223   0.091  0.00  0.00    -0.073 A 
ATOM      2  C3  UNL d   1       5.998   1.108  -1.304  0.00  0.00    -0.002 A 
ATOM      3  C4  UNL d   1       5.991  -0.150  -1.907  0.00  0.00     0.004 A 
ATOM      4  C5  UNL d   1       5.976  -1.304  -1.124  0.00  0.00    -0.004 A 
ATOM      5  C6  UNL d   1       5.964  -1.210   0.271  0.00  0.00    -0.075 A 
ATOM      6  C7  UNL d   1       5.951  -2.442   1.128  0.00  0.00     0.076 C 
ATOM      7  C8  UNL d   1       5.975   0.057   0.870  0.00  0.00     0.001 A 
ENDROOT
BRANCH   1   8
ATOM      8  C1  UNL d   1       6.000   2.580   0.747  0.00  0.00     0.053 C 
ATOM      9  C   UNL d   1       5.991   2.479   2.265  0.00  0.00     0.018 C 
ENDBRANCH   1   8
TORSDOF 1
ENDMDL
