MODEL 1
REMARK minimizedAffinity 4.75486135
REMARK minimizedRMSD -1
REMARK  1 active torsions:
REMARK  status: ('A' for Active; 'I' for Inactive)
REMARK    1  A    between atoms: C1_2  and  C2_3 
ROOT
ATOM      1  C2  UNL d   1      -0.383   2.241  -3.684  0.00  0.00    -0.073 A 
ATOM      2  C3  UNL d   1      -0.202   1.474  -4.841  0.00  0.00    -0.002 A 
ATOM      3  C4  UNL d   1       0.785   1.816  -5.766  0.00  0.00     0.004 A 
ATOM      4  C5  UNL d   1       1.605   2.922  -5.541  0.00  0.00    -0.004 A 
ATOM      5  C6  UNL d   1       1.448   3.693  -4.385  0.00  0.00    -0.075 A 
ATOM      6  C7  UNL d   1       2.321   4.887  -4.129  0.00  0.00     0.076 C 
ATOM      7  C8  UNL d   1       0.453   3.345  -3.462  0.00  0.00     0.001 A 
ENDROOT
BRANCH   1   8
ATOM      8  C1  UNL d   1      -1.443   1.871  -2.678  0.00  0.00     0.053 C 
ATOM      9  C   UNL d   1      -2.727   2.658  -2.889  0.00  0.00     0.018 C 
ENDBRANCH   1   8
TORSDOF 1
ENDMDL
