MODEL 1
REMARK minimizedAffinity 5.73438454
REMARK minimizedRMSD -1
REMARK  1 active torsions:
REMARK  status: ('A' for Active; 'I' for Inactive)
REMARK    1  A    between atoms: C1_2  and  C2_3 
ROOT
ATOM      1  C2  UNL d   1      -1.174  -0.729   2.510  0.00  0.00    -0.073 A 
ATOM      2  C3  UNL d   1      -1.757  -1.138   1.305  0.00  0.00    -0.002 A 
ATOM      3  C4  UNL d   1      -2.992  -0.621   0.909  0.00  0.00     0.004 A 
ATOM      4  C5  UNL d   1      -3.651   0.313   1.708  0.00  0.00    -0.004 A 
ATOM      5  C6  UNL d   1      -3.078   0.742   2.910  0.00  0.00    -0.075 A 
ATOM      6  C7  UNL d   1      -3.776   1.745   3.782  0.00  0.00     0.076 C 
ATOM      7  C8  UNL d   1      -1.840   0.217   3.302  0.00  0.00     0.001 A 
ENDROOT
BRANCH   1   8
ATOM      8  C1  UNL d   1       0.162  -1.279   2.939  0.00  0.00     0.053 C 
ATOM      9  C   UNL d   1       0.799  -2.137   1.857  0.00  0.00     0.018 C 
ENDBRANCH   1   8
TORSDOF 1
ENDMDL
