MODEL 1
REMARK minimizedAffinity -4.81086302
REMARK minimizedRMSD -1
REMARK  2 active torsions:
REMARK  status: ('A' for Active; 'I' for Inactive)
REMARK    1  A    between atoms: C1_2  and  C2_3 
REMARK    2  A    between atoms: C2_3  and  C3_4 
ROOT
ATOM      1  C3  UNL d   1       0.308  -0.848   0.194  0.00  0.00    -0.075 A 
ATOM      2  C4  UNL d   1      -0.991  -0.487   0.581  0.00  0.00     0.002 A 
ATOM      3  C5  UNL d   1      -1.371   0.855   0.619  0.00  0.00     0.002 A 
ATOM      4  C6  UNL d   1      -0.457   1.851   0.281  0.00  0.00    -0.004 A 
ATOM      5  C7  UNL d   1       0.840   1.504  -0.089  0.00  0.00     0.002 A 
ATOM      6  C8  UNL d   1       1.222   0.162  -0.132  0.00  0.00     0.002 A 
ENDROOT
BRANCH   1   7
ATOM      7  C2  UNL d   1       0.717  -2.300   0.122  0.00  0.00     0.056 C 
BRANCH   7   8
ATOM      8  C1  UNL d   1      -0.260  -3.186  -0.658  0.00  0.00     0.007 C 
ATOM      9  C   UNL d   1       0.144  -3.389  -2.113  0.00  0.00     0.009 C 
ENDBRANCH   7   8
ENDBRANCH   1   7
TORSDOF 2
ENDMDL
