MODEL 1
REMARK minimizedAffinity -4.92172766
REMARK minimizedRMSD -1
REMARK  2 active torsions:
REMARK  status: ('A' for Active; 'I' for Inactive)
REMARK    1  A    between atoms: C1_2  and  C2_3 
REMARK    2  A    between atoms: C2_3  and  C3_4 
ROOT
ATOM      1  C3  UNL d   1      -0.124   0.198   0.146  0.00  0.00    -0.075 A 
ATOM      2  C4  UNL d   1      -1.281   0.839   0.610  0.00  0.00     0.002 A 
ATOM      3  C5  UNL d   1      -1.321   2.228   0.731  0.00  0.00     0.002 A 
ATOM      4  C6  UNL d   1      -0.204   2.992   0.399  0.00  0.00    -0.004 A 
ATOM      5  C7  UNL d   1       0.957   2.364  -0.047  0.00  0.00     0.002 A 
ATOM      6  C8  UNL d   1       0.998   0.974  -0.173  0.00  0.00     0.002 A 
ENDROOT
BRANCH   1   7
ATOM      7  C2  UNL d   1      -0.084  -1.303  -0.015  0.00  0.00     0.056 C 
BRANCH   7   8
ATOM      8  C1  UNL d   1      -0.142  -1.776  -1.472  0.00  0.00     0.007 C 
ATOM      9  C   UNL d   1      -1.007  -3.014  -1.668  0.00  0.00     0.009 C 
ENDBRANCH   7   8
ENDBRANCH   1   7
TORSDOF 2
ENDMDL
