MODEL 1
REMARK minimizedAffinity -3.13402081
REMARK minimizedRMSD -1
REMARK  2 active torsions:
REMARK  status: ('A' for Active; 'I' for Inactive)
REMARK    1  A    between atoms: C1_2  and  C2_3 
REMARK    2  A    between atoms: C2_3  and  C3_4 
ROOT
ATOM      1  C3  UNL d   1      -1.107  -1.776  -0.403  0.00  0.00    -0.075 A 
ATOM      2  C4  UNL d   1      -2.069  -0.848   0.021  0.00  0.00     0.002 A 
ATOM      3  C5  UNL d   1      -1.683   0.403   0.503  0.00  0.00     0.002 A 
ATOM      4  C6  UNL d   1      -0.333   0.737   0.577  0.00  0.00    -0.004 A 
ATOM      5  C7  UNL d   1       0.633  -0.183   0.174  0.00  0.00     0.002 A 
ATOM      6  C8  UNL d   1       0.249  -1.434  -0.313  0.00  0.00     0.002 A 
ENDROOT
BRANCH   1   7
ATOM      7  C2  UNL d   1      -1.519  -3.121  -0.953  0.00  0.00     0.056 C 
BRANCH   7   8
ATOM      8  C1  UNL d   1      -0.399  -4.166  -0.950  0.00  0.00     0.007 C 
ATOM      9  C   UNL d   1      -0.010  -4.634  -2.346  0.00  0.00     0.009 C 
ENDBRANCH   7   8
ENDBRANCH   1   7
TORSDOF 2
ENDMDL
