MODEL 1
REMARK minimizedAffinity 3.27547979
REMARK minimizedRMSD -1
REMARK  2 active torsions:
REMARK  status: ('A' for Active; 'I' for Inactive)
REMARK    1  A    between atoms: C1_2  and  C2_3 
REMARK    2  A    between atoms: C2_3  and  C3_4 
ROOT
ATOM      1  C3  UNL d   1      -1.329  -0.091   0.120  0.00  0.00    -0.075 A 
ATOM      2  C4  UNL d   1      -0.191   0.396  -0.539  0.00  0.00     0.002 A 
ATOM      3  C5  UNL d   1       0.267   1.692  -0.296  0.00  0.00     0.002 A 
ATOM      4  C6  UNL d   1      -0.411   2.517   0.599  0.00  0.00    -0.004 A 
ATOM      5  C7  UNL d   1      -1.552   2.049   1.246  0.00  0.00     0.002 A 
ATOM      6  C8  UNL d   1      -2.010   0.752   1.008  0.00  0.00     0.002 A 
ENDROOT
BRANCH   1   7
ATOM      7  C2  UNL d   1      -1.813  -1.502  -0.116  0.00  0.00     0.056 C 
BRANCH   7   8
ATOM      8  C1  UNL d   1      -1.134  -2.205  -1.296  0.00  0.00     0.007 C 
ATOM      9  C   UNL d   1      -1.538  -3.667  -1.438  0.00  0.00     0.009 C 
ENDBRANCH   7   8
ENDBRANCH   1   7
TORSDOF 2
ENDMDL
