MODEL 1
REMARK minimizedAffinity -4.84847546
REMARK minimizedRMSD -1
REMARK  2 active torsions:
REMARK  status: ('A' for Active; 'I' for Inactive)
REMARK    1  A    between atoms: C1_2  and  C2_3 
REMARK    2  A    between atoms: C2_3  and  C3_4 
ROOT
ATOM      1  C3  UNL d   1      -0.742  -1.925  -0.322  0.00  0.00    -0.075 A 
ATOM      2  C4  UNL d   1       0.238  -1.946  -1.325  0.00  0.00     0.002 A 
ATOM      3  C5  UNL d   1       0.142  -2.843  -2.390  0.00  0.00     0.002 A 
ATOM      4  C6  UNL d   1      -0.926  -3.734  -2.460  0.00  0.00    -0.004 A 
ATOM      5  C7  UNL d   1      -1.897  -3.733  -1.461  0.00  0.00     0.002 A 
ATOM      6  C8  UNL d   1      -1.806  -2.834  -0.397  0.00  0.00     0.002 A 
ENDROOT
BRANCH   1   7
ATOM      7  C2  UNL d   1      -0.661  -0.938   0.817  0.00  0.00     0.056 C 
BRANCH   7   8
ATOM      8  C1  UNL d   1      -1.399   0.379   0.556  0.00  0.00     0.007 C 
ATOM      9  C   UNL d   1      -0.470   1.524   0.176  0.00  0.00     0.009 C 
ENDBRANCH   7   8
ENDBRANCH   1   7
TORSDOF 2
ENDMDL
