MODEL 1
REMARK minimizedAffinity -4.89234829
REMARK minimizedRMSD -1
REMARK  2 active torsions:
REMARK  status: ('A' for Active; 'I' for Inactive)
REMARK    1  A    between atoms: C1_2  and  C2_3 
REMARK    2  A    between atoms: C2_3  and  C3_4 
ROOT
ATOM      1  C3  UNL d   1      -0.219  -0.260   0.029  0.00  0.00    -0.075 A 
ATOM      2  C4  UNL d   1      -1.444   0.219   0.514  0.00  0.00     0.002 A 
ATOM      3  C5  UNL d   1      -1.687   1.590   0.595  0.00  0.00     0.002 A 
ATOM      4  C6  UNL d   1      -0.706   2.499   0.203  0.00  0.00    -0.004 A 
ATOM      5  C7  UNL d   1       0.521   2.034  -0.264  0.00  0.00     0.002 A 
ATOM      6  C8  UNL d   1       0.765   0.663  -0.351  0.00  0.00     0.002 A 
ENDROOT
BRANCH   1   7
ATOM      7  C2  UNL d   1       0.039  -1.743  -0.089  0.00  0.00     0.056 C 
BRANCH   7   8
ATOM      8  C1  UNL d   1      -0.038  -2.278  -1.523  0.00  0.00     0.007 C 
ATOM      9  C   UNL d   1      -0.919  -3.513  -1.656  0.00  0.00     0.009 C 
ENDBRANCH   7   8
ENDBRANCH   1   7
TORSDOF 2
ENDMDL
