MODEL 1
REMARK minimizedAffinity -5.7523756
REMARK minimizedRMSD -1
REMARK  2 active torsions:
REMARK  status: ('A' for Active; 'I' for Inactive)
REMARK    1  A    between atoms: C1_2  and  C2_3 
REMARK    2  A    between atoms: C2_3  and  C3_4 
ROOT
ATOM      1  C3  UNL d   1       0.300   0.803   0.152  0.00  0.00    -0.075 A 
ATOM      2  C4  UNL d   1       1.688   0.628   0.250  0.00  0.00     0.002 A 
ATOM      3  C5  UNL d   1       2.527   1.723   0.459  0.00  0.00     0.002 A 
ATOM      4  C6  UNL d   1       1.991   3.005   0.563  0.00  0.00    -0.004 A 
ATOM      5  C7  UNL d   1       0.615   3.192   0.450  0.00  0.00     0.002 A 
ATOM      6  C8  UNL d   1      -0.227   2.098   0.245  0.00  0.00     0.002 A 
ENDROOT
BRANCH   1   7
ATOM      7  C2  UNL d   1      -0.616  -0.382  -0.045  0.00  0.00     0.056 C 
BRANCH   7   8
ATOM      8  C1  UNL d   1       0.100  -1.736  -0.009  0.00  0.00     0.007 C 
ATOM      9  C   UNL d   1      -0.169  -2.590  -1.241  0.00  0.00     0.009 C 
ENDBRANCH   7   8
ENDBRANCH   1   7
TORSDOF 2
ENDMDL
