MODEL 1
REMARK minimizedAffinity -6.0720048
REMARK minimizedRMSD -1
REMARK  2 active torsions:
REMARK  status: ('A' for Active; 'I' for Inactive)
REMARK    1  A    between atoms: C1_2  and  C2_3 
REMARK    2  A    between atoms: C2_3  and  C3_4 
ROOT
ATOM      1  C3  UNL d   1       0.279  -0.034   0.218  0.00  0.00    -0.075 A 
ATOM      2  C4  UNL d   1       1.293   0.905  -0.025  0.00  0.00     0.002 A 
ATOM      3  C5  UNL d   1       1.033   2.271   0.083  0.00  0.00     0.002 A 
ATOM      4  C6  UNL d   1      -0.242   2.716   0.424  0.00  0.00    -0.004 A 
ATOM      5  C7  UNL d   1      -1.261   1.793   0.652  0.00  0.00     0.002 A 
ATOM      6  C8  UNL d   1      -1.003   0.425   0.549  0.00  0.00     0.002 A 
ENDROOT
BRANCH   1   7
ATOM      7  C2  UNL d   1       0.561  -1.515   0.132  0.00  0.00     0.056 C 
BRANCH   7   8
ATOM      8  C1  UNL d   1      -0.544  -2.321  -0.559  0.00  0.00     0.007 C 
ATOM      9  C   UNL d   1      -0.053  -3.088  -1.780  0.00  0.00     0.009 C 
ENDBRANCH   7   8
ENDBRANCH   1   7
TORSDOF 2
ENDMDL
