MODEL 1
REMARK minimizedAffinity -4.67750788
REMARK minimizedRMSD -1
REMARK  2 active torsions:
REMARK  status: ('A' for Active; 'I' for Inactive)
REMARK    1  A    between atoms: C1_2  and  C2_3 
REMARK    2  A    between atoms: C2_3  and  C3_4 
ROOT
ATOM      1  C3  UNL d   1       0.014  -0.647  -0.101  0.00  0.00    -0.075 A 
ATOM      2  C4  UNL d   1      -1.089  -0.036   0.514  0.00  0.00     0.002 A 
ATOM      3  C5  UNL d   1      -1.144   1.351   0.653  0.00  0.00     0.002 A 
ATOM      4  C6  UNL d   1      -0.096   2.143   0.190  0.00  0.00    -0.004 A 
ATOM      5  C7  UNL d   1       1.012   1.546  -0.408  0.00  0.00     0.002 A 
ATOM      6  C8  UNL d   1       1.069   0.158  -0.552  0.00  0.00     0.002 A 
ENDROOT
BRANCH   1   7
ATOM      7  C2  UNL d   1       0.067  -2.145  -0.281  0.00  0.00     0.056 C 
BRANCH   7   8
ATOM      8  C1  UNL d   1       0.100  -2.597  -1.745  0.00  0.00     0.007 C 
ATOM      9  C   UNL d   1      -1.085  -3.473  -2.130  0.00  0.00     0.009 C 
ENDBRANCH   7   8
ENDBRANCH   1   7
TORSDOF 2
ENDMDL
