MODEL 1
REMARK minimizedAffinity -5.8509469
REMARK minimizedRMSD -1
REMARK  2 active torsions:
REMARK  status: ('A' for Active; 'I' for Inactive)
REMARK    1  A    between atoms: C1_2  and  C2_3 
REMARK    2  A    between atoms: C2_3  and  C3_4 
ROOT
ATOM      1  C3  UNL d   1      -0.177  -0.532   0.041  0.00  0.00    -0.075 A 
ATOM      2  C4  UNL d   1      -1.293   0.314   0.131  0.00  0.00     0.002 A 
ATOM      3  C5  UNL d   1      -1.128   1.688   0.307  0.00  0.00     0.002 A 
ATOM      4  C6  UNL d   1       0.151   2.232   0.406  0.00  0.00    -0.004 A 
ATOM      5  C7  UNL d   1       1.266   1.399   0.335  0.00  0.00     0.002 A 
ATOM      6  C8  UNL d   1       1.104   0.024   0.154  0.00  0.00     0.002 A 
ENDROOT
BRANCH   1   7
ATOM      7  C2  UNL d   1      -0.349  -2.016  -0.179  0.00  0.00     0.056 C 
BRANCH   7   8
ATOM      8  C1  UNL d   1       0.214  -2.517  -1.513  0.00  0.00     0.007 C 
ATOM      9  C   UNL d   1      -0.716  -3.486  -2.231  0.00  0.00     0.009 C 
ENDBRANCH   7   8
ENDBRANCH   1   7
TORSDOF 2
ENDMDL
