MODEL 1
REMARK minimizedAffinity -3.55752659
REMARK minimizedRMSD -1
REMARK  2 active torsions:
REMARK  status: ('A' for Active; 'I' for Inactive)
REMARK    1  A    between atoms: C1_2  and  C2_3 
REMARK    2  A    between atoms: C2_3  and  C3_4 
ROOT
ATOM      1  C3  UNL d   1      -0.157  -0.003   0.038  0.00  0.00    -0.075 A 
ATOM      2  C4  UNL d   1       1.118   0.446  -0.336  0.00  0.00     0.002 A 
ATOM      3  C5  UNL d   1       1.398   1.811  -0.402  0.00  0.00     0.002 A 
ATOM      4  C6  UNL d   1       0.405   2.743  -0.106  0.00  0.00    -0.004 A 
ATOM      5  C7  UNL d   1      -0.869   2.309   0.250  0.00  0.00     0.002 A 
ATOM      6  C8  UNL d   1      -1.150   0.943   0.322  0.00  0.00     0.002 A 
ENDROOT
BRANCH   1   7
ATOM      7  C2  UNL d   1      -0.457  -1.479   0.140  0.00  0.00     0.056 C 
BRANCH   7   8
ATOM      8  C1  UNL d   1      -0.335  -2.234  -1.188  0.00  0.00     0.007 C 
ATOM      9  C   UNL d   1      -1.379  -3.330  -1.354  0.00  0.00     0.009 C 
ENDBRANCH   7   8
ENDBRANCH   1   7
TORSDOF 2
ENDMDL
