MODEL 1
REMARK minimizedAffinity -3.29192662
REMARK minimizedRMSD -1
REMARK  2 active torsions:
REMARK  status: ('A' for Active; 'I' for Inactive)
REMARK    1  A    between atoms: C1_2  and  C2_3 
REMARK    2  A    between atoms: C2_3  and  C3_4 
ROOT
ATOM      1  C3  UNL d   1      -0.121  -1.154  -0.370  0.00  0.00    -0.075 A 
ATOM      2  C4  UNL d   1      -1.043  -0.285   0.231  0.00  0.00     0.002 A 
ATOM      3  C5  UNL d   1      -0.729   1.061   0.420  0.00  0.00     0.002 A 
ATOM      4  C6  UNL d   1       0.512   1.553   0.021  0.00  0.00    -0.004 A 
ATOM      5  C7  UNL d   1       1.442   0.695  -0.562  0.00  0.00     0.002 A 
ATOM      6  C8  UNL d   1       1.129  -0.651  -0.756  0.00  0.00     0.002 A 
ENDROOT
BRANCH   1   7
ATOM      7  C2  UNL d   1      -0.466  -2.605  -0.605  0.00  0.00     0.056 C 
BRANCH   7   8
ATOM      8  C1  UNL d   1      -0.372  -3.039  -2.071  0.00  0.00     0.007 C 
ATOM      9  C   UNL d   1      -1.386  -4.111  -2.447  0.00  0.00     0.009 C 
ENDBRANCH   7   8
ENDBRANCH   1   7
TORSDOF 2
ENDMDL
