MODEL 1
REMARK minimizedAffinity 13.4533091
REMARK minimizedRMSD -1
REMARK  1 active torsions:
REMARK  status: ('A' for Active; 'I' for Inactive)
REMARK    1  A    between atoms: C1_2  and  C2_3 
ROOT
ATOM      1  C2  UNL d   1       3.647   1.205  -1.055  0.00  0.00    -0.073 A 
ATOM      2  C3  UNL d   1       4.259   1.503   0.168  0.00  0.00    -0.002 A 
ATOM      3  C4  UNL d   1       5.432   2.258   0.204  0.00  0.00     0.004 A 
ATOM      4  C5  UNL d   1       6.000   2.729  -0.980  0.00  0.00    -0.004 A 
ATOM      5  C6  UNL d   1       5.397   2.452  -2.211  0.00  0.00    -0.075 A 
ATOM      6  C7  UNL d   1       5.997   2.950  -3.493  0.00  0.00     0.076 C 
ATOM      7  C8  UNL d   1       4.221   1.690  -2.239  0.00  0.00     0.001 A 
ENDROOT
BRANCH   1   8
ATOM      8  C1  UNL d   1       2.378   0.394  -1.099  0.00  0.00     0.053 C 
ATOM      9  C   UNL d   1       1.672   0.367   0.248  0.00  0.00     0.018 C 
ENDBRANCH   1   8
TORSDOF 1
ENDMDL
