MODEL 1
REMARK minimizedAffinity 17.5732651
REMARK minimizedRMSD -1
REMARK  1 active torsions:
REMARK  status: ('A' for Active; 'I' for Inactive)
REMARK    1  A    between atoms: C1_2  and  C2_3 
ROOT
ATOM      1  C2  UNL d   1       4.863   1.767  -0.752  0.00  0.00    -0.073 A 
ATOM      2  C3  UNL d   1       4.003   1.190  -1.694  0.00  0.00    -0.002 A 
ATOM      3  C4  UNL d   1       2.949   0.375  -1.279  0.00  0.00     0.004 A 
ATOM      4  C5  UNL d   1       2.740   0.135   0.079  0.00  0.00    -0.004 A 
ATOM      5  C6  UNL d   1       3.581   0.712   1.035  0.00  0.00    -0.075 A 
ATOM      6  C7  UNL d   1       3.371   0.462   2.500  0.00  0.00     0.076 C 
ATOM      7  C8  UNL d   1       4.639   1.527   0.611  0.00  0.00     0.001 A 
ENDROOT
BRANCH   1   8
ATOM      8  C1  UNL d   1       5.998   2.653  -1.195  0.00  0.00     0.053 C 
ATOM      9  C   UNL d   1       5.998   2.871  -2.700  0.00  0.00     0.018 C 
ENDBRANCH   1   8
TORSDOF 1
ENDMDL
