MODEL 1
REMARK minimizedAffinity 17.4284744
REMARK minimizedRMSD -1
REMARK  1 active torsions:
REMARK  status: ('A' for Active; 'I' for Inactive)
REMARK    1  A    between atoms: C1_2  and  C2_3 
ROOT
ATOM      1  C2  UNL d   1       3.218  -0.221   1.510  0.00  0.00    -0.073 A 
ATOM      2  C3  UNL d   1       4.063   0.315   0.531  0.00  0.00    -0.002 A 
ATOM      3  C4  UNL d   1       3.634   0.411  -0.794  0.00  0.00     0.004 A 
ATOM      4  C5  UNL d   1       2.356  -0.020  -1.151  0.00  0.00    -0.004 A 
ATOM      5  C6  UNL d   1       1.494  -0.548  -0.185  0.00  0.00    -0.075 A 
ATOM      6  C7  UNL d   1       0.117  -1.018  -0.553  0.00  0.00     0.076 C 
ATOM      7  C8  UNL d   1       1.933  -0.643   1.143  0.00  0.00     0.001 A 
ENDROOT
BRANCH   1   8
ATOM      8  C1  UNL d   1       3.675  -0.321   2.943  0.00  0.00     0.053 C 
ATOM      9  C   UNL d   1       4.781  -1.349   3.118  0.00  0.00     0.018 C 
ENDBRANCH   1   8
TORSDOF 1
ENDMDL
