MODEL 1
REMARK minimizedAffinity -4.81869698
REMARK minimizedRMSD -1
REMARK  0 active torsions:
REMARK  status: ('A' for Active; 'I' for Inactive)
ROOT
ATOM      1  N1  IND d   1      -0.129   2.726   1.713  0.00  0.00    -0.196 N 
ATOM      2  C2  IND d   1       0.717   1.814   1.147  0.00  0.00     0.054 A 
ATOM      3  C3  IND d   1       0.208   0.567   1.259  0.00  0.00    -0.031 A 
ATOM      4  C4  IND d   1      -2.045  -0.197   2.244  0.00  0.00     0.051 A 
ATOM      5  C5  IND d   1      -3.142   0.269   2.912  0.00  0.00    -0.031 A 
ATOM      6  C6  IND d   1      -3.295   1.606   3.219  0.00  0.00     0.015 A 
ATOM      7  C7  IND d   1      -2.358   2.531   2.857  0.00  0.00    -0.016 A 
ATOM      8  C8  IND d   1      -1.240   2.061   2.184  0.00  0.00    -0.047 A 
ATOM      9  C9  IND d   1      -1.058   0.699   1.908  0.00  0.00    -0.096 A 
ATOM     10  HN1 IND d   1       0.009   3.573   1.767  0.00  0.00     0.298 HD
ENDROOT
TORSDOF 0
ENDMDL
