MODEL 1
REMARK minimizedAffinity -4.95710278
REMARK minimizedRMSD -1
REMARK  0 active torsions:
REMARK  status: ('A' for Active; 'I' for Inactive)
ROOT
ATOM      1  N1  IND d   1      -2.774   0.073   2.432  0.00  0.00    -0.196 N 
ATOM      2  C2  IND d   1      -3.124   1.200   3.122  0.00  0.00     0.054 A 
ATOM      3  C3  IND d   1      -2.173   2.151   2.983  0.00  0.00    -0.031 A 
ATOM      4  C4  IND d   1      -0.010   2.109   1.589  0.00  0.00     0.051 A 
ATOM      5  C5  IND d   1       0.758   1.283   0.816  0.00  0.00    -0.031 A 
ATOM      6  C6  IND d   1       0.378  -0.013   0.534  0.00  0.00     0.015 A 
ATOM      7  C7  IND d   1      -0.794  -0.531   1.007  0.00  0.00    -0.016 A 
ATOM      8  C8  IND d   1      -1.572   0.302   1.799  0.00  0.00    -0.047 A 
ATOM      9  C9  IND d   1      -1.172   1.605   2.123  0.00  0.00    -0.096 A 
ATOM     10  HN1 IND d   1      -3.228  -0.657   2.399  0.00  0.00     0.298 HD
ENDROOT
TORSDOF 0
ENDMDL
