MODEL 1
REMARK minimizedAffinity 1.64884496
REMARK minimizedRMSD -1
REMARK  0 active torsions:
REMARK  status: ('A' for Active; 'I' for Inactive)
ROOT
ATOM      1  N1  IND d   1      -0.703   2.901   1.739  0.00  0.00    -0.196 N 
ATOM      2  C2  IND d   1       0.405   2.232   1.299  0.00  0.00     0.054 A 
ATOM      3  C3  IND d   1       0.204   0.896   1.362  0.00  0.00    -0.031 A 
ATOM      4  C4  IND d   1      -1.902  -0.409   2.060  0.00  0.00     0.051 A 
ATOM      5  C5  IND d   1      -3.156  -0.235   2.575  0.00  0.00    -0.031 A 
ATOM      6  C6  IND d   1      -3.667   1.018   2.840  0.00  0.00     0.015 A 
ATOM      7  C7  IND d   1      -2.945   2.150   2.589  0.00  0.00    -0.016 A 
ATOM      8  C8  IND d   1      -1.669   1.977   2.073  0.00  0.00    -0.047 A 
ATOM      9  C9  IND d   1      -1.128   0.706   1.841  0.00  0.00    -0.096 A 
ATOM     10  HN1 IND d   1      -0.782   3.755   1.797  0.00  0.00     0.298 HD
ENDROOT
TORSDOF 0
ENDMDL
