MODEL 1
REMARK minimizedAffinity 0.936041772
REMARK minimizedRMSD -1
REMARK  0 active torsions:
REMARK  status: ('A' for Active; 'I' for Inactive)
ROOT
ATOM      1  N1  IND d   1      -3.497   2.602   3.944  0.00  0.00    -0.196 N 
ATOM      2  C2  IND d   1      -4.333   1.583   4.309  0.00  0.00     0.054 A 
ATOM      3  C3  IND d   1      -4.020   0.454   3.633  0.00  0.00    -0.031 A 
ATOM      4  C4  IND d   1      -2.114   0.025   1.957  0.00  0.00     0.051 A 
ATOM      5  C5  IND d   1      -1.112   0.661   1.280  0.00  0.00    -0.031 A 
ATOM      6  C6  IND d   1      -0.847   2.003   1.461  0.00  0.00     0.015 A 
ATOM      7  C7  IND d   1      -1.570   2.760   2.340  0.00  0.00    -0.016 A 
ATOM      8  C8  IND d   1      -2.593   2.119   3.024  0.00  0.00    -0.047 A 
ATOM      9  C9  IND d   1      -2.894   0.767   2.813  0.00  0.00    -0.096 A 
ATOM     10  HN1 IND d   1      -3.532   3.409   4.239  0.00  0.00     0.298 HD
ENDROOT
TORSDOF 0
ENDMDL
