MODEL 1
REMARK minimizedAffinity -3.6562829
REMARK minimizedRMSD -1
REMARK  0 active torsions:
REMARK  status: ('A' for Active; 'I' for Inactive)
ROOT
ATOM      1  N1  IND d   1      -0.698   2.681   1.845  0.00  0.00    -0.196 N 
ATOM      2  C2  IND d   1       0.347   2.087   1.194  0.00  0.00     0.054 A 
ATOM      3  C3  IND d   1       0.202   0.743   1.199  0.00  0.00    -0.031 A 
ATOM      4  C4  IND d   1      -1.724  -0.691   2.128  0.00  0.00     0.051 A 
ATOM      5  C5  IND d   1      -2.885  -0.602   2.843  0.00  0.00    -0.031 A 
ATOM      6  C6  IND d   1      -3.388   0.611   3.268  0.00  0.00     0.015 A 
ATOM      7  C7  IND d   1      -2.752   1.785   2.983  0.00  0.00    -0.016 A 
ATOM      8  C8  IND d   1      -1.569   1.698   2.263  0.00  0.00    -0.047 A 
ATOM      9  C9  IND d   1      -1.031   0.467   1.866  0.00  0.00    -0.096 A 
ATOM     10  HN1 IND d   1      -0.796   3.525   1.972  0.00  0.00     0.298 HD
ENDROOT
TORSDOF 0
ENDMDL
