MODEL 1
REMARK minimizedAffinity 1.70698476
REMARK minimizedRMSD -1
REMARK  0 active torsions:
REMARK  status: ('A' for Active; 'I' for Inactive)
ROOT
ATOM      1  N1  IND d   1      -2.651   2.281   3.339  0.00  0.00    -0.196 N 
ATOM      2  C2  IND d   1      -3.498   1.290   3.752  0.00  0.00     0.054 A 
ATOM      3  C3  IND d   1      -3.114   0.099   3.242  0.00  0.00    -0.031 A 
ATOM      4  C4  IND d   1      -1.068  -0.474   1.788  0.00  0.00     0.051 A 
ATOM      5  C5  IND d   1      -0.023   0.105   1.123  0.00  0.00    -0.031 A 
ATOM      6  C6  IND d   1       0.205   1.465   1.166  0.00  0.00     0.015 A 
ATOM      7  C7  IND d   1      -0.600   2.300   1.888  0.00  0.00    -0.016 A 
ATOM      8  C8  IND d   1      -1.666   1.717   2.558  0.00  0.00    -0.047 A 
ATOM      9  C9  IND d   1      -1.928   0.343   2.484  0.00  0.00    -0.096 A 
ATOM     10  HN1 IND d   1      -2.723   3.115   3.533  0.00  0.00     0.298 HD
ENDROOT
TORSDOF 0
ENDMDL
