MODEL 1
REMARK minimizedAffinity -3.41279721
REMARK minimizedRMSD -1
REMARK  0 active torsions:
REMARK  status: ('A' for Active; 'I' for Inactive)
ROOT
ATOM      1  N1  IND d   1      -0.399  -0.796   1.350  0.00  0.00    -0.196 N 
ATOM      2  C2  IND d   1       0.576   0.000   0.815  0.00  0.00     0.054 A 
ATOM      3  C3  IND d   1       0.317   1.301   1.077  0.00  0.00    -0.031 A 
ATOM      4  C4  IND d   1      -1.592   2.344   2.454  0.00  0.00     0.051 A 
ATOM      5  C5  IND d   1      -2.746   2.022   3.111  0.00  0.00    -0.031 A 
ATOM      6  C6  IND d   1      -3.184   0.718   3.219  0.00  0.00     0.015 A 
ATOM      7  C7  IND d   1      -2.475  -0.319   2.682  0.00  0.00    -0.016 A 
ATOM      8  C8  IND d   1      -1.306   0.005   2.008  0.00  0.00    -0.047 A 
ATOM      9  C9  IND d   1      -0.879   1.331   1.858  0.00  0.00    -0.096 A 
ATOM     10  HN1 IND d   1      -0.438  -1.652   1.286  0.00  0.00     0.298 HD
ENDROOT
TORSDOF 0
ENDMDL
