MODEL 1
REMARK minimizedAffinity -1.61579764
REMARK minimizedRMSD -1
REMARK  0 active torsions:
REMARK  status: ('A' for Active; 'I' for Inactive)
ROOT
ATOM      1  N1  IND d   1       0.312   2.985   0.944  0.00  0.00    -0.196 N 
ATOM      2  C2  IND d   1      -0.753   3.649   1.485  0.00  0.00     0.054 A 
ATOM      3  C3  IND d   1      -1.698   2.771   1.890  0.00  0.00    -0.031 A 
ATOM      4  C4  IND d   1      -1.662   0.197   1.855  0.00  0.00     0.051 A 
ATOM      5  C5  IND d   1      -0.917  -0.864   1.422  0.00  0.00    -0.031 A 
ATOM      6  C6  IND d   1       0.301  -0.693   0.797  0.00  0.00     0.015 A 
ATOM      7  C7  IND d   1       0.827   0.551   0.591  0.00  0.00    -0.016 A 
ATOM      8  C8  IND d   1       0.071   1.631   1.023  0.00  0.00    -0.047 A 
ATOM      9  C9  IND d   1      -1.185   1.465   1.620  0.00  0.00    -0.096 A 
ATOM     10  HN1 IND d   1       1.014   3.351   0.609  0.00  0.00     0.298 HD
ENDROOT
TORSDOF 0
ENDMDL
