MODEL 1
REMARK minimizedAffinity -2.33580112
REMARK minimizedRMSD -1
REMARK  0 active torsions:
REMARK  status: ('A' for Active; 'I' for Inactive)
ROOT
ATOM      1  N1  IND d   1      -2.775   0.364   2.720  0.00  0.00    -0.196 N 
ATOM      2  C2  IND d   1      -2.780  -0.992   2.551  0.00  0.00     0.054 A 
ATOM      3  C3  IND d   1      -1.680  -1.385   1.869  0.00  0.00    -0.031 A 
ATOM      4  C4  IND d   1       0.307   0.016   1.024  0.00  0.00     0.051 A 
ATOM      5  C5  IND d   1       0.744   1.306   0.909  0.00  0.00    -0.031 A 
ATOM      6  C6  IND d   1       0.018   2.369   1.406  0.00  0.00     0.015 A 
ATOM      7  C7  IND d   1      -1.174   2.180   2.047  0.00  0.00    -0.016 A 
ATOM      8  C8  IND d   1      -1.624   0.872   2.158  0.00  0.00    -0.047 A 
ATOM      9  C9  IND d   1      -0.912  -0.207   1.619  0.00  0.00    -0.096 A 
ATOM     10  HN1 IND d   1      -3.388   0.823   3.111  0.00  0.00     0.298 HD
ENDROOT
TORSDOF 0
ENDMDL
