MODEL 1
REMARK minimizedAffinity -3.47539926
REMARK minimizedRMSD -1
REMARK  0 active torsions:
REMARK  status: ('A' for Active; 'I' for Inactive)
ROOT
ATOM      1  N1  IND d   1      -2.399   2.261   3.146  0.00  0.00    -0.196 N 
ATOM      2  C2  IND d   1      -3.389   1.318   3.139  0.00  0.00     0.054 A 
ATOM      3  C3  IND d   1      -3.022   0.256   2.388  0.00  0.00    -0.031 A 
ATOM      4  C4  IND d   1      -0.804  -0.192   1.162  0.00  0.00     0.051 A 
ATOM      5  C5  IND d   1       0.391   0.393   0.847  0.00  0.00    -0.031 A 
ATOM      6  C6  IND d   1       0.724   1.655   1.294  0.00  0.00     0.015 A 
ATOM      7  C7  IND d   1      -0.124   2.378   2.085  0.00  0.00    -0.016 A 
ATOM      8  C8  IND d   1      -1.340   1.790   2.401  0.00  0.00    -0.047 A 
ATOM      9  C9  IND d   1      -1.702   0.526   1.915  0.00  0.00    -0.096 A 
ATOM     10  HN1 IND d   1      -2.432   3.020   3.547  0.00  0.00     0.298 HD
ENDROOT
TORSDOF 0
ENDMDL
