MODEL 1
REMARK minimizedAffinity 3.2129693
REMARK minimizedRMSD -1
REMARK  0 active torsions:
REMARK  status: ('A' for Active; 'I' for Inactive)
ROOT
ATOM      1  N1  IND d   1      -2.288   2.581   2.845  0.00  0.00    -0.196 N 
ATOM      2  C2  IND d   1      -3.060   1.765   3.624  0.00  0.00     0.054 A 
ATOM      3  C3  IND d   1      -2.699   0.473   3.455  0.00  0.00    -0.031 A 
ATOM      4  C4  IND d   1      -0.801  -0.520   2.027  0.00  0.00     0.051 A 
ATOM      5  C5  IND d   1       0.153  -0.174   1.112  0.00  0.00    -0.031 A 
ATOM      6  C6  IND d   1       0.348   1.136   0.722  0.00  0.00     0.015 A 
ATOM      7  C7  IND d   1      -0.400   2.153   1.243  0.00  0.00    -0.016 A 
ATOM      8  C8  IND d   1      -1.375   1.804   2.168  0.00  0.00    -0.047 A 
ATOM      9  C9  IND d   1      -1.605   0.472   2.536  0.00  0.00    -0.096 A 
ATOM     10  HN1 IND d   1      -2.362   3.436   2.788  0.00  0.00     0.298 HD
ENDROOT
TORSDOF 0
ENDMDL
