MODEL 1
REMARK minimizedAffinity 0.898381233
REMARK minimizedRMSD -1
REMARK  0 active torsions:
REMARK  status: ('A' for Active; 'I' for Inactive)
ROOT
ATOM      1  N1  IND d   1      -2.795   2.976   2.997  0.00  0.00    -0.196 N 
ATOM      2  C2  IND d   1      -3.788   2.219   3.554  0.00  0.00     0.054 A 
ATOM      3  C3  IND d   1      -3.579   0.908   3.300  0.00  0.00    -0.031 A 
ATOM      4  C4  IND d   1      -1.619  -0.229   2.078  0.00  0.00     0.051 A 
ATOM      5  C5  IND d   1      -0.488   0.050   1.363  0.00  0.00    -0.031 A 
ATOM      6  C6  IND d   1      -0.058   1.345   1.154  0.00  0.00     0.015 A 
ATOM      7  C7  IND d   1      -0.740   2.413   1.665  0.00  0.00    -0.016 A 
ATOM      8  C8  IND d   1      -1.893   2.134   2.385  0.00  0.00    -0.047 A 
ATOM      9  C9  IND d   1      -2.357   0.824   2.564  0.00  0.00    -0.096 A 
ATOM     10  HN1 IND d   1      -2.743   3.834   3.024  0.00  0.00     0.298 HD
ENDROOT
TORSDOF 0
ENDMDL
