MODEL 1
REMARK minimizedAffinity -5.2761364
REMARK minimizedRMSD -1
REMARK  0 active torsions:
REMARK  status: ('A' for Active; 'I' for Inactive)
ROOT
ATOM      1  N1  IND d   1      -2.525   1.268   2.842  0.00  0.00    -0.196 N 
ATOM      2  C2  IND d   1      -2.498   2.635   2.863  0.00  0.00     0.054 A 
ATOM      3  C3  IND d   1      -1.471   3.096   2.115  0.00  0.00    -0.031 A 
ATOM      4  C4  IND d   1       0.228   1.792   0.687  0.00  0.00     0.051 A 
ATOM      5  C5  IND d   1       0.627   0.521   0.380  0.00  0.00    -0.031 A 
ATOM      6  C6  IND d   1      -0.019  -0.588   0.887  0.00  0.00     0.015 A 
ATOM      7  C7  IND d   1      -1.101  -0.467   1.713  0.00  0.00    -0.016 A 
ATOM      8  C8  IND d   1      -1.504   0.822   2.032  0.00  0.00    -0.047 A 
ATOM      9  C9  IND d   1      -0.826   1.951   1.556  0.00  0.00    -0.096 A 
ATOM     10  HN1 IND d   1      -3.086   0.771   3.264  0.00  0.00     0.298 HD
ENDROOT
TORSDOF 0
ENDMDL
