MODEL 1
REMARK minimizedAffinity -0.754468143
REMARK minimizedRMSD -1
REMARK  0 active torsions:
REMARK  status: ('A' for Active; 'I' for Inactive)
ROOT
ATOM      1  N1  IND d   1      -1.809   2.796   2.718  0.00  0.00    -0.196 N 
ATOM      2  C2  IND d   1      -2.863   2.028   3.126  0.00  0.00     0.054 A 
ATOM      3  C3  IND d   1      -2.675   0.740   2.761  0.00  0.00    -0.031 A 
ATOM      4  C4  IND d   1      -0.665  -0.349   1.578  0.00  0.00     0.051 A 
ATOM      5  C5  IND d   1       0.525  -0.045   0.976  0.00  0.00    -0.031 A 
ATOM      6  C6  IND d   1       1.008   1.246   0.926  0.00  0.00     0.015 A 
ATOM      7  C7  IND d   1       0.322   2.286   1.488  0.00  0.00    -0.016 A 
ATOM      8  C8  IND d   1      -0.889   1.983   2.093  0.00  0.00    -0.047 A 
ATOM      9  C9  IND d   1      -1.405   0.680   2.110  0.00  0.00    -0.096 A 
ATOM     10  HN1 IND d   1      -1.733   3.645   2.832  0.00  0.00     0.298 HD
ENDROOT
TORSDOF 0
ENDMDL
