MODEL 1
REMARK minimizedAffinity -2.41517329
REMARK minimizedRMSD -1
REMARK  0 active torsions:
REMARK  status: ('A' for Active; 'I' for Inactive)
ROOT
ATOM      1  N1  IND d   1      -2.736   1.075   2.833  0.00  0.00    -0.196 N 
ATOM      2  C2  IND d   1      -2.692   2.438   2.925  0.00  0.00     0.054 A 
ATOM      3  C3  IND d   1      -1.628   2.921   2.245  0.00  0.00    -0.031 A 
ATOM      4  C4  IND d   1       0.113   1.665   0.825  0.00  0.00     0.051 A 
ATOM      5  C5  IND d   1       0.508   0.405   0.470  0.00  0.00    -0.031 A 
ATOM      6  C6  IND d   1      -0.174  -0.718   0.891  0.00  0.00     0.015 A 
ATOM      7  C7  IND d   1      -1.288  -0.623   1.677  0.00  0.00    -0.016 A 
ATOM      8  C8  IND d   1      -1.687   0.654   2.045  0.00  0.00    -0.047 A 
ATOM      9  C9  IND d   1      -0.975   1.796   1.656  0.00  0.00    -0.096 A 
ATOM     10  HN1 IND d   1      -3.321   0.565   3.205  0.00  0.00     0.298 HD
ENDROOT
TORSDOF 0
ENDMDL
