MODEL 1
REMARK minimizedAffinity 6.9125886
REMARK minimizedRMSD -1
REMARK  0 active torsions:
REMARK  status: ('A' for Active; 'I' for Inactive)
ROOT
ATOM      1  N1  IND d   1      -2.372   1.893   2.877  0.00  0.00    -0.196 N 
ATOM      2  C2  IND d   1      -2.717   3.163   2.507  0.00  0.00     0.054 A 
ATOM      3  C3  IND d   1      -1.822   3.653   1.619  0.00  0.00    -0.031 A 
ATOM      4  C4  IND d   1       0.226   2.508   0.560  0.00  0.00     0.051 A 
ATOM      5  C5  IND d   1       0.966   1.360   0.613  0.00  0.00    -0.031 A 
ATOM      6  C6  IND d   1       0.622   0.309   1.439  0.00  0.00     0.015 A 
ATOM      7  C7  IND d   1      -0.485   0.363   2.237  0.00  0.00    -0.016 A 
ATOM      8  C8  IND d   1      -1.235   1.529   2.190  0.00  0.00    -0.047 A 
ATOM      9  C9  IND d   1      -0.868   2.616   1.386  0.00  0.00    -0.096 A 
ATOM     10  HN1 IND d   1      -2.795   1.404   3.444  0.00  0.00     0.298 HD
ENDROOT
TORSDOF 0
ENDMDL
