MODEL 1
REMARK minimizedAffinity 1.06814098
REMARK minimizedRMSD -1
REMARK  0 active torsions:
REMARK  status: ('A' for Active; 'I' for Inactive)
ROOT
ATOM      1  N1  IND d   1      -0.675   2.474   3.147  0.00  0.00    -0.196 N 
ATOM      2  C2  IND d   1      -1.923   2.117   3.575  0.00  0.00     0.054 A 
ATOM      3  C3  IND d   1      -2.318   0.973   2.972  0.00  0.00    -0.031 A 
ATOM      4  C4  IND d   1      -1.034  -0.536   1.328  0.00  0.00     0.051 A 
ATOM      5  C5  IND d   1       0.128  -0.606   0.613  0.00  0.00    -0.031 A 
ATOM      6  C6  IND d   1       1.103   0.366   0.710  0.00  0.00     0.015 A 
ATOM      7  C7  IND d   1       0.956   1.442   1.538  0.00  0.00    -0.016 A 
ATOM      8  C8  IND d   1      -0.226   1.520   2.260  0.00  0.00    -0.047 A 
ATOM      9  C9  IND d   1      -1.237   0.559   2.134  0.00  0.00    -0.096 A 
ATOM     10  HN1 IND d   1      -0.243   3.177   3.390  0.00  0.00     0.298 HD
ENDROOT
TORSDOF 0
ENDMDL
