MODEL 1
REMARK minimizedAffinity 3.16525197
REMARK minimizedRMSD -1
REMARK  0 active torsions:
REMARK  status: ('A' for Active; 'I' for Inactive)
ROOT
ATOM      1  N1  IND d   1       2.337   1.333  -0.720  0.00  0.00    -0.196 N 
ATOM      2  C2  IND d   1       3.105   0.203  -0.775  0.00  0.00     0.054 A 
ATOM      3  C3  IND d   1       2.736  -0.663   0.196  0.00  0.00    -0.031 A 
ATOM      4  C4  IND d   1       0.833  -0.475   1.919  0.00  0.00     0.051 A 
ATOM      5  C5  IND d   1      -0.119   0.388   2.382  0.00  0.00    -0.031 A 
ATOM      6  C6  IND d   1      -0.307   1.636   1.822  0.00  0.00     0.015 A 
ATOM      7  C7  IND d   1       0.446   2.062   0.766  0.00  0.00    -0.016 A 
ATOM      8  C8  IND d   1       1.419   1.191   0.297  0.00  0.00    -0.047 A 
ATOM      9  C9  IND d   1       1.642  -0.059   0.889  0.00  0.00    -0.096 A 
ATOM     10  HN1 IND d   1       2.414   2.018  -1.235  0.00  0.00     0.298 HD
ENDROOT
TORSDOF 0
ENDMDL
