MODEL 1
REMARK minimizedAffinity -0.443968356
REMARK minimizedRMSD -1
REMARK  0 active torsions:
REMARK  status: ('A' for Active; 'I' for Inactive)
ROOT
ATOM      1  N1  IND d   1      -0.707   2.935   0.826  0.00  0.00    -0.196 N 
ATOM      2  C2  IND d   1      -1.726   2.686   1.703  0.00  0.00     0.054 A 
ATOM      3  C3  IND d   1      -1.398   1.664   2.526  0.00  0.00    -0.031 A 
ATOM      4  C4  IND d   1       0.794   0.324   2.677  0.00  0.00     0.051 A 
ATOM      5  C5  IND d   1       2.003   0.162   2.060  0.00  0.00    -0.031 A 
ATOM      6  C6  IND d   1       2.379   0.934   0.979  0.00  0.00     0.015 A 
ATOM      7  C7  IND d   1       1.561   1.909   0.481  0.00  0.00    -0.016 A 
ATOM      8  C8  IND d   1       0.330   2.071   1.101  0.00  0.00    -0.047 A 
ATOM      9  C9  IND d   1      -0.075   1.261   2.171  0.00  0.00    -0.096 A 
ATOM     10  HN1 IND d   1      -0.713   3.531   0.206  0.00  0.00     0.298 HD
ENDROOT
TORSDOF 0
ENDMDL
