MODEL 1
REMARK minimizedAffinity -3.57234144
REMARK minimizedRMSD -1
REMARK  0 active torsions:
REMARK  status: ('A' for Active; 'I' for Inactive)
ROOT
ATOM      1  N1  IND d   1      -3.069   0.274   2.763  0.00  0.00    -0.196 N 
ATOM      2  C2  IND d   1      -3.541   1.405   3.368  0.00  0.00     0.054 A 
ATOM      3  C3  IND d   1      -2.689   2.436   3.169  0.00  0.00    -0.031 A 
ATOM      4  C4  IND d   1      -0.511   2.516   1.798  0.00  0.00     0.051 A 
ATOM      5  C5  IND d   1       0.347   1.720   1.092  0.00  0.00    -0.031 A 
ATOM      6  C6  IND d   1       0.105   0.375   0.901  0.00  0.00     0.015 A 
ATOM      7  C7  IND d   1      -1.016  -0.225   1.402  0.00  0.00    -0.016 A 
ATOM      8  C8  IND d   1      -1.887   0.579   2.125  0.00  0.00    -0.047 A 
ATOM      9  C9  IND d   1      -1.625   1.935   2.358  0.00  0.00    -0.096 A 
ATOM     10  HN1 IND d   1      -3.446  -0.499   2.780  0.00  0.00     0.298 HD
ENDROOT
TORSDOF 0
ENDMDL
