MODEL 1
REMARK minimizedAffinity 4.14398479
REMARK minimizedRMSD -1
REMARK  0 active torsions:
REMARK  status: ('A' for Active; 'I' for Inactive)
ROOT
ATOM      1  C4' PXY d   1       0.438  -5.709   5.985  0.00  0.00     0.077 C 
ATOM      2  C1' PXY d   1      -1.286  -0.192   5.980  0.00  0.00     0.077 C 
ATOM      3  C1  PXY d   1      -0.823  -1.635   5.976  0.00  0.00    -0.082 A 
ATOM      4  C2  PXY d   1      -1.718  -2.610   5.970  0.00  0.00     0.003 A 
ATOM      5  C3  PXY d   1      -1.316  -3.921   5.999  0.00  0.00     0.003 A 
ATOM      6  C4  PXY d   1       0.016  -4.237   5.979  0.00  0.00    -0.082 A 
ATOM      7  C5  PXY d   1       0.935  -3.249   5.974  0.00  0.00     0.003 A 
ATOM      8  C6  PXY d   1       0.507  -1.925   5.987  0.00  0.00     0.003 A 
ENDROOT
TORSDOF 0
ENDMDL
