MODEL 1
REMARK minimizedAffinity 14.8782053
REMARK minimizedRMSD -1
REMARK  0 active torsions:
REMARK  status: ('A' for Active; 'I' for Inactive)
ROOT
ATOM      1  C4' PXY d   1      -3.923  -0.960   1.403  0.00  0.00     0.077 C 
ATOM      2  C1' PXY d   1      -5.059   3.222  -2.423  0.00  0.00     0.077 C 
ATOM      3  C1  PXY d   1      -4.756   2.134  -1.412  0.00  0.00    -0.082 A 
ATOM      4  C2  PXY d   1      -4.621   0.882  -1.818  0.00  0.00     0.003 A 
ATOM      5  C3  PXY d   1      -4.378  -0.119  -0.913  0.00  0.00     0.003 A 
ATOM      6  C4  PXY d   1      -4.219   0.172   0.416  0.00  0.00    -0.082 A 
ATOM      7  C5  PXY d   1      -4.345   1.448   0.837  0.00  0.00     0.003 A 
ATOM      8  C6  PXY d   1      -4.632   2.444  -0.093  0.00  0.00     0.003 A 
ENDROOT
TORSDOF 0
ENDMDL
