MODEL 1
REMARK minimizedAffinity 17.1935635
REMARK minimizedRMSD -1
REMARK  0 active torsions:
REMARK  status: ('A' for Active; 'I' for Inactive)
ROOT
ATOM      1  C4' PXY d   1      -5.995  -2.150  -2.863  0.00  0.00     0.077 C 
ATOM      2  C1' PXY d   1      -3.961   1.926   0.696  0.00  0.00     0.077 C 
ATOM      3  C1  PXY d   1      -4.483   0.851  -0.237  0.00  0.00    -0.082 A 
ATOM      4  C2  PXY d   1      -5.494   1.122  -1.046  0.00  0.00     0.003 A 
ATOM      5  C3  PXY d   1      -6.000   0.152  -1.873  0.00  0.00     0.003 A 
ATOM      6  C4  PXY d   1      -5.429  -1.092  -1.911  0.00  0.00    -0.082 A 
ATOM      7  C5  PXY d   1      -4.390  -1.373  -1.097  0.00  0.00     0.003 A 
ATOM      8  C6  PXY d   1      -3.918  -0.387  -0.235  0.00  0.00     0.003 A 
ENDROOT
TORSDOF 0
ENDMDL
