MODEL 1
REMARK minimizedAffinity 7.81776714
REMARK minimizedRMSD -1
REMARK  0 active torsions:
REMARK  status: ('A' for Active; 'I' for Inactive)
ROOT
ATOM      1  C4' PXY d   1       5.976   0.486   4.370  0.00  0.00     0.077 C 
ATOM      2  C1' PXY d   1       5.984   1.836  -1.250  0.00  0.00     0.077 C 
ATOM      3  C1  PXY d   1       5.976   1.470   0.221  0.00  0.00    -0.082 A 
ATOM      4  C2  PXY d   1       5.974   2.429   1.133  0.00  0.00     0.003 A 
ATOM      5  C3  PXY d   1       6.000   2.116   2.468  0.00  0.00     0.003 A 
ATOM      6  C4  PXY d   1       5.974   0.808   2.873  0.00  0.00    -0.082 A 
ATOM      7  C5  PXY d   1       5.965  -0.175   1.949  0.00  0.00     0.003 A 
ATOM      8  C6  PXY d   1       5.981   0.163   0.599  0.00  0.00     0.003 A 
ENDROOT
TORSDOF 0
ENDMDL
