MODEL 1
REMARK minimizedAffinity 4.77612877
REMARK minimizedRMSD -1
REMARK  0 active torsions:
REMARK  status: ('A' for Active; 'I' for Inactive)
ROOT
ATOM      1  C4' PXY d   1       1.492  -4.868   5.610  0.00  0.00     0.077 C 
ATOM      2  C1' PXY d   1      -0.027   0.710   5.576  0.00  0.00     0.077 C 
ATOM      3  C1  PXY d   1       0.383  -0.750   5.584  0.00  0.00    -0.082 A 
ATOM      4  C2  PXY d   1      -0.478  -1.674   5.193  0.00  0.00     0.003 A 
ATOM      5  C3  PXY d   1      -0.134  -3.001   5.224  0.00  0.00     0.003 A 
ATOM      6  C4  PXY d   1       1.123  -3.381   5.610  0.00  0.00    -0.082 A 
ATOM      7  C5  PXY d   1       2.012  -2.443   6.000  0.00  0.00     0.003 A 
ATOM      8  C6  PXY d   1       1.629  -1.105   6.000  0.00  0.00     0.003 A 
ENDROOT
TORSDOF 0
ENDMDL
