MODEL 1
REMARK minimizedAffinity 18.7544346
REMARK minimizedRMSD -1
REMARK  0 active torsions:
REMARK  status: ('A' for Active; 'I' for Inactive)
ROOT
ATOM      1  C4' PXY d   1      -3.263  -4.229  -5.488  0.00  0.00     0.077 C 
ATOM      2  C1' PXY d   1      -0.795  -5.309  -0.373  0.00  0.00     0.077 C 
ATOM      3  C1  PXY d   1      -1.444  -5.013  -1.711  0.00  0.00    -0.082 A 
ATOM      4  C2  PXY d   1      -2.031  -5.990  -2.383  0.00  0.00     0.003 A 
ATOM      5  C3  PXY d   1      -2.595  -5.746  -3.609  0.00  0.00     0.003 A 
ATOM      6  C4  PXY d   1      -2.603  -4.479  -4.129  0.00  0.00    -0.082 A 
ATOM      7  C5  PXY d   1      -2.015  -3.476  -3.444  0.00  0.00     0.003 A 
ATOM      8  C6  PXY d   1      -1.413  -3.752  -2.220  0.00  0.00     0.003 A 
ENDROOT
TORSDOF 0
ENDMDL
