MODEL 1
REMARK minimizedAffinity 10.5595655
REMARK minimizedRMSD -1
REMARK  0 active torsions:
REMARK  status: ('A' for Active; 'I' for Inactive)
ROOT
ATOM      1  C4' PXY d   1      -1.240  -2.033  -2.396  0.00  0.00     0.077 C 
ATOM      2  C1' PXY d   1      -4.881   0.846   1.049  0.00  0.00     0.077 C 
ATOM      3  C1  PXY d   1      -3.917   0.094   0.154  0.00  0.00    -0.082 A 
ATOM      4  C2  PXY d   1      -4.184  -0.033  -1.136  0.00  0.00     0.003 A 
ATOM      5  C3  PXY d   1      -3.339  -0.738  -1.954  0.00  0.00     0.003 A 
ATOM      6  C4  PXY d   1      -2.181  -1.273  -1.457  0.00  0.00    -0.082 A 
ATOM      7  C5  PXY d   1      -1.895  -1.139  -0.144  0.00  0.00     0.003 A 
ATOM      8  C6  PXY d   1      -2.787  -0.455   0.677  0.00  0.00     0.003 A 
ENDROOT
TORSDOF 0
ENDMDL
