MODEL 1
REMARK minimizedAffinity 12.8665581
REMARK minimizedRMSD -1
REMARK  1 active torsions:
REMARK  status: ('A' for Active; 'I' for Inactive)
REMARK    1  A    between atoms: C1_2  and  C2_3 
ROOT
ATOM      1  C2  UNL d   1      -5.695   2.286  -1.268  0.00  0.00    -0.081 A 
ATOM      2  C3  UNL d   1      -5.996   2.170  -2.630  0.00  0.00     0.006 A 
ATOM      3  C4  UNL d   1      -5.966   0.922  -3.258  0.00  0.00     0.002 A 
ATOM      4  C5  UNL d   1      -5.643  -0.230  -2.533  0.00  0.00    -0.080 A 
ATOM      5  C6  UNL d   1      -5.637  -1.579  -3.187  0.00  0.00     0.076 C 
ATOM      6  C7  UNL d   1      -5.325  -0.111  -1.175  0.00  0.00     0.002 A 
ATOM      7  C8  UNL d   1      -5.354   1.136  -0.548  0.00  0.00     0.006 A 
ENDROOT
BRANCH   1   8
ATOM      8  C1  UNL d   1      -5.789   3.621  -0.574  0.00  0.00     0.054 C 
ATOM      9  C   UNL d   1      -4.947   4.673  -1.281  0.00  0.00     0.018 C 
ENDBRANCH   1   8
TORSDOF 1
ENDMDL
