MODEL 1
REMARK minimizedAffinity 8.40354156
REMARK minimizedRMSD -1
REMARK  1 active torsions:
REMARK  status: ('A' for Active; 'I' for Inactive)
REMARK    1  A    between atoms: C1_2  and  C2_3 
ROOT
ATOM      1  C2  UNL d   1      -0.941  -0.681   2.967  0.00  0.00    -0.081 A 
ATOM      2  C3  UNL d   1      -0.931  -0.520   4.358  0.00  0.00     0.006 A 
ATOM      3  C4  UNL d   1      -1.715   0.466   4.962  0.00  0.00     0.002 A 
ATOM      4  C5  UNL d   1      -2.527   1.302   4.187  0.00  0.00    -0.080 A 
ATOM      5  C6  UNL d   1      -3.396   2.344   4.826  0.00  0.00     0.076 C 
ATOM      6  C7  UNL d   1      -2.523   1.153   2.796  0.00  0.00     0.002 A 
ATOM      7  C8  UNL d   1      -1.739   0.167   2.192  0.00  0.00     0.006 A 
ENDROOT
BRANCH   1   8
ATOM      8  C1  UNL d   1      -0.147  -1.785   2.318  0.00  0.00     0.054 C 
ATOM      9  C   UNL d   1      -0.990  -2.556   1.313  0.00  0.00     0.018 C 
ENDBRANCH   1   8
TORSDOF 1
ENDMDL
