MODEL 1
REMARK minimizedAffinity 10.5624962
REMARK minimizedRMSD -1
REMARK  1 active torsions:
REMARK  status: ('A' for Active; 'I' for Inactive)
REMARK    1  A    between atoms: C1_2  and  C2_3 
ROOT
ATOM      1  C2  UNL d   1       5.609   4.219  -2.235  0.00  0.00    -0.081 A 
ATOM      2  C3  UNL d   1       5.437   5.389  -1.486  0.00  0.00     0.006 A 
ATOM      3  C4  UNL d   1       5.550   5.361  -0.094  0.00  0.00     0.002 A 
ATOM      4  C5  UNL d   1       5.845   4.166   0.571  0.00  0.00    -0.080 A 
ATOM      5  C6  UNL d   1       6.000   4.128   2.062  0.00  0.00     0.076 C 
ATOM      6  C7  UNL d   1       6.000   2.993  -0.177  0.00  0.00     0.002 A 
ATOM      7  C8  UNL d   1       5.886   3.020  -1.569  0.00  0.00     0.006 A 
ENDROOT
BRANCH   1   8
ATOM      8  C1  UNL d   1       5.551   4.258  -3.741  0.00  0.00     0.054 C 
ATOM      9  C   UNL d   1       4.351   3.484  -4.269  0.00  0.00     0.018 C 
ENDBRANCH   1   8
TORSDOF 1
ENDMDL
