MODEL 1
REMARK minimizedAffinity 15.8130741
REMARK minimizedRMSD -1
REMARK  1 active torsions:
REMARK  status: ('A' for Active; 'I' for Inactive)
REMARK    1  A    between atoms: C1_2  and  C2_3 
ROOT
ATOM      1  C2  UNL d   1       4.037   3.362  -1.329  0.00  0.00    -0.081 A 
ATOM      2  C3  UNL d   1       3.374   3.517  -2.553  0.00  0.00     0.006 A 
ATOM      3  C4  UNL d   1       4.002   4.163  -3.621  0.00  0.00     0.002 A 
ATOM      4  C5  UNL d   1       5.303   4.658  -3.485  0.00  0.00    -0.080 A 
ATOM      5  C6  UNL d   1       5.999   5.328  -4.633  0.00  0.00     0.076 C 
ATOM      6  C7  UNL d   1       5.958   4.519  -2.257  0.00  0.00     0.002 A 
ATOM      7  C8  UNL d   1       5.331   3.874  -1.189  0.00  0.00     0.006 A 
ENDROOT
BRANCH   1   8
ATOM      8  C1  UNL d   1       3.388   2.608  -0.196  0.00  0.00     0.054 C 
ATOM      9  C   UNL d   1       4.122   2.841   1.116  0.00  0.00     0.018 C 
ENDBRANCH   1   8
TORSDOF 1
ENDMDL
