MODEL 1
REMARK minimizedAffinity 6.97545099
REMARK minimizedRMSD -1
REMARK  1 active torsions:
REMARK  status: ('A' for Active; 'I' for Inactive)
REMARK    1  A    between atoms: C1_2  and  C2_3 
ROOT
ATOM      1  C2  UNL d   1       4.818   4.311   1.043  0.00  0.00    -0.081 A 
ATOM      2  C3  UNL d   1       5.646   3.565   1.890  0.00  0.00     0.006 A 
ATOM      3  C4  UNL d   1       5.327   2.242   2.206  0.00  0.00     0.002 A 
ATOM      4  C5  UNL d   1       4.181   1.641   1.673  0.00  0.00    -0.080 A 
ATOM      5  C6  UNL d   1       3.844   0.212   1.980  0.00  0.00     0.076 C 
ATOM      6  C7  UNL d   1       3.345   2.393   0.841  0.00  0.00     0.002 A 
ATOM      7  C8  UNL d   1       3.663   3.716   0.526  0.00  0.00     0.006 A 
ENDROOT
BRANCH   1   8
ATOM      8  C1  UNL d   1       5.193   5.717   0.649  0.00  0.00     0.054 C 
ATOM      9  C   UNL d   1       5.622   5.788  -0.809  0.00  0.00     0.018 C 
ENDBRANCH   1   8
TORSDOF 1
ENDMDL
