MODEL 1
REMARK minimizedAffinity 14.2810116
REMARK minimizedRMSD -1
REMARK  1 active torsions:
REMARK  status: ('A' for Active; 'I' for Inactive)
REMARK    1  A    between atoms: C1_2  and  C2_3 
ROOT
ATOM      1  C2  UNL d   1      -0.574  -1.335   2.531  0.00  0.00    -0.081 A 
ATOM      2  C3  UNL d   1      -1.379  -0.434   3.238  0.00  0.00     0.006 A 
ATOM      3  C4  UNL d   1      -2.771  -0.555   3.209  0.00  0.00     0.002 A 
ATOM      4  C5  UNL d   1      -3.379  -1.582   2.480  0.00  0.00    -0.080 A 
ATOM      5  C6  UNL d   1      -4.870  -1.741   2.466  0.00  0.00     0.076 C 
ATOM      6  C7  UNL d   1      -2.575  -2.472   1.760  0.00  0.00     0.002 A 
ATOM      7  C8  UNL d   1      -1.184  -2.351   1.787  0.00  0.00     0.006 A 
ENDROOT
BRANCH   1   8
ATOM      8  C1  UNL d   1       0.929  -1.247   2.612  0.00  0.00     0.054 C 
ATOM      9  C   UNL d   1       1.487  -2.232   3.629  0.00  0.00     0.018 C 
ENDBRANCH   1   8
TORSDOF 1
ENDMDL
