MODEL 1
REMARK minimizedAffinity 23.1632957
REMARK minimizedRMSD -1
REMARK  1 active torsions:
REMARK  status: ('A' for Active; 'I' for Inactive)
REMARK    1  A    between atoms: C1_2  and  C2_3 
ROOT
ATOM      1  C2  UNL d   1      -0.338   4.963  -3.824  0.00  0.00    -0.081 A 
ATOM      2  C3  UNL d   1       0.610   5.399  -2.890  0.00  0.00     0.006 A 
ATOM      3  C4  UNL d   1       1.517   4.497  -2.328  0.00  0.00     0.002 A 
ATOM      4  C5  UNL d   1       1.496   3.148  -2.696  0.00  0.00    -0.080 A 
ATOM      5  C6  UNL d   1       2.484   2.175  -2.123  0.00  0.00     0.076 C 
ATOM      6  C7  UNL d   1       0.538   2.709  -3.616  0.00  0.00     0.002 A 
ATOM      7  C8  UNL d   1      -0.370   3.610  -4.177  0.00  0.00     0.006 A 
ENDROOT
BRANCH   1   8
ATOM      8  C1  UNL d   1      -1.275   5.945  -4.480  0.00  0.00     0.054 C 
ATOM      9  C   UNL d   1      -1.618   5.518  -5.900  0.00  0.00     0.018 C 
ENDBRANCH   1   8
TORSDOF 1
ENDMDL
