MODEL 1
REMARK minimizedAffinity 15.4214554
REMARK minimizedRMSD -1
REMARK  1 active torsions:
REMARK  status: ('A' for Active; 'I' for Inactive)
REMARK    1  A    between atoms: C1_2  and  C2_3 
ROOT
ATOM      1  C2  UNL d   1       3.241   4.338  -2.818  0.00  0.00    -0.081 A 
ATOM      2  C3  UNL d   1       2.368   3.396  -3.375  0.00  0.00     0.006 A 
ATOM      3  C4  UNL d   1       2.794   2.561  -4.411  0.00  0.00     0.002 A 
ATOM      4  C5  UNL d   1       4.101   2.650  -4.902  0.00  0.00    -0.080 A 
ATOM      5  C6  UNL d   1       4.579   1.739  -5.994  0.00  0.00     0.076 C 
ATOM      6  C7  UNL d   1       4.968   3.603  -4.358  0.00  0.00     0.002 A 
ATOM      7  C8  UNL d   1       4.542   4.438  -3.322  0.00  0.00     0.006 A 
ENDROOT
BRANCH   1   8
ATOM      8  C1  UNL d   1       2.805   5.195  -1.657  0.00  0.00     0.054 C 
ATOM      9  C   UNL d   1       1.558   5.998  -1.999  0.00  0.00     0.018 C 
ENDBRANCH   1   8
TORSDOF 1
ENDMDL
