MODEL 1
REMARK minimizedAffinity 16.6909885
REMARK minimizedRMSD -1
REMARK  1 active torsions:
REMARK  status: ('A' for Active; 'I' for Inactive)
REMARK    1  A    between atoms: C1_2  and  C2_3 
ROOT
ATOM      1  C2  UNL d   1       2.521   1.607  -1.254  0.00  0.00    -0.081 A 
ATOM      2  C3  UNL d   1       2.063   2.070  -0.014  0.00  0.00     0.006 A 
ATOM      3  C4  UNL d   1       2.327   1.347   1.152  0.00  0.00     0.002 A 
ATOM      4  C5  UNL d   1       3.059   0.156   1.099  0.00  0.00    -0.080 A 
ATOM      5  C6  UNL d   1       3.376  -0.613   2.348  0.00  0.00     0.076 C 
ATOM      6  C7  UNL d   1       3.502  -0.314  -0.141  0.00  0.00     0.002 A 
ATOM      7  C8  UNL d   1       3.237   0.407  -1.308  0.00  0.00     0.006 A 
ENDROOT
BRANCH   1   8
ATOM      8  C1  UNL d   1       2.293   2.417  -2.505  0.00  0.00     0.054 C 
ATOM      9  C   UNL d   1       2.303   3.910  -2.207  0.00  0.00     0.018 C 
ENDBRANCH   1   8
TORSDOF 1
ENDMDL
