MODEL 1
REMARK minimizedAffinity 16.9819622
REMARK minimizedRMSD -1
REMARK  1 active torsions:
REMARK  status: ('A' for Active; 'I' for Inactive)
REMARK    1  A    between atoms: C1_2  and  C2_3 
ROOT
ATOM      1  C2  UNL d   1      -5.938   1.936   2.821  0.00  0.00    -0.081 A 
ATOM      2  C3  UNL d   1      -5.893   1.526   4.159  0.00  0.00     0.006 A 
ATOM      3  C4  UNL d   1      -5.897   2.468   5.189  0.00  0.00     0.002 A 
ATOM      4  C5  UNL d   1      -5.955   3.836   4.900  0.00  0.00    -0.080 A 
ATOM      5  C6  UNL d   1      -5.990   4.857   5.998  0.00  0.00     0.076 C 
ATOM      6  C7  UNL d   1      -5.982   4.247   3.563  0.00  0.00     0.002 A 
ATOM      7  C8  UNL d   1      -5.978   3.305   2.532  0.00  0.00     0.006 A 
ENDROOT
BRANCH   1   8
ATOM      8  C1  UNL d   1      -5.999   0.920   1.709  0.00  0.00     0.054 C 
ATOM      9  C   UNL d   1      -4.831   1.082   0.747  0.00  0.00     0.018 C 
ENDBRANCH   1   8
TORSDOF 1
ENDMDL
