MODEL 1
REMARK minimizedAffinity 8.76587677
REMARK minimizedRMSD -1
REMARK  1 active torsions:
REMARK  status: ('A' for Active; 'I' for Inactive)
REMARK    1  A    between atoms: C1_2  and  C2_3 
ROOT
ATOM      1  C2  UNL d   1       2.266   0.971   0.447  0.00  0.00    -0.081 A 
ATOM      2  C3  UNL d   1       2.959   0.749  -0.749  0.00  0.00     0.006 A 
ATOM      3  C4  UNL d   1       4.161   1.413  -1.004  0.00  0.00     0.002 A 
ATOM      4  C5  UNL d   1       4.694   2.303  -0.066  0.00  0.00    -0.080 A 
ATOM      5  C6  UNL d   1       5.998   3.000  -0.314  0.00  0.00     0.076 C 
ATOM      6  C7  UNL d   1       3.992   2.538   1.122  0.00  0.00     0.002 A 
ATOM      7  C8  UNL d   1       2.790   1.875   1.377  0.00  0.00     0.006 A 
ENDROOT
BRANCH   1   8
ATOM      8  C1  UNL d   1       1.003   0.208   0.754  0.00  0.00     0.054 C 
ATOM      9  C   UNL d   1       1.303  -1.081   1.506  0.00  0.00     0.018 C 
ENDBRANCH   1   8
TORSDOF 1
ENDMDL
