MODEL 1
REMARK minimizedAffinity 15.4539394
REMARK minimizedRMSD -1
REMARK  1 active torsions:
REMARK  status: ('A' for Active; 'I' for Inactive)
REMARK    1  A    between atoms: C1_2  and  C2_3 
ROOT
ATOM      1  C2  UNL d   1      -3.726  -1.860   0.227  0.00  0.00    -0.081 A 
ATOM      2  C3  UNL d   1      -4.710  -2.841   0.059  0.00  0.00     0.006 A 
ATOM      3  C4  UNL d   1      -4.609  -4.067   0.722  0.00  0.00     0.002 A 
ATOM      4  C5  UNL d   1      -3.527  -4.329   1.569  0.00  0.00    -0.080 A 
ATOM      5  C6  UNL d   1      -3.422  -5.628   2.309  0.00  0.00     0.076 C 
ATOM      6  C7  UNL d   1      -2.534  -3.355   1.723  0.00  0.00     0.002 A 
ATOM      7  C8  UNL d   1      -2.635  -2.130   1.060  0.00  0.00     0.006 A 
ENDROOT
BRANCH   1   8
ATOM      8  C1  UNL d   1      -3.865  -0.513  -0.435  0.00  0.00     0.054 C 
ATOM      9  C   UNL d   1      -4.244  -0.654  -1.902  0.00  0.00     0.018 C 
ENDBRANCH   1   8
TORSDOF 1
ENDMDL
