MODEL 1
REMARK minimizedAffinity 9.90787888
REMARK minimizedRMSD -1
REMARK  1 active torsions:
REMARK  status: ('A' for Active; 'I' for Inactive)
REMARK    1  A    between atoms: C1_2  and  C2_3 
ROOT
ATOM      1  C2  UNL d   1       3.405   2.659  -3.399  0.00  0.00    -0.081 A 
ATOM      2  C3  UNL d   1       3.730   1.682  -2.451  0.00  0.00     0.006 A 
ATOM      3  C4  UNL d   1       2.755   1.185  -1.583  0.00  0.00     0.002 A 
ATOM      4  C5  UNL d   1       1.437   1.649  -1.655  0.00  0.00    -0.080 A 
ATOM      5  C6  UNL d   1       0.374   1.101  -0.750  0.00  0.00     0.076 C 
ATOM      6  C7  UNL d   1       1.116   2.638  -2.591  0.00  0.00     0.002 A 
ATOM      7  C8  UNL d   1       2.091   3.136  -3.458  0.00  0.00     0.006 A 
ENDROOT
BRANCH   1   8
ATOM      8  C1  UNL d   1       4.439   3.151  -4.379  0.00  0.00     0.054 C 
ATOM      9  C   UNL d   1       5.632   3.766  -3.662  0.00  0.00     0.018 C 
ENDBRANCH   1   8
TORSDOF 1
ENDMDL
