MODEL 1
REMARK minimizedAffinity 13.3371716
REMARK minimizedRMSD -1
REMARK  1 active torsions:
REMARK  status: ('A' for Active; 'I' for Inactive)
REMARK    1  A    between atoms: C1_2  and  C2_3 
ROOT
ATOM      1  C2  UNL d   1      -2.515   0.283   3.061  0.00  0.00    -0.081 A 
ATOM      2  C3  UNL d   1      -3.585  -0.009   2.206  0.00  0.00     0.006 A 
ATOM      3  C4  UNL d   1      -3.440  -0.953   1.186  0.00  0.00     0.002 A 
ATOM      4  C5  UNL d   1      -2.226  -1.626   1.009  0.00  0.00    -0.080 A 
ATOM      5  C6  UNL d   1      -2.067  -2.663  -0.062  0.00  0.00     0.076 C 
ATOM      6  C7  UNL d   1      -1.152  -1.322   1.852  0.00  0.00     0.002 A 
ATOM      7  C8  UNL d   1      -1.296  -0.378   2.871  0.00  0.00     0.006 A 
ENDROOT
BRANCH   1   8
ATOM      8  C1  UNL d   1      -2.687   1.252   4.202  0.00  0.00     0.054 C 
ATOM      9  C   UNL d   1      -2.996   0.526   5.503  0.00  0.00     0.018 C 
ENDBRANCH   1   8
TORSDOF 1
ENDMDL
