MODEL 1
REMARK minimizedAffinity 6.81578064
REMARK minimizedRMSD -1
REMARK  1 active torsions:
REMARK  status: ('A' for Active; 'I' for Inactive)
REMARK    1  A    between atoms: C1_2  and  C2_3 
ROOT
ATOM      1  C2  UNL d   1       2.340   3.193  -3.531  0.00  0.00    -0.081 A 
ATOM      2  C3  UNL d   1       1.756   4.192  -2.744  0.00  0.00     0.006 A 
ATOM      3  C4  UNL d   1       1.593   4.005  -1.369  0.00  0.00     0.002 A 
ATOM      4  C5  UNL d   1       2.019   2.821  -0.758  0.00  0.00    -0.080 A 
ATOM      5  C6  UNL d   1       1.878   2.620   0.722  0.00  0.00     0.076 C 
ATOM      6  C7  UNL d   1       2.587   1.815  -1.548  0.00  0.00     0.002 A 
ATOM      7  C8  UNL d   1       2.749   2.001  -2.922  0.00  0.00     0.006 A 
ENDROOT
BRANCH   1   8
ATOM      8  C1  UNL d   1       2.576   3.417  -5.003  0.00  0.00     0.054 C 
ATOM      9  C   UNL d   1       3.946   2.906  -5.428  0.00  0.00     0.018 C 
ENDBRANCH   1   8
TORSDOF 1
ENDMDL
