MODEL 1
REMARK minimizedAffinity 7.93928194
REMARK minimizedRMSD -1
REMARK  1 active torsions:
REMARK  status: ('A' for Active; 'I' for Inactive)
REMARK    1  A    between atoms: C1_2  and  C2_3 
ROOT
ATOM      1  C2  UNL d   1      -2.890  -2.302   1.548  0.00  0.00    -0.081 A 
ATOM      2  C3  UNL d   1      -1.828  -3.130   1.165  0.00  0.00     0.006 A 
ATOM      3  C4  UNL d   1      -0.506  -2.709   1.329  0.00  0.00     0.002 A 
ATOM      4  C5  UNL d   1      -0.224  -1.457   1.886  0.00  0.00    -0.080 A 
ATOM      5  C6  UNL d   1       1.190  -1.006   2.096  0.00  0.00     0.076 C 
ATOM      6  C7  UNL d   1      -1.285  -0.622   2.252  0.00  0.00     0.002 A 
ATOM      7  C8  UNL d   1      -2.607  -1.042   2.088  0.00  0.00     0.006 A 
ENDROOT
BRANCH   1   8
ATOM      8  C1  UNL d   1      -4.315  -2.779   1.432  0.00  0.00     0.054 C 
ATOM      9  C   UNL d   1      -4.462  -4.209   1.932  0.00  0.00     0.018 C 
ENDBRANCH   1   8
TORSDOF 1
ENDMDL
