MODEL 1
REMARK minimizedAffinity 20.6125908
REMARK minimizedRMSD -1
REMARK  1 active torsions:
REMARK  status: ('A' for Active; 'I' for Inactive)
REMARK    1  A    between atoms: C1_2  and  C2_3 
ROOT
ATOM      1  C2  UNL d   1      -3.453   0.204   1.445  0.00  0.00    -0.081 A 
ATOM      2  C3  UNL d   1      -2.924  -0.830   0.663  0.00  0.00     0.006 A 
ATOM      3  C4  UNL d   1      -1.665  -1.362   0.949  0.00  0.00     0.002 A 
ATOM      4  C5  UNL d   1      -0.917  -0.876   2.026  0.00  0.00    -0.080 A 
ATOM      5  C6  UNL d   1       0.423  -1.460   2.363  0.00  0.00     0.076 C 
ATOM      6  C7  UNL d   1      -1.437   0.169   2.798  0.00  0.00     0.002 A 
ATOM      7  C8  UNL d   1      -2.696   0.702   2.512  0.00  0.00     0.006 A 
ENDROOT
BRANCH   1   8
ATOM      8  C1  UNL d   1      -4.837   0.736   1.179  0.00  0.00     0.054 C 
ATOM      9  C   UNL d   1      -5.130   0.796  -0.313  0.00  0.00     0.018 C 
ENDBRANCH   1   8
TORSDOF 1
ENDMDL
