MODEL 1
REMARK minimizedAffinity 15.620862
REMARK minimizedRMSD -1
REMARK  1 active torsions:
REMARK  status: ('A' for Active; 'I' for Inactive)
REMARK    1  A    between atoms: C1_2  and  C2_3 
ROOT
ATOM      1  C2  UNL d   1       4.996   3.980  -3.792  0.00  0.00    -0.081 A 
ATOM      2  C3  UNL d   1       4.072   2.988  -4.140  0.00  0.00     0.006 A 
ATOM      3  C4  UNL d   1       3.104   2.569  -3.224  0.00  0.00     0.002 A 
ATOM      4  C5  UNL d   1       3.039   3.141  -1.949  0.00  0.00    -0.080 A 
ATOM      5  C6  UNL d   1       1.986   2.722  -0.966  0.00  0.00     0.076 C 
ATOM      6  C7  UNL d   1       3.974   4.120  -1.595  0.00  0.00     0.002 A 
ATOM      7  C8  UNL d   1       4.942   4.538  -2.510  0.00  0.00     0.006 A 
ENDROOT
BRANCH   1   8
ATOM      8  C1  UNL d   1       6.000   4.479  -4.800  0.00  0.00     0.054 C 
ATOM      9  C   UNL d   1       5.999   5.999  -4.875  0.00  0.00     0.018 C 
ENDBRANCH   1   8
TORSDOF 1
ENDMDL
