MODEL 1
REMARK minimizedAffinity -1.70633304
REMARK minimizedRMSD -1
REMARK  0 active torsions:
REMARK  status: ('A' for Active; 'I' for Inactive)
ROOT
ATOM      1  C1  DEN d   1       0.270   1.985  -1.133  0.00  0.00     0.130 A 
ATOM      2  C2  DEN d   1      -0.842   2.020  -0.188  0.00  0.00    -0.031 A 
ATOM      3  C3  DEN d   1      -0.932   0.696   0.460  0.00  0.00     0.027 A 
ATOM      4  C4  DEN d   1       0.539  -1.391   0.097  0.00  0.00     0.027 A 
ATOM      5  C5  DEN d   1       1.601  -1.906  -0.613  0.00  0.00    -0.003 A 
ATOM      6  C6  DEN d   1       2.267  -1.177  -1.563  0.00  0.00     0.001 A 
ATOM      7  C7  DEN d   1       1.906   0.123  -1.797  0.00  0.00     0.017 A 
ATOM      8  C8  DEN d   1       0.831   0.647  -1.090  0.00  0.00    -0.094 A 
ATOM      9  C9  DEN d   1       0.179  -0.102  -0.125  0.00  0.00    -0.072 A 
ENDROOT
TORSDOF 0
ENDMDL
