MODEL 1
REMARK minimizedAffinity -0.190510705
REMARK minimizedRMSD -1
REMARK  0 active torsions:
REMARK  status: ('A' for Active; 'I' for Inactive)
ROOT
ATOM      1  C1  DEN d   1       1.254   0.608  -1.941  0.00  0.00     0.130 A 
ATOM      2  C2  DEN d   1       2.078  -0.598  -1.958  0.00  0.00    -0.031 A 
ATOM      3  C3  DEN d   1       1.607  -1.487  -0.876  0.00  0.00     0.027 A 
ATOM      4  C4  DEN d   1      -0.309  -1.118   0.810  0.00  0.00     0.027 A 
ATOM      5  C5  DEN d   1      -1.287  -0.240   1.223  0.00  0.00    -0.003 A 
ATOM      6  C6  DEN d   1      -1.462   0.986   0.638  0.00  0.00     0.001 A 
ATOM      7  C7  DEN d   1      -0.677   1.350  -0.424  0.00  0.00     0.017 A 
ATOM      8  C8  DEN d   1       0.315   0.473  -0.842  0.00  0.00    -0.094 A 
ATOM      9  C9  DEN d   1       0.469  -0.766  -0.245  0.00  0.00    -0.072 A 
ENDROOT
TORSDOF 0
ENDMDL
