MODEL 1
REMARK minimizedAffinity -2.41091752
REMARK minimizedRMSD -1
REMARK  0 active torsions:
REMARK  status: ('A' for Active; 'I' for Inactive)
ROOT
ATOM      1  C1  DEN d   1       0.663   1.814  -1.935  0.00  0.00     0.130 A 
ATOM      2  C2  DEN d   1       1.671   1.864  -2.990  0.00  0.00    -0.031 A 
ATOM      3  C3  DEN d   1       2.423   0.593  -2.963  0.00  0.00     0.027 A 
ATOM      4  C4  DEN d   1       2.122  -1.438  -1.402  0.00  0.00     0.027 A 
ATOM      5  C5  DEN d   1       1.402  -1.941  -0.341  0.00  0.00    -0.003 A 
ATOM      6  C6  DEN d   1       0.416  -1.221   0.280  0.00  0.00     0.001 A 
ATOM      7  C7  DEN d   1       0.092   0.027  -0.184  0.00  0.00     0.017 A 
ATOM      8  C8  DEN d   1       0.819   0.544  -1.249  0.00  0.00    -0.094 A 
ATOM      9  C9  DEN d   1       1.803  -0.205  -1.871  0.00  0.00    -0.072 A 
ENDROOT
TORSDOF 0
ENDMDL
