MODEL 1
REMARK minimizedAffinity -0.528168619
REMARK minimizedRMSD -1
REMARK  0 active torsions:
REMARK  status: ('A' for Active; 'I' for Inactive)
ROOT
ATOM      1  C1  DEN d   1      -0.493  -1.448   0.085  0.00  0.00     0.130 A 
ATOM      2  C2  DEN d   1       0.672  -0.905  -0.609  0.00  0.00    -0.031 A 
ATOM      3  C3  DEN d   1       0.844   0.498  -0.184  0.00  0.00     0.027 A 
ATOM      4  C4  DEN d   1      -0.571   1.875   1.476  0.00  0.00     0.027 A 
ATOM      5  C5  DEN d   1      -1.669   1.848   2.308  0.00  0.00    -0.003 A 
ATOM      6  C6  DEN d   1      -2.464   0.739   2.430  0.00  0.00     0.001 A 
ATOM      7  C7  DEN d   1      -2.148  -0.403   1.743  0.00  0.00     0.017 A 
ATOM      8  C8  DEN d   1      -1.047  -0.380   0.897  0.00  0.00    -0.094 A 
ATOM      9  C9  DEN d   1      -0.248   0.746   0.796  0.00  0.00    -0.072 A 
ENDROOT
TORSDOF 0
ENDMDL
