MODEL 1
REMARK minimizedAffinity -3.24241519
REMARK minimizedRMSD -1
REMARK  0 active torsions:
REMARK  status: ('A' for Active; 'I' for Inactive)
ROOT
ATOM      1  C1  DEN d   1      -0.878   1.063  -0.195  0.00  0.00     0.130 A 
ATOM      2  C2  DEN d   1      -1.043  -0.018   0.772  0.00  0.00    -0.031 A 
ATOM      3  C3  DEN d   1      -0.016  -1.041   0.494  0.00  0.00     0.027 A 
ATOM      4  C4  DEN d   1       1.809  -1.054  -1.330  0.00  0.00     0.027 A 
ATOM      5  C5  DEN d   1       2.336  -0.358  -2.395  0.00  0.00    -0.003 A 
ATOM      6  C6  DEN d   1       1.813   0.834  -2.819  0.00  0.00     0.001 A 
ATOM      7  C7  DEN d   1       0.756   1.389  -2.147  0.00  0.00     0.017 A 
ATOM      8  C8  DEN d   1       0.214   0.690  -1.076  0.00  0.00    -0.094 A 
ATOM      9  C9  DEN d   1       0.766  -0.508  -0.655  0.00  0.00    -0.072 A 
ENDROOT
TORSDOF 0
ENDMDL
