MODEL 1
REMARK minimizedAffinity -3.66727304
REMARK minimizedRMSD -1
REMARK  0 active torsions:
REMARK  status: ('A' for Active; 'I' for Inactive)
ROOT
ATOM      1  C1  DEN d   1       0.263  -0.658   0.884  0.00  0.00     0.130 A 
ATOM      2  C2  DEN d   1      -0.269  -0.641  -0.476  0.00  0.00    -0.031 A 
ATOM      3  C3  DEN d   1      -1.486   0.196  -0.480  0.00  0.00     0.027 A 
ATOM      4  C4  DEN d   1      -2.588   1.465   1.476  0.00  0.00     0.027 A 
ATOM      5  C5  DEN d   1      -2.506   1.742   2.823  0.00  0.00    -0.003 A 
ATOM      6  C6  DEN d   1      -1.523   1.215   3.618  0.00  0.00     0.001 A 
ATOM      7  C7  DEN d   1      -0.555   0.420   3.064  0.00  0.00     0.017 A 
ATOM      8  C8  DEN d   1      -0.636   0.130   1.708  0.00  0.00    -0.094 A 
ATOM      9  C9  DEN d   1      -1.630   0.682   0.919  0.00  0.00    -0.072 A 
ENDROOT
TORSDOF 0
ENDMDL
