MODEL 1
REMARK minimizedAffinity -4.1027689
REMARK minimizedRMSD -1
REMARK  0 active torsions:
REMARK  status: ('A' for Active; 'I' for Inactive)
ROOT
ATOM      1  C1  DEN d   1      -0.232   2.122  -1.246  0.00  0.00     0.130 A 
ATOM      2  C2  DEN d   1      -0.869   1.525  -0.076  0.00  0.00    -0.031 A 
ATOM      3  C3  DEN d   1      -0.357   0.148   0.070  0.00  0.00     0.027 A 
ATOM      4  C4  DEN d   1       1.356  -1.110  -1.391  0.00  0.00     0.027 A 
ATOM      5  C5  DEN d   1       2.164  -1.019  -2.503  0.00  0.00    -0.003 A 
ATOM      6  C6  DEN d   1       2.204   0.104  -3.287  0.00  0.00     0.001 A 
ATOM      7  C7  DEN d   1       1.455   1.198  -2.944  0.00  0.00     0.017 A 
ATOM      8  C8  DEN d   1       0.633   1.112  -1.828  0.00  0.00    -0.094 A 
ATOM      9  C9  DEN d   1       0.616  -0.028  -1.042  0.00  0.00    -0.072 A 
ENDROOT
TORSDOF 0
ENDMDL
