MODEL 1
REMARK minimizedAffinity -3.70820975
REMARK minimizedRMSD -1
REMARK  0 active torsions:
REMARK  status: ('A' for Active; 'I' for Inactive)
ROOT
ATOM      1  C1  DEN d   1       0.376   1.626  -2.098  0.00  0.00     0.130 A 
ATOM      2  C2  DEN d   1       1.156   1.557  -3.331  0.00  0.00    -0.031 A 
ATOM      3  C3  DEN d   1       1.939   0.305  -3.306  0.00  0.00     0.027 A 
ATOM      4  C4  DEN d   1       2.016  -1.525  -1.490  0.00  0.00     0.027 A 
ATOM      5  C5  DEN d   1       1.535  -1.902  -0.256  0.00  0.00    -0.003 A 
ATOM      6  C6  DEN d   1       0.668  -1.121   0.460  0.00  0.00     0.001 A 
ATOM      7  C7  DEN d   1       0.219   0.059  -0.073  0.00  0.00     0.017 A 
ATOM      8  C8  DEN d   1       0.705   0.450  -1.314  0.00  0.00    -0.094 A 
ATOM      9  C9  DEN d   1       1.572  -0.361  -2.027  0.00  0.00    -0.072 A 
ENDROOT
TORSDOF 0
ENDMDL
