MODEL 1
REMARK minimizedAffinity -5.89477777
REMARK minimizedRMSD -1
REMARK  0 active torsions:
REMARK  status: ('A' for Active; 'I' for Inactive)
ROOT
ATOM      1  C1  DEN d   1       0.540  -1.930  -0.080  0.00  0.00     0.130 A 
ATOM      2  C2  DEN d   1       1.864  -1.978  -0.696  0.00  0.00    -0.031 A 
ATOM      3  C3  DEN d   1       2.078  -0.706  -1.415  0.00  0.00     0.027 A 
ATOM      4  C4  DEN d   1       0.500   1.323  -1.630  0.00  0.00     0.027 A 
ATOM      5  C5  DEN d   1      -0.736   1.825  -1.288  0.00  0.00    -0.003 A 
ATOM      6  C6  DEN d   1      -1.640   1.102  -0.555  0.00  0.00     0.001 A 
ATOM      7  C7  DEN d   1      -1.303  -0.145  -0.101  0.00  0.00     0.017 A 
ATOM      8  C8  DEN d   1      -0.061  -0.660  -0.447  0.00  0.00    -0.094 A 
ATOM      9  C9  DEN d   1       0.844   0.090  -1.179  0.00  0.00    -0.072 A 
ENDROOT
TORSDOF 0
ENDMDL
