MODEL 1
REMARK minimizedAffinity 0.856315792
REMARK minimizedRMSD -1
REMARK  0 active torsions:
REMARK  status: ('A' for Active; 'I' for Inactive)
ROOT
ATOM      1  C1  DEN d   1       0.458  -2.467  -0.011  0.00  0.00     0.130 A 
ATOM      2  C2  DEN d   1       1.651  -2.520  -0.851  0.00  0.00    -0.031 A 
ATOM      3  C3  DEN d   1       1.823  -1.197  -1.484  0.00  0.00     0.027 A 
ATOM      4  C4  DEN d   1       0.367   0.919  -1.243  0.00  0.00     0.027 A 
ATOM      5  C5  DEN d   1      -0.759   1.445  -0.649  0.00  0.00    -0.003 A 
ATOM      6  C6  DEN d   1      -1.570   0.701   0.166  0.00  0.00     0.001 A 
ATOM      7  C7  DEN d   1      -1.242  -0.600   0.445  0.00  0.00     0.017 A 
ATOM      8  C8  DEN d   1      -0.113  -1.140  -0.156  0.00  0.00    -0.094 A 
ATOM      9  C9  DEN d   1       0.701  -0.367  -0.967  0.00  0.00    -0.072 A 
ENDROOT
TORSDOF 0
ENDMDL
