MODEL 1
REMARK minimizedAffinity -2.25759363
REMARK minimizedRMSD -1
REMARK  0 active torsions:
REMARK  status: ('A' for Active; 'I' for Inactive)
ROOT
ATOM      1  C1  DEN d   1       0.421   1.583  -1.785  0.00  0.00     0.130 A 
ATOM      2  C2  DEN d   1       1.419   1.651  -2.849  0.00  0.00    -0.031 A 
ATOM      3  C3  DEN d   1       2.238   0.424  -2.787  0.00  0.00     0.027 A 
ATOM      4  C4  DEN d   1       2.056  -1.567  -1.158  0.00  0.00     0.027 A 
ATOM      5  C5  DEN d   1       1.371  -2.073  -0.075  0.00  0.00    -0.003 A 
ATOM      6  C6  DEN d   1       0.352  -1.386   0.530  0.00  0.00     0.001 A 
ATOM      7  C7  DEN d   1      -0.042  -0.174   0.028  0.00  0.00     0.017 A 
ATOM      8  C8  DEN d   1       0.649   0.346  -1.059  0.00  0.00    -0.094 A 
ATOM      9  C9  DEN d   1       1.669  -0.369  -1.664  0.00  0.00    -0.072 A 
ENDROOT
TORSDOF 0
ENDMDL
