MODEL 1
REMARK minimizedAffinity -1.36634791
REMARK minimizedRMSD -1
REMARK  0 active torsions:
REMARK  status: ('A' for Active; 'I' for Inactive)
ROOT
ATOM      1  C1  BNZ d   1      -0.388   1.147  -0.912  0.00  0.00     0.000 A 
ATOM      2  C2  BNZ d   1       0.464   0.205  -1.425  0.00  0.00     0.000 A 
ATOM      3  C3  BNZ d   1       0.822  -0.889  -0.689  0.00  0.00     0.000 A 
ATOM      4  C4  BNZ d   1       0.361  -1.021   0.572  0.00  0.00     0.000 A 
ATOM      5  C5  BNZ d   1      -0.492  -0.075   1.106  0.00  0.00     0.000 A 
ATOM      6  C6  BNZ d   1      -0.881   1.005   0.349  0.00  0.00     0.000 A 
ENDROOT
TORSDOF 0
ENDMDL
