MODEL 1
REMARK minimizedAffinity -2.86464667
REMARK minimizedRMSD -1
REMARK  0 active torsions:
REMARK  status: ('A' for Active; 'I' for Inactive)
ROOT
ATOM      1  C1  BNZ d   1       0.391  -0.771  -0.060  0.00  0.00     0.000 A 
ATOM      2  C2  BNZ d   1      -0.313  -0.565   1.097  0.00  0.00     0.000 A 
ATOM      3  C3  BNZ d   1      -0.847   0.660   1.383  0.00  0.00     0.000 A 
ATOM      4  C4  BNZ d   1      -0.642   1.687   0.533  0.00  0.00     0.000 A 
ATOM      5  C5  BNZ d   1       0.074   1.498  -0.633  0.00  0.00     0.000 A 
ATOM      6  C6  BNZ d   1       0.576   0.253  -0.936  0.00  0.00     0.000 A 
ENDROOT
TORSDOF 0
ENDMDL
