MODEL 1
REMARK minimizedAffinity -2.93654251
REMARK minimizedRMSD -1
REMARK  0 active torsions:
REMARK  status: ('A' for Active; 'I' for Inactive)
ROOT
ATOM      1  C1  BNZ d   1       0.054  -0.748   0.875  0.00  0.00     0.000 A 
ATOM      2  C2  BNZ d   1       0.575  -0.346  -0.326  0.00  0.00     0.000 A 
ATOM      3  C3  BNZ d   1       0.509   0.963  -0.715  0.00  0.00     0.000 A 
ATOM      4  C4  BNZ d   1      -0.112   1.860   0.079  0.00  0.00     0.000 A 
ATOM      5  C5  BNZ d   1      -0.650   1.468   1.288  0.00  0.00     0.000 A 
ATOM      6  C6  BNZ d   1      -0.548   0.157   1.694  0.00  0.00     0.000 A 
ENDROOT
TORSDOF 0
ENDMDL
