MODEL 1
REMARK minimizedAffinity -4.34916401
REMARK minimizedRMSD -1
REMARK  0 active torsions:
REMARK  status: ('A' for Active; 'I' for Inactive)
ROOT
ATOM      1  C1  BNZ d   1       1.522  -2.024  -3.979  0.00  0.00     0.000 A 
ATOM      2  C2  BNZ d   1       0.371  -2.711  -4.258  0.00  0.00     0.000 A 
ATOM      3  C3  BNZ d   1      -0.337  -3.324  -3.263  0.00  0.00     0.000 A 
ATOM      4  C4  BNZ d   1       0.127  -3.283  -1.997  0.00  0.00     0.000 A 
ATOM      5  C5  BNZ d   1       1.291  -2.603  -1.701  0.00  0.00     0.000 A 
ATOM      6  C6  BNZ d   1       1.981  -1.954  -2.700  0.00  0.00     0.000 A 
ENDROOT
TORSDOF 0
ENDMDL
