MODEL 1
REMARK minimizedAffinity -3.60788083
REMARK minimizedRMSD -1
REMARK  0 active torsions:
REMARK  status: ('A' for Active; 'I' for Inactive)
ROOT
ATOM      1  C1  BNZ d   1      -0.051  -0.384   1.417  0.00  0.00     0.000 A 
ATOM      2  C2  BNZ d   1      -0.772   0.759   1.637  0.00  0.00     0.000 A 
ATOM      3  C3  BNZ d   1      -1.051   1.619   0.611  0.00  0.00     0.000 A 
ATOM      4  C4  BNZ d   1      -0.574   1.355  -0.623  0.00  0.00     0.000 A 
ATOM      5  C5  BNZ d   1       0.162   0.212  -0.858  0.00  0.00     0.000 A 
ATOM      6  C6  BNZ d   1       0.408  -0.671   0.168  0.00  0.00     0.000 A 
ENDROOT
TORSDOF 0
ENDMDL
