MODEL 1
REMARK minimizedAffinity -1.83685195
REMARK minimizedRMSD -1
REMARK  0 active torsions:
REMARK  status: ('A' for Active; 'I' for Inactive)
ROOT
ATOM      1  C1  BNZ d   1       0.107   0.557  -0.614  0.00  0.00     0.000 A 
ATOM      2  C2  BNZ d   1      -0.755   1.454  -0.040  0.00  0.00     0.000 A 
ATOM      3  C3  BNZ d   1      -1.237   1.252   1.223  0.00  0.00     0.000 A 
ATOM      4  C4  BNZ d   1      -0.889   0.135   1.894  0.00  0.00     0.000 A 
ATOM      5  C5  BNZ d   1      -0.029  -0.783   1.326  0.00  0.00     0.000 A 
ATOM      6  C6  BNZ d   1       0.485  -0.557   0.070  0.00  0.00     0.000 A 
ENDROOT
TORSDOF 0
ENDMDL
