MODEL 1
REMARK minimizedAffinity -4.65239716
REMARK minimizedRMSD -1
REMARK  0 active torsions:
REMARK  status: ('A' for Active; 'I' for Inactive)
ROOT
ATOM      1  C1  BNZ d   1       0.654  -0.015  -0.309  0.00  0.00     0.000 A 
ATOM      2  C2  BNZ d   1      -0.058   1.131  -0.074  0.00  0.00     0.000 A 
ATOM      3  C3  BNZ d   1      -0.911   1.219   0.991  0.00  0.00     0.000 A 
ATOM      4  C4  BNZ d   1      -1.081   0.149   1.794  0.00  0.00     0.000 A 
ATOM      5  C5  BNZ d   1      -0.377  -1.017   1.565  0.00  0.00     0.000 A 
ATOM      6  C6  BNZ d   1       0.510  -1.088   0.515  0.00  0.00     0.000 A 
ENDROOT
TORSDOF 0
ENDMDL
