MODEL 1
REMARK minimizedAffinity -3.70043325
REMARK minimizedRMSD -1
REMARK  0 active torsions:
REMARK  status: ('A' for Active; 'I' for Inactive)
ROOT
ATOM      1  C1  BNZ d   1      -0.645   1.122  -0.625  0.00  0.00     0.000 A 
ATOM      2  C2  BNZ d   1       0.412   0.269  -0.803  0.00  0.00     0.000 A 
ATOM      3  C3  BNZ d   1       0.777  -0.607   0.181  0.00  0.00     0.000 A 
ATOM      4  C4  BNZ d   1       0.111  -0.601   1.354  0.00  0.00     0.000 A 
ATOM      5  C5  BNZ d   1      -0.950   0.259   1.552  0.00  0.00     0.000 A 
ATOM      6  C6  BNZ d   1      -1.340   1.112   0.545  0.00  0.00     0.000 A 
ENDROOT
TORSDOF 0
ENDMDL
