MODEL 1
REMARK minimizedAffinity -5.21231413
REMARK minimizedRMSD -1
REMARK  0 active torsions:
REMARK  status: ('A' for Active; 'I' for Inactive)
ROOT
ATOM      1  C1  BNZ d   1       0.697  -0.388   0.343  0.00  0.00     0.000 A 
ATOM      2  C2  BNZ d   1      -0.215  -0.247   1.355  0.00  0.00     0.000 A 
ATOM      3  C3  BNZ d   1      -1.078   0.813   1.376  0.00  0.00     0.000 A 
ATOM      4  C4  BNZ d   1      -1.003   1.749   0.408  0.00  0.00     0.000 A 
ATOM      5  C5  BNZ d   1      -0.083   1.625  -0.614  0.00  0.00     0.000 A 
ATOM      6  C6  BNZ d   1       0.759   0.537  -0.653  0.00  0.00     0.000 A 
ENDROOT
TORSDOF 0
ENDMDL
