MODEL 1
REMARK minimizedAffinity -4.99543333
REMARK minimizedRMSD -1
REMARK  0 active torsions:
REMARK  status: ('A' for Active; 'I' for Inactive)
ROOT
ATOM      1  C1  BNZ d   1       0.051  -0.582   0.430  0.00  0.00     0.000 A 
ATOM      2  C2  BNZ d   1      -0.538  -0.421   1.656  0.00  0.00     0.000 A 
ATOM      3  C3  BNZ d   1      -1.326   0.665   1.917  0.00  0.00     0.000 A 
ATOM      4  C4  BNZ d   1      -1.490   1.608   0.967  0.00  0.00     0.000 A 
ATOM      5  C5  BNZ d   1      -0.895   1.466  -0.270  0.00  0.00     0.000 A 
ATOM      6  C6  BNZ d   1      -0.135   0.351  -0.543  0.00  0.00     0.000 A 
ENDROOT
TORSDOF 0
ENDMDL
