MODEL 1
REMARK minimizedAffinity -5.11248302
REMARK minimizedRMSD -1
REMARK  0 active torsions:
REMARK  status: ('A' for Active; 'I' for Inactive)
ROOT
ATOM      1  C1  BNZ d   1      -0.956   0.150   1.852  0.00  0.00     0.000 A 
ATOM      2  C2  BNZ d   1      -1.885   1.156   1.841  0.00  0.00     0.000 A 
ATOM      3  C3  BNZ d   1      -1.958   2.030   0.792  0.00  0.00     0.000 A 
ATOM      4  C4  BNZ d   1      -1.078   1.922  -0.223  0.00  0.00     0.000 A 
ATOM      5  C5  BNZ d   1      -0.129   0.919  -0.222  0.00  0.00     0.000 A 
ATOM      6  C6  BNZ d   1      -0.083   0.017   0.817  0.00  0.00     0.000 A 
ENDROOT
TORSDOF 0
ENDMDL
