MODEL 1
REMARK minimizedAffinity -3.79113245
REMARK minimizedRMSD -1
REMARK  0 active torsions:
REMARK  status: ('A' for Active; 'I' for Inactive)
ROOT
ATOM      1  C1  BNZ d   1       0.058  -0.446   0.898  0.00  0.00     0.000 A 
ATOM      2  C2  BNZ d   1      -0.964   0.374   1.295  0.00  0.00     0.000 A 
ATOM      3  C3  BNZ d   1      -1.271   1.503   0.589  0.00  0.00     0.000 A 
ATOM      4  C4  BNZ d   1      -0.530   1.832  -0.490  0.00  0.00     0.000 A 
ATOM      5  C5  BNZ d   1       0.509   1.020  -0.898  0.00  0.00     0.000 A 
ATOM      6  C6  BNZ d   1       0.790  -0.137  -0.207  0.00  0.00     0.000 A 
ENDROOT
TORSDOF 0
ENDMDL
