MODEL 1
REMARK minimizedAffinity -3.83026338
REMARK minimizedRMSD -1
REMARK  0 active torsions:
REMARK  status: ('A' for Active; 'I' for Inactive)
ROOT
ATOM      1  C1  BNZ d   1      -0.204   1.078  -1.009  0.00  0.00     0.000 A 
ATOM      2  C2  BNZ d   1       0.638  -0.002  -1.027  0.00  0.00     0.000 A 
ATOM      3  C3  BNZ d   1       0.644  -0.902   0.002  0.00  0.00     0.000 A 
ATOM      4  C4  BNZ d   1      -0.162  -0.700   1.065  0.00  0.00     0.000 A 
ATOM      5  C5  BNZ d   1      -1.010   0.390   1.101  0.00  0.00     0.000 A 
ATOM      6  C6  BNZ d   1      -1.041   1.272   0.046  0.00  0.00     0.000 A 
ENDROOT
TORSDOF 0
ENDMDL
