MODEL 1
REMARK minimizedAffinity 22.3255482
REMARK minimizedRMSD -1
REMARK  0 active torsions:
REMARK  status: ('A' for Active; 'I' for Inactive)
ROOT
ATOM      1  O1  BZF d   1      -4.780  -3.512   0.997  0.00  0.00    -0.204 OA
ATOM      2  C2  BZF d   1      -4.412  -4.576   1.797  0.00  0.00     0.174 A 
ATOM      3  C3  BZF d   1      -3.132  -4.450   2.202  0.00  0.00    -0.012 A 
ATOM      4  C3A BZF d   1      -2.700  -3.184   1.695  0.00  0.00    -0.107 A 
ATOM      5  C4  BZF d   1      -1.527  -2.490   1.779  0.00  0.00     0.055 A 
ATOM      6  C5  BZF d   1      -1.406  -1.313   1.109  0.00  0.00    -0.016 A 
ATOM      7  C6  BZF d   1      -2.434  -0.805   0.343  0.00  0.00     0.022 A 
ATOM      8  C7  BZF d   1      -3.618  -1.455   0.233  0.00  0.00     0.029 A 
ATOM      9  C7A BZF d   1      -3.755  -2.628   0.935  0.00  0.00     0.058 A 
ENDROOT
TORSDOF 0
ENDMDL
