MODEL 1
REMARK minimizedAffinity 15.0263567
REMARK minimizedRMSD -1
REMARK  0 active torsions:
REMARK  status: ('A' for Active; 'I' for Inactive)
ROOT
ATOM      1  O1  BZF d   1      -1.990  -0.236   3.884  0.00  0.00    -0.204 OA
ATOM      2  C2  BZF d   1      -3.096   0.134   3.143  0.00  0.00     0.174 A 
ATOM      3  C3  BZF d   1      -3.124  -0.523   1.966  0.00  0.00    -0.012 A 
ATOM      4  C3A BZF d   1      -2.013  -1.424   2.010  0.00  0.00    -0.107 A 
ATOM      5  C4  BZF d   1      -1.525  -2.355   1.139  0.00  0.00     0.055 A 
ATOM      6  C5  BZF d   1      -0.380  -3.016   1.453  0.00  0.00    -0.016 A 
ATOM      7  C6  BZF d   1       0.305  -2.767   2.625  0.00  0.00     0.022 A 
ATOM      8  C7  BZF d   1      -0.144  -1.855   3.522  0.00  0.00     0.029 A 
ATOM      9  C7A BZF d   1      -1.319  -1.210   3.223  0.00  0.00     0.058 A 
ENDROOT
TORSDOF 0
ENDMDL
