MODEL 1
REMARK minimizedAffinity 17.9249611
REMARK minimizedRMSD -1
REMARK  0 active torsions:
REMARK  status: ('A' for Active; 'I' for Inactive)
ROOT
ATOM      1  O1  BZF d   1       2.680   1.704  -2.610  0.00  0.00    -0.204 OA
ATOM      2  C2  BZF d   1       2.817   1.278  -1.303  0.00  0.00     0.174 A 
ATOM      3  C3  BZF d   1       3.768   1.990  -0.665  0.00  0.00    -0.012 A 
ATOM      4  C3A BZF d   1       4.191   2.981  -1.606  0.00  0.00    -0.107 A 
ATOM      5  C4  BZF d   1       5.103   3.996  -1.554  0.00  0.00     0.055 A 
ATOM      6  C5  BZF d   1       5.330   4.737  -2.670  0.00  0.00    -0.016 A 
ATOM      7  C6  BZF d   1       4.669   4.488  -3.855  0.00  0.00     0.022 A 
ATOM      8  C7  BZF d   1       3.751   3.495  -3.953  0.00  0.00     0.029 A 
ATOM      9  C7A BZF d   1       3.495   2.766  -2.818  0.00  0.00     0.058 A 
ENDROOT
TORSDOF 0
ENDMDL
