MODEL 1
REMARK minimizedAffinity 5.01312256
REMARK minimizedRMSD -1
REMARK  0 active torsions:
REMARK  status: ('A' for Active; 'I' for Inactive)
ROOT
ATOM      1  O1  BZF d   1      -1.024  -5.849  -5.999  0.00  0.00    -0.204 OA
ATOM      2  C2  BZF d   1      -2.211  -5.220  -5.672  0.00  0.00     0.174 A 
ATOM      3  C3  BZF d   1      -2.105  -4.586  -4.487  0.00  0.00    -0.012 A 
ATOM      4  C3A BZF d   1      -0.741  -4.756  -4.089  0.00  0.00    -0.107 A 
ATOM      5  C4  BZF d   1      -0.020  -4.340  -3.006  0.00  0.00     0.055 A 
ATOM      6  C5  BZF d   1       1.273  -4.738  -2.882  0.00  0.00    -0.016 A 
ATOM      7  C6  BZF d   1       1.875  -5.554  -3.817  0.00  0.00     0.022 A 
ATOM      8  C7  BZF d   1       1.201  -5.989  -4.910  0.00  0.00     0.029 A 
ATOM      9  C7A BZF d   1      -0.096  -5.562  -5.055  0.00  0.00     0.058 A 
ENDROOT
TORSDOF 0
ENDMDL
