MODEL 1
REMARK minimizedAffinity 15.755621
REMARK minimizedRMSD -1
REMARK  0 active torsions:
REMARK  status: ('A' for Active; 'I' for Inactive)
ROOT
ATOM      1  O1  BZF d   1       4.372  -5.919   1.304  0.00  0.00    -0.204 OA
ATOM      2  C2  BZF d   1       3.001  -5.907   1.477  0.00  0.00     0.174 A 
ATOM      3  C3  BZF d   1       2.453  -4.830   0.879  0.00  0.00    -0.012 A 
ATOM      4  C3A BZF d   1       3.538  -4.175   0.216  0.00  0.00    -0.107 A 
ATOM      5  C4  BZF d   1       3.625  -3.056  -0.562  0.00  0.00     0.055 A 
ATOM      6  C5  BZF d   1       4.846  -2.645  -0.994  0.00  0.00    -0.016 A 
ATOM      7  C6  BZF d   1       6.000  -3.325  -0.664  0.00  0.00     0.022 A 
ATOM      8  C7  BZF d   1       5.963  -4.443   0.101  0.00  0.00     0.029 A 
ATOM      9  C7A BZF d   1       4.728  -4.879   0.512  0.00  0.00     0.058 A 
ENDROOT
TORSDOF 0
ENDMDL
