MODEL 1
REMARK minimizedAffinity 21.9829826
REMARK minimizedRMSD -1
REMARK  0 active torsions:
REMARK  status: ('A' for Active; 'I' for Inactive)
ROOT
ATOM      1  O1  BZF d   1       5.984   4.871  -4.515  0.00  0.00    -0.204 OA
ATOM      2  C2  BZF d   1       6.000   5.999  -3.717  0.00  0.00     0.174 A 
ATOM      3  C3  BZF d   1       5.048   5.924  -2.764  0.00  0.00    -0.012 A 
ATOM      4  C3A BZF d   1       4.458   4.630  -2.923  0.00  0.00    -0.107 A 
ATOM      5  C4  BZF d   1       3.467   3.963  -2.261  0.00  0.00     0.055 A 
ATOM      6  C5  BZF d   1       3.077   2.742  -2.713  0.00  0.00    -0.016 A 
ATOM      7  C6  BZF d   1       3.653   2.161  -3.823  0.00  0.00     0.022 A 
ATOM      8  C7  BZF d   1       4.643   2.782  -4.509  0.00  0.00     0.029 A 
ATOM      9  C7A BZF d   1       5.062   4.002  -4.036  0.00  0.00     0.058 A 
ENDROOT
TORSDOF 0
ENDMDL
