MODEL 1
REMARK minimizedAffinity 7.37721157
REMARK minimizedRMSD -1
REMARK  0 active torsions:
REMARK  status: ('A' for Active; 'I' for Inactive)
ROOT
ATOM      1  O1  BZF d   1       1.213   2.107  -3.445  0.00  0.00    -0.204 OA
ATOM      2  C2  BZF d   1       2.267   1.881  -2.582  0.00  0.00     0.174 A 
ATOM      3  C3  BZF d   1       2.591   3.009  -1.917  0.00  0.00    -0.012 A 
ATOM      4  C3A BZF d   1       1.622   3.979  -2.327  0.00  0.00    -0.107 A 
ATOM      5  C4  BZF d   1       1.408   5.287  -2.001  0.00  0.00     0.055 A 
ATOM      6  C5  BZF d   1       0.420   5.972  -2.635  0.00  0.00    -0.016 A 
ATOM      7  C6  BZF d   1      -0.368   5.383  -3.602  0.00  0.00     0.022 A 
ATOM      8  C7  BZF d   1      -0.196   4.086  -3.955  0.00  0.00     0.029 A 
ATOM      9  C7A BZF d   1       0.780   3.381  -3.293  0.00  0.00     0.058 A 
ENDROOT
TORSDOF 0
ENDMDL
