MODEL 1
REMARK minimizedAffinity 22.1978703
REMARK minimizedRMSD -1
REMARK  0 active torsions:
REMARK  status: ('A' for Active; 'I' for Inactive)
ROOT
ATOM      1  O1  BZF d   1      -2.316  -1.731  -1.329  0.00  0.00    -0.204 OA
ATOM      2  C2  BZF d   1      -3.253  -0.773  -0.992  0.00  0.00     0.174 A 
ATOM      3  C3  BZF d   1      -4.103  -1.244  -0.057  0.00  0.00    -0.012 A 
ATOM      4  C3A BZF d   1      -3.615  -2.548   0.273  0.00  0.00    -0.107 A 
ATOM      5  C4  BZF d   1      -4.026  -3.510   1.150  0.00  0.00     0.055 A 
ATOM      6  C5  BZF d   1      -3.374  -4.702   1.178  0.00  0.00    -0.016 A 
ATOM      7  C6  BZF d   1      -2.311  -4.966   0.339  0.00  0.00     0.022 A 
ATOM      8  C7  BZF d   1      -1.863  -4.041  -0.544  0.00  0.00     0.029 A 
ATOM      9  C7A BZF d   1      -2.499  -2.824  -0.551  0.00  0.00     0.058 A 
ENDROOT
TORSDOF 0
ENDMDL
