MODEL 1
REMARK minimizedAffinity 17.3687572
REMARK minimizedRMSD -1
REMARK  0 active torsions:
REMARK  status: ('A' for Active; 'I' for Inactive)
ROOT
ATOM      1  O1  BZF d   1       5.870   4.112  -3.694  0.00  0.00    -0.204 OA
ATOM      2  C2  BZF d   1       5.997   4.516  -2.379  0.00  0.00     0.174 A 
ATOM      3  C3  BZF d   1       4.825   4.391  -1.724  0.00  0.00    -0.012 A 
ATOM      4  C3A BZF d   1       3.930   3.790  -2.665  0.00  0.00    -0.107 A 
ATOM      5  C4  BZF d   1       2.623   3.400  -2.601  0.00  0.00     0.055 A 
ATOM      6  C5  BZF d   1       2.023   2.914  -3.720  0.00  0.00    -0.016 A 
ATOM      7  C6  BZF d   1       2.698   2.808  -4.918  0.00  0.00     0.022 A 
ATOM      8  C7  BZF d   1       3.998   3.177  -5.029  0.00  0.00     0.029 A 
ATOM      9  C7A BZF d   1       4.616   3.638  -3.893  0.00  0.00     0.058 A 
ENDROOT
TORSDOF 0
ENDMDL
