MODEL 1
REMARK minimizedAffinity 14.0124941
REMARK minimizedRMSD -1
REMARK  0 active torsions:
REMARK  status: ('A' for Active; 'I' for Inactive)
ROOT
ATOM      1  O1  BZF d   1       2.133   2.303  -3.789  0.00  0.00    -0.204 OA
ATOM      2  C2  BZF d   1       1.971   2.302  -2.417  0.00  0.00     0.174 A 
ATOM      3  C3  BZF d   1       2.932   3.036  -1.820  0.00  0.00    -0.012 A 
ATOM      4  C3A BZF d   1       3.692   3.603  -2.892  0.00  0.00    -0.107 A 
ATOM      5  C4  BZF d   1       4.771   4.439  -2.938  0.00  0.00     0.055 A 
ATOM      6  C5  BZF d   1       5.319   4.743  -4.144  0.00  0.00    -0.016 A 
ATOM      7  C6  BZF d   1       4.818   4.227  -5.321  0.00  0.00     0.022 A 
ATOM      8  C7  BZF d   1       3.746   3.397  -5.326  0.00  0.00     0.029 A 
ATOM      9  C7A BZF d   1       3.170   3.114  -4.112  0.00  0.00     0.058 A 
ENDROOT
TORSDOF 0
ENDMDL
