MODEL 1
REMARK minimizedAffinity 13.5897064
REMARK minimizedRMSD -1
REMARK  0 active torsions:
REMARK  status: ('A' for Active; 'I' for Inactive)
ROOT
ATOM      1  O1  BZF d   1      -1.229   0.519   3.416  0.00  0.00    -0.204 OA
ATOM      2  C2  BZF d   1      -1.791   0.483   2.154  0.00  0.00     0.174 A 
ATOM      3  C3  BZF d   1      -1.345  -0.586   1.462  0.00  0.00    -0.012 A 
ATOM      4  C3A BZF d   1      -0.520  -1.310   2.380  0.00  0.00    -0.107 A 
ATOM      5  C4  BZF d   1       0.193  -2.471   2.287  0.00  0.00     0.055 A 
ATOM      6  C5  BZF d   1       0.953  -2.866   3.342  0.00  0.00    -0.016 A 
ATOM      7  C6  BZF d   1       1.026  -2.124   4.502  0.00  0.00     0.022 A 
ATOM      8  C7  BZF d   1       0.332  -0.968   4.644  0.00  0.00     0.029 A 
ATOM      9  C7A BZF d   1      -0.462  -0.583   3.592  0.00  0.00     0.058 A 
ENDROOT
TORSDOF 0
ENDMDL
