MODEL 1
REMARK minimizedAffinity 22.1068287
REMARK minimizedRMSD -1
REMARK  0 active torsions:
REMARK  status: ('A' for Active; 'I' for Inactive)
ROOT
ATOM      1  O1  BZF d   1       0.596  -3.092   2.580  0.00  0.00    -0.204 OA
ATOM      2  C2  BZF d   1       1.562  -2.418   3.302  0.00  0.00     0.174 A 
ATOM      3  C3  BZF d   1       1.360  -1.086   3.244  0.00  0.00    -0.012 A 
ATOM      4  C3A BZF d   1       0.141  -0.921   2.513  0.00  0.00    -0.107 A 
ATOM      5  C4  BZF d   1      -0.590   0.170   2.140  0.00  0.00     0.055 A 
ATOM      6  C5  BZF d   1      -1.694  -0.007   1.368  0.00  0.00    -0.016 A 
ATOM      7  C6  BZF d   1      -2.092  -1.258   0.947  0.00  0.00     0.022 A 
ATOM      8  C7  BZF d   1      -1.402  -2.371   1.295  0.00  0.00     0.029 A 
ATOM      9  C7A BZF d   1      -0.304  -2.199   2.103  0.00  0.00     0.058 A 
ENDROOT
TORSDOF 0
ENDMDL
