MODEL 1
REMARK minimizedAffinity 18.9420433
REMARK minimizedRMSD -1
REMARK  0 active torsions:
REMARK  status: ('A' for Active; 'I' for Inactive)
ROOT
ATOM      1  O1  BZF d   1       3.088   1.530   1.880  0.00  0.00    -0.204 OA
ATOM      2  C2  BZF d   1       2.421   1.122   0.741  0.00  0.00     0.174 A 
ATOM      3  C3  BZF d   1       2.973   1.672  -0.359  0.00  0.00    -0.012 A 
ATOM      4  C3A BZF d   1       4.110   2.400   0.114  0.00  0.00    -0.107 A 
ATOM      5  C4  BZF d   1       5.070   3.148  -0.506  0.00  0.00     0.055 A 
ATOM      6  C5  BZF d   1       6.000   3.788   0.251  0.00  0.00    -0.016 A 
ATOM      7  C6  BZF d   1       5.996   3.706   1.628  0.00  0.00     0.022 A 
ATOM      8  C7  BZF d   1       5.067   2.972   2.287  0.00  0.00     0.029 A 
ATOM      9  C7A BZF d   1       4.146   2.298   1.523  0.00  0.00     0.058 A 
ENDROOT
TORSDOF 0
ENDMDL
