MODEL 1
REMARK minimizedAffinity 22.49403
REMARK minimizedRMSD -1
REMARK  0 active torsions:
REMARK  status: ('A' for Active; 'I' for Inactive)
ROOT
ATOM      1  O1  BZF d   1       2.537   3.217  -4.484  0.00  0.00    -0.204 OA
ATOM      2  C2  BZF d   1       1.736   3.382  -3.371  0.00  0.00     0.174 A 
ATOM      3  C3  BZF d   1       2.431   3.941  -2.359  0.00  0.00    -0.012 A 
ATOM      4  C3A BZF d   1       3.725   4.222  -2.902  0.00  0.00    -0.107 A 
ATOM      5  C4  BZF d   1       4.855   4.792  -2.389  0.00  0.00     0.055 A 
ATOM      6  C5  BZF d   1       5.972   4.853  -3.159  0.00  0.00    -0.016 A 
ATOM      7  C6  BZF d   1       5.997   4.348  -4.443  0.00  0.00     0.022 A 
ATOM      8  C7  BZF d   1       4.900   3.778  -4.997  0.00  0.00     0.029 A 
ATOM      9  C7A BZF d   1       3.759   3.745  -4.233  0.00  0.00     0.058 A 
ENDROOT
TORSDOF 0
ENDMDL
