MODEL 1
REMARK minimizedAffinity 16.1963329
REMARK minimizedRMSD -1
REMARK  0 active torsions:
REMARK  status: ('A' for Active; 'I' for Inactive)
ROOT
ATOM      1  O1  BZF d   1       4.810   4.958  -2.098  0.00  0.00    -0.204 OA
ATOM      2  C2  BZF d   1       5.998   5.261  -2.735  0.00  0.00     0.174 A 
ATOM      3  C3  BZF d   1       5.994   4.797  -4.002  0.00  0.00    -0.012 A 
ATOM      4  C3A BZF d   1       4.688   4.245  -4.196  0.00  0.00    -0.107 A 
ATOM      5  C4  BZF d   1       4.070   3.647  -5.257  0.00  0.00     0.055 A 
ATOM      6  C5  BZF d   1       2.814   3.153  -5.097  0.00  0.00    -0.016 A 
ATOM      7  C6  BZF d   1       2.150   3.236  -3.890  0.00  0.00     0.022 A 
ATOM      8  C7  BZF d   1       2.720   3.825  -2.811  0.00  0.00     0.029 A 
ATOM      9  C7A BZF d   1       3.976   4.354  -2.979  0.00  0.00     0.058 A 
ENDROOT
TORSDOF 0
ENDMDL
