MODEL 1
REMARK minimizedAffinity 12.1660852
REMARK minimizedRMSD -1
REMARK  0 active torsions:
REMARK  status: ('A' for Active; 'I' for Inactive)
ROOT
ATOM      1  O1  BZF d   1       0.006  -4.128  -3.377  0.00  0.00    -0.204 OA
ATOM      2  C2  BZF d   1      -0.711  -3.603  -2.319  0.00  0.00     0.174 A 
ATOM      3  C3  BZF d   1      -2.028  -3.853  -2.464  0.00  0.00    -0.012 A 
ATOM      4  C3A BZF d   1      -2.132  -4.660  -3.641  0.00  0.00    -0.107 A 
ATOM      5  C4  BZF d   1      -3.183  -5.239  -4.293  0.00  0.00     0.055 A 
ATOM      6  C5  BZF d   1      -2.953  -5.902  -5.457  0.00  0.00    -0.016 A 
ATOM      7  C6  BZF d   1      -1.689  -6.000  -6.000  0.00  0.00     0.022 A 
ATOM      8  C7  BZF d   1      -0.615  -5.446  -5.387  0.00  0.00     0.029 A 
ATOM      9  C7A BZF d   1      -0.838  -4.804  -4.193  0.00  0.00     0.058 A 
ENDROOT
TORSDOF 0
ENDMDL
