MODEL 1
REMARK minimizedAffinity 11.1115103
REMARK minimizedRMSD -1
REMARK  0 active torsions:
REMARK  status: ('A' for Active; 'I' for Inactive)
ROOT
ATOM      1  O1  BZF d   1       4.376   5.851  -1.485  0.00  0.00    -0.204 OA
ATOM      2  C2  BZF d   1       5.677   5.699  -1.924  0.00  0.00     0.174 A 
ATOM      3  C3  BZF d   1       5.769   4.685  -2.808  0.00  0.00    -0.012 A 
ATOM      4  C3A BZF d   1       4.426   4.230  -3.000  0.00  0.00    -0.107 A 
ATOM      5  C4  BZF d   1       3.866   3.254  -3.774  0.00  0.00     0.055 A 
ATOM      6  C5  BZF d   1       2.532   3.016  -3.674  0.00  0.00    -0.016 A 
ATOM      7  C6  BZF d   1       1.730   3.730  -2.809  0.00  0.00     0.022 A 
ATOM      8  C7  BZF d   1       2.238   4.711  -2.025  0.00  0.00     0.029 A 
ATOM      9  C7A BZF d   1       3.580   4.977  -2.147  0.00  0.00     0.058 A 
ENDROOT
TORSDOF 0
ENDMDL
