MODEL 1
REMARK minimizedAffinity 3.93197632
REMARK minimizedRMSD -1
REMARK  0 active torsions:
REMARK  status: ('A' for Active; 'I' for Inactive)
ROOT
ATOM      1  O1  BZF d   1       5.524   3.490  -0.912  0.00  0.00    -0.204 OA
ATOM      2  C2  BZF d   1       5.999   4.700  -1.381  0.00  0.00     0.174 A 
ATOM      3  C3  BZF d   1       5.649   4.884  -2.670  0.00  0.00    -0.012 A 
ATOM      4  C3A BZF d   1       4.831   3.758  -3.003  0.00  0.00    -0.107 A 
ATOM      5  C4  BZF d   1       4.171   3.380  -4.136  0.00  0.00     0.055 A 
ATOM      6  C5  BZF d   1       3.521   2.186  -4.155  0.00  0.00    -0.016 A 
ATOM      7  C6  BZF d   1       3.516   1.345  -3.062  0.00  0.00     0.022 A 
ATOM      8  C7  BZF d   1       4.153   1.680  -1.913  0.00  0.00     0.029 A 
ATOM      9  C7A BZF d   1       4.782   2.900  -1.880  0.00  0.00     0.058 A 
ENDROOT
TORSDOF 0
ENDMDL
