MODEL 1
REMARK minimizedAffinity -3.74460888
REMARK minimizedRMSD -1
REMARK  1 active torsions:
REMARK  status: ('A' for Active; 'I' for Inactive)
REMARK    1  A    between atoms: N_2  and  C1_3 
ROOT
ATOM      1  C1  UNL d   1      -0.311   0.690   0.322  0.00  0.00     0.143 A 
ATOM      2  C2  UNL d   1      -0.369   1.147   1.643  0.00  0.00    -0.057 A 
ATOM      3  C3  UNL d   1       0.528   2.112   2.117  0.00  0.00     0.033 A 
ATOM      4  C4  UNL d   1       1.521   2.616   1.285  0.00  0.00    -0.042 A 
ATOM      5  C5  UNL d   1       1.614   2.157  -0.025  0.00  0.00     0.033 A 
ATOM      6  C6  UNL d   1       0.711   1.199  -0.495  0.00  0.00    -0.057 A 
ENDROOT
BRANCH   1   7
ATOM      7  N   UNL d   1      -1.111  -0.339  -0.181  0.00  0.00    -0.732 N 
ATOM      8  C   UNL d   1      -0.681  -1.116  -1.324  0.00  0.00     0.284 C 
ATOM      9  H3  UNL d   1      -1.545  -0.889   0.556  0.00  0.00     0.395 HD
ENDBRANCH   1   7
TORSDOF 1
ENDMDL
