MODEL 1
REMARK minimizedAffinity -3.44285297
REMARK minimizedRMSD -1
REMARK  1 active torsions:
REMARK  status: ('A' for Active; 'I' for Inactive)
REMARK    1  A    between atoms: N_2  and  C1_3 
ROOT
ATOM      1  C1  UNL d   1       0.121  -0.053   0.328  0.00  0.00     0.143 A 
ATOM      2  C2  UNL d   1      -0.697   0.312   1.402  0.00  0.00    -0.057 A 
ATOM      3  C3  UNL d   1      -0.490   1.508   2.100  0.00  0.00     0.033 A 
ATOM      4  C4  UNL d   1       0.561   2.349   1.753  0.00  0.00    -0.042 A 
ATOM      5  C5  UNL d   1       1.403   1.995   0.704  0.00  0.00     0.033 A 
ATOM      6  C6  UNL d   1       1.186   0.803   0.006  0.00  0.00    -0.057 A 
ENDROOT
BRANCH   1   7
ATOM      7  N   UNL d   1       0.026  -1.275  -0.343  0.00  0.00    -0.732 N 
ATOM      8  C   UNL d   1      -1.100  -1.557  -1.207  0.00  0.00     0.284 C 
ATOM      9  H3  UNL d   1       0.922  -1.585  -0.712  0.00  0.00     0.395 HD
ENDBRANCH   1   7
TORSDOF 1
ENDMDL
