MODEL 1
REMARK minimizedAffinity -3.68098116
REMARK minimizedRMSD -1
REMARK  1 active torsions:
REMARK  status: ('A' for Active; 'I' for Inactive)
REMARK    1  A    between atoms: N_2  and  C1_3 
ROOT
ATOM      1  C1  UNL d   1       0.519   0.261  -0.154  0.00  0.00     0.143 A 
ATOM      2  C2  UNL d   1       1.253   1.359  -0.617  0.00  0.00    -0.057 A 
ATOM      3  C3  UNL d   1       1.275   2.567   0.090  0.00  0.00     0.033 A 
ATOM      4  C4  UNL d   1       0.538   2.708   1.262  0.00  0.00    -0.042 A 
ATOM      5  C5  UNL d   1      -0.218   1.638   1.727  0.00  0.00     0.033 A 
ATOM      6  C6  UNL d   1      -0.231   0.432   1.020  0.00  0.00    -0.057 A 
ENDROOT
BRANCH   1   7
ATOM      7  N   UNL d   1       0.378  -0.934  -0.863  0.00  0.00    -0.732 N 
ATOM      8  C   UNL d   1      -0.848  -1.229  -1.574  0.00  0.00     0.284 C 
ATOM      9  H3  UNL d   1       1.223  -1.188  -1.369  0.00  0.00     0.395 HD
ENDBRANCH   1   7
TORSDOF 1
ENDMDL
