MODEL 1
REMARK minimizedAffinity -0.716051757
REMARK minimizedRMSD -1
REMARK  1 active torsions:
REMARK  status: ('A' for Active; 'I' for Inactive)
REMARK    1  A    between atoms: N_2  and  C1_3 
ROOT
ATOM      1  C1  UNL d   1       0.245   1.694   0.783  0.00  0.00     0.143 A 
ATOM      2  C2  UNL d   1       0.875   0.976  -0.240  0.00  0.00    -0.057 A 
ATOM      3  C3  UNL d   1       0.599  -0.381  -0.451  0.00  0.00     0.033 A 
ATOM      4  C4  UNL d   1      -0.294  -1.052   0.378  0.00  0.00    -0.042 A 
ATOM      5  C5  UNL d   1      -0.913  -0.365   1.416  0.00  0.00     0.033 A 
ATOM      6  C6  UNL d   1      -0.638   0.991   1.618  0.00  0.00    -0.057 A 
ENDROOT
BRANCH   1   7
ATOM      7  N   UNL d   1       0.551   3.018   1.105  0.00  0.00    -0.732 N 
ATOM      8  C   UNL d   1       1.882   3.382   1.541  0.00  0.00     0.284 C 
ATOM      9  H3  UNL d   1       0.128   3.682   0.461  0.00  0.00     0.395 HD
ENDBRANCH   1   7
TORSDOF 1
ENDMDL
