MODEL 1
REMARK minimizedAffinity -4.68251038
REMARK minimizedRMSD -1
REMARK  1 active torsions:
REMARK  status: ('A' for Active; 'I' for Inactive)
REMARK    1  A    between atoms: N_2  and  C1_3 
ROOT
ATOM      1  C1  UNL d   1       0.119   0.031   0.084  0.00  0.00     0.143 A 
ATOM      2  C2  UNL d   1      -0.516   0.802   1.064  0.00  0.00    -0.057 A 
ATOM      3  C3  UNL d   1       0.132   1.888   1.665  0.00  0.00     0.033 A 
ATOM      4  C4  UNL d   1       1.440   2.206   1.316  0.00  0.00    -0.042 A 
ATOM      5  C5  UNL d   1       2.099   1.439   0.362  0.00  0.00     0.033 A 
ATOM      6  C6  UNL d   1       1.445   0.359  -0.240  0.00  0.00    -0.057 A 
ENDROOT
BRANCH   1   7
ATOM      7  N   UNL d   1      -0.436  -1.121  -0.480  0.00  0.00    -0.732 N 
ATOM      8  C   UNL d   1      -1.430  -1.024  -1.527  0.00  0.00     0.284 C 
ATOM      9  H3  UNL d   1       0.256  -1.851  -0.630  0.00  0.00     0.395 HD
ENDBRANCH   1   7
TORSDOF 1
ENDMDL
