MODEL 1
REMARK minimizedAffinity -3.80979681
REMARK minimizedRMSD -1
REMARK  1 active torsions:
REMARK  status: ('A' for Active; 'I' for Inactive)
REMARK    1  A    between atoms: N_2  and  C1_3 
ROOT
ATOM      1  C1  UNL d   1      -0.061  -0.060   0.200  0.00  0.00     0.143 A 
ATOM      2  C2  UNL d   1      -0.075   0.299   1.552  0.00  0.00    -0.057 A 
ATOM      3  C3  UNL d   1       0.329   1.573   1.969  0.00  0.00     0.033 A 
ATOM      4  C4  UNL d   1       0.782   2.504   1.041  0.00  0.00    -0.042 A 
ATOM      5  C5  UNL d   1       0.828   2.161  -0.305  0.00  0.00     0.033 A 
ATOM      6  C6  UNL d   1       0.418   0.890  -0.717  0.00  0.00    -0.057 A 
ENDROOT
BRANCH   1   7
ATOM      7  N   UNL d   1      -0.356  -1.343  -0.268  0.00  0.00    -0.732 N 
ATOM      8  C   UNL d   1      -1.238  -1.530  -1.400  0.00  0.00     0.284 C 
ATOM      9  H3  UNL d   1       0.459  -1.952  -0.270  0.00  0.00     0.395 HD
ENDBRANCH   1   7
TORSDOF 1
ENDMDL
