MODEL 1
REMARK minimizedAffinity -0.430241048
REMARK minimizedRMSD -1
REMARK  1 active torsions:
REMARK  status: ('A' for Active; 'I' for Inactive)
REMARK    1  A    between atoms: N_2  and  C1_3 
ROOT
ATOM      1  C1  UNL d   1       0.028   0.078   0.438  0.00  0.00     0.143 A 
ATOM      2  C2  UNL d   1      -1.333   0.184   0.741  0.00  0.00    -0.057 A 
ATOM      3  C3  UNL d   1      -1.781   0.983   1.801  0.00  0.00     0.033 A 
ATOM      4  C4  UNL d   1      -0.870   1.668   2.597  0.00  0.00    -0.042 A 
ATOM      5  C5  UNL d   1       0.490   1.557   2.330  0.00  0.00     0.033 A 
ATOM      6  C6  UNL d   1       0.931   0.764   1.266  0.00  0.00    -0.057 A 
ENDROOT
BRANCH   1   7
ATOM      7  N   UNL d   1       0.543  -0.777  -0.539  0.00  0.00    -0.732 N 
ATOM      8  C   UNL d   1       1.969  -0.851  -0.777  0.00  0.00     0.284 C 
ATOM      9  H3  UNL d   1       0.072  -1.678  -0.555  0.00  0.00     0.395 HD
ENDBRANCH   1   7
TORSDOF 1
ENDMDL
