MODEL 1
REMARK minimizedAffinity -2.76794028
REMARK minimizedRMSD -1
REMARK  1 active torsions:
REMARK  status: ('A' for Active; 'I' for Inactive)
REMARK    1  A    between atoms: N_2  and  C1_3 
ROOT
ATOM      1  C1  UNL d   1      -0.153  -1.202  -0.211  0.00  0.00     0.143 A 
ATOM      2  C2  UNL d   1       1.113  -1.197  -0.807  0.00  0.00    -0.057 A 
ATOM      3  C3  UNL d   1       2.016  -0.151  -0.585  0.00  0.00     0.033 A 
ATOM      4  C4  UNL d   1       1.657   0.927   0.217  0.00  0.00    -0.042 A 
ATOM      5  C5  UNL d   1       0.395   0.956   0.800  0.00  0.00     0.033 A 
ATOM      6  C6  UNL d   1      -0.500  -0.095   0.579  0.00  0.00    -0.057 A 
ENDROOT
BRANCH   1   7
ATOM      7  N   UNL d   1      -1.132  -2.164  -0.471  0.00  0.00    -0.732 N 
ATOM      8  C   UNL d   1      -1.950  -2.079  -1.662  0.00  0.00     0.284 C 
ATOM      9  H3  UNL d   1      -0.820  -3.106  -0.247  0.00  0.00     0.395 HD
ENDBRANCH   1   7
TORSDOF 1
ENDMDL
