MODEL 1
REMARK minimizedAffinity -3.62048936
REMARK minimizedRMSD -1
REMARK  1 active torsions:
REMARK  status: ('A' for Active; 'I' for Inactive)
REMARK    1  A    between atoms: N_2  and  C1_3 
ROOT
ATOM      1  C1  UNL d   1      -0.110  -0.765  -1.011  0.00  0.00     0.143 A 
ATOM      2  C2  UNL d   1       0.874   0.225  -1.105  0.00  0.00    -0.057 A 
ATOM      3  C3  UNL d   1       1.046   1.177  -0.093  0.00  0.00     0.033 A 
ATOM      4  C4  UNL d   1       0.213   1.175   1.021  0.00  0.00    -0.042 A 
ATOM      5  C5  UNL d   1      -0.788   0.216   1.124  0.00  0.00     0.033 A 
ATOM      6  C6  UNL d   1      -0.950  -0.737   0.114  0.00  0.00    -0.057 A 
ENDROOT
BRANCH   1   7
ATOM      7  N   UNL d   1      -0.395  -1.679  -2.028  0.00  0.00    -0.732 N 
ATOM      8  C   UNL d   1      -1.759  -1.909  -2.452  0.00  0.00     0.284 C 
ATOM      9  H3  UNL d   1       0.275  -1.630  -2.792  0.00  0.00     0.395 HD
ENDBRANCH   1   7
TORSDOF 1
ENDMDL
