MODEL 1
REMARK minimizedAffinity -1.7395457
REMARK minimizedRMSD -1
REMARK  1 active torsions:
REMARK  status: ('A' for Active; 'I' for Inactive)
REMARK    1  A    between atoms: N_2  and  C1_3 
ROOT
ATOM      1  C1  UNL d   1      -0.312  -0.533  -0.160  0.00  0.00     0.143 A 
ATOM      2  C2  UNL d   1      -1.037  -0.302   1.014  0.00  0.00    -0.057 A 
ATOM      3  C3  UNL d   1      -0.771   0.807   1.826  0.00  0.00     0.033 A 
ATOM      4  C4  UNL d   1       0.249   1.692   1.491  0.00  0.00    -0.042 A 
ATOM      5  C5  UNL d   1       0.999   1.469   0.342  0.00  0.00     0.033 A 
ATOM      6  C6  UNL d   1       0.724   0.363  -0.468  0.00  0.00    -0.057 A 
ENDROOT
BRANCH   1   7
ATOM      7  N   UNL d   1      -0.463  -1.671  -0.957  0.00  0.00    -0.732 N 
ATOM      8  C   UNL d   1      -1.673  -1.878  -1.723  0.00  0.00     0.284 C 
ATOM      9  H3  UNL d   1       0.391  -1.913  -1.454  0.00  0.00     0.395 HD
ENDBRANCH   1   7
TORSDOF 1
ENDMDL
