MODEL 1
REMARK minimizedAffinity -4.32746935
REMARK minimizedRMSD -1
REMARK  1 active torsions:
REMARK  status: ('A' for Active; 'I' for Inactive)
REMARK    1  A    between atoms: N_2  and  C1_3 
ROOT
ATOM      1  C1  UNL d   1      -0.230   0.087   0.041  0.00  0.00     0.143 A 
ATOM      2  C2  UNL d   1      -0.478   0.294   1.402  0.00  0.00    -0.057 A 
ATOM      3  C3  UNL d   1       0.021   1.420   2.068  0.00  0.00     0.033 A 
ATOM      4  C4  UNL d   1       0.805   2.347   1.388  0.00  0.00    -0.042 A 
ATOM      5  C5  UNL d   1       1.085   2.148   0.041  0.00  0.00     0.033 A 
ATOM      6  C6  UNL d   1       0.578   1.025  -0.620  0.00  0.00    -0.057 A 
ENDROOT
BRANCH   1   7
ATOM      7  N   UNL d   1      -0.616  -1.062  -0.654  0.00  0.00    -0.732 N 
ATOM      8  C   UNL d   1      -1.294  -0.961  -1.928  0.00  0.00     0.284 C 
ATOM      9  H3  UNL d   1       0.090  -1.794  -0.616  0.00  0.00     0.395 HD
ENDBRANCH   1   7
TORSDOF 1
ENDMDL
