MODEL 1
REMARK minimizedAffinity -2.33856535
REMARK minimizedRMSD -1
REMARK  1 active torsions:
REMARK  status: ('A' for Active; 'I' for Inactive)
REMARK    1  A    between atoms: N_2  and  C1_3 
ROOT
ATOM      1  C1  UNL d   1      -1.161  -1.107  -0.748  0.00  0.00     0.143 A 
ATOM      2  C2  UNL d   1      -2.496  -1.442  -0.995  0.00  0.00    -0.057 A 
ATOM      3  C3  UNL d   1      -2.995  -1.526  -2.300  0.00  0.00     0.033 A 
ATOM      4  C4  UNL d   1      -2.171  -1.247  -3.385  0.00  0.00    -0.042 A 
ATOM      5  C5  UNL d   1      -0.846  -0.888  -3.163  0.00  0.00     0.033 A 
ATOM      6  C6  UNL d   1      -0.352  -0.812  -1.857  0.00  0.00    -0.057 A 
ENDROOT
BRANCH   1   7
ATOM      7  N   UNL d   1      -0.631  -0.911   0.529  0.00  0.00    -0.732 N 
ATOM      8  C   UNL d   1      -0.896   0.311   1.258  0.00  0.00     0.284 C 
ATOM      9  H3  UNL d   1      -0.671  -1.752   1.100  0.00  0.00     0.395 HD
ENDBRANCH   1   7
TORSDOF 1
ENDMDL
