MODEL 1
REMARK minimizedAffinity -4.36465883
REMARK minimizedRMSD -1
REMARK  1 active torsions:
REMARK  status: ('A' for Active; 'I' for Inactive)
REMARK    1  A    between atoms: N_2  and  C1_3 
ROOT
ATOM      1  C1  UNL d   1       0.259  -0.070   0.097  0.00  0.00     0.143 A 
ATOM      2  C2  UNL d   1       1.246   0.846  -0.284  0.00  0.00    -0.057 A 
ATOM      3  C3  UNL d   1       1.423   2.051   0.407  0.00  0.00     0.033 A 
ATOM      4  C4  UNL d   1       0.594   2.375   1.476  0.00  0.00    -0.042 A 
ATOM      5  C5  UNL d   1      -0.409   1.491   1.857  0.00  0.00     0.033 A 
ATOM      6  C6  UNL d   1      -0.577   0.286   1.167  0.00  0.00    -0.057 A 
ENDROOT
BRANCH   1   7
ATOM      7  N   UNL d   1      -0.031  -1.239  -0.610  0.00  0.00    -0.732 N 
ATOM      8  C   UNL d   1      -1.232  -1.337  -1.411  0.00  0.00     0.284 C 
ATOM      9  H3  UNL d   1       0.795  -1.644  -1.047  0.00  0.00     0.395 HD
ENDBRANCH   1   7
TORSDOF 1
ENDMDL
