MODEL 1
REMARK minimizedAffinity -4.42334986
REMARK minimizedRMSD -1
REMARK  1 active torsions:
REMARK  status: ('A' for Active; 'I' for Inactive)
REMARK    1  A    between atoms: N_2  and  C1_3 
ROOT
ATOM      1  C1  UNL d   1      -0.278   0.361   0.253  0.00  0.00     0.143 A 
ATOM      2  C2  UNL d   1      -0.397   0.835   1.564  0.00  0.00    -0.057 A 
ATOM      3  C3  UNL d   1       0.411   1.877   2.035  0.00  0.00     0.033 A 
ATOM      4  C4  UNL d   1       1.376   2.445   1.210  0.00  0.00    -0.042 A 
ATOM      5  C5  UNL d   1       1.529   1.973  -0.089  0.00  0.00     0.033 A 
ATOM      6  C6  UNL d   1       0.714   0.936  -0.556  0.00  0.00    -0.057 A 
ENDROOT
BRANCH   1   7
ATOM      7  N   UNL d   1      -0.984  -0.738  -0.243  0.00  0.00    -0.732 N 
ATOM      8  C   UNL d   1      -1.025  -1.006  -1.665  0.00  0.00     0.284 C 
ATOM      9  H3  UNL d   1      -0.866  -1.568   0.334  0.00  0.00     0.395 HD
ENDBRANCH   1   7
TORSDOF 1
ENDMDL
