MODEL 1
REMARK minimizedAffinity -3.28832936
REMARK minimizedRMSD -1
REMARK  1 active torsions:
REMARK  status: ('A' for Active; 'I' for Inactive)
REMARK    1  A    between atoms: N_2  and  C1_3 
ROOT
ATOM      1  C1  UNL d   1       0.039  -0.993  -1.436  0.00  0.00     0.143 A 
ATOM      2  C2  UNL d   1      -1.011  -1.623  -0.760  0.00  0.00    -0.057 A 
ATOM      3  C3  UNL d   1      -2.199  -1.961  -1.419  0.00  0.00     0.033 A 
ATOM      4  C4  UNL d   1      -2.370  -1.646  -2.763  0.00  0.00    -0.042 A 
ATOM      5  C5  UNL d   1      -1.349  -0.997  -3.448  0.00  0.00     0.033 A 
ATOM      6  C6  UNL d   1      -0.162  -0.668  -2.787  0.00  0.00    -0.057 A 
ENDROOT
BRANCH   1   7
ATOM      7  N   UNL d   1       1.206  -0.543  -0.813  0.00  0.00    -0.732 N 
ATOM      8  C   UNL d   1       1.356   0.848  -0.443  0.00  0.00     0.284 C 
ATOM      9  H3  UNL d   1       1.551  -1.198  -0.115  0.00  0.00     0.395 HD
ENDBRANCH   1   7
TORSDOF 1
ENDMDL
