MODEL 1
REMARK minimizedAffinity -3.19490218
REMARK minimizedRMSD -1
REMARK  1 active torsions:
REMARK  status: ('A' for Active; 'I' for Inactive)
REMARK    1  A    between atoms: N_2  and  C1_3 
ROOT
ATOM      1  C1  UNL d   1       1.068   0.266  -0.067  0.00  0.00     0.143 A 
ATOM      2  C2  UNL d   1       0.078  -0.023   0.879  0.00  0.00    -0.057 A 
ATOM      3  C3  UNL d   1      -0.351   0.941   1.798  0.00  0.00     0.033 A 
ATOM      4  C4  UNL d   1       0.224   2.208   1.808  0.00  0.00    -0.042 A 
ATOM      5  C5  UNL d   1       1.227   2.510   0.893  0.00  0.00     0.033 A 
ATOM      6  C6  UNL d   1       1.647   1.545  -0.027  0.00  0.00    -0.057 A 
ENDROOT
BRANCH   1   7
ATOM      7  N   UNL d   1       1.608  -0.679  -0.943  0.00  0.00    -0.732 N 
ATOM      8  C   UNL d   1       3.041  -0.821  -1.082  0.00  0.00     0.284 C 
ATOM      9  H3  UNL d   1       1.103  -1.562  -0.920  0.00  0.00     0.395 HD
ENDBRANCH   1   7
TORSDOF 1
ENDMDL
