MODEL 1
REMARK minimizedAffinity -4.02934027
REMARK minimizedRMSD -1
REMARK  2 active torsions:
REMARK  status: ('A' for Active; 'I' for Inactive)
REMARK    1  A    between atoms: C1_2  and  C2_3 
REMARK    2  A    between atoms: C2_3  and  C3_4 
ROOT
ATOM      1  C3  UNL d   1      -1.387   0.630   0.270  0.00  0.00    -0.075 A 
ATOM      2  C4  UNL d   1      -1.640   1.065   1.580  0.00  0.00     0.002 A 
ATOM      3  C5  UNL d   1      -2.939   1.370   1.987  0.00  0.00     0.002 A 
ATOM      4  C6  UNL d   1      -3.998   1.255   1.089  0.00  0.00    -0.004 A 
ATOM      5  C7  UNL d   1      -3.757   0.841  -0.219  0.00  0.00     0.002 A 
ATOM      6  C8  UNL d   1      -2.459   0.530  -0.627  0.00  0.00     0.002 A 
ENDROOT
BRANCH   1   7
ATOM      7  C2  UNL d   1       0.012   0.270  -0.168  0.00  0.00     0.056 C 
BRANCH   7   8
ATOM      8  C1  UNL d   1       0.244  -1.235  -0.339  0.00  0.00     0.007 C 
ATOM      9  C   UNL d   1       1.717  -1.622  -0.316  0.00  0.00     0.009 C 
ENDBRANCH   7   8
ENDBRANCH   1   7
TORSDOF 2
ENDMDL
