MODEL 1
REMARK minimizedAffinity -3.480896
REMARK minimizedRMSD -1
REMARK  2 active torsions:
REMARK  status: ('A' for Active; 'I' for Inactive)
REMARK    1  A    between atoms: C1_2  and  C2_3 
REMARK    2  A    between atoms: C2_3  and  C3_4 
ROOT
ATOM      1  C3  UNL d   1      -0.333  -0.143   0.406  0.00  0.00    -0.075 A 
ATOM      2  C4  UNL d   1       0.273  -1.382   0.151  0.00  0.00     0.002 A 
ATOM      3  C5  UNL d   1       1.661  -1.515   0.203  0.00  0.00     0.002 A 
ATOM      4  C6  UNL d   1       2.459  -0.411   0.498  0.00  0.00    -0.004 A 
ATOM      5  C7  UNL d   1       1.868   0.827   0.737  0.00  0.00     0.002 A 
ATOM      6  C8  UNL d   1       0.479   0.962   0.690  0.00  0.00     0.002 A 
ENDROOT
BRANCH   1   7
ATOM      7  C2  UNL d   1      -1.836   0.000   0.381  0.00  0.00     0.056 C 
BRANCH   7   8
ATOM      8  C1  UNL d   1      -2.434   0.528   1.689  0.00  0.00     0.007 C 
ATOM      9  C   UNL d   1      -3.947   0.693   1.634  0.00  0.00     0.009 C 
ENDBRANCH   7   8
ENDBRANCH   1   7
TORSDOF 2
ENDMDL
