MODEL 1
REMARK minimizedAffinity -4.86582851
REMARK minimizedRMSD -1
REMARK  2 active torsions:
REMARK  status: ('A' for Active; 'I' for Inactive)
REMARK    1  A    between atoms: C1_2  and  C2_3 
REMARK    2  A    between atoms: C2_3  and  C3_4 
ROOT
ATOM      1  C3  UNL d   1      -0.423   0.630   0.541  0.00  0.00    -0.075 A 
ATOM      2  C4  UNL d   1      -0.692  -0.139  -0.601  0.00  0.00     0.002 A 
ATOM      3  C5  UNL d   1       0.164  -1.175  -0.976  0.00  0.00     0.002 A 
ATOM      4  C6  UNL d   1       1.304  -1.448  -0.222  0.00  0.00    -0.004 A 
ATOM      5  C7  UNL d   1       1.590  -0.680   0.904  0.00  0.00     0.002 A 
ATOM      6  C8  UNL d   1       0.733   0.354   1.284  0.00  0.00     0.002 A 
ENDROOT
BRANCH   1   7
ATOM      7  C2  UNL d   1      -1.361   1.733   0.968  0.00  0.00     0.056 C 
BRANCH   7   8
ATOM      8  C1  UNL d   1      -2.534   1.254   1.830  0.00  0.00     0.007 C 
ATOM      9  C   UNL d   1      -3.811   1.026   1.032  0.00  0.00     0.009 C 
ENDBRANCH   7   8
ENDBRANCH   1   7
TORSDOF 2
ENDMDL
