MODEL 1
REMARK minimizedAffinity -6.00351524
REMARK minimizedRMSD -1
REMARK  2 active torsions:
REMARK  status: ('A' for Active; 'I' for Inactive)
REMARK    1  A    between atoms: C1_2  and  C2_3 
REMARK    2  A    between atoms: C2_3  and  C3_4 
ROOT
ATOM      1  C3  UNL d   1       0.140  -0.154   0.001  0.00  0.00    -0.075 A 
ATOM      2  C4  UNL d   1       0.528  -1.486  -0.207  0.00  0.00     0.002 A 
ATOM      3  C5  UNL d   1       1.831  -1.896   0.074  0.00  0.00     0.002 A 
ATOM      4  C6  UNL d   1       2.764  -0.981   0.555  0.00  0.00    -0.004 A 
ATOM      5  C7  UNL d   1       2.395   0.348   0.750  0.00  0.00     0.002 A 
ATOM      6  C8  UNL d   1       1.090   0.760   0.475  0.00  0.00     0.002 A 
ENDROOT
BRANCH   1   7
ATOM      7  C2  UNL d   1      -1.277   0.289  -0.272  0.00  0.00     0.056 C 
BRANCH   7   8
ATOM      8  C1  UNL d   1      -2.054   0.704   0.981  0.00  0.00     0.007 C 
ATOM      9  C   UNL d   1      -3.564   0.686   0.786  0.00  0.00     0.009 C 
ENDBRANCH   7   8
ENDBRANCH   1   7
TORSDOF 2
ENDMDL
