MODEL 1
REMARK minimizedAffinity -5.04869175
REMARK minimizedRMSD -1
REMARK  2 active torsions:
REMARK  status: ('A' for Active; 'I' for Inactive)
REMARK    1  A    between atoms: C1_2  and  C2_3 
REMARK    2  A    between atoms: C2_3  and  C3_4 
ROOT
ATOM      1  C3  UNL d   1      -0.183   0.227  -0.224  0.00  0.00    -0.075 A 
ATOM      2  C4  UNL d   1      -0.234  -1.055  -0.791  0.00  0.00     0.002 A 
ATOM      3  C5  UNL d   1       0.823  -1.949  -0.616  0.00  0.00     0.002 A 
ATOM      4  C6  UNL d   1       1.946  -1.571   0.117  0.00  0.00    -0.004 A 
ATOM      5  C7  UNL d   1       2.014  -0.294   0.670  0.00  0.00     0.002 A 
ATOM      6  C8  UNL d   1       0.956   0.601   0.500  0.00  0.00     0.002 A 
ENDROOT
BRANCH   1   7
ATOM      7  C2  UNL d   1      -1.336   1.188  -0.385  0.00  0.00     0.056 C 
BRANCH   7   8
ATOM      8  C1  UNL d   1      -2.689   0.619   0.055  0.00  0.00     0.007 C 
ATOM      9  C   UNL d   1      -3.475   1.565   0.953  0.00  0.00     0.009 C 
ENDBRANCH   7   8
ENDBRANCH   1   7
TORSDOF 2
ENDMDL
