MODEL 1
REMARK minimizedAffinity -4.24925137
REMARK minimizedRMSD -1
REMARK  2 active torsions:
REMARK  status: ('A' for Active; 'I' for Inactive)
REMARK    1  A    between atoms: C1_2  and  C2_3 
REMARK    2  A    between atoms: C2_3  and  C3_4 
ROOT
ATOM      1  C3  UNL d   1       0.554   0.491  -0.557  0.00  0.00    -0.075 A 
ATOM      2  C4  UNL d   1       1.906   0.855  -0.486  0.00  0.00     0.002 A 
ATOM      3  C5  UNL d   1       2.898  -0.120  -0.386  0.00  0.00     0.002 A 
ATOM      4  C6  UNL d   1       2.552  -1.469  -0.345  0.00  0.00    -0.004 A 
ATOM      5  C7  UNL d   1       1.211  -1.842  -0.399  0.00  0.00     0.002 A 
ATOM      6  C8  UNL d   1       0.216  -0.868  -0.503  0.00  0.00     0.002 A 
ENDROOT
BRANCH   1   7
ATOM      7  C2  UNL d   1      -0.523   1.540  -0.695  0.00  0.00     0.056 C 
BRANCH   7   8
ATOM      8  C1  UNL d   1      -1.949   0.980  -0.654  0.00  0.00     0.007 C 
ATOM      9  C   UNL d   1      -2.758   1.485   0.533  0.00  0.00     0.009 C 
ENDBRANCH   7   8
ENDBRANCH   1   7
TORSDOF 2
ENDMDL
