MODEL 1
REMARK minimizedAffinity 4.48357439
REMARK minimizedRMSD -1
REMARK  2 active torsions:
REMARK  status: ('A' for Active; 'I' for Inactive)
REMARK    1  A    between atoms: C1_2  and  C2_3 
REMARK    2  A    between atoms: C2_3  and  C3_4 
ROOT
ATOM      1  C3  UNL d   1      -1.694  -1.226   0.503  0.00  0.00    -0.075 A 
ATOM      2  C4  UNL d   1      -1.245  -0.485  -0.599  0.00  0.00     0.002 A 
ATOM      3  C5  UNL d   1      -0.045  -0.812  -1.231  0.00  0.00     0.002 A 
ATOM      4  C6  UNL d   1       0.724  -1.876  -0.765  0.00  0.00    -0.004 A 
ATOM      5  C7  UNL d   1       0.295  -2.609   0.340  0.00  0.00     0.002 A 
ATOM      6  C8  UNL d   1      -0.907  -2.286   0.972  0.00  0.00     0.002 A 
ENDROOT
BRANCH   1   7
ATOM      7  C2  UNL d   1      -3.006  -0.895   1.174  0.00  0.00     0.056 C 
BRANCH   7   8
ATOM      8  C1  UNL d   1      -3.943  -0.034   0.320  0.00  0.00     0.007 C 
ATOM      9  C   UNL d   1      -4.529   1.149   1.079  0.00  0.00     0.009 C 
ENDBRANCH   7   8
ENDBRANCH   1   7
TORSDOF 2
ENDMDL
