MODEL 1
REMARK minimizedAffinity -2.34542584
REMARK minimizedRMSD -1
REMARK  0 active torsions:
REMARK  status: ('A' for Active; 'I' for Inactive)
ROOT
ATOM      1  C   UNL d   1       0.119  -0.860  -0.459  0.00  0.00     0.020 A 
ATOM      2  C1  UNL d   1       1.499  -1.054  -0.438  0.00  0.00     0.020 A 
ATOM      3  C2  UNL d   1       2.022  -2.321  -0.169  0.00  0.00     0.034 A 
ATOM      4  C3  UNL d   1       1.164  -3.398   0.081  0.00  0.00     0.017 A 
ATOM      5  C4  UNL d   1      -0.222  -3.202   0.060  0.00  0.00     0.017 A 
ATOM      6  C5  UNL d   1      -0.740  -1.931  -0.210  0.00  0.00     0.034 A 
ATOM      7 Cl   UNL d   1      -1.344  -4.482   0.358  0.00  0.00    -0.070 Cl
ATOM      8 Cl1  UNL d   1       1.879  -4.936   0.406  0.00  0.00    -0.070 Cl
ENDROOT
TORSDOF 0
ENDMDL
