MODEL 1
REMARK minimizedAffinity -0.813800275
REMARK minimizedRMSD -1
REMARK  0 active torsions:
REMARK  status: ('A' for Active; 'I' for Inactive)
ROOT
ATOM      1  C   UNL d   1       1.939  -3.910   0.362  0.00  0.00     0.020 A 
ATOM      2  C1  UNL d   1       0.733  -4.401   0.859  0.00  0.00     0.020 A 
ATOM      3  C2  UNL d   1      -0.440  -3.659   0.706  0.00  0.00     0.034 A 
ATOM      4  C3  UNL d   1      -0.409  -2.421   0.053  0.00  0.00     0.017 A 
ATOM      5  C4  UNL d   1       0.802  -1.929  -0.445  0.00  0.00     0.017 A 
ATOM      6  C5  UNL d   1       1.974  -2.676  -0.289  0.00  0.00     0.034 A 
ATOM      7 Cl   UNL d   1       0.920  -0.410  -1.261  0.00  0.00    -0.070 Cl
ATOM      8 Cl1  UNL d   1      -1.897  -1.557  -0.101  0.00  0.00    -0.070 Cl
ENDROOT
TORSDOF 0
ENDMDL
