MODEL 1
REMARK minimizedAffinity -1.74733317
REMARK minimizedRMSD -1
REMARK  0 active torsions:
REMARK  status: ('A' for Active; 'I' for Inactive)
ROOT
ATOM      1  C   UNL d   1      -0.722  -3.693   0.054  0.00  0.00     0.020 A 
ATOM      2  C1  UNL d   1       0.282  -4.517   0.561  0.00  0.00     0.020 A 
ATOM      3  C2  UNL d   1       1.618  -4.119   0.482  0.00  0.00     0.034 A 
ATOM      4  C3  UNL d   1       1.954  -2.893  -0.105  0.00  0.00     0.017 A 
ATOM      5  C4  UNL d   1       0.946  -2.067  -0.614  0.00  0.00     0.017 A 
ATOM      6  C5  UNL d   1      -0.391  -2.471  -0.532  0.00  0.00     0.034 A 
ATOM      7 Cl   UNL d   1       1.282  -0.541  -1.352  0.00  0.00    -0.070 Cl
ATOM      8 Cl1  UNL d   1       3.627  -2.464  -0.168  0.00  0.00    -0.070 Cl
ENDROOT
TORSDOF 0
ENDMDL
