MODEL 1
REMARK minimizedAffinity -5.06805801
REMARK minimizedRMSD -1
REMARK  0 active torsions:
REMARK  status: ('A' for Active; 'I' for Inactive)
ROOT
ATOM      1  C   UNL d   1       2.990  -1.632  -1.432  0.00  0.00     0.020 A 
ATOM      2  C1  UNL d   1       2.109  -0.577  -1.664  0.00  0.00     0.020 A 
ATOM      3  C2  UNL d   1       0.810  -0.627  -1.154  0.00  0.00     0.034 A 
ATOM      4  C3  UNL d   1       0.389  -1.734  -0.409  0.00  0.00     0.017 A 
ATOM      5  C4  UNL d   1       1.275  -2.793  -0.176  0.00  0.00     0.017 A 
ATOM      6  C5  UNL d   1       2.574  -2.738  -0.690  0.00  0.00     0.034 A 
ATOM      7 Cl   UNL d   1       0.827  -4.193   0.734  0.00  0.00    -0.070 Cl
ATOM      8 Cl1  UNL d   1      -1.231  -1.729   0.193  0.00  0.00    -0.070 Cl
ENDROOT
TORSDOF 0
ENDMDL
