MODEL 1
REMARK minimizedAffinity 0.941103697
REMARK minimizedRMSD -1
REMARK  0 active torsions:
REMARK  status: ('A' for Active; 'I' for Inactive)
ROOT
ATOM      1  C   UNL d   1       2.229  -2.166  -1.116  0.00  0.00     0.020 A 
ATOM      2  C1  UNL d   1       2.131  -1.180  -0.134  0.00  0.00     0.020 A 
ATOM      3  C2  UNL d   1       1.378  -0.029  -0.373  0.00  0.00     0.034 A 
ATOM      4  C3  UNL d   1       0.720   0.141  -1.597  0.00  0.00     0.017 A 
ATOM      5  C4  UNL d   1       0.819  -0.849  -2.582  0.00  0.00     0.017 A 
ATOM      6  C5  UNL d   1       1.574  -2.000  -2.337  0.00  0.00     0.034 A 
ATOM      7 Cl   UNL d   1       0.035  -0.711  -4.116  0.00  0.00    -0.070 Cl
ATOM      8 Cl1  UNL d   1      -0.193   1.589  -1.824  0.00  0.00    -0.070 Cl
ENDROOT
TORSDOF 0
ENDMDL
