MODEL 1
REMARK minimizedAffinity -0.776992619
REMARK minimizedRMSD -1
REMARK  0 active torsions:
REMARK  status: ('A' for Active; 'I' for Inactive)
ROOT
ATOM      1  C   UNL d   1       1.031  -0.939  -1.339  0.00  0.00     0.020 A 
ATOM      2  C1  UNL d   1       2.104  -1.828  -1.359  0.00  0.00     0.020 A 
ATOM      3  C2  UNL d   1       2.089  -2.960  -0.540  0.00  0.00     0.034 A 
ATOM      4  C3  UNL d   1       0.998  -3.205   0.301  0.00  0.00     0.017 A 
ATOM      5  C4  UNL d   1      -0.079  -2.312   0.320  0.00  0.00     0.017 A 
ATOM      6  C5  UNL d   1      -0.059  -1.181  -0.501  0.00  0.00     0.034 A 
ATOM      7 Cl   UNL d   1      -1.461  -2.548   1.332  0.00  0.00    -0.070 Cl
ATOM      8 Cl1  UNL d   1       1.046  -4.624   1.286  0.00  0.00    -0.070 Cl
ENDROOT
TORSDOF 0
ENDMDL
