MODEL 1
REMARK minimizedAffinity -3.82345557
REMARK minimizedRMSD -1
REMARK  0 active torsions:
REMARK  status: ('A' for Active; 'I' for Inactive)
ROOT
ATOM      1  C   UNL d   1       0.641  -4.436   0.488  0.00  0.00     0.020 A 
ATOM      2  C1  UNL d   1       1.949  -3.976   0.344  0.00  0.00     0.020 A 
ATOM      3  C2  UNL d   1       2.186  -2.662  -0.064  0.00  0.00     0.034 A 
ATOM      4  C3  UNL d   1       1.114  -1.803  -0.330  0.00  0.00     0.017 A 
ATOM      5  C4  UNL d   1      -0.199  -2.266  -0.185  0.00  0.00     0.017 A 
ATOM      6  C5  UNL d   1      -0.431  -3.583   0.224  0.00  0.00     0.034 A 
ATOM      7 Cl   UNL d   1      -1.574  -1.265  -0.494  0.00  0.00    -0.070 Cl
ATOM      8 Cl1  UNL d   1       1.480  -0.190  -0.830  0.00  0.00    -0.070 Cl
ENDROOT
TORSDOF 0
ENDMDL
