MODEL 1
REMARK minimizedAffinity 8.63709927
REMARK minimizedRMSD -1
REMARK  0 active torsions:
REMARK  status: ('A' for Active; 'I' for Inactive)
ROOT
ATOM      1  C   UNL d   1      -3.018   1.054   4.487  0.00  0.00     0.020 A 
ATOM      2  C1  UNL d   1      -2.122   0.033   4.801  0.00  0.00     0.020 A 
ATOM      3  C2  UNL d   1      -2.411  -1.285   4.439  0.00  0.00     0.034 A 
ATOM      4  C3  UNL d   1      -3.599  -1.585   3.763  0.00  0.00     0.017 A 
ATOM      5  C4  UNL d   1      -4.497  -0.559   3.449  0.00  0.00     0.017 A 
ATOM      6  C5  UNL d   1      -4.203   0.759   3.813  0.00  0.00     0.034 A 
ATOM      7 Cl   UNL d   1      -5.983  -0.851   2.615  0.00  0.00    -0.070 Cl
ATOM      8 Cl1  UNL d   1      -3.891  -3.236   3.346  0.00  0.00    -0.070 Cl
ENDROOT
TORSDOF 0
ENDMDL
