MODEL 1
REMARK minimizedAffinity -0.974118352
REMARK minimizedRMSD -1
REMARK  0 active torsions:
REMARK  status: ('A' for Active; 'I' for Inactive)
ROOT
ATOM      1  C   UNL d   1       2.112  -1.394   0.120  0.00  0.00     0.020 A 
ATOM      2  C1  UNL d   1       1.443  -0.338  -0.496  0.00  0.00     0.020 A 
ATOM      3  C2  UNL d   1       0.113  -0.491  -0.895  0.00  0.00     0.034 A 
ATOM      4  C3  UNL d   1      -0.552  -1.703  -0.676  0.00  0.00     0.017 A 
ATOM      5  C4  UNL d   1       0.121  -2.763  -0.057  0.00  0.00     0.017 A 
ATOM      6  C5  UNL d   1       1.452  -2.604   0.340  0.00  0.00     0.034 A 
ATOM      7 Cl   UNL d   1      -0.633  -4.288   0.246  0.00  0.00    -0.070 Cl
ATOM      8 Cl1  UNL d   1      -2.196  -1.822  -1.194  0.00  0.00    -0.070 Cl
ENDROOT
TORSDOF 0
ENDMDL
