MODEL 1
REMARK minimizedAffinity 2.677109
REMARK minimizedRMSD -1
REMARK  0 active torsions:
REMARK  status: ('A' for Active; 'I' for Inactive)
ROOT
ATOM      1  C   UNL d   1      -0.201  -0.518  -1.241  0.00  0.00     0.020 A 
ATOM      2  C1  UNL d   1       1.183  -0.434  -1.386  0.00  0.00     0.020 A 
ATOM      3  C2  UNL d   1       2.004  -1.417  -0.828  0.00  0.00     0.034 A 
ATOM      4  C3  UNL d   1       1.441  -2.487  -0.123  0.00  0.00     0.017 A 
ATOM      5  C4  UNL d   1       0.052  -2.570   0.022  0.00  0.00     0.017 A 
ATOM      6  C5  UNL d   1      -0.766  -1.584  -0.539  0.00  0.00     0.034 A 
ATOM      7 Cl   UNL d   1      -0.716  -3.861   0.878  0.00  0.00    -0.070 Cl
ATOM      8 Cl1  UNL d   1       2.516  -3.666   0.540  0.00  0.00    -0.070 Cl
ENDROOT
TORSDOF 0
ENDMDL
