MODEL 1
REMARK minimizedAffinity 3.88624096
REMARK minimizedRMSD -1
REMARK  0 active torsions:
REMARK  status: ('A' for Active; 'I' for Inactive)
ROOT
ATOM      1  C   UNL d   1       2.096  -0.010  -1.438  0.00  0.00     0.020 A 
ATOM      2  C1  UNL d   1       0.769   0.418  -1.447  0.00  0.00     0.020 A 
ATOM      3  C2  UNL d   1      -0.245  -0.443  -1.024  0.00  0.00     0.034 A 
ATOM      4  C3  UNL d   1       0.065  -1.737  -0.589  0.00  0.00     0.017 A 
ATOM      5  C4  UNL d   1       1.397  -2.166  -0.580  0.00  0.00     0.017 A 
ATOM      6  C5  UNL d   1       2.409  -1.300  -1.005  0.00  0.00     0.034 A 
ATOM      7 Cl   UNL d   1       1.858  -3.748  -0.057  0.00  0.00    -0.070 Cl
ATOM      8 Cl1  UNL d   1      -1.240  -2.747  -0.079  0.00  0.00    -0.070 Cl
ENDROOT
TORSDOF 0
ENDMDL
