MODEL 1
REMARK minimizedAffinity 0.14906621
REMARK minimizedRMSD -1
REMARK  0 active torsions:
REMARK  status: ('A' for Active; 'I' for Inactive)
ROOT
ATOM      1  C   UNL d   1       1.428  -1.795  -0.082  0.00  0.00     0.020 A 
ATOM      2  C1  UNL d   1       0.075  -1.461  -0.143  0.00  0.00     0.020 A 
ATOM      3  C2  UNL d   1      -0.894  -2.413   0.181  0.00  0.00     0.034 A 
ATOM      4  C3  UNL d   1      -0.512  -3.703   0.568  0.00  0.00     0.017 A 
ATOM      5  C4  UNL d   1       0.845  -4.037   0.629  0.00  0.00     0.017 A 
ATOM      6  C5  UNL d   1       1.812  -3.080   0.304  0.00  0.00     0.034 A 
ATOM      7 Cl   UNL d   1       1.394  -5.607   1.098  0.00  0.00    -0.070 Cl
ATOM      8 Cl1  UNL d   1      -1.764  -4.829   0.956  0.00  0.00    -0.070 Cl
ENDROOT
TORSDOF 0
ENDMDL
