MODEL 1
REMARK minimizedAffinity -2.24009418
REMARK minimizedRMSD -1
REMARK  0 active torsions:
REMARK  status: ('A' for Active; 'I' for Inactive)
ROOT
ATOM      1  C   UNL d   1       2.251  -1.953  -0.494  0.00  0.00     0.020 A 
ATOM      2  C1  UNL d   1       0.980  -1.381  -0.515  0.00  0.00     0.020 A 
ATOM      3  C2  UNL d   1      -0.116  -2.097  -0.029  0.00  0.00     0.034 A 
ATOM      4  C3  UNL d   1       0.056  -3.389   0.479  0.00  0.00     0.017 A 
ATOM      5  C4  UNL d   1       1.333  -3.963   0.499  0.00  0.00     0.017 A 
ATOM      6  C5  UNL d   1       2.427  -3.242   0.012  0.00  0.00     0.034 A 
ATOM      7 Cl   UNL d   1       1.625  -5.553   1.110  0.00  0.00    -0.070 Cl
ATOM      8 Cl1  UNL d   1      -1.343  -4.217   1.063  0.00  0.00    -0.070 Cl
ENDROOT
TORSDOF 0
ENDMDL
