MODEL 1
REMARK minimizedAffinity -1.13653433
REMARK minimizedRMSD -1
REMARK  0 active torsions:
REMARK  status: ('A' for Active; 'I' for Inactive)
ROOT
ATOM      1  C   UNL d   1      -2.631   0.160   4.887  0.00  0.00     0.020 A 
ATOM      2  C1  UNL d   1      -3.090   1.168   4.040  0.00  0.00     0.020 A 
ATOM      3  C2  UNL d   1      -4.131   0.909   3.146  0.00  0.00     0.034 A 
ATOM      4  C3  UNL d   1      -4.716  -0.362   3.097  0.00  0.00     0.017 A 
ATOM      5  C4  UNL d   1      -4.254  -1.373   3.947  0.00  0.00     0.017 A 
ATOM      6  C5  UNL d   1      -3.212  -1.107   4.840  0.00  0.00     0.034 A 
ATOM      7 Cl   UNL d   1      -4.926  -2.966   3.944  0.00  0.00    -0.070 Cl
ATOM      8 Cl1  UNL d   1      -5.999  -0.613   1.967  0.00  0.00    -0.070 Cl
ENDROOT
TORSDOF 0
ENDMDL
