MODEL 1
REMARK minimizedAffinity -3.34835696
REMARK minimizedRMSD -1
REMARK  0 active torsions:
REMARK  status: ('A' for Active; 'I' for Inactive)
ROOT
ATOM      1  C   UNL d   1      -0.338  -0.672  -1.439  0.00  0.00     0.020 A 
ATOM      2  C1  UNL d   1       0.908  -0.120  -1.146  0.00  0.00     0.020 A 
ATOM      3  C2  UNL d   1       1.696  -0.673  -0.135  0.00  0.00     0.034 A 
ATOM      4  C3  UNL d   1       1.239  -1.782   0.587  0.00  0.00     0.017 A 
ATOM      5  C4  UNL d   1      -0.012  -2.336   0.291  0.00  0.00     0.017 A 
ATOM      6  C5  UNL d   1      -0.797  -1.778  -0.722  0.00  0.00     0.034 A 
ATOM      7 Cl   UNL d   1      -0.643  -3.704   1.138  0.00  0.00    -0.070 Cl
ATOM      8 Cl1  UNL d   1       2.267  -2.415   1.824  0.00  0.00    -0.070 Cl
ENDROOT
TORSDOF 0
ENDMDL
