MODEL 1
REMARK minimizedAffinity -4.17781591
REMARK minimizedRMSD -1
REMARK  0 active torsions:
REMARK  status: ('A' for Active; 'I' for Inactive)
ROOT
ATOM      1  C   UNL d   1       0.510  -4.532   0.749  0.00  0.00     0.020 A 
ATOM      2  C1  UNL d   1       1.898  -4.449   0.650  0.00  0.00     0.020 A 
ATOM      3  C2  UNL d   1       2.496  -3.277   0.182  0.00  0.00     0.034 A 
ATOM      4  C3  UNL d   1       1.705  -2.183  -0.187  0.00  0.00     0.017 A 
ATOM      5  C4  UNL d   1       0.311  -2.267  -0.087  0.00  0.00     0.017 A 
ATOM      6  C5  UNL d   1      -0.282  -3.444   0.382  0.00  0.00     0.034 A 
ATOM      7 Cl   UNL d   1      -0.730  -0.959  -0.524  0.00  0.00    -0.070 Cl
ATOM      8 Cl1  UNL d   1       2.511  -0.764  -0.756  0.00  0.00    -0.070 Cl
ENDROOT
TORSDOF 0
ENDMDL
