MODEL 1
REMARK minimizedAffinity 1.97649598
REMARK minimizedRMSD -1
REMARK  0 active torsions:
REMARK  status: ('A' for Active; 'I' for Inactive)
ROOT
ATOM      1  C   UNL d   1       2.423  -2.094  -0.482  0.00  0.00     0.020 A 
ATOM      2  C1  UNL d   1       1.650  -3.093  -1.072  0.00  0.00     0.020 A 
ATOM      3  C2  UNL d   1       1.421  -4.291  -0.393  0.00  0.00     0.034 A 
ATOM      4  C3  UNL d   1       1.965  -4.494   0.880  0.00  0.00     0.017 A 
ATOM      5  C4  UNL d   1       2.740  -3.490   1.472  0.00  0.00     0.017 A 
ATOM      6  C5  UNL d   1       2.967  -2.292   0.788  0.00  0.00     0.034 A 
ATOM      7 Cl   UNL d   1       3.444  -3.667   3.041  0.00  0.00    -0.070 Cl
ATOM      8 Cl1  UNL d   1       1.640  -6.000   1.662  0.00  0.00    -0.070 Cl
ENDROOT
TORSDOF 0
ENDMDL
