MODEL 1
REMARK minimizedAffinity 0.298280805
REMARK minimizedRMSD -1
REMARK  0 active torsions:
REMARK  status: ('A' for Active; 'I' for Inactive)
ROOT
ATOM      1  C   UNL d   1      -3.845   2.197   0.145  0.00  0.00     0.020 A 
ATOM      2  C1  UNL d   1      -4.470   1.049  -0.340  0.00  0.00     0.020 A 
ATOM      3  C2  UNL d   1      -4.751  -0.011   0.525  0.00  0.00     0.034 A 
ATOM      4  C3  UNL d   1      -4.408   0.076   1.879  0.00  0.00     0.017 A 
ATOM      5  C4  UNL d   1      -3.781   1.229   2.365  0.00  0.00     0.017 A 
ATOM      6  C5  UNL d   1      -3.502   2.287   1.495  0.00  0.00     0.034 A 
ATOM      7 Cl   UNL d   1      -3.328   1.409   4.023  0.00  0.00    -0.070 Cl
ATOM      8 Cl1  UNL d   1      -4.786  -1.272   2.892  0.00  0.00    -0.070 Cl
ENDROOT
TORSDOF 0
ENDMDL
