MODEL 1
REMARK minimizedAffinity 2.15529728
REMARK minimizedRMSD -1
REMARK  3 active torsions:
REMARK  status: ('A' for Active; 'I' for Inactive)
REMARK    1  A    between atoms: C3'_2  and  C2'_3 
REMARK    2  A    between atoms: C2'_3  and  C1'_4 
REMARK    3  A    between atoms: C1'_4  and  C1_5 
ROOT
ATOM      1  C1  N4B d   1       1.232  -2.519   0.573  0.00  0.00    -0.075 A 
ATOM      2  C2  N4B d   1       1.047  -1.340   1.329  0.00  0.00     0.002 A 
ATOM      3  C3  N4B d   1      -0.094  -1.175   2.074  0.00  0.00     0.002 A 
ATOM      4  C4  N4B d   1      -1.069  -2.162   2.064  0.00  0.00    -0.004 A 
ATOM      5  C5  N4B d   1      -0.871  -3.309   1.352  0.00  0.00     0.002 A 
ATOM      6  C6  N4B d   1       0.274  -3.490   0.601  0.00  0.00     0.002 A 
ENDROOT
BRANCH   1   7
ATOM      7  C1' N4B d   1       2.425  -2.707  -0.325  0.00  0.00     0.057 C 
BRANCH   7   8
ATOM      8  C2' N4B d   1       3.245  -3.893   0.173  0.00  0.00     0.009 C 
BRANCH   8   9
ATOM      9  C3' N4B d   1       3.358  -3.910   1.688  0.00  0.00     0.004 C 
ATOM     10  C4' N4B d   1       4.217  -5.030   2.194  0.00  0.00     0.003 C 
ENDBRANCH   8   9
ENDBRANCH   7   8
ENDBRANCH   1   7
TORSDOF 3
ENDMDL
