MODEL 1
REMARK minimizedAffinity -0.441921711
REMARK minimizedRMSD -1
REMARK  3 active torsions:
REMARK  status: ('A' for Active; 'I' for Inactive)
REMARK    1  A    between atoms: C3'_2  and  C2'_3 
REMARK    2  A    between atoms: C2'_3  and  C1'_4 
REMARK    3  A    between atoms: C1'_4  and  C1_5 
ROOT
ATOM      1  C1  N4B d   1      -2.518   3.453  -4.279  0.00  0.00    -0.075 A 
ATOM      2  C2  N4B d   1      -1.490   2.506  -4.078  0.00  0.00     0.002 A 
ATOM      3  C3  N4B d   1      -0.352   2.555  -4.844  0.00  0.00     0.002 A 
ATOM      4  C4  N4B d   1      -0.227   3.526  -5.826  0.00  0.00    -0.004 A 
ATOM      5  C5  N4B d   1      -1.213   4.454  -5.996  0.00  0.00     0.002 A 
ATOM      6  C6  N4B d   1      -2.361   4.419  -5.230  0.00  0.00     0.002 A 
ENDROOT
BRANCH   1   7
ATOM      7  C1' N4B d   1      -3.818   3.387  -3.524  0.00  0.00     0.057 C 
BRANCH   7   8
ATOM      8  C2' N4B d   1      -3.817   2.149  -2.632  0.00  0.00     0.009 C 
BRANCH   8   9
ATOM      9  C3' N4B d   1      -3.852   2.511  -1.157  0.00  0.00     0.004 C 
ATOM     10  C4' N4B d   1      -2.789   3.497  -0.776  0.00  0.00     0.003 C 
ENDBRANCH   8   9
ENDBRANCH   7   8
ENDBRANCH   1   7
TORSDOF 3
ENDMDL
