MODEL 1
REMARK minimizedAffinity 12.3459311
REMARK minimizedRMSD -1
REMARK  3 active torsions:
REMARK  status: ('A' for Active; 'I' for Inactive)
REMARK    1  A    between atoms: C3'_2  and  C2'_3 
REMARK    2  A    between atoms: C2'_3  and  C1'_4 
REMARK    3  A    between atoms: C1'_4  and  C1_5 
ROOT
ATOM      1  C1  N4B d   1       3.218  -3.701  -0.343  0.00  0.00    -0.075 A 
ATOM      2  C2  N4B d   1       4.175  -4.039  -1.325  0.00  0.00     0.002 A 
ATOM      3  C3  N4B d   1       5.393  -4.549  -0.949  0.00  0.00     0.002 A 
ATOM      4  C4  N4B d   1       5.682  -4.713   0.398  0.00  0.00    -0.004 A 
ATOM      5  C5  N4B d   1       4.742  -4.408   1.338  0.00  0.00     0.002 A 
ATOM      6  C6  N4B d   1       3.512  -3.898   0.975  0.00  0.00     0.002 A 
ENDROOT
BRANCH   1   7
ATOM      7  C1' N4B d   1       1.905  -3.059  -0.702  0.00  0.00     0.057 C 
BRANCH   7   8
ATOM      8  C2' N4B d   1       1.017  -3.008   0.538  0.00  0.00     0.009 C 
BRANCH   8   9
ATOM      9  C3' N4B d   1      -0.278  -3.777   0.341  0.00  0.00     0.004 C 
ATOM     10  C4' N4B d   1      -1.361  -3.339   1.282  0.00  0.00     0.003 C 
ENDBRANCH   8   9
ENDBRANCH   7   8
ENDBRANCH   1   7
TORSDOF 3
ENDMDL
