MODEL 1
REMARK minimizedAffinity 12.4462833
REMARK minimizedRMSD -1
REMARK  3 active torsions:
REMARK  status: ('A' for Active; 'I' for Inactive)
REMARK    1  A    between atoms: C3'_2  and  C2'_3 
REMARK    2  A    between atoms: C2'_3  and  C1'_4 
REMARK    3  A    between atoms: C1'_4  and  C1_5 
ROOT
ATOM      1  C1  N4B d   1       3.700  -3.929   1.953  0.00  0.00    -0.075 A 
ATOM      2  C2  N4B d   1       4.418  -4.428   0.844  0.00  0.00     0.002 A 
ATOM      3  C3  N4B d   1       3.959  -4.201  -0.430  0.00  0.00     0.002 A 
ATOM      4  C4  N4B d   1       2.779  -3.497  -0.618  0.00  0.00    -0.004 A 
ATOM      5  C5  N4B d   1       2.105  -2.997   0.457  0.00  0.00     0.002 A 
ATOM      6  C6  N4B d   1       2.557  -3.214   1.743  0.00  0.00     0.002 A 
ENDROOT
BRANCH   1   7
ATOM      7  C1' N4B d   1       4.117  -4.225   3.368  0.00  0.00     0.057 C 
BRANCH   7   8
ATOM      8  C2' N4B d   1       4.082  -2.934   4.181  0.00  0.00     0.009 C 
BRANCH   8   9
ATOM      9  C3' N4B d   1       4.563  -3.147   5.606  0.00  0.00     0.004 C 
ATOM     10  C4' N4B d   1       5.990  -2.731   5.805  0.00  0.00     0.003 C 
ENDBRANCH   8   9
ENDBRANCH   7   8
ENDBRANCH   1   7
TORSDOF 3
ENDMDL
