MODEL 1
REMARK minimizedAffinity 3.00913024
REMARK minimizedRMSD -1
REMARK  3 active torsions:
REMARK  status: ('A' for Active; 'I' for Inactive)
REMARK    1  A    between atoms: C3'_2  and  C2'_3 
REMARK    2  A    between atoms: C2'_3  and  C1'_4 
REMARK    3  A    between atoms: C1'_4  and  C1_5 
ROOT
ATOM      1  C1  N4B d   1      -0.434  -1.728  -0.137  0.00  0.00    -0.075 A 
ATOM      2  C2  N4B d   1      -1.212  -2.259  -1.189  0.00  0.00     0.002 A 
ATOM      3  C3  N4B d   1      -0.803  -3.399  -1.837  0.00  0.00     0.002 A 
ATOM      4  C4  N4B d   1       0.385  -4.010  -1.466  0.00  0.00    -0.004 A 
ATOM      5  C5  N4B d   1       1.118  -3.505  -0.432  0.00  0.00     0.002 A 
ATOM      6  C6  N4B d   1       0.717  -2.363   0.231  0.00  0.00     0.002 A 
ENDROOT
BRANCH   1   7
ATOM      7  C1' N4B d   1      -0.796  -0.436   0.544  0.00  0.00     0.057 C 
BRANCH   7   8
ATOM      8  C2' N4B d   1      -0.428   0.731  -0.367  0.00  0.00     0.009 C 
BRANCH   8   9
ATOM      9  C3' N4B d   1       0.205   1.876   0.405  0.00  0.00     0.004 C 
ATOM     10  C4' N4B d   1       1.702   1.877   0.317  0.00  0.00     0.003 C 
ENDBRANCH   8   9
ENDBRANCH   7   8
ENDBRANCH   1   7
TORSDOF 3
ENDMDL
