MODEL 1
REMARK minimizedAffinity -4.50558949
REMARK minimizedRMSD -1
REMARK  1 active torsions:
REMARK  status: ('A' for Active; 'I' for Inactive)
REMARK    1  A    between atoms: C1_2  and  C2_3 
ROOT
ATOM      1  C2  UNL d   1       0.135   0.087   0.188  0.00  0.00    -0.076 A 
ATOM      2  C3  UNL d   1       0.840  -1.127   0.124  0.00  0.00     0.004 A 
ATOM      3  C4  UNL d   1       2.208  -1.177   0.387  0.00  0.00    -0.003 A 
ATOM      4  C5  UNL d   1       2.893  -0.014   0.719  0.00  0.00     0.000 A 
ATOM      5  C6  UNL d   1       2.206   1.197   0.804  0.00  0.00     0.000 A 
ATOM      6  C7  UNL d   1       0.823   1.262   0.558  0.00  0.00    -0.073 A 
ATOM      7  C8  UNL d   1       0.134   2.595   0.657  0.00  0.00     0.078 C 
ENDROOT
BRANCH   1   8
ATOM      8  C1  UNL d   1      -1.343   0.084  -0.134  0.00  0.00     0.053 C 
ATOM      9  C   UNL d   1      -1.623  -0.297  -1.579  0.00  0.00     0.018 C 
ENDBRANCH   1   8
TORSDOF 1
ENDMDL
