MODEL 1
REMARK minimizedAffinity -4.82216167
REMARK minimizedRMSD -1
REMARK  1 active torsions:
REMARK  status: ('A' for Active; 'I' for Inactive)
REMARK    1  A    between atoms: C1_2  and  C2_3 
ROOT
ATOM      1  C2  UNL d   1       0.066  -0.006   0.293  0.00  0.00    -0.076 A 
ATOM      2  C3  UNL d   1       0.658  -1.230   0.648  0.00  0.00     0.004 A 
ATOM      3  C4  UNL d   1       2.002  -1.297   1.014  0.00  0.00    -0.003 A 
ATOM      4  C5  UNL d   1       2.774  -0.141   1.030  0.00  0.00     0.000 A 
ATOM      5  C6  UNL d   1       2.199   1.084   0.697  0.00  0.00     0.000 A 
ATOM      6  C7  UNL d   1       0.842   1.172   0.342  0.00  0.00    -0.073 A 
ATOM      7  C8  UNL d   1       0.274   2.519  -0.013  0.00  0.00     0.078 C 
ENDROOT
BRANCH   1   8
ATOM      8  C1  UNL d   1      -1.388   0.002  -0.121  0.00  0.00     0.053 C 
ATOM      9  C   UNL d   1      -1.566  -0.103  -1.628  0.00  0.00     0.018 C 
ENDBRANCH   1   8
TORSDOF 1
ENDMDL
