MODEL 1
REMARK minimizedAffinity 1.6894275
REMARK minimizedRMSD -1
REMARK  1 active torsions:
REMARK  status: ('A' for Active; 'I' for Inactive)
REMARK    1  A    between atoms: C1_2  and  C2_3 
ROOT
ATOM      1  C2  UNL d   1       0.771   2.036   0.833  0.00  0.00    -0.076 A 
ATOM      2  C3  UNL d   1       1.863   2.703   1.417  0.00  0.00     0.004 A 
ATOM      3  C4  UNL d   1       2.822   2.004   2.149  0.00  0.00    -0.003 A 
ATOM      4  C5  UNL d   1       2.704   0.628   2.310  0.00  0.00     0.000 A 
ATOM      5  C6  UNL d   1       1.637  -0.051   1.724  0.00  0.00     0.000 A 
ATOM      6  C7  UNL d   1       0.671   0.635   0.968  0.00  0.00    -0.073 A 
ATOM      7  C8  UNL d   1      -0.463  -0.147   0.363  0.00  0.00     0.078 C 
ENDROOT
BRANCH   1   8
ATOM      8  C1  UNL d   1      -0.251   2.850   0.073  0.00  0.00     0.053 C 
ATOM      9  C   UNL d   1      -0.500   4.211   0.705  0.00  0.00     0.018 C 
ENDBRANCH   1   8
TORSDOF 1
ENDMDL
