MODEL 1
REMARK minimizedAffinity 1.16327965
REMARK minimizedRMSD -1
REMARK  1 active torsions:
REMARK  status: ('A' for Active; 'I' for Inactive)
REMARK    1  A    between atoms: C1_2  and  C2_3 
ROOT
ATOM      1  C2  UNL d   1      -0.787  -0.037  -1.462  0.00  0.00    -0.076 A 
ATOM      2  C3  UNL d   1      -0.598   1.003  -0.536  0.00  0.00     0.004 A 
ATOM      3  C4  UNL d   1      -0.197   0.735   0.772  0.00  0.00    -0.003 A 
ATOM      4  C5  UNL d   1       0.022  -0.578   1.174  0.00  0.00     0.000 A 
ATOM      5  C6  UNL d   1      -0.143  -1.621   0.264  0.00  0.00     0.000 A 
ATOM      6  C7  UNL d   1      -0.531  -1.366  -1.063  0.00  0.00    -0.073 A 
ATOM      7  C8  UNL d   1      -0.701  -2.529  -2.001  0.00  0.00     0.078 C 
ENDROOT
BRANCH   1   8
ATOM      8  C1  UNL d   1      -1.249   0.313  -2.859  0.00  0.00     0.053 C 
ATOM      9  C   UNL d   1      -2.711   0.727  -2.902  0.00  0.00     0.018 C 
ENDBRANCH   1   8
TORSDOF 1
ENDMDL
