MODEL 1
REMARK minimizedAffinity 4.00148249
REMARK minimizedRMSD -1
REMARK  1 active torsions:
REMARK  status: ('A' for Active; 'I' for Inactive)
REMARK    1  A    between atoms: C1_2  and  C2_3 
ROOT
ATOM      1  C2  UNL d   1       0.713  -2.406  -1.363  0.00  0.00    -0.077 A 
ATOM      2  C3  UNL d   1       0.634  -1.930  -0.047  0.00  0.00     0.002 A 
ATOM      3  C4  UNL d   1      -0.459  -1.163   0.362  0.00  0.00     0.002 A 
ATOM      4  C5  UNL d   1      -1.481  -0.869  -0.537  0.00  0.00    -0.004 A 
ATOM      5  C6  UNL d   1      -1.411  -1.336  -1.849  0.00  0.00     0.002 A 
ATOM      6  C7  UNL d   1      -0.319  -2.102  -2.260  0.00  0.00     0.002 A 
ENDROOT
BRANCH   1   7
ATOM      7  C1  UNL d   1       1.866  -3.275  -1.792  0.00  0.00     0.055 C 
ATOM      8  C   UNL d   1       2.081  -4.429  -0.823  0.00  0.00     0.019 C 
ENDBRANCH   1   7
TORSDOF 1
ENDMDL
