MODEL 1
REMARK minimizedAffinity 1.20936632
REMARK minimizedRMSD -1
REMARK  1 active torsions:
REMARK  status: ('A' for Active; 'I' for Inactive)
REMARK    1  A    between atoms: C1_2  and  C2_3 
ROOT
ATOM      1  C2  UNL d   1       1.674  -3.140   0.549  0.00  0.00    -0.077 A 
ATOM      2  C3  UNL d   1       1.431  -3.035  -0.828  0.00  0.00     0.002 A 
ATOM      3  C4  UNL d   1       1.701  -4.111  -1.676  0.00  0.00     0.002 A 
ATOM      4  C5  UNL d   1       2.210  -5.299  -1.156  0.00  0.00    -0.004 A 
ATOM      5  C6  UNL d   1       2.456  -5.412   0.211  0.00  0.00     0.002 A 
ATOM      6  C7  UNL d   1       2.188  -4.338   1.060  0.00  0.00     0.002 A 
ENDROOT
BRANCH   1   7
ATOM      7  C1  UNL d   1       1.337  -1.998   1.472  0.00  0.00     0.055 C 
ATOM      8  C   UNL d   1       1.963  -2.193   2.846  0.00  0.00     0.019 C 
ENDBRANCH   1   7
TORSDOF 1
ENDMDL
