MODEL 1
REMARK minimizedAffinity 5.01705408
REMARK minimizedRMSD -1
REMARK  1 active torsions:
REMARK  status: ('A' for Active; 'I' for Inactive)
REMARK    1  A    between atoms: C1_2  and  C2_3 
ROOT
ATOM      1  C2  UNL d   1       3.753   5.027  -1.889  0.00  0.00    -0.077 A 
ATOM      2  C3  UNL d   1       3.783   5.036  -3.290  0.00  0.00     0.002 A 
ATOM      3  C4  UNL d   1       4.902   5.522  -3.970  0.00  0.00     0.002 A 
ATOM      4  C5  UNL d   1       6.000   5.999  -3.257  0.00  0.00    -0.004 A 
ATOM      5  C6  UNL d   1       5.979   5.996  -1.863  0.00  0.00     0.002 A 
ATOM      6  C7  UNL d   1       4.861   5.512  -1.182  0.00  0.00     0.002 A 
ENDROOT
BRANCH   1   7
ATOM      7  C1  UNL d   1       2.568   4.458  -1.154  0.00  0.00     0.055 C 
ATOM      8  C   UNL d   1       2.835   3.032  -0.694  0.00  0.00     0.019 C 
ENDBRANCH   1   7
TORSDOF 1
ENDMDL
