MODEL 1
REMARK minimizedAffinity -4.41513205
REMARK minimizedRMSD -1
REMARK  1 active torsions:
REMARK  status: ('A' for Active; 'I' for Inactive)
REMARK    1  A    between atoms: C1_2  and  C2_3 
ROOT
ATOM      1  C2  UNL d   1       3.304   5.417  -2.441  0.00  0.00    -0.077 A 
ATOM      2  C3  UNL d   1       4.316   5.999  -1.665  0.00  0.00     0.002 A 
ATOM      3  C4  UNL d   1       5.657   5.701  -1.914  0.00  0.00     0.002 A 
ATOM      4  C5  UNL d   1       5.998   4.824  -2.941  0.00  0.00    -0.004 A 
ATOM      5  C6  UNL d   1       4.999   4.238  -3.717  0.00  0.00     0.002 A 
ATOM      6  C7  UNL d   1       3.658   4.534  -3.469  0.00  0.00     0.002 A 
ENDROOT
BRANCH   1   7
ATOM      7  C1  UNL d   1       1.860   5.775  -2.206  0.00  0.00     0.055 C 
ATOM      8  C   UNL d   1       1.136   4.680  -1.437  0.00  0.00     0.019 C 
ENDBRANCH   1   7
TORSDOF 1
ENDMDL
