MODEL 1
REMARK minimizedAffinity 4.13848448
REMARK minimizedRMSD -1
REMARK  1 active torsions:
REMARK  status: ('A' for Active; 'I' for Inactive)
REMARK    1  A    between atoms: C1_2  and  C2_3 
ROOT
ATOM      1  C2  UNL d   1      -0.006  -2.438  -1.573  0.00  0.00    -0.077 A 
ATOM      2  C3  UNL d   1      -1.361  -2.187  -1.830  0.00  0.00     0.002 A 
ATOM      3  C4  UNL d   1      -2.155  -1.548  -0.875  0.00  0.00     0.002 A 
ATOM      4  C5  UNL d   1      -1.602  -1.153   0.341  0.00  0.00    -0.004 A 
ATOM      5  C6  UNL d   1      -0.256  -1.400   0.607  0.00  0.00     0.002 A 
ATOM      6  C7  UNL d   1       0.539  -2.039  -0.345  0.00  0.00     0.002 A 
ENDROOT
BRANCH   1   7
ATOM      7  C1  UNL d   1       0.864  -3.082  -2.620  0.00  0.00     0.055 C 
ATOM      8  C   UNL d   1       2.324  -2.691  -2.445  0.00  0.00     0.019 C 
ENDBRANCH   1   7
TORSDOF 1
ENDMDL
