MODEL 1
REMARK minimizedAffinity 6.88361883
REMARK minimizedRMSD -1
REMARK  1 active torsions:
REMARK  status: ('A' for Active; 'I' for Inactive)
REMARK    1  A    between atoms: C1_2  and  C2_3 
ROOT
ATOM      1  C2  UNL d   1      -1.022  -1.643  -0.605  0.00  0.00    -0.077 A 
ATOM      2  C3  UNL d   1      -0.743  -2.183  -1.869  0.00  0.00     0.002 A 
ATOM      3  C4  UNL d   1       0.492  -2.782  -2.124  0.00  0.00     0.002 A 
ATOM      4  C5  UNL d   1       1.456  -2.850  -1.121  0.00  0.00    -0.004 A 
ATOM      5  C6  UNL d   1       1.189  -2.314   0.139  0.00  0.00     0.002 A 
ATOM      6  C7  UNL d   1      -0.044  -1.714   0.396  0.00  0.00     0.002 A 
ENDROOT
BRANCH   1   7
ATOM      7  C1  UNL d   1      -2.371  -1.041  -0.313  0.00  0.00     0.055 C 
ATOM      8  C   UNL d   1      -2.288   0.474  -0.197  0.00  0.00     0.019 C 
ENDBRANCH   1   7
TORSDOF 1
ENDMDL
