MODEL 1
REMARK minimizedAffinity -2.95764017
REMARK minimizedRMSD -1
REMARK  0 active torsions:
REMARK  status: ('A' for Active; 'I' for Inactive)
ROOT
ATOM      1  C   UNL d   1       0.660  -0.428  -3.022  0.00  0.00     0.077 C 
ATOM      2  C1  UNL d   1       0.047  -0.425  -1.653  0.00  0.00    -0.074 A 
ATOM      3  C2  UNL d   1      -0.085   0.763  -0.927  0.00  0.00    -0.005 A 
ATOM      4  C3  UNL d   1      -0.666   0.751   0.341  0.00  0.00     0.006 A 
ATOM      5  C4  UNL d   1      -1.119  -0.447   0.895  0.00  0.00    -0.005 A 
ATOM      6  C5  UNL d   1      -0.995  -1.645   0.184  0.00  0.00    -0.074 A 
ATOM      7  C6  UNL d   1      -1.486  -2.939   0.761  0.00  0.00     0.077 C 
ATOM      8  C7  UNL d   1      -0.417  -1.624  -1.093  0.00  0.00    -0.001 A 
ENDROOT
TORSDOF 0
ENDMDL
