MODEL 1
REMARK minimizedAffinity -4.40176725
REMARK minimizedRMSD -1
REMARK  0 active torsions:
REMARK  status: ('A' for Active; 'I' for Inactive)
ROOT
ATOM      1  C   UNL d   1       0.715   2.169   0.423  0.00  0.00     0.077 C 
ATOM      2  C1  UNL d   1       0.500   0.834  -0.226  0.00  0.00    -0.074 A 
ATOM      3  C2  UNL d   1       0.532   0.699  -1.618  0.00  0.00    -0.005 A 
ATOM      4  C3  UNL d   1       0.340  -0.551  -2.208  0.00  0.00     0.006 A 
ATOM      5  C4  UNL d   1       0.114  -1.675  -1.413  0.00  0.00    -0.005 A 
ATOM      6  C5  UNL d   1       0.079  -1.559  -0.020  0.00  0.00    -0.074 A 
ATOM      7  C6  UNL d   1      -0.153  -2.759   0.849  0.00  0.00     0.077 C 
ATOM      8  C7  UNL d   1       0.280  -0.301   0.565  0.00  0.00    -0.001 A 
ENDROOT
TORSDOF 0
ENDMDL
