MODEL 1
REMARK minimizedAffinity -5.45071459
REMARK minimizedRMSD -1
REMARK  0 active torsions:
REMARK  status: ('A' for Active; 'I' for Inactive)
ROOT
ATOM      1  C   UNL d   1       0.395   0.302  -3.003  0.00  0.00     0.077 C 
ATOM      2  C1  UNL d   1       0.074  -0.118  -1.599  0.00  0.00    -0.074 A 
ATOM      3  C2  UNL d   1      -0.666   0.712  -0.751  0.00  0.00    -0.005 A 
ATOM      4  C3  UNL d   1      -0.965   0.303   0.548  0.00  0.00     0.006 A 
ATOM      5  C4  UNL d   1      -0.526  -0.937   1.013  0.00  0.00    -0.005 A 
ATOM      6  C5  UNL d   1       0.215  -1.781   0.180  0.00  0.00    -0.074 A 
ATOM      7  C6  UNL d   1       0.685  -3.122   0.660  0.00  0.00     0.077 C 
ATOM      8  C7  UNL d   1       0.505  -1.366  -1.127  0.00  0.00    -0.001 A 
ENDROOT
TORSDOF 0
ENDMDL
