MODEL 1
REMARK minimizedAffinity -5.60885859
REMARK minimizedRMSD -1
REMARK  0 active torsions:
REMARK  status: ('A' for Active; 'I' for Inactive)
ROOT
ATOM      1  C   UNL d   1       0.206  -3.300   0.314  0.00  0.00     0.077 C 
ATOM      2  C1  UNL d   1      -0.268  -1.894   0.089  0.00  0.00    -0.074 A 
ATOM      3  C2  UNL d   1       0.061  -1.203  -1.081  0.00  0.00    -0.005 A 
ATOM      4  C3  UNL d   1      -0.394   0.100  -1.280  0.00  0.00     0.006 A 
ATOM      5  C4  UNL d   1      -1.183   0.724  -0.313  0.00  0.00    -0.005 A 
ATOM      6  C5  UNL d   1      -1.523   0.048   0.864  0.00  0.00    -0.074 A 
ATOM      7  C6  UNL d   1      -2.377   0.701   1.909  0.00  0.00     0.077 C 
ATOM      8  C7  UNL d   1      -1.067  -1.263   1.053  0.00  0.00    -0.001 A 
ENDROOT
TORSDOF 0
ENDMDL
