MODEL 1
REMARK minimizedAffinity -4.29678917
REMARK minimizedRMSD -1
REMARK  0 active torsions:
REMARK  status: ('A' for Active; 'I' for Inactive)
ROOT
ATOM      1  C   UNL d   1       0.000  -3.375   0.581  0.00  0.00     0.077 C 
ATOM      2  C1  UNL d   1      -0.301  -1.921   0.372  0.00  0.00    -0.074 A 
ATOM      3  C2  UNL d   1       0.376  -1.178  -0.601  0.00  0.00    -0.005 A 
ATOM      4  C3  UNL d   1       0.078   0.171  -0.790  0.00  0.00     0.006 A 
ATOM      5  C4  UNL d   1      -0.899   0.791  -0.010  0.00  0.00    -0.005 A 
ATOM      6  C5  UNL d   1      -1.588   0.064   0.966  0.00  0.00    -0.074 A 
ATOM      7  C6  UNL d   1      -2.648   0.713   1.807  0.00  0.00     0.077 C 
ATOM      8  C7  UNL d   1      -1.287  -1.293   1.146  0.00  0.00    -0.001 A 
ENDROOT
TORSDOF 0
ENDMDL
