MODEL 1
REMARK minimizedAffinity -1.58506048
REMARK minimizedRMSD -1
REMARK  0 active torsions:
REMARK  status: ('A' for Active; 'I' for Inactive)
ROOT
ATOM      1  C   UNL d   1       0.836   3.040   0.192  0.00  0.00     0.077 C 
ATOM      2  C1  UNL d   1       0.340   1.632   0.050  0.00  0.00    -0.074 A 
ATOM      3  C2  UNL d   1      -0.501   1.065   1.013  0.00  0.00    -0.005 A 
ATOM      4  C3  UNL d   1      -0.962  -0.243   0.862  0.00  0.00     0.006 A 
ATOM      5  C4  UNL d   1      -0.587  -0.996  -0.251  0.00  0.00    -0.005 A 
ATOM      6  C5  UNL d   1       0.253  -0.446  -1.225  0.00  0.00    -0.074 A 
ATOM      7  C6  UNL d   1       0.657  -1.238  -2.433  0.00  0.00     0.077 C 
ATOM      8  C7  UNL d   1       0.706   0.872  -1.070  0.00  0.00    -0.001 A 
ENDROOT
TORSDOF 0
ENDMDL
