MODEL 1
REMARK minimizedAffinity -5.40563154
REMARK minimizedRMSD -1
REMARK  0 active torsions:
REMARK  status: ('A' for Active; 'I' for Inactive)
ROOT
ATOM      1  C   UNL d   1       1.154  -2.769  -2.233  0.00  0.00     0.077 C 
ATOM      2  C1  UNL d   1       0.299  -2.082  -1.210  0.00  0.00    -0.074 A 
ATOM      3  C2  UNL d   1      -0.623  -2.802  -0.444  0.00  0.00    -0.005 A 
ATOM      4  C3  UNL d   1      -1.405  -2.151   0.510  0.00  0.00     0.006 A 
ATOM      5  C4  UNL d   1      -1.272  -0.776   0.708  0.00  0.00    -0.005 A 
ATOM      6  C5  UNL d   1      -0.354  -0.040  -0.048  0.00  0.00    -0.074 A 
ATOM      7  C6  UNL d   1      -0.192   1.436   0.159  0.00  0.00     0.077 C 
ATOM      8  C7  UNL d   1       0.433  -0.703  -1.000  0.00  0.00    -0.001 A 
ENDROOT
TORSDOF 0
ENDMDL
