MODEL 1
REMARK minimizedAffinity -3.91456342
REMARK minimizedRMSD -1
REMARK  0 active torsions:
REMARK  status: ('A' for Active; 'I' for Inactive)
ROOT
ATOM      1  C   UNL d   1      -0.029  -3.513  -0.022  0.00  0.00     0.077 C 
ATOM      2  C1  UNL d   1      -0.212  -2.029   0.093  0.00  0.00    -0.074 A 
ATOM      3  C2  UNL d   1      -0.436  -1.426   1.335  0.00  0.00    -0.005 A 
ATOM      4  C3  UNL d   1      -0.595  -0.043   1.427  0.00  0.00     0.006 A 
ATOM      5  C4  UNL d   1      -0.531   0.749   0.280  0.00  0.00    -0.005 A 
ATOM      6  C5  UNL d   1      -0.307   0.164  -0.970  0.00  0.00    -0.074 A 
ATOM      7  C6  UNL d   1      -0.226   1.002  -2.212  0.00  0.00     0.077 C 
ATOM      8  C7  UNL d   1      -0.142  -1.226  -1.054  0.00  0.00    -0.001 A 
ENDROOT
TORSDOF 0
ENDMDL
