MODEL 1
REMARK minimizedAffinity -4.2062583
REMARK minimizedRMSD -1
REMARK  0 active torsions:
REMARK  status: ('A' for Active; 'I' for Inactive)
ROOT
ATOM      1  C   UNL d   1      -1.675  -0.084   1.838  0.00  0.00     0.077 C 
ATOM      2  C1  UNL d   1      -0.821  -0.801   0.835  0.00  0.00    -0.074 A 
ATOM      3  C2  UNL d   1      -0.281  -2.059   1.119  0.00  0.00    -0.005 A 
ATOM      4  C3  UNL d   1       0.504  -2.718   0.173  0.00  0.00     0.006 A 
ATOM      5  C4  UNL d   1       0.756  -2.127  -1.065  0.00  0.00    -0.005 A 
ATOM      6  C5  UNL d   1       0.224  -0.869  -1.368  0.00  0.00    -0.074 A 
ATOM      7  C6  UNL d   1       0.477  -0.223  -2.698  0.00  0.00     0.077 C 
ATOM      8  C7  UNL d   1      -0.569  -0.216  -0.414  0.00  0.00    -0.001 A 
ENDROOT
TORSDOF 0
ENDMDL
