MODEL 1
REMARK minimizedAffinity -4.10366964
REMARK minimizedRMSD -1
REMARK  0 active torsions:
REMARK  status: ('A' for Active; 'I' for Inactive)
ROOT
ATOM      1  C   UNL d   1       0.454  -3.478   0.954  0.00  0.00     0.077 C 
ATOM      2  C1  UNL d   1       0.131  -2.082   0.511  0.00  0.00    -0.074 A 
ATOM      3  C2  UNL d   1       0.328  -1.686  -0.816  0.00  0.00    -0.005 A 
ATOM      4  C3  UNL d   1       0.014  -0.387  -1.215  0.00  0.00     0.006 A 
ATOM      5  C4  UNL d   1      -0.498   0.527  -0.294  0.00  0.00    -0.005 A 
ATOM      6  C5  UNL d   1      -0.702   0.149   1.037  0.00  0.00    -0.074 A 
ATOM      7  C6  UNL d   1      -1.261   1.116   2.038  0.00  0.00     0.077 C 
ATOM      8  C7  UNL d   1      -0.391  -1.160   1.429  0.00  0.00    -0.001 A 
ENDROOT
TORSDOF 0
ENDMDL
