MODEL 1
REMARK minimizedAffinity -1.28613961
REMARK minimizedRMSD -1
REMARK  0 active torsions:
REMARK  status: ('A' for Active; 'I' for Inactive)
ROOT
ATOM      1  C   UNL d   1       0.314  -0.249  -3.038  0.00  0.00     0.077 C 
ATOM      2  C1  UNL d   1      -0.101  -0.280  -1.597  0.00  0.00    -0.074 A 
ATOM      3  C2  UNL d   1       0.154   0.805  -0.752  0.00  0.00    -0.005 A 
ATOM      4  C3  UNL d   1      -0.247   0.766   0.584  0.00  0.00     0.006 A 
ATOM      5  C4  UNL d   1      -0.905  -0.357   1.087  0.00  0.00    -0.005 A 
ATOM      6  C5  UNL d   1      -1.168  -1.451   0.257  0.00  0.00    -0.074 A 
ATOM      7  C6  UNL d   1      -1.883  -2.662   0.779  0.00  0.00     0.077 C 
ATOM      8  C7  UNL d   1      -0.769  -1.401  -1.086  0.00  0.00    -0.001 A 
ENDROOT
TORSDOF 0
ENDMDL
