MODEL 1
REMARK minimizedAffinity -4.69221067
REMARK minimizedRMSD -1
REMARK  0 active torsions:
REMARK  status: ('A' for Active; 'I' for Inactive)
ROOT
ATOM      1  C   UNL d   1       0.070  -3.322   0.167  0.00  0.00     0.077 C 
ATOM      2  C1  UNL d   1      -0.085  -1.866   0.492  0.00  0.00    -0.074 A 
ATOM      3  C2  UNL d   1      -1.057  -1.431   1.398  0.00  0.00    -0.005 A 
ATOM      4  C3  UNL d   1      -1.184  -0.075   1.697  0.00  0.00     0.006 A 
ATOM      5  C4  UNL d   1      -0.340   0.859   1.094  0.00  0.00    -0.005 A 
ATOM      6  C5  UNL d   1       0.638   0.443   0.186  0.00  0.00    -0.074 A 
ATOM      7  C6  UNL d   1       1.559   1.433  -0.464  0.00  0.00     0.077 C 
ATOM      8  C7  UNL d   1       0.763  -0.922  -0.104  0.00  0.00    -0.001 A 
ENDROOT
TORSDOF 0
ENDMDL
