MODEL 1
REMARK minimizedAffinity -3.76722479
REMARK minimizedRMSD -1
REMARK  0 active torsions:
REMARK  status: ('A' for Active; 'I' for Inactive)
ROOT
ATOM      1  C   UNL d   1       0.147   0.051  -3.175  0.00  0.00     0.077 C 
ATOM      2  C1  UNL d   1      -0.085  -0.294  -1.734  0.00  0.00    -0.074 A 
ATOM      3  C2  UNL d   1      -0.601   0.653  -0.842  0.00  0.00    -0.005 A 
ATOM      4  C3  UNL d   1      -0.821   0.315   0.493  0.00  0.00     0.006 A 
ATOM      5  C4  UNL d   1      -0.527  -0.971   0.950  0.00  0.00    -0.005 A 
ATOM      6  C5  UNL d   1      -0.011  -1.930   0.073  0.00  0.00    -0.074 A 
ATOM      7  C6  UNL d   1       0.301  -3.319   0.545  0.00  0.00     0.077 C 
ATOM      8  C7  UNL d   1       0.200  -1.585  -1.269  0.00  0.00    -0.001 A 
ENDROOT
TORSDOF 0
ENDMDL
