MODEL 1
REMARK minimizedAffinity -3.32487321
REMARK minimizedRMSD -1
REMARK  0 active torsions:
REMARK  status: ('A' for Active; 'I' for Inactive)
ROOT
ATOM      1  C   UNL d   1       0.435   4.613   2.061  0.00  0.00     0.077 C 
ATOM      2  C1  UNL d   1       0.809   3.435   1.211  0.00  0.00    -0.074 A 
ATOM      3  C2  UNL d   1       2.051   3.378   0.570  0.00  0.00    -0.005 A 
ATOM      4  C3  UNL d   1       2.389   2.272  -0.210  0.00  0.00     0.006 A 
ATOM      5  C4  UNL d   1       1.491   1.214  -0.356  0.00  0.00    -0.005 A 
ATOM      6  C5  UNL d   1       0.246   1.253   0.279  0.00  0.00    -0.074 A 
ATOM      7  C6  UNL d   1      -0.727   0.120   0.140  0.00  0.00     0.077 C 
ATOM      8  C7  UNL d   1      -0.084   2.365   1.066  0.00  0.00    -0.001 A 
ENDROOT
TORSDOF 0
ENDMDL
