MODEL 1
REMARK minimizedAffinity -4.20736456
REMARK minimizedRMSD -1
REMARK  0 active torsions:
REMARK  status: ('A' for Active; 'I' for Inactive)
ROOT
ATOM      1  C   UNL d   1      -2.346  -2.488   1.574  0.00  0.00     0.077 C 
ATOM      2  C1  UNL d   1      -1.150  -1.905   0.880  0.00  0.00    -0.074 A 
ATOM      3  C2  UNL d   1      -0.174  -2.732   0.316  0.00  0.00    -0.005 A 
ATOM      4  C3  UNL d   1       0.928  -2.176  -0.334  0.00  0.00     0.006 A 
ATOM      5  C4  UNL d   1       1.064  -0.790  -0.427  0.00  0.00    -0.005 A 
ATOM      6  C5  UNL d   1       0.097   0.052   0.131  0.00  0.00    -0.074 A 
ATOM      7  C6  UNL d   1       0.222   1.544   0.032  0.00  0.00     0.077 C 
ATOM      8  C7  UNL d   1      -1.011  -0.514   0.777  0.00  0.00    -0.001 A 
ENDROOT
TORSDOF 0
ENDMDL
