MODEL 1
REMARK minimizedAffinity -6.1602354
REMARK minimizedRMSD -1
REMARK  0 active torsions:
REMARK  status: ('A' for Active; 'I' for Inactive)
ROOT
ATOM      1  C   UNL d   1       0.010   1.741  -0.575  0.00  0.00     0.077 C 
ATOM      2  C1  UNL d   1       0.117   0.294  -0.956  0.00  0.00    -0.074 A 
ATOM      3  C2  UNL d   1       0.367  -0.085  -2.279  0.00  0.00    -0.005 A 
ATOM      4  C3  UNL d   1       0.473  -1.434  -2.616  0.00  0.00     0.006 A 
ATOM      5  C4  UNL d   1       0.330  -2.417  -1.636  0.00  0.00    -0.005 A 
ATOM      6  C5  UNL d   1       0.080  -2.057  -0.308  0.00  0.00    -0.074 A 
ATOM      7  C6  UNL d   1      -0.067  -3.100   0.760  0.00  0.00     0.077 C 
ATOM      8  C7  UNL d   1      -0.018  -0.699   0.025  0.00  0.00    -0.001 A 
ENDROOT
TORSDOF 0
ENDMDL
