MODEL 1
REMARK minimizedAffinity -3.35823393
REMARK minimizedRMSD -1
REMARK  0 active torsions:
REMARK  status: ('A' for Active; 'I' for Inactive)
ROOT
ATOM      1  C   UNL d   1      -2.239  -2.679   0.779  0.00  0.00     0.077 C 
ATOM      2  C1  UNL d   1      -0.877  -2.403   0.215  0.00  0.00    -0.074 A 
ATOM      3  C2  UNL d   1       0.223  -3.188   0.574  0.00  0.00    -0.005 A 
ATOM      4  C3  UNL d   1       1.482  -2.925   0.034  0.00  0.00     0.006 A 
ATOM      5  C4  UNL d   1       1.653  -1.876  -0.870  0.00  0.00    -0.005 A 
ATOM      6  C5  UNL d   1       0.564  -1.081  -1.242  0.00  0.00    -0.074 A 
ATOM      7  C6  UNL d   1       0.729   0.044  -2.220  0.00  0.00     0.077 C 
ATOM      8  C7  UNL d   1      -0.699  -1.356  -0.700  0.00  0.00    -0.001 A 
ENDROOT
TORSDOF 0
ENDMDL
