MODEL 1
REMARK minimizedAffinity -3.61465573
REMARK minimizedRMSD -1
REMARK  0 active torsions:
REMARK  status: ('A' for Active; 'I' for Inactive)
ROOT
ATOM      1  C   UNL d   1       0.084  -1.898  -3.404  0.00  0.00     0.077 C 
ATOM      2  C1  UNL d   1      -0.121  -1.990  -1.921  0.00  0.00    -0.074 A 
ATOM      3  C2  UNL d   1      -0.610  -3.161  -1.334  0.00  0.00    -0.005 A 
ATOM      4  C3  UNL d   1      -0.787  -3.235   0.047  0.00  0.00     0.006 A 
ATOM      5  C4  UNL d   1      -0.477  -2.140   0.855  0.00  0.00    -0.005 A 
ATOM      6  C5  UNL d   1       0.014  -0.960   0.285  0.00  0.00    -0.074 A 
ATOM      7  C6  UNL d   1       0.361   0.223   1.140  0.00  0.00     0.077 C 
ATOM      8  C7  UNL d   1       0.195  -0.897  -1.103  0.00  0.00    -0.001 A 
ENDROOT
TORSDOF 0
ENDMDL
