MODEL 1
REMARK minimizedAffinity -0.439047009
REMARK minimizedRMSD -1
REMARK  0 active torsions:
REMARK  status: ('A' for Active; 'I' for Inactive)
ROOT
ATOM      1  C   UNL d   1       4.683   3.918   2.887  0.00  0.00     0.023 A 
ATOM      2  C1  UNL d   1       5.620   3.894   3.920  0.00  0.00     0.003 A 
ATOM      3  C2  UNL d   1       5.999   2.679   4.493  0.00  0.00     0.048 A 
ATOM      4  C3  UNL d   1       5.436   1.490   4.028  0.00  0.00     0.023 A 
ATOM      5  C4  UNL d   1       4.499   1.509   2.995  0.00  0.00     0.048 A 
ATOM      6  C5  UNL d   1       4.123   2.727   2.425  0.00  0.00     0.003 A 
ATOM      7  I   UNL d   1       5.998  -0.320   4.880  0.00  0.00    -0.146 I 
ENDROOT
TORSDOF 0
ENDMDL
