MODEL 1
REMARK minimizedAffinity -2.55339336
REMARK minimizedRMSD -1
REMARK  0 active torsions:
REMARK  status: ('A' for Active; 'I' for Inactive)
ROOT
ATOM      1  C   UNL d   1       5.799   0.726   5.004  0.00  0.00     0.023 A 
ATOM      2  C1  UNL d   1       5.715   0.650   3.613  0.00  0.00     0.003 A 
ATOM      3  C2  UNL d   1       5.772   1.814   2.844  0.00  0.00     0.048 A 
ATOM      4  C3  UNL d   1       5.914   3.051   3.472  0.00  0.00     0.023 A 
ATOM      5  C4  UNL d   1       6.000   3.132   4.863  0.00  0.00     0.048 A 
ATOM      6  C5  UNL d   1       5.941   1.965   5.628  0.00  0.00     0.003 A 
ATOM      7  I   UNL d   1       6.000   4.785   2.330  0.00  0.00    -0.146 I 
ENDROOT
TORSDOF 0
ENDMDL
