MODEL 1
REMARK minimizedAffinity -0.320515364
REMARK minimizedRMSD -1
REMARK  0 active torsions:
REMARK  status: ('A' for Active; 'I' for Inactive)
ROOT
ATOM      1  C   UNL d   1       5.763  -0.416   4.480  0.00  0.00     0.023 A 
ATOM      2  C1  UNL d   1       5.661   0.540   5.490  0.00  0.00     0.003 A 
ATOM      3  C2  UNL d   1       5.729   1.899   5.177  0.00  0.00     0.048 A 
ATOM      4  C3  UNL d   1       5.898   2.295   3.850  0.00  0.00     0.023 A 
ATOM      5  C4  UNL d   1       6.000   1.342   2.836  0.00  0.00     0.048 A 
ATOM      6  C5  UNL d   1       5.932  -0.016   3.154  0.00  0.00     0.003 A 
ATOM      7  I   UNL d   1       6.000   4.317   3.381  0.00  0.00    -0.146 I 
ENDROOT
TORSDOF 0
ENDMDL
