MODEL 1
REMARK minimizedAffinity 2.05796456
REMARK minimizedRMSD -1
REMARK  0 active torsions:
REMARK  status: ('A' for Active; 'I' for Inactive)
ROOT
ATOM      1  C   UNL d   1       5.992  -0.272   2.986  0.00  0.00     0.023 A 
ATOM      2  C1  UNL d   1       5.992   0.134   4.320  0.00  0.00     0.003 A 
ATOM      3  C2  UNL d   1       5.990   1.494   4.638  0.00  0.00     0.048 A 
ATOM      4  C3  UNL d   1       5.986   2.443   3.615  0.00  0.00     0.023 A 
ATOM      5  C4  UNL d   1       5.985   2.041   2.279  0.00  0.00     0.048 A 
ATOM      6  C5  UNL d   1       5.988   0.680   1.966  0.00  0.00     0.003 A 
ATOM      7  I   UNL d   1       5.983   4.467   4.085  0.00  0.00    -0.146 I 
ENDROOT
TORSDOF 0
ENDMDL
