MODEL 1
REMARK minimizedAffinity 7.16266632
REMARK minimizedRMSD -1
REMARK  0 active torsions:
REMARK  status: ('A' for Active; 'I' for Inactive)
ROOT
ATOM      1  C   UNL d   1       5.494   3.609   1.381  0.00  0.00     0.023 A 
ATOM      2  C1  UNL d   1       5.854   2.859   2.501  0.00  0.00     0.003 A 
ATOM      3  C2  UNL d   1       5.993   3.480   3.744  0.00  0.00     0.048 A 
ATOM      4  C3  UNL d   1       5.770   4.852   3.860  0.00  0.00     0.023 A 
ATOM      5  C4  UNL d   1       5.409   5.606   2.743  0.00  0.00     0.048 A 
ATOM      6  C5  UNL d   1       5.272   4.981   1.502  0.00  0.00     0.003 A 
ATOM      7  I   UNL d   1       5.976   5.778   5.709  0.00  0.00    -0.146 I 
ENDROOT
TORSDOF 0
ENDMDL
