MODEL 1
REMARK minimizedAffinity -2.08746886
REMARK minimizedRMSD -1
REMARK  0 active torsions:
REMARK  status: ('A' for Active; 'I' for Inactive)
ROOT
ATOM      1  C   UNL d   1       5.978  -0.449   4.651  0.00  0.00     0.023 A 
ATOM      2  C1  UNL d   1       5.967   0.617   5.551  0.00  0.00     0.003 A 
ATOM      3  C2  UNL d   1       5.974   1.931   5.080  0.00  0.00     0.048 A 
ATOM      4  C3  UNL d   1       5.990   2.173   3.706  0.00  0.00     0.023 A 
ATOM      5  C4  UNL d   1       6.000   1.110   2.802  0.00  0.00     0.048 A 
ATOM      6  C5  UNL d   1       5.994  -0.203   3.278  0.00  0.00     0.003 A 
ATOM      7  I   UNL d   1       6.000   4.128   3.002  0.00  0.00    -0.146 I 
ENDROOT
TORSDOF 0
ENDMDL
