MODEL 1
REMARK minimizedAffinity -0.804576397
REMARK minimizedRMSD -1
REMARK  0 active torsions:
REMARK  status: ('A' for Active; 'I' for Inactive)
ROOT
ATOM      1  C   UNL d   1       5.923  -0.006   4.873  0.00  0.00     0.023 A 
ATOM      2  C1  UNL d   1       5.910   0.165   3.489  0.00  0.00     0.003 A 
ATOM      3  C2  UNL d   1       5.932   1.449   2.942  0.00  0.00     0.048 A 
ATOM      4  C3  UNL d   1       5.967   2.559   3.785  0.00  0.00     0.023 A 
ATOM      5  C4  UNL d   1       5.981   2.393   5.171  0.00  0.00     0.048 A 
ATOM      6  C5  UNL d   1       5.959   1.107   5.713  0.00  0.00     0.003 A 
ATOM      7  I   UNL d   1       6.000   4.472   2.974  0.00  0.00    -0.146 I 
ENDROOT
TORSDOF 0
ENDMDL
