MODEL 1
REMARK minimizedAffinity 0.0118612368
REMARK minimizedRMSD -1
REMARK  0 active torsions:
REMARK  status: ('A' for Active; 'I' for Inactive)
ROOT
ATOM      1  C   UNL d   1       5.989   5.676   4.652  0.00  0.00     0.023 A 
ATOM      2  C1  UNL d   1       5.992   4.716   5.663  0.00  0.00     0.003 A 
ATOM      3  C2  UNL d   1       5.993   3.358   5.339  0.00  0.00     0.048 A 
ATOM      4  C3  UNL d   1       5.991   2.967   4.000  0.00  0.00     0.023 A 
ATOM      5  C4  UNL d   1       5.988   3.924   2.985  0.00  0.00     0.048 A 
ATOM      6  C5  UNL d   1       5.987   5.281   3.314  0.00  0.00     0.003 A 
ATOM      7  I   UNL d   1       5.992   0.946   3.515  0.00  0.00    -0.146 I 
ENDROOT
TORSDOF 0
ENDMDL
