MODEL 1
REMARK minimizedAffinity 1.25242221
REMARK minimizedRMSD -1
REMARK  1 active torsions:
REMARK  status: ('A' for Active; 'I' for Inactive)
REMARK    1  A    between atoms: N_2  and  C1_3 
ROOT
ATOM      1  C1  UNL d   1      -1.092  -0.288  -4.403  0.00  0.00     0.143 A 
ATOM      2  C2  UNL d   1      -0.516  -1.488  -4.833  0.00  0.00    -0.057 A 
ATOM      3  C3  UNL d   1      -0.116  -2.470  -3.918  0.00  0.00     0.033 A 
ATOM      4  C4  UNL d   1      -0.258  -2.255  -2.551  0.00  0.00    -0.042 A 
ATOM      5  C5  UNL d   1      -0.805  -1.059  -2.100  0.00  0.00     0.033 A 
ATOM      6  C6  UNL d   1      -1.209  -0.086  -3.019  0.00  0.00    -0.057 A 
ENDROOT
BRANCH   1   7
ATOM      7  N   UNL d   1      -1.419   0.768  -5.257  0.00  0.00    -0.732 N 
ATOM      8  C   UNL d   1      -0.389   1.463  -5.998  0.00  0.00     0.284 C 
ATOM      9  H3  UNL d   1      -2.265   0.586  -5.792  0.00  0.00     0.395 HD
ENDBRANCH   1   7
TORSDOF 1
ENDMDL
