MODEL 1
REMARK minimizedAffinity 0.499234289
REMARK minimizedRMSD -1
REMARK  1 active torsions:
REMARK  status: ('A' for Active; 'I' for Inactive)
REMARK    1  A    between atoms: N_2  and  C1_3 
ROOT
ATOM      1  C1  UNL d   1      -3.555   0.736   1.609  0.00  0.00     0.143 A 
ATOM      2  C2  UNL d   1      -3.116  -0.319   0.801  0.00  0.00    -0.057 A 
ATOM      3  C3  UNL d   1      -1.889  -0.951   1.035  0.00  0.00     0.033 A 
ATOM      4  C4  UNL d   1      -1.063  -0.520   2.067  0.00  0.00    -0.042 A 
ATOM      5  C5  UNL d   1      -1.467   0.543   2.867  0.00  0.00     0.033 A 
ATOM      6  C6  UNL d   1      -2.696   1.166   2.633  0.00  0.00    -0.057 A 
ENDROOT
BRANCH   1   7
ATOM      7  N   UNL d   1      -4.718   1.469   1.367  0.00  0.00    -0.732 N 
ATOM      8  C   UNL d   1      -5.637   1.070   0.322  0.00  0.00     0.284 C 
ATOM      9  H3  UNL d   1      -5.172   1.773   2.225  0.00  0.00     0.395 HD
ENDBRANCH   1   7
TORSDOF 1
ENDMDL
