MODEL 1
REMARK minimizedAffinity 6.26874685
REMARK minimizedRMSD -1
REMARK  1 active torsions:
REMARK  status: ('A' for Active; 'I' for Inactive)
REMARK    1  A    between atoms: N_2  and  C1_3 
ROOT
ATOM      1  C1  UNL d   1      -0.879  -0.414   2.647  0.00  0.00     0.143 A 
ATOM      2  C2  UNL d   1      -0.313  -1.688   2.528  0.00  0.00    -0.057 A 
ATOM      3  C3  UNL d   1       0.905  -2.002   3.142  0.00  0.00     0.033 A 
ATOM      4  C4  UNL d   1       1.597  -1.035   3.864  0.00  0.00    -0.042 A 
ATOM      5  C5  UNL d   1       1.066   0.245   3.975  0.00  0.00     0.033 A 
ATOM      6  C6  UNL d   1      -0.155   0.550   3.365  0.00  0.00    -0.057 A 
ENDROOT
BRANCH   1   7
ATOM      7  N   UNL d   1      -2.038  -0.012   1.979  0.00  0.00    -0.732 N 
ATOM      8  C   UNL d   1      -2.877   1.033   2.524  0.00  0.00     0.284 C 
ATOM      9  H3  UNL d   1      -1.907   0.042   0.972  0.00  0.00     0.395 HD
ENDBRANCH   1   7
TORSDOF 1
ENDMDL
