MODEL 1
REMARK minimizedAffinity 0.00681367703
REMARK minimizedRMSD -1
REMARK  1 active torsions:
REMARK  status: ('A' for Active; 'I' for Inactive)
REMARK    1  A    between atoms: N_2  and  C1_3 
ROOT
ATOM      1  C1  UNL d   1      -0.320  -1.309  -3.591  0.00  0.00     0.143 A 
ATOM      2  C2  UNL d   1      -0.733   0.026  -3.510  0.00  0.00    -0.057 A 
ATOM      3  C3  UNL d   1      -1.164   0.723  -4.646  0.00  0.00     0.033 A 
ATOM      4  C4  UNL d   1      -1.161   0.104  -5.892  0.00  0.00    -0.042 A 
ATOM      5  C5  UNL d   1      -0.731  -1.214  -6.000  0.00  0.00     0.033 A 
ATOM      6  C6  UNL d   1      -0.309  -1.907  -4.861  0.00  0.00    -0.057 A 
ENDROOT
BRANCH   1   7
ATOM      7  N   UNL d   1       0.212  -2.025  -2.516  0.00  0.00    -0.732 N 
ATOM      8  C   UNL d   1      -0.658  -2.623  -1.526  0.00  0.00     0.284 C 
ATOM      9  H3  UNL d   1       0.995  -2.613  -2.791  0.00  0.00     0.395 HD
ENDBRANCH   1   7
TORSDOF 1
ENDMDL
