MODEL 1
REMARK minimizedAffinity 11.7859268
REMARK minimizedRMSD -1
REMARK  0 active torsions:
REMARK  status: ('A' for Active; 'I' for Inactive)
ROOT
ATOM      1  O1  BZF d   1       0.843   0.784   0.192  0.00  0.00    -0.204 OA
ATOM      2  C2  BZF d   1       2.145   0.905  -0.254  0.00  0.00     0.174 A 
ATOM      3  C3  BZF d   1       2.858   1.709   0.561  0.00  0.00    -0.012 A 
ATOM      4  C3A BZF d   1       1.969   2.043   1.631  0.00  0.00    -0.107 A 
ATOM      5  C4  BZF d   1       2.102   2.800   2.760  0.00  0.00     0.055 A 
ATOM      6  C5  BZF d   1       1.020   2.985   3.562  0.00  0.00    -0.016 A 
ATOM      7  C6  BZF d   1      -0.208   2.433   3.263  0.00  0.00     0.022 A 
ATOM      8  C7  BZF d   1      -0.387   1.670   2.157  0.00  0.00     0.029 A 
ATOM      9  C7A BZF d   1       0.712   1.454   1.362  0.00  0.00     0.058 A 
ENDROOT
TORSDOF 0
ENDMDL
