MODEL 1
REMARK minimizedAffinity -2.20506215
REMARK minimizedRMSD -1
REMARK  0 active torsions:
REMARK  status: ('A' for Active; 'I' for Inactive)
ROOT
ATOM      1  O1  BZF d   1       2.833   1.973  -0.354  0.00  0.00    -0.204 OA
ATOM      2  C2  BZF d   1       4.175   1.697  -0.535  0.00  0.00     0.174 A 
ATOM      3  C3  BZF d   1       4.389   0.366  -0.579  0.00  0.00    -0.012 A 
ATOM      4  C3A BZF d   1       3.088  -0.226  -0.508  0.00  0.00    -0.107 A 
ATOM      5  C4  BZF d   1       2.642  -1.517  -0.523  0.00  0.00     0.055 A 
ATOM      6  C5  BZF d   1       1.315  -1.759  -0.362  0.00  0.00    -0.016 A 
ATOM      7  C6  BZF d   1       0.407  -0.736  -0.179  0.00  0.00     0.022 A 
ATOM      8  C7  BZF d   1       0.801   0.561  -0.162  0.00  0.00     0.029 A 
ATOM      9  C7A BZF d   1       2.138   0.810  -0.357  0.00  0.00     0.058 A 
ENDROOT
TORSDOF 0
ENDMDL
