MODEL 1
REMARK minimizedAffinity 0.524552524
REMARK minimizedRMSD -1
REMARK  0 active torsions:
REMARK  status: ('A' for Active; 'I' for Inactive)
ROOT
ATOM      1  O1  BZF d   1       3.103   2.668   0.028  0.00  0.00    -0.204 OA
ATOM      2  C2  BZF d   1       4.316   2.451  -0.595  0.00  0.00     0.174 A 
ATOM      3  C3  BZF d   1       4.441   1.159  -0.962  0.00  0.00    -0.012 A 
ATOM      4  C3A BZF d   1       3.191   0.549  -0.624  0.00  0.00    -0.107 A 
ATOM      5  C4  BZF d   1       2.697  -0.717  -0.759  0.00  0.00     0.055 A 
ATOM      6  C5  BZF d   1       1.466  -1.002  -0.261  0.00  0.00    -0.016 A 
ATOM      7  C6  BZF d   1       0.704  -0.048   0.382  0.00  0.00     0.022 A 
ATOM      8  C7  BZF d   1       1.150   1.223   0.536  0.00  0.00     0.029 A 
ATOM      9  C7A BZF d   1       2.380   1.522   0.004  0.00  0.00     0.058 A 
ENDROOT
TORSDOF 0
ENDMDL
