MODEL 1
REMARK minimizedAffinity 4.74057722
REMARK minimizedRMSD -1
REMARK  0 active torsions:
REMARK  status: ('A' for Active; 'I' for Inactive)
ROOT
ATOM      1  O1  BZF d   1       4.798  -0.189  -3.138  0.00  0.00    -0.204 OA
ATOM      2  C2  BZF d   1       5.004   0.826  -2.223  0.00  0.00     0.174 A 
ATOM      3  C3  BZF d   1       4.173   0.696  -1.169  0.00  0.00    -0.012 A 
ATOM      4  C3A BZF d   1       3.464  -0.525  -1.398  0.00  0.00    -0.107 A 
ATOM      5  C4  BZF d   1       2.509  -1.203  -0.694  0.00  0.00     0.055 A 
ATOM      6  C5  BZF d   1       1.970  -2.330  -1.229  0.00  0.00    -0.016 A 
ATOM      7  C6  BZF d   1       2.357  -2.804  -2.465  0.00  0.00     0.022 A 
ATOM      8  C7  BZF d   1       3.303  -2.169  -3.198  0.00  0.00     0.029 A 
ATOM      9  C7A BZF d   1       3.874  -1.048  -2.646  0.00  0.00     0.058 A 
ENDROOT
TORSDOF 0
ENDMDL
