MODEL 1
REMARK minimizedAffinity 3.210922
REMARK minimizedRMSD -1
REMARK  0 active torsions:
REMARK  status: ('A' for Active; 'I' for Inactive)
ROOT
ATOM      1  O1  BZF d   1       3.508   0.690  -0.315  0.00  0.00    -0.204 OA
ATOM      2  C2  BZF d   1       2.984   1.931  -0.011  0.00  0.00     0.174 A 
ATOM      3  C3  BZF d   1       1.637   1.882   0.048  0.00  0.00    -0.012 A 
ATOM      4  C3A BZF d   1       1.303   0.504  -0.147  0.00  0.00    -0.107 A 
ATOM      5  C4  BZF d   1       0.122  -0.180  -0.178  0.00  0.00     0.055 A 
ATOM      6  C5  BZF d   1       0.135  -1.509  -0.463  0.00  0.00    -0.016 A 
ATOM      7  C6  BZF d   1       1.310  -2.183  -0.725  0.00  0.00     0.022 A 
ATOM      8  C7  BZF d   1       2.507  -1.549  -0.700  0.00  0.00     0.029 A 
ATOM      9  C7A BZF d   1       2.500  -0.213  -0.381  0.00  0.00     0.058 A 
ENDROOT
TORSDOF 0
ENDMDL
