MODEL 1
REMARK minimizedAffinity 1.56424367
REMARK minimizedRMSD -1
REMARK  0 active torsions:
REMARK  status: ('A' for Active; 'I' for Inactive)
ROOT
ATOM      1  O1  BZF d   1       1.846  -0.047  -0.653  0.00  0.00    -0.204 OA
ATOM      2  C2  BZF d   1       0.923   0.676   0.078  0.00  0.00     0.174 A 
ATOM      3  C3  BZF d   1       1.427   1.875   0.433  0.00  0.00    -0.012 A 
ATOM      4  C3A BZF d   1       2.714   1.941  -0.188  0.00  0.00    -0.107 A 
ATOM      5  C4  BZF d   1       3.694   2.892  -0.220  0.00  0.00     0.055 A 
ATOM      6  C5  BZF d   1       4.862   2.616  -0.857  0.00  0.00    -0.016 A 
ATOM      7  C6  BZF d   1       5.086   1.400  -1.468  0.00  0.00     0.022 A 
ATOM      8  C7  BZF d   1       4.142   0.427  -1.467  0.00  0.00     0.029 A 
ATOM      9  C7A BZF d   1       2.948   0.715  -0.853  0.00  0.00     0.058 A 
ENDROOT
TORSDOF 0
ENDMDL
