MODEL 1
REMARK minimizedAffinity -0.87823534
REMARK minimizedRMSD -1
REMARK  0 active torsions:
REMARK  status: ('A' for Active; 'I' for Inactive)
ROOT
ATOM      1  O1  BZF d   1       2.585   1.956  -0.406  0.00  0.00    -0.204 OA
ATOM      2  C2  BZF d   1       3.915   1.705  -0.683  0.00  0.00     0.174 A 
ATOM      3  C3  BZF d   1       4.141   0.379  -0.782  0.00  0.00    -0.012 A 
ATOM      4  C3A BZF d   1       2.855  -0.233  -0.645  0.00  0.00    -0.107 A 
ATOM      5  C4  BZF d   1       2.424  -1.529  -0.672  0.00  0.00     0.055 A 
ATOM      6  C5  BZF d   1       1.113  -1.794  -0.433  0.00  0.00    -0.016 A 
ATOM      7  C6  BZF d   1       0.207  -0.789  -0.160  0.00  0.00     0.022 A 
ATOM      8  C7  BZF d   1       0.586   0.511  -0.127  0.00  0.00     0.029 A 
ATOM      9  C7A BZF d   1       1.904   0.785  -0.401  0.00  0.00     0.058 A 
ENDROOT
TORSDOF 0
ENDMDL
