MODEL 1
REMARK minimizedAffinity 2.78618407
REMARK minimizedRMSD -1
REMARK  0 active torsions:
REMARK  status: ('A' for Active; 'I' for Inactive)
ROOT
ATOM      1  O1  BZF d   1      -0.425   0.644  -1.493  0.00  0.00    -0.204 OA
ATOM      2  C2  BZF d   1       0.721   1.248  -1.013  0.00  0.00     0.174 A 
ATOM      3  C3  BZF d   1       1.523   0.345  -0.412  0.00  0.00    -0.012 A 
ATOM      4  C3A BZF d   1       0.878  -0.918  -0.605  0.00  0.00    -0.107 A 
ATOM      5  C4  BZF d   1       1.195  -2.198  -0.251  0.00  0.00     0.055 A 
ATOM      6  C5  BZF d   1       0.315  -3.197  -0.526  0.00  0.00    -0.016 A 
ATOM      7  C6  BZF d   1      -0.890  -2.951  -1.150  0.00  0.00     0.022 A 
ATOM      8  C7  BZF d   1      -1.247  -1.698  -1.525  0.00  0.00     0.029 A 
ATOM      9  C7A BZF d   1      -0.345  -0.691  -1.278  0.00  0.00     0.058 A 
ENDROOT
TORSDOF 0
ENDMDL
