MODEL 1
REMARK minimizedAffinity 3.23837376
REMARK minimizedRMSD -1
REMARK  0 active torsions:
REMARK  status: ('A' for Active; 'I' for Inactive)
ROOT
ATOM      1  O1  BZF d   1      -0.118   1.781  -0.785  0.00  0.00    -0.204 OA
ATOM      2  C2  BZF d   1       0.572   2.059   0.379  0.00  0.00     0.174 A 
ATOM      3  C3  BZF d   1       0.958   0.921   0.990  0.00  0.00    -0.012 A 
ATOM      4  C3A BZF d   1       0.559  -0.133   0.109  0.00  0.00    -0.107 A 
ATOM      5  C4  BZF d   1       0.679  -1.493   0.156  0.00  0.00     0.055 A 
ATOM      6  C5  BZF d   1       0.118  -2.240  -0.831  0.00  0.00    -0.016 A 
ATOM      7  C6  BZF d   1      -0.575  -1.663  -1.875  0.00  0.00     0.022 A 
ATOM      8  C7  BZF d   1      -0.716  -0.318  -1.967  0.00  0.00     0.029 A 
ATOM      9  C7A BZF d   1      -0.122   0.442  -0.989  0.00  0.00     0.058 A 
ENDROOT
TORSDOF 0
ENDMDL
