MODEL 1
REMARK minimizedAffinity 9.67644787
REMARK minimizedRMSD -1
REMARK  0 active torsions:
REMARK  status: ('A' for Active; 'I' for Inactive)
ROOT
ATOM      1  O1  BZF d   1      -0.743  -0.254  -0.982  0.00  0.00    -0.204 OA
ATOM      2  C2  BZF d   1      -1.366  -1.447  -1.296  0.00  0.00     0.174 A 
ATOM      3  C3  BZF d   1      -0.457  -2.418  -1.519  0.00  0.00    -0.012 A 
ATOM      4  C3A BZF d   1       0.812  -1.816  -1.242  0.00  0.00    -0.107 A 
ATOM      5  C4  BZF d   1       2.096  -2.279  -1.268  0.00  0.00     0.055 A 
ATOM      6  C5  BZF d   1       3.115  -1.416  -1.014  0.00  0.00    -0.016 A 
ATOM      7  C6  BZF d   1       2.886  -0.084  -0.737  0.00  0.00     0.022 A 
ATOM      8  C7  BZF d   1       1.629   0.420  -0.695  0.00  0.00     0.029 A 
ATOM      9  C7A BZF d   1       0.595  -0.457  -0.918  0.00  0.00     0.058 A 
ENDROOT
TORSDOF 0
ENDMDL
