MODEL 1
REMARK minimizedAffinity 14.0767422
REMARK minimizedRMSD -1
REMARK  0 active torsions:
REMARK  status: ('A' for Active; 'I' for Inactive)
ROOT
ATOM      1  N1  IND d   1       0.731   4.279   1.145  0.00  0.00    -0.196 N 
ATOM      2  C2  IND d   1       1.828   4.471   0.352  0.00  0.00     0.054 A 
ATOM      3  C3  IND d   1       2.498   3.309   0.187  0.00  0.00    -0.031 A 
ATOM      4  C4  IND d   1       1.918   0.951   1.044  0.00  0.00     0.051 A 
ATOM      5  C5  IND d   1       1.032   0.282   1.840  0.00  0.00    -0.031 A 
ATOM      6  C6  IND d   1      -0.023   0.924   2.456  0.00  0.00     0.015 A 
ATOM      7  C7  IND d   1      -0.238   2.262   2.288  0.00  0.00    -0.016 A 
ATOM      8  C8  IND d   1       0.664   2.946   1.486  0.00  0.00    -0.047 A 
ATOM      9  C9  IND d   1       1.761   2.308   0.892  0.00  0.00    -0.096 A 
ATOM     10  HN1 IND d   1       0.176   4.889   1.390  0.00  0.00     0.298 HD
ENDROOT
TORSDOF 0
ENDMDL
