MODEL 1
REMARK minimizedAffinity 6.33492899
REMARK minimizedRMSD -1
REMARK  0 active torsions:
REMARK  status: ('A' for Active; 'I' for Inactive)
ROOT
ATOM      1  N1  IND d   1       2.794   0.135   0.079  0.00  0.00    -0.196 N 
ATOM      2  C2  IND d   1       3.862   0.790  -0.467  0.00  0.00     0.054 A 
ATOM      3  C3  IND d   1       3.795   2.111  -0.190  0.00  0.00    -0.031 A 
ATOM      4  C4  IND d   1       2.075   3.401   1.226  0.00  0.00     0.051 A 
ATOM      5  C5  IND d   1       0.897   3.239   1.900  0.00  0.00    -0.031 A 
ATOM      6  C6  IND d   1       0.280   2.010   2.006  0.00  0.00     0.015 A 
ATOM      7  C7  IND d   1       0.827   0.888   1.449  0.00  0.00    -0.016 A 
ATOM      8  C8  IND d   1       2.019   1.049   0.758  0.00  0.00    -0.047 A 
ATOM      9  C9  IND d   1       2.628   2.303   0.610  0.00  0.00    -0.096 A 
ATOM     10  HN1 IND d   1       2.632  -0.707   0.010  0.00  0.00     0.298 HD
ENDROOT
TORSDOF 0
ENDMDL
