MODEL 1
REMARK minimizedAffinity 8.57612133
REMARK minimizedRMSD -1
REMARK  0 active torsions:
REMARK  status: ('A' for Active; 'I' for Inactive)
ROOT
ATOM      1  N1  IND d   1       2.427   3.134   0.452  0.00  0.00    -0.196 N 
ATOM      2  C2  IND d   1       3.353   2.134   0.343  0.00  0.00     0.054 A 
ATOM      3  C3  IND d   1       2.948   1.040   1.026  0.00  0.00    -0.031 A 
ATOM      4  C4  IND d   1       0.754   0.635   2.311  0.00  0.00     0.051 A 
ATOM      5  C5  IND d   1      -0.387   1.266   2.721  0.00  0.00    -0.031 A 
ATOM      6  C6  IND d   1      -0.654   2.578   2.387  0.00  0.00     0.015 A 
ATOM      7  C7  IND d   1       0.208   3.307   1.618  0.00  0.00    -0.016 A 
ATOM      8  C8  IND d   1       1.370   2.671   1.205  0.00  0.00    -0.047 A 
ATOM      9  C9  IND d   1       1.667   1.354   1.576  0.00  0.00    -0.096 A 
ATOM     10  HN1 IND d   1       2.494   3.919   0.109  0.00  0.00     0.298 HD
ENDROOT
TORSDOF 0
ENDMDL
