MODEL 1
REMARK minimizedAffinity 6.06010675
REMARK minimizedRMSD -1
REMARK  0 active torsions:
REMARK  status: ('A' for Active; 'I' for Inactive)
ROOT
ATOM      1  N1  IND d   1      -1.651   0.374   2.054  0.00  0.00    -0.196 N 
ATOM      2  C2  IND d   1      -2.656   1.263   2.316  0.00  0.00     0.054 A 
ATOM      3  C3  IND d   1      -2.156   2.511   2.455  0.00  0.00    -0.031 A 
ATOM      4  C4  IND d   1       0.267   3.341   2.192  0.00  0.00     0.051 A 
ATOM      5  C5  IND d   1       1.542   2.894   1.990  0.00  0.00    -0.031 A 
ATOM      6  C6  IND d   1       1.824   1.557   1.792  0.00  0.00     0.015 A 
ATOM      7  C7  IND d   1       0.834   0.615   1.778  0.00  0.00    -0.016 A 
ATOM      8  C8  IND d   1      -0.461   1.065   1.989  0.00  0.00    -0.047 A 
ATOM      9  C9  IND d   1      -0.748   2.414   2.233  0.00  0.00    -0.096 A 
ATOM     10  HN1 IND d   1      -1.747  -0.474   1.947  0.00  0.00     0.298 HD
ENDROOT
TORSDOF 0
ENDMDL
