MODEL 1
REMARK minimizedAffinity 11.430089
REMARK minimizedRMSD -1
REMARK  0 active torsions:
REMARK  status: ('A' for Active; 'I' for Inactive)
ROOT
ATOM      1  N1  IND d   1       2.243  -0.507  -0.371  0.00  0.00    -0.196 N 
ATOM      2  C2  IND d   1       2.342   0.609   0.412  0.00  0.00     0.054 A 
ATOM      3  C3  IND d   1       1.879   1.692  -0.253  0.00  0.00    -0.031 A 
ATOM      4  C4  IND d   1       0.819   1.845  -2.594  0.00  0.00     0.051 A 
ATOM      5  C5  IND d   1       0.548   1.096  -3.704  0.00  0.00    -0.031 A 
ATOM      6  C6  IND d   1       0.830  -0.253  -3.761  0.00  0.00     0.015 A 
ATOM      7  C7  IND d   1       1.387  -0.909  -2.700  0.00  0.00    -0.016 A 
ATOM      8  C8  IND d   1       1.671  -0.150  -1.573  0.00  0.00    -0.047 A 
ATOM      9  C9  IND d   1       1.426   1.228  -1.526  0.00  0.00    -0.096 A 
ATOM     10  HN1 IND d   1       2.496  -1.299  -0.151  0.00  0.00     0.298 HD
ENDROOT
TORSDOF 0
ENDMDL
