MODEL 1
REMARK minimizedAffinity 10.7163372
REMARK minimizedRMSD -1
REMARK  0 active torsions:
REMARK  status: ('A' for Active; 'I' for Inactive)
ROOT
ATOM      1  N1  IND d   1       1.348  -1.194  -0.161  0.00  0.00    -0.196 N 
ATOM      2  C2  IND d   1       2.064  -0.615  -1.171  0.00  0.00     0.054 A 
ATOM      3  C3  IND d   1       2.297   0.688  -0.895  0.00  0.00    -0.031 A 
ATOM      4  C4  IND d   1       1.685   2.051   1.201  0.00  0.00     0.051 A 
ATOM      5  C5  IND d   1       0.997   1.964   2.379  0.00  0.00    -0.031 A 
ATOM      6  C6  IND d   1       0.381   0.796   2.780  0.00  0.00     0.015 A 
ATOM      7  C7  IND d   1       0.440  -0.337   2.019  0.00  0.00    -0.016 A 
ATOM      8  C8  IND d   1       1.131  -0.251   0.819  0.00  0.00    -0.047 A 
ATOM      9  C9  IND d   1       1.722   0.943   0.387  0.00  0.00    -0.096 A 
ATOM     10  HN1 IND d   1       1.079  -2.011  -0.142  0.00  0.00     0.298 HD
ENDROOT
TORSDOF 0
ENDMDL
