MODEL 1
REMARK minimizedAffinity 7.15966034
REMARK minimizedRMSD -1
REMARK  0 active torsions:
REMARK  status: ('A' for Active; 'I' for Inactive)
ROOT
ATOM      1  N1  IND d   1       0.536   0.848  -2.515  0.00  0.00    -0.196 N 
ATOM      2  C2  IND d   1      -0.051  -0.339  -2.856  0.00  0.00     0.054 A 
ATOM      3  C3  IND d   1      -0.050  -1.184  -1.800  0.00  0.00    -0.031 A 
ATOM      4  C4  IND d   1       0.770  -0.791   0.608  0.00  0.00     0.051 A 
ATOM      5  C5  IND d   1       1.416   0.125   1.391  0.00  0.00    -0.031 A 
ATOM      6  C6  IND d   1       1.806   1.355   0.902  0.00  0.00     0.015 A 
ATOM      7  C7  IND d   1       1.555   1.720  -0.390  0.00  0.00    -0.016 A 
ATOM      8  C8  IND d   1       0.906   0.790  -1.190  0.00  0.00    -0.047 A 
ATOM      9  C9  IND d   1       0.545  -0.477  -0.711  0.00  0.00    -0.096 A 
ATOM     10  HN1 IND d   1       0.654   1.518  -3.041  0.00  0.00     0.298 HD
ENDROOT
TORSDOF 0
ENDMDL
