MODEL 1
REMARK minimizedAffinity 1.56888044
REMARK minimizedRMSD -1
REMARK  0 active torsions:
REMARK  status: ('A' for Active; 'I' for Inactive)
ROOT
ATOM      1  N1  IND d   1       0.029  -1.116   1.593  0.00  0.00    -0.196 N 
ATOM      2  C2  IND d   1      -0.308  -2.212   0.849  0.00  0.00     0.054 A 
ATOM      3  C3  IND d   1       0.474  -2.292  -0.251  0.00  0.00    -0.031 A 
ATOM      4  C4  IND d   1       2.435  -0.790  -0.977  0.00  0.00     0.051 A 
ATOM      5  C5  IND d   1       3.094   0.358  -0.639  0.00  0.00    -0.031 A 
ATOM      6  C6  IND d   1       2.760   1.088   0.484  0.00  0.00     0.015 A 
ATOM      7  C7  IND d   1       1.758   0.687   1.321  0.00  0.00    -0.016 A 
ATOM      8  C8  IND d   1       1.081  -0.475   0.977  0.00  0.00    -0.047 A 
ATOM      9  C9  IND d   1       1.388  -1.196  -0.184  0.00  0.00    -0.096 A 
ATOM     10  HN1 IND d   1      -0.353  -0.868   2.322  0.00  0.00     0.298 HD
ENDROOT
TORSDOF 0
ENDMDL
