MODEL 1
REMARK minimizedAffinity 2.83145571
REMARK minimizedRMSD -1
REMARK  0 active torsions:
REMARK  status: ('A' for Active; 'I' for Inactive)
ROOT
ATOM      1  N1  IND d   1      -5.664  -3.816  -3.744  0.00  0.00    -0.196 N 
ATOM      2  C2  IND d   1      -6.000  -5.101  -4.069  0.00  0.00     0.054 A 
ATOM      3  C3  IND d   1      -5.092  -5.967  -3.565  0.00  0.00    -0.031 A 
ATOM      4  C4  IND d   1      -3.034  -5.503  -2.089  0.00  0.00     0.051 A 
ATOM      5  C5  IND d   1      -2.298  -4.481  -1.557  0.00  0.00    -0.031 A 
ATOM      6  C6  IND d   1      -2.655  -3.159  -1.729  0.00  0.00     0.015 A 
ATOM      7  C7  IND d   1      -3.773  -2.809  -2.432  0.00  0.00    -0.016 A 
ATOM      8  C8  IND d   1      -4.519  -3.843  -2.979  0.00  0.00    -0.047 A 
ATOM      9  C9  IND d   1      -4.138  -5.184  -2.844  0.00  0.00    -0.096 A 
ATOM     10  HN1 IND d   1      -6.095  -3.111  -3.979  0.00  0.00     0.298 HD
ENDROOT
TORSDOF 0
ENDMDL
