MODEL 1
REMARK minimizedAffinity 9.063591
REMARK minimizedRMSD -1
REMARK  0 active torsions:
REMARK  status: ('A' for Active; 'I' for Inactive)
ROOT
ATOM      1  N1  IND d   1       5.999   4.784  -5.177  0.00  0.00    -0.196 N 
ATOM      2  C2  IND d   1       5.374   5.934  -4.784  0.00  0.00     0.054 A 
ATOM      3  C3  IND d   1       4.603   5.703  -3.698  0.00  0.00    -0.031 A 
ATOM      4  C4  IND d   1       4.298   3.537  -2.340  0.00  0.00     0.051 A 
ATOM      5  C5  IND d   1       4.636   2.213  -2.334  0.00  0.00    -0.031 A 
ATOM      6  C6  IND d   1       5.466   1.668  -3.293  0.00  0.00     0.015 A 
ATOM      7  C7  IND d   1       5.998   2.432  -4.291  0.00  0.00    -0.016 A 
ATOM      8  C8  IND d   1       5.651   3.776  -4.305  0.00  0.00    -0.047 A 
ATOM      9  C9  IND d   1       4.776   4.326  -3.359  0.00  0.00    -0.096 A 
ATOM     10  HN1 IND d   1       6.522   4.704  -5.855  0.00  0.00     0.298 HD
ENDROOT
TORSDOF 0
ENDMDL
