MODEL 1
REMARK minimizedAffinity 13.617878
REMARK minimizedRMSD -1
REMARK  0 active torsions:
REMARK  status: ('A' for Active; 'I' for Inactive)
ROOT
ATOM      1  N1  IND d   1       5.932   1.972  -4.814  0.00  0.00    -0.196 N 
ATOM      2  C2  IND d   1       5.931   1.538  -3.517  0.00  0.00     0.054 A 
ATOM      3  C3  IND d   1       5.970   2.590  -2.669  0.00  0.00    -0.031 A 
ATOM      4  C4  IND d   1       5.937   5.111  -3.188  0.00  0.00     0.051 A 
ATOM      5  C5  IND d   1       5.976   5.997  -4.227  0.00  0.00    -0.031 A 
ATOM      6  C6  IND d   1       6.000   5.579  -5.542  0.00  0.00     0.015 A 
ATOM      7  C7  IND d   1       5.974   4.252  -5.868  0.00  0.00    -0.016 A 
ATOM      8  C8  IND d   1       5.942   3.349  -4.815  0.00  0.00    -0.047 A 
ATOM      9  C9  IND d   1       5.961   3.767  -3.478  0.00  0.00    -0.096 A 
ATOM     10  HN1 IND d   1       5.928   1.469  -5.511  0.00  0.00     0.298 HD
ENDROOT
TORSDOF 0
ENDMDL
