MODEL 1
REMARK minimizedAffinity 9.16866302
REMARK minimizedRMSD -1
REMARK  0 active torsions:
REMARK  status: ('A' for Active; 'I' for Inactive)
ROOT
ATOM      1  N1  IND d   1      -0.200   0.630   1.569  0.00  0.00    -0.196 N 
ATOM      2  C2  IND d   1      -0.649   1.503   2.521  0.00  0.00     0.054 A 
ATOM      3  C3  IND d   1       0.266   2.474   2.738  0.00  0.00    -0.031 A 
ATOM      4  C4  IND d   1       2.524   2.884   1.570  0.00  0.00     0.051 A 
ATOM      5  C5  IND d   1       3.381   2.334   0.659  0.00  0.00    -0.031 A 
ATOM      6  C6  IND d   1       3.081   1.165  -0.011  0.00  0.00     0.015 A 
ATOM      7  C7  IND d   1       1.902   0.507   0.198  0.00  0.00    -0.016 A 
ATOM      8  C8  IND d   1       1.033   1.059   1.128  0.00  0.00    -0.047 A 
ATOM      9  C9  IND d   1       1.350   2.221   1.842  0.00  0.00    -0.096 A 
ATOM     10  HN1 IND d   1      -0.617  -0.069   1.293  0.00  0.00     0.298 HD
ENDROOT
TORSDOF 0
ENDMDL
