MODEL 1
REMARK minimizedAffinity 12.1440649
REMARK minimizedRMSD -1
REMARK  0 active torsions:
REMARK  status: ('A' for Active; 'I' for Inactive)
ROOT
ATOM      1  N1  IND d   1       3.218   0.601   1.124  0.00  0.00    -0.196 N 
ATOM      2  C2  IND d   1       3.783   1.326   0.112  0.00  0.00     0.054 A 
ATOM      3  C3  IND d   1       3.036   2.420  -0.157  0.00  0.00    -0.031 A 
ATOM      4  C4  IND d   1       0.903   3.270   1.007  0.00  0.00     0.051 A 
ATOM      5  C5  IND d   1      -0.013   2.928   1.962  0.00  0.00    -0.031 A 
ATOM      6  C6  IND d   1       0.106   1.770   2.704  0.00  0.00     0.015 A 
ATOM      7  C7  IND d   1       1.155   0.913   2.524  0.00  0.00    -0.016 A 
ATOM      8  C8  IND d   1       2.083   1.255   1.551  0.00  0.00    -0.047 A 
ATOM      9  C9  IND d   1       1.945   2.407   0.766  0.00  0.00    -0.096 A 
ATOM     10  HN1 IND d   1       3.521  -0.139   1.441  0.00  0.00     0.298 HD
ENDROOT
TORSDOF 0
ENDMDL
