MODEL 1
REMARK minimizedAffinity 9.77845955
REMARK minimizedRMSD -1
REMARK  0 active torsions:
REMARK  status: ('A' for Active; 'I' for Inactive)
ROOT
ATOM      1  N1  IND d   1       3.226   0.716   1.390  0.00  0.00    -0.196 N 
ATOM      2  C2  IND d   1       3.830   1.373   0.355  0.00  0.00     0.054 A 
ATOM      3  C3  IND d   1       3.114   2.466   0.010  0.00  0.00    -0.031 A 
ATOM      4  C4  IND d   1       0.974   3.422   1.075  0.00  0.00     0.051 A 
ATOM      5  C5  IND d   1       0.029   3.151   2.024  0.00  0.00    -0.031 A 
ATOM      6  C6  IND d   1       0.105   2.032   2.829  0.00  0.00     0.015 A 
ATOM      7  C7  IND d   1       1.139   1.146   2.722  0.00  0.00    -0.016 A 
ATOM      8  C8  IND d   1       2.096   1.415   1.754  0.00  0.00    -0.047 A 
ATOM      9  C9  IND d   1       2.002   2.525   0.905  0.00  0.00    -0.096 A 
ATOM     10  HN1 IND d   1       3.505  -0.012   1.753  0.00  0.00     0.298 HD
ENDROOT
TORSDOF 0
ENDMDL
