MODEL 1
REMARK minimizedAffinity 14.5762177
REMARK minimizedRMSD -1
REMARK  0 active torsions:
REMARK  status: ('A' for Active; 'I' for Inactive)
ROOT
ATOM      1  N1  IND d   1      -0.093   1.453  -3.260  0.00  0.00    -0.196 N 
ATOM      2  C2  IND d   1      -0.475   2.683  -2.800  0.00  0.00     0.054 A 
ATOM      3  C3  IND d   1       0.078   2.924  -1.590  0.00  0.00    -0.031 A 
ATOM      4  C4  IND d   1       1.720   1.486  -0.225  0.00  0.00     0.051 A 
ATOM      5  C5  IND d   1       2.332   0.264  -0.217  0.00  0.00    -0.031 A 
ATOM      6  C6  IND d   1       2.166  -0.641  -1.245  0.00  0.00     0.015 A 
ATOM      7  C7  IND d   1       1.387  -0.352  -2.330  0.00  0.00    -0.016 A 
ATOM      8  C8  IND d   1       0.758   0.885  -2.338  0.00  0.00    -0.047 A 
ATOM      9  C9  IND d   1       0.889   1.791  -1.277  0.00  0.00    -0.096 A 
ATOM     10  HN1 IND d   1      -0.343   1.095  -4.000  0.00  0.00     0.298 HD
ENDROOT
TORSDOF 0
ENDMDL
