MODEL 1
REMARK minimizedAffinity 8.88486195
REMARK minimizedRMSD -1
REMARK  0 active torsions:
REMARK  status: ('A' for Active; 'I' for Inactive)
ROOT
ATOM      1  C4' PXY d   1       5.990   2.618  -2.943  0.00  0.00     0.077 C 
ATOM      2  C1' PXY d   1       2.818   0.066   1.161  0.00  0.00     0.077 C 
ATOM      3  C1  PXY d   1       3.653   0.745   0.093  0.00  0.00    -0.082 A 
ATOM      4  C2  PXY d   1       3.360   0.558  -1.184  0.00  0.00     0.003 A 
ATOM      5  C3  PXY d   1       4.124   1.139  -2.163  0.00  0.00     0.003 A 
ATOM      6  C4  PXY d   1       5.168   1.961  -1.831  0.00  0.00    -0.082 A 
ATOM      7  C5  PXY d   1       5.467   2.164  -0.530  0.00  0.00     0.003 A 
ATOM      8  C6  PXY d   1       4.704   1.533   0.448  0.00  0.00     0.003 A 
ENDROOT
TORSDOF 0
ENDMDL
