MODEL 1
REMARK minimizedAffinity -0.224147215
REMARK minimizedRMSD -1
REMARK  0 active torsions:
REMARK  status: ('A' for Active; 'I' for Inactive)
ROOT
ATOM      1  C4' PXY d   1       0.186   5.995   2.767  0.00  0.00     0.077 C 
ATOM      2  C1' PXY d   1       2.507   1.582  -0.158  0.00  0.00     0.077 C 
ATOM      3  C1  PXY d   1       1.905   2.736   0.620  0.00  0.00    -0.082 A 
ATOM      4  C2  PXY d   1       0.752   3.256   0.231  0.00  0.00     0.003 A 
ATOM      5  C3  PXY d   1       0.209   4.320   0.904  0.00  0.00     0.003 A 
ATOM      6  C4  PXY d   1       0.826   4.823   2.018  0.00  0.00    -0.082 A 
ATOM      7  C5  PXY d   1       1.998   4.291   2.427  0.00  0.00     0.003 A 
ATOM      8  C6  PXY d   1       2.553   3.238   1.706  0.00  0.00     0.003 A 
ENDROOT
TORSDOF 0
ENDMDL
