MODEL 1
REMARK minimizedAffinity 0.638431489
REMARK minimizedRMSD -1
REMARK  0 active torsions:
REMARK  status: ('A' for Active; 'I' for Inactive)
ROOT
ATOM      1  C4' PXY d   1      -1.879  -5.980  -3.766  0.00  0.00     0.077 C 
ATOM      2  C1' PXY d   1      -3.135  -0.430  -4.784  0.00  0.00     0.077 C 
ATOM      3  C1  PXY d   1      -2.794  -1.882  -4.513  0.00  0.00    -0.082 A 
ATOM      4  C2  PXY d   1      -3.460  -2.839  -5.139  0.00  0.00     0.003 A 
ATOM      5  C3  PXY d   1      -3.186  -4.157  -4.882  0.00  0.00     0.003 A 
ATOM      6  C4  PXY d   1      -2.183  -4.500  -4.015  0.00  0.00    -0.082 A 
ATOM      7  C5  PXY d   1      -1.491  -3.530  -3.381  0.00  0.00     0.003 A 
ATOM      8  C6  PXY d   1      -1.813  -2.198  -3.625  0.00  0.00     0.003 A 
ENDROOT
TORSDOF 0
ENDMDL
