MODEL 1
REMARK minimizedAffinity 1.07291341
REMARK minimizedRMSD -1
REMARK  0 active torsions:
REMARK  status: ('A' for Active; 'I' for Inactive)
ROOT
ATOM      1  C4' PXY d   1       3.377   0.380   1.741  0.00  0.00     0.077 C 
ATOM      2  C1' PXY d   1       5.999   2.555  -2.929  0.00  0.00     0.077 C 
ATOM      3  C1  PXY d   1       5.300   1.984  -1.711  0.00  0.00    -0.082 A 
ATOM      4  C2  PXY d   1       5.813   2.185  -0.508  0.00  0.00     0.003 A 
ATOM      5  C3  PXY d   1       5.212   1.650   0.601  0.00  0.00     0.003 A 
ATOM      6  C4  PXY d   1       4.043   0.946   0.484  0.00  0.00    -0.082 A 
ATOM      7  C5  PXY d   1       3.507   0.745  -0.739  0.00  0.00     0.003 A 
ATOM      8  C6  PXY d   1       4.156   1.262  -1.857  0.00  0.00     0.003 A 
ENDROOT
TORSDOF 0
ENDMDL
