MODEL 1
REMARK minimizedAffinity 10.1913824
REMARK minimizedRMSD -1
REMARK  0 active torsions:
REMARK  status: ('A' for Active; 'I' for Inactive)
ROOT
ATOM      1  C4' PXY d   1       0.957  -0.609  -0.668  0.00  0.00     0.077 C 
ATOM      2  C1' PXY d   1       5.770   2.446   0.289  0.00  0.00     0.077 C 
ATOM      3  C1  PXY d   1       4.510   1.638   0.049  0.00  0.00    -0.082 A 
ATOM      4  C2  PXY d   1       4.059   1.481  -1.185  0.00  0.00     0.003 A 
ATOM      5  C3  PXY d   1       2.903   0.781  -1.417  0.00  0.00     0.003 A 
ATOM      6  C4  PXY d   1       2.231   0.190  -0.380  0.00  0.00    -0.082 A 
ATOM      7  C5  PXY d   1       2.691   0.337   0.881  0.00  0.00     0.003 A 
ATOM      8  C6  PXY d   1       3.843   1.087   1.099  0.00  0.00     0.003 A 
ENDROOT
TORSDOF 0
ENDMDL
