MODEL 1
REMARK minimizedAffinity 17.1265049
REMARK minimizedRMSD -1
REMARK  0 active torsions:
REMARK  status: ('A' for Active; 'I' for Inactive)
ROOT
ATOM      1  C4' PXY d   1      -3.504   0.016  -4.553  0.00  0.00     0.077 C 
ATOM      2  C1' PXY d   1      -5.981  -1.231   0.519  0.00  0.00     0.077 C 
ATOM      3  C1  PXY d   1      -5.323  -0.896  -0.805  0.00  0.00    -0.082 A 
ATOM      4  C2  PXY d   1      -5.999  -1.058  -1.931  0.00  0.00     0.003 A 
ATOM      5  C3  PXY d   1      -5.408  -0.790  -3.139  0.00  0.00     0.003 A 
ATOM      6  C4  PXY d   1      -4.131  -0.301  -3.192  0.00  0.00    -0.082 A 
ATOM      7  C5  PXY d   1      -3.438  -0.122  -2.047  0.00  0.00     0.003 A 
ATOM      8  C6  PXY d   1      -4.042  -0.439  -0.834  0.00  0.00     0.003 A 
ENDROOT
TORSDOF 0
ENDMDL
