MODEL 1
REMARK minimizedAffinity 6.01017618
REMARK minimizedRMSD -1
REMARK  0 active torsions:
REMARK  status: ('A' for Active; 'I' for Inactive)
ROOT
ATOM      1  C4' PXY d   1      -6.000  -0.535   0.400  0.00  0.00     0.077 C 
ATOM      2  C1' PXY d   1      -1.283   2.806   0.382  0.00  0.00     0.077 C 
ATOM      3  C1  PXY d   1      -2.516   1.925   0.375  0.00  0.00    -0.082 A 
ATOM      4  C2  PXY d   1      -3.571   2.271   1.095  0.00  0.00     0.003 A 
ATOM      5  C3  PXY d   1      -4.683   1.470   1.125  0.00  0.00     0.003 A 
ATOM      6  C4  PXY d   1      -4.736   0.329   0.369  0.00  0.00    -0.082 A 
ATOM      7  C5  PXY d   1      -3.668  -0.025  -0.376  0.00  0.00     0.003 A 
ATOM      8  C6  PXY d   1      -2.533   0.781  -0.361  0.00  0.00     0.003 A 
ENDROOT
TORSDOF 0
ENDMDL
