MODEL 1
REMARK minimizedAffinity 5.5325489
REMARK minimizedRMSD -1
REMARK  0 active torsions:
REMARK  status: ('A' for Active; 'I' for Inactive)
ROOT
ATOM      1  C4' PXY d   1       5.996   2.775  -2.645  0.00  0.00     0.077 C 
ATOM      2  C1' PXY d   1       3.064  -0.004   1.490  0.00  0.00     0.077 C 
ATOM      3  C1  PXY d   1       3.839   0.732   0.415  0.00  0.00    -0.082 A 
ATOM      4  C2  PXY d   1       3.378   0.752  -0.825  0.00  0.00     0.003 A 
ATOM      5  C3  PXY d   1       4.082   1.386  -1.817  0.00  0.00     0.003 A 
ATOM      6  C4  PXY d   1       5.242   2.052  -1.525  0.00  0.00    -0.082 A 
ATOM      7  C5  PXY d   1       5.713   2.045  -0.260  0.00  0.00     0.003 A 
ATOM      8  C6  PXY d   1       5.005   1.361   0.724  0.00  0.00     0.003 A 
ENDROOT
TORSDOF 0
ENDMDL
