MODEL 1
REMARK minimizedAffinity 2.84825921
REMARK minimizedRMSD -1
REMARK  0 active torsions:
REMARK  status: ('A' for Active; 'I' for Inactive)
ROOT
ATOM      1  C1  DEN d   1      -1.288  -3.005  -2.335  0.00  0.00     0.130 A 
ATOM      2  C2  DEN d   1      -1.618  -4.330  -1.818  0.00  0.00    -0.031 A 
ATOM      3  C3  DEN d   1      -1.205  -5.328  -2.824  0.00  0.00     0.027 A 
ATOM      4  C4  DEN d   1      -0.087  -4.953  -5.118  0.00  0.00     0.027 A 
ATOM      5  C5  DEN d   1       0.379  -4.000  -5.997  0.00  0.00    -0.003 A 
ATOM      6  C6  DEN d   1       0.292  -2.659  -5.734  0.00  0.00     0.001 A 
ATOM      7  C7  DEN d   1      -0.234  -2.233  -4.543  0.00  0.00     0.017 A 
ATOM      8  C8  DEN d   1      -0.713  -3.188  -3.655  0.00  0.00    -0.094 A 
ATOM      9  C9  DEN d   1      -0.604  -4.539  -3.934  0.00  0.00    -0.072 A 
ENDROOT
TORSDOF 0
ENDMDL
