MODEL 1
REMARK minimizedAffinity 7.05725288
REMARK minimizedRMSD -1
REMARK  0 active torsions:
REMARK  status: ('A' for Active; 'I' for Inactive)
ROOT
ATOM      1  C1  DEN d   1      -2.939   0.999  -0.043  0.00  0.00     0.130 A 
ATOM      2  C2  DEN d   1      -3.400  -0.330  -0.435  0.00  0.00    -0.031 A 
ATOM      3  C3  DEN d   1      -3.035  -1.276   0.639  0.00  0.00     0.027 A 
ATOM      4  C4  DEN d   1      -1.813  -0.812   2.862  0.00  0.00     0.027 A 
ATOM      5  C5  DEN d   1      -1.216   0.160   3.634  0.00  0.00    -0.003 A 
ATOM      6  C6  DEN d   1      -1.122   1.463   3.222  0.00  0.00     0.001 A 
ATOM      7  C7  DEN d   1      -1.673   1.838   2.025  0.00  0.00     0.017 A 
ATOM      8  C8  DEN d   1      -2.270   0.862   1.239  0.00  0.00    -0.094 A 
ATOM      9  C9  DEN d   1      -2.366  -0.447   1.678  0.00  0.00    -0.072 A 
ENDROOT
TORSDOF 0
ENDMDL
