MODEL 1
REMARK minimizedAffinity 10.1087303
REMARK minimizedRMSD -1
REMARK  0 active torsions:
REMARK  status: ('A' for Active; 'I' for Inactive)
ROOT
ATOM      1  C1  DEN d   1      -1.483  -1.862  -3.714  0.00  0.00     0.130 A 
ATOM      2  C2  DEN d   1      -0.442  -1.054  -4.343  0.00  0.00    -0.031 A 
ATOM      3  C3  DEN d   1       0.414  -1.953  -5.142  0.00  0.00     0.027 A 
ATOM      4  C4  DEN d   1       0.228  -4.505  -5.469  0.00  0.00     0.027 A 
ATOM      5  C5  DEN d   1      -0.487  -5.631  -5.126  0.00  0.00    -0.003 A 
ATOM      6  C6  DEN d   1      -1.554  -5.586  -4.269  0.00  0.00     0.001 A 
ATOM      7  C7  DEN d   1      -1.965  -4.382  -3.760  0.00  0.00     0.017 A 
ATOM      8  C8  DEN d   1      -1.245  -3.243  -4.095  0.00  0.00    -0.094 A 
ATOM      9  C9  DEN d   1      -0.177  -3.308  -4.973  0.00  0.00    -0.072 A 
ENDROOT
TORSDOF 0
ENDMDL
