MODEL 1
REMARK minimizedAffinity 2.23545241
REMARK minimizedRMSD -1
REMARK  0 active torsions:
REMARK  status: ('A' for Active; 'I' for Inactive)
ROOT
ATOM      1  C1  DEN d   1      -2.098   1.938   1.577  0.00  0.00     0.130 A 
ATOM      2  C2  DEN d   1      -1.206   1.452   2.626  0.00  0.00    -0.031 A 
ATOM      3  C3  DEN d   1      -1.021   0.000   2.432  0.00  0.00     0.027 A 
ATOM      4  C4  DEN d   1      -2.019  -1.534   0.614  0.00  0.00     0.027 A 
ATOM      5  C5  DEN d   1      -2.844  -1.579  -0.488  0.00  0.00    -0.003 A 
ATOM      6  C6  DEN d   1      -3.500  -0.471  -0.955  0.00  0.00     0.001 A 
ATOM      7  C7  DEN d   1      -3.306   0.740  -0.344  0.00  0.00     0.017 A 
ATOM      8  C8  DEN d   1      -2.482   0.792   0.772  0.00  0.00    -0.094 A 
ATOM      9  C9  DEN d   1      -1.818  -0.337   1.222  0.00  0.00    -0.072 A 
ENDROOT
TORSDOF 0
ENDMDL
