MODEL 1
REMARK minimizedAffinity 3.11115718
REMARK minimizedRMSD -1
REMARK  0 active torsions:
REMARK  status: ('A' for Active; 'I' for Inactive)
ROOT
ATOM      1  C1  DEN d   1      -1.302  -1.537  -3.498  0.00  0.00     0.130 A 
ATOM      2  C2  DEN d   1      -0.127  -0.828  -3.997  0.00  0.00    -0.031 A 
ATOM      3  C3  DEN d   1       0.596  -1.732  -4.914  0.00  0.00     0.027 A 
ATOM      4  C4  DEN d   1       0.012  -4.146  -5.608  0.00  0.00     0.027 A 
ATOM      5  C5  DEN d   1      -0.884  -5.178  -5.436  0.00  0.00    -0.003 A 
ATOM      6  C6  DEN d   1      -1.955  -5.082  -4.587  0.00  0.00     0.001 A 
ATOM      7  C7  DEN d   1      -2.182  -3.912  -3.912  0.00  0.00     0.017 A 
ATOM      8  C8  DEN d   1      -1.279  -2.870  -4.074  0.00  0.00    -0.094 A 
ATOM      9  C9  DEN d   1      -0.209  -2.982  -4.947  0.00  0.00    -0.072 A 
ENDROOT
TORSDOF 0
ENDMDL
