MODEL 1
REMARK minimizedAffinity 3.33603764
REMARK minimizedRMSD -1
REMARK  0 active torsions:
REMARK  status: ('A' for Active; 'I' for Inactive)
ROOT
ATOM      1  C1  DEN d   1      -1.219  -0.717  -5.065  0.00  0.00     0.130 A 
ATOM      2  C2  DEN d   1       0.079  -0.094  -5.309  0.00  0.00    -0.031 A 
ATOM      3  C3  DEN d   1       1.075  -1.169  -5.493  0.00  0.00     0.027 A 
ATOM      4  C4  DEN d   1       0.734  -3.725  -5.428  0.00  0.00     0.027 A 
ATOM      5  C5  DEN d   1      -0.190  -4.729  -5.241  0.00  0.00    -0.003 A 
ATOM      6  C6  DEN d   1      -1.503  -4.470  -4.952  0.00  0.00     0.001 A 
ATOM      7  C7  DEN d   1      -1.940  -3.173  -4.885  0.00  0.00     0.017 A 
ATOM      8  C8  DEN d   1      -1.013  -2.154  -5.064  0.00  0.00    -0.094 A 
ATOM      9  C9  DEN d   1       0.308  -2.438  -5.368  0.00  0.00    -0.072 A 
ENDROOT
TORSDOF 0
ENDMDL
