MODEL 1
REMARK minimizedAffinity 4.30890751
REMARK minimizedRMSD -1
REMARK  0 active torsions:
REMARK  status: ('A' for Active; 'I' for Inactive)
ROOT
ATOM      1  C1  DEN d   1      -0.379  -2.815  -2.228  0.00  0.00     0.130 A 
ATOM      2  C2  DEN d   1      -1.679  -2.337  -1.764  0.00  0.00    -0.031 A 
ATOM      3  C3  DEN d   1      -2.716  -2.900  -2.651  0.00  0.00     0.027 A 
ATOM      4  C4  DEN d   1      -2.438  -4.460  -4.687  0.00  0.00     0.027 A 
ATOM      5  C5  DEN d   1      -1.525  -5.127  -5.473  0.00  0.00    -0.003 A 
ATOM      6  C6  DEN d   1      -0.176  -5.043  -5.256  0.00  0.00     0.001 A 
ATOM      7  C7  DEN d   1       0.298  -4.312  -4.199  0.00  0.00     0.017 A 
ATOM      8  C8  DEN d   1      -0.616  -3.631  -3.406  0.00  0.00    -0.094 A 
ATOM      9  C9  DEN d   1      -1.977  -3.737  -3.634  0.00  0.00    -0.072 A 
ENDROOT
TORSDOF 0
ENDMDL
