MODEL 1
REMARK minimizedAffinity 7.62757063
REMARK minimizedRMSD -1
REMARK  1 active torsions:
REMARK  status: ('A' for Active; 'I' for Inactive)
REMARK    1  A    between atoms: C1_2  and  C2_3 
ROOT
ATOM      1  C2  UNL d   1      -2.436  -2.840  -3.367  0.00  0.00    -0.076 A 
ATOM      2  C3  UNL d   1      -1.767  -2.252  -4.455  0.00  0.00     0.004 A 
ATOM      3  C4  UNL d   1      -2.229  -2.423  -5.759  0.00  0.00    -0.003 A 
ATOM      4  C5  UNL d   1      -3.367  -3.185  -5.996  0.00  0.00     0.000 A 
ATOM      5  C6  UNL d   1      -4.053  -3.762  -4.928  0.00  0.00     0.000 A 
ATOM      6  C7  UNL d   1      -3.610  -3.586  -3.606  0.00  0.00    -0.073 A 
ATOM      7  C8  UNL d   1      -4.385  -4.236  -2.492  0.00  0.00     0.078 C 
ENDROOT
BRANCH   1   8
ATOM      8  C1  UNL d   1      -1.873  -2.642  -1.978  0.00  0.00     0.053 C 
ATOM      9  C   UNL d   1      -2.276  -1.308  -1.370  0.00  0.00     0.018 C 
ENDBRANCH   1   8
TORSDOF 1
ENDMDL
