MODEL 1
REMARK minimizedAffinity 20.1620007
REMARK minimizedRMSD -1
REMARK  1 active torsions:
REMARK  status: ('A' for Active; 'I' for Inactive)
REMARK    1  A    between atoms: C1_2  and  C2_3 
ROOT
ATOM      1  C2  UNL d   1      -1.445  -0.468   3.101  0.00  0.00    -0.076 A 
ATOM      2  C3  UNL d   1      -2.764   0.019   3.072  0.00  0.00     0.004 A 
ATOM      3  C4  UNL d   1      -3.029   1.381   3.208  0.00  0.00    -0.003 A 
ATOM      4  C5  UNL d   1      -1.980   2.278   3.375  0.00  0.00     0.000 A 
ATOM      5  C6  UNL d   1      -0.664   1.814   3.388  0.00  0.00     0.000 A 
ATOM      6  C7  UNL d   1      -0.379   0.447   3.236  0.00  0.00    -0.073 A 
ATOM      7  C8  UNL d   1       1.058   0.002   3.264  0.00  0.00     0.078 C 
ENDROOT
BRANCH   1   8
ATOM      8  C1  UNL d   1      -1.221  -1.958   2.976  0.00  0.00     0.053 C 
ATOM      9  C   UNL d   1      -1.978  -2.752   4.029  0.00  0.00     0.018 C 
ENDBRANCH   1   8
TORSDOF 1
ENDMDL
