MODEL 1
REMARK minimizedAffinity 19.2180519
REMARK minimizedRMSD -1
REMARK  1 active torsions:
REMARK  status: ('A' for Active; 'I' for Inactive)
REMARK    1  A    between atoms: C1_2  and  C2_3 
ROOT
ATOM      1  C2  UNL d   1      -2.547  -4.132   4.530  0.00  0.00    -0.076 A 
ATOM      2  C3  UNL d   1      -2.944  -2.789   4.408  0.00  0.00     0.004 A 
ATOM      3  C4  UNL d   1      -2.164  -1.871   3.706  0.00  0.00    -0.003 A 
ATOM      4  C5  UNL d   1      -0.975  -2.282   3.114  0.00  0.00     0.000 A 
ATOM      5  C6  UNL d   1      -0.574  -3.614   3.210  0.00  0.00     0.000 A 
ATOM      6  C7  UNL d   1      -1.357  -4.555   3.900  0.00  0.00    -0.073 A 
ATOM      7  C8  UNL d   1      -0.874  -5.978   3.978  0.00  0.00     0.078 C 
ENDROOT
BRANCH   1   8
ATOM      8  C1  UNL d   1      -3.419  -5.075   5.326  0.00  0.00     0.053 C 
ATOM      9  C   UNL d   1      -4.845  -4.567   5.472  0.00  0.00     0.018 C 
ENDBRANCH   1   8
TORSDOF 1
ENDMDL
