MODEL 1
REMARK minimizedAffinity 4.38503313
REMARK minimizedRMSD -1
REMARK  1 active torsions:
REMARK  status: ('A' for Active; 'I' for Inactive)
REMARK    1  A    between atoms: C1_2  and  C2_3 
ROOT
ATOM      1  C2  UNL d   1       2.711   1.747  -1.605  0.00  0.00    -0.076 A 
ATOM      2  C3  UNL d   1       2.048   1.976  -0.387  0.00  0.00     0.004 A 
ATOM      3  C4  UNL d   1       2.350   1.224   0.747  0.00  0.00    -0.003 A 
ATOM      4  C5  UNL d   1       3.321   0.231   0.682  0.00  0.00     0.000 A 
ATOM      5  C6  UNL d   1       4.001   0.002  -0.513  0.00  0.00     0.000 A 
ATOM      6  C7  UNL d   1       3.720   0.762  -1.662  0.00  0.00    -0.073 A 
ATOM      7  C8  UNL d   1       4.480   0.467  -2.926  0.00  0.00     0.078 C 
ENDROOT
BRANCH   1   8
ATOM      8  C1  UNL d   1       2.322   2.575  -2.809  0.00  0.00     0.053 C 
ATOM      9  C   UNL d   1       0.844   2.457  -3.144  0.00  0.00     0.018 C 
ENDBRANCH   1   8
TORSDOF 1
ENDMDL
