MODEL 1
REMARK minimizedAffinity 14.7047462
REMARK minimizedRMSD -1
REMARK  1 active torsions:
REMARK  status: ('A' for Active; 'I' for Inactive)
REMARK    1  A    between atoms: C1_2  and  C2_3 
ROOT
ATOM      1  C2  UNL d   1      -3.096  -2.436  -5.960  0.00  0.00    -0.076 A 
ATOM      2  C3  UNL d   1      -2.845  -1.053  -5.935  0.00  0.00     0.004 A 
ATOM      3  C4  UNL d   1      -3.892  -0.133  -5.931  0.00  0.00    -0.003 A 
ATOM      4  C5  UNL d   1      -5.208  -0.582  -5.952  0.00  0.00     0.000 A 
ATOM      5  C6  UNL d   1      -5.476  -1.950  -5.958  0.00  0.00     0.000 A 
ATOM      6  C7  UNL d   1      -4.432  -2.891  -5.946  0.00  0.00    -0.073 A 
ATOM      7  C8  UNL d   1      -4.778  -4.354  -5.960  0.00  0.00     0.078 C 
ENDROOT
BRANCH   1   8
ATOM      8  C1  UNL d   1      -1.919  -3.385  -5.990  0.00  0.00     0.053 C 
ATOM      9  C   UNL d   1      -0.584  -2.658  -5.998  0.00  0.00     0.018 C 
ENDBRANCH   1   8
TORSDOF 1
ENDMDL
