MODEL 1
REMARK minimizedAffinity 27.4426022
REMARK minimizedRMSD -1
REMARK  1 active torsions:
REMARK  status: ('A' for Active; 'I' for Inactive)
REMARK    1  A    between atoms: C1_2  and  C2_3 
ROOT
ATOM      1  C2  UNL d   1       4.786   2.150  -3.225  0.00  0.00    -0.076 A 
ATOM      2  C3  UNL d   1       4.780   3.512  -2.875  0.00  0.00     0.004 A 
ATOM      3  C4  UNL d   1       5.382   4.466  -3.693  0.00  0.00    -0.003 A 
ATOM      4  C5  UNL d   1       6.000   4.074  -4.876  0.00  0.00     0.000 A 
ATOM      5  C6  UNL d   1       6.000   2.730  -5.248  0.00  0.00     0.000 A 
ATOM      6  C7  UNL d   1       5.383   1.757  -4.442  0.00  0.00    -0.073 A 
ATOM      7  C8  UNL d   1       5.419   0.321  -4.889  0.00  0.00     0.078 C 
ENDROOT
BRANCH   1   8
ATOM      8  C1  UNL d   1       4.141   1.158  -2.284  0.00  0.00     0.053 C 
ATOM      9  C   UNL d   1       2.723   1.552  -1.904  0.00  0.00     0.018 C 
ENDBRANCH   1   8
TORSDOF 1
ENDMDL
