MODEL 1
REMARK minimizedAffinity 23.5526333
REMARK minimizedRMSD -1
REMARK  1 active torsions:
REMARK  status: ('A' for Active; 'I' for Inactive)
REMARK    1  A    between atoms: C1_2  and  C2_3 
ROOT
ATOM      1  C2  UNL d   1       0.680   1.618   2.081  0.00  0.00    -0.076 A 
ATOM      2  C3  UNL d   1       0.794   1.496   3.476  0.00  0.00     0.004 A 
ATOM      3  C4  UNL d   1       1.695   0.597   4.046  0.00  0.00    -0.003 A 
ATOM      4  C5  UNL d   1       2.496  -0.193   3.230  0.00  0.00     0.000 A 
ATOM      5  C6  UNL d   1       2.408  -0.073   1.843  0.00  0.00     0.000 A 
ATOM      6  C7  UNL d   1       1.517   0.840   1.253  0.00  0.00    -0.073 A 
ATOM      7  C8  UNL d   1       1.460   0.924  -0.248  0.00  0.00     0.078 C 
ENDROOT
BRANCH   1   8
ATOM      8  C1  UNL d   1      -0.333   2.590   1.519  0.00  0.00     0.053 C 
ATOM      9  C   UNL d   1      -1.648   2.567   2.284  0.00  0.00     0.018 C 
ENDBRANCH   1   8
TORSDOF 1
ENDMDL
