MODEL 1
REMARK minimizedAffinity 13.5150414
REMARK minimizedRMSD -1
REMARK  1 active torsions:
REMARK  status: ('A' for Active; 'I' for Inactive)
REMARK    1  A    between atoms: C1_2  and  C2_3 
ROOT
ATOM      1  C2  UNL d   1       1.119   1.644   2.605  0.00  0.00    -0.076 A 
ATOM      2  C3  UNL d   1       1.676   1.150   1.412  0.00  0.00     0.004 A 
ATOM      3  C4  UNL d   1       2.861   0.416   1.424  0.00  0.00    -0.003 A 
ATOM      4  C5  UNL d   1       3.508   0.163   2.628  0.00  0.00     0.000 A 
ATOM      5  C6  UNL d   1       2.960   0.630   3.823  0.00  0.00     0.000 A 
ATOM      6  C7  UNL d   1       1.757   1.358   3.830  0.00  0.00    -0.073 A 
ATOM      7  C8  UNL d   1       1.215   1.843   5.147  0.00  0.00     0.078 C 
ENDROOT
BRANCH   1   8
ATOM      8  C1  UNL d   1      -0.154   2.457   2.527  0.00  0.00     0.053 C 
ATOM      9  C   UNL d   1      -0.098   3.525   1.446  0.00  0.00     0.018 C 
ENDBRANCH   1   8
TORSDOF 1
ENDMDL
