MODEL 1
REMARK minimizedAffinity 18.0857067
REMARK minimizedRMSD -1
REMARK  1 active torsions:
REMARK  status: ('A' for Active; 'I' for Inactive)
REMARK    1  A    between atoms: C1_2  and  C2_3 
ROOT
ATOM      1  C2  UNL d   1      -3.201  -4.085  -3.704  0.00  0.00    -0.076 A 
ATOM      2  C3  UNL d   1      -3.646  -3.480  -4.893  0.00  0.00     0.004 A 
ATOM      3  C4  UNL d   1      -2.806  -3.369  -5.999  0.00  0.00    -0.003 A 
ATOM      4  C5  UNL d   1      -1.507  -3.862  -5.936  0.00  0.00     0.000 A 
ATOM      5  C6  UNL d   1      -1.055  -4.481  -4.771  0.00  0.00     0.000 A 
ATOM      6  C7  UNL d   1      -1.895  -4.615  -3.652  0.00  0.00    -0.073 A 
ATOM      7  C8  UNL d   1      -1.353  -5.286  -2.419  0.00  0.00     0.078 C 
ENDROOT
BRANCH   1   8
ATOM      8  C1  UNL d   1      -4.149  -4.152  -2.528  0.00  0.00     0.053 C 
ATOM      9  C   UNL d   1      -5.574  -3.778  -2.905  0.00  0.00     0.018 C 
ENDBRANCH   1   8
TORSDOF 1
ENDMDL
