MODEL 1
REMARK minimizedAffinity 11.4949932
REMARK minimizedRMSD -1
REMARK  1 active torsions:
REMARK  status: ('A' for Active; 'I' for Inactive)
REMARK    1  A    between atoms: C1_2  and  C2_3 
ROOT
ATOM      1  C2  UNL d   1       3.434  -0.032   1.472  0.00  0.00    -0.076 A 
ATOM      2  C3  UNL d   1       3.692  -0.465   2.785  0.00  0.00     0.004 A 
ATOM      3  C4  UNL d   1       2.958   0.030   3.861  0.00  0.00    -0.003 A 
ATOM      4  C5  UNL d   1       1.954   0.967   3.643  0.00  0.00     0.000 A 
ATOM      5  C6  UNL d   1       1.672   1.394   2.346  0.00  0.00     0.000 A 
ATOM      6  C7  UNL d   1       2.391   0.892   1.248  0.00  0.00    -0.073 A 
ATOM      7  C8  UNL d   1       2.049   1.393  -0.129  0.00  0.00     0.078 C 
ENDROOT
BRANCH   1   8
ATOM      8  C1  UNL d   1       4.280  -0.584   0.348  0.00  0.00     0.053 C 
ATOM      9  C   UNL d   1       5.753  -0.675   0.717  0.00  0.00     0.018 C 
ENDBRANCH   1   8
TORSDOF 1
ENDMDL
