MODEL 1
REMARK minimizedAffinity 4.05640173
REMARK minimizedRMSD -1
REMARK  1 active torsions:
REMARK  status: ('A' for Active; 'I' for Inactive)
REMARK    1  A    between atoms: C1_2  and  C2_3 
ROOT
ATOM      1  C2  UNL d   1      -2.075  -3.641   3.998  0.00  0.00    -0.076 A 
ATOM      2  C3  UNL d   1      -1.086  -4.319   3.263  0.00  0.00     0.004 A 
ATOM      3  C4  UNL d   1      -0.216  -3.626   2.424  0.00  0.00    -0.003 A 
ATOM      4  C5  UNL d   1      -0.319  -2.244   2.306  0.00  0.00     0.000 A 
ATOM      5  C6  UNL d   1      -1.282  -1.554   3.041  0.00  0.00     0.000 A 
ATOM      6  C7  UNL d   1      -2.157  -2.235   3.904  0.00  0.00    -0.073 A 
ATOM      7  C8  UNL d   1      -3.181  -1.441   4.668  0.00  0.00     0.078 C 
ENDROOT
BRANCH   1   8
ATOM      8  C1  UNL d   1      -3.009  -4.448   4.871  0.00  0.00     0.053 C 
ATOM      9  C   UNL d   1      -2.399  -5.770   5.311  0.00  0.00     0.018 C 
ENDBRANCH   1   8
TORSDOF 1
ENDMDL
