MODEL 1
REMARK minimizedAffinity 13.3503618
REMARK minimizedRMSD -1
REMARK  1 active torsions:
REMARK  status: ('A' for Active; 'I' for Inactive)
REMARK    1  A    between atoms: C1_2  and  C2_3 
ROOT
ATOM      1  C2  UNL d   1       3.556   0.916  -3.968  0.00  0.00    -0.076 A 
ATOM      2  C3  UNL d   1       4.764   1.280  -3.346  0.00  0.00     0.004 A 
ATOM      3  C4  UNL d   1       5.975   0.722  -3.750  0.00  0.00    -0.003 A 
ATOM      4  C5  UNL d   1       6.000  -0.209  -4.783  0.00  0.00     0.000 A 
ATOM      5  C6  UNL d   1       4.814  -0.568  -5.423  0.00  0.00     0.000 A 
ATOM      6  C7  UNL d   1       3.586  -0.002  -5.039  0.00  0.00    -0.073 A 
ATOM      7  C8  UNL d   1       2.337  -0.431  -5.760  0.00  0.00     0.078 C 
ENDROOT
BRANCH   1   8
ATOM      8  C1  UNL d   1       2.270   1.534  -3.469  0.00  0.00     0.053 C 
ATOM      9  C   UNL d   1       2.159   1.505  -1.953  0.00  0.00     0.018 C 
ENDBRANCH   1   8
TORSDOF 1
ENDMDL
