MODEL 1
REMARK minimizedAffinity 13.6394739
REMARK minimizedRMSD -1
REMARK  1 active torsions:
REMARK  status: ('A' for Active; 'I' for Inactive)
REMARK    1  A    between atoms: C1_2  and  C2_3 
ROOT
ATOM      1  C2  UNL d   1       0.799   2.037   2.126  0.00  0.00    -0.076 A 
ATOM      2  C3  UNL d   1      -0.486   1.837   2.661  0.00  0.00     0.004 A 
ATOM      3  C4  UNL d   1      -1.527   2.719   2.376  0.00  0.00    -0.003 A 
ATOM      4  C5  UNL d   1      -1.300   3.815   1.551  0.00  0.00     0.000 A 
ATOM      5  C6  UNL d   1      -0.037   4.019   0.998  0.00  0.00     0.000 A 
ATOM      6  C7  UNL d   1       1.019   3.130   1.262  0.00  0.00    -0.073 A 
ATOM      7  C8  UNL d   1       2.363   3.402   0.643  0.00  0.00     0.078 C 
ENDROOT
BRANCH   1   8
ATOM      8  C1  UNL d   1       1.895   1.062   2.492  0.00  0.00     0.053 C 
ATOM      9  C   UNL d   1       1.906   0.727   3.975  0.00  0.00     0.018 C 
ENDBRANCH   1   8
TORSDOF 1
ENDMDL
