MODEL 1
REMARK minimizedAffinity 0.937493384
REMARK minimizedRMSD -1
REMARK  1 active torsions:
REMARK  status: ('A' for Active; 'I' for Inactive)
REMARK    1  A    between atoms: C1_2  and  C2_3 
ROOT
ATOM      1  C2  UNL d   1       5.504   0.470   4.627  0.00  0.00    -0.077 A 
ATOM      2  C3  UNL d   1       4.992   1.770   4.511  0.00  0.00     0.002 A 
ATOM      3  C4  UNL d   1       4.491   2.225   3.290  0.00  0.00     0.002 A 
ATOM      4  C5  UNL d   1       4.494   1.386   2.177  0.00  0.00    -0.004 A 
ATOM      5  C6  UNL d   1       5.003   0.092   2.282  0.00  0.00     0.002 A 
ATOM      6  C7  UNL d   1       5.506  -0.364   3.502  0.00  0.00     0.002 A 
ENDROOT
BRANCH   1   7
ATOM      7  C1  UNL d   1       6.000  -0.039   5.955  0.00  0.00     0.055 C 
ATOM      8  C   UNL d   1       5.999  -1.560   6.000  0.00  0.00     0.019 C 
ENDBRANCH   1   7
TORSDOF 1
ENDMDL
