MODEL 1
REMARK minimizedAffinity 7.56841326
REMARK minimizedRMSD -1
REMARK  1 active torsions:
REMARK  status: ('A' for Active; 'I' for Inactive)
REMARK    1  A    between atoms: C1_2  and  C2_3 
ROOT
ATOM      1  C2  UNL d   1       1.665   0.870  -3.237  0.00  0.00    -0.077 A 
ATOM      2  C3  UNL d   1       0.933   1.313  -4.347  0.00  0.00     0.002 A 
ATOM      3  C4  UNL d   1       1.591   1.760  -5.494  0.00  0.00     0.002 A 
ATOM      4  C5  UNL d   1       2.984   1.765  -5.544  0.00  0.00    -0.004 A 
ATOM      5  C6  UNL d   1       3.721   1.328  -4.443  0.00  0.00     0.002 A 
ATOM      6  C7  UNL d   1       3.064   0.882  -3.296  0.00  0.00     0.002 A 
ENDROOT
BRANCH   1   7
ATOM      7  C1  UNL d   1       0.956   0.341  -2.017  0.00  0.00     0.055 C 
ATOM      8  C   UNL d   1       1.554  -0.981  -1.560  0.00  0.00     0.019 C 
ENDBRANCH   1   7
TORSDOF 1
ENDMDL
