MODEL 1
REMARK minimizedAffinity -0.722505152
REMARK minimizedRMSD -1
REMARK  1 active torsions:
REMARK  status: ('A' for Active; 'I' for Inactive)
REMARK    1  A    between atoms: C1_2  and  C2_3 
ROOT
ATOM      1  C2  UNL d   1       1.431   1.632  -2.252  0.00  0.00    -0.077 A 
ATOM      2  C3  UNL d   1       1.518   2.503  -1.156  0.00  0.00     0.002 A 
ATOM      3  C4  UNL d   1       2.214   3.708  -1.265  0.00  0.00     0.002 A 
ATOM      4  C5  UNL d   1       2.824   4.056  -2.469  0.00  0.00    -0.004 A 
ATOM      5  C6  UNL d   1       2.745   3.196  -3.563  0.00  0.00     0.002 A 
ATOM      6  C7  UNL d   1       2.051   1.990  -3.456  0.00  0.00     0.002 A 
ENDROOT
BRANCH   1   7
ATOM      7  C1  UNL d   1       0.640   0.354  -2.151  0.00  0.00     0.055 C 
ATOM      8  C   UNL d   1       1.469  -0.763  -1.535  0.00  0.00     0.019 C 
ENDBRANCH   1   7
TORSDOF 1
ENDMDL
