MODEL 1
REMARK minimizedAffinity 4.72592545
REMARK minimizedRMSD -1
REMARK  1 active torsions:
REMARK  status: ('A' for Active; 'I' for Inactive)
REMARK    1  A    between atoms: C1_2  and  C2_3 
ROOT
ATOM      1  C2  UNL d   1       3.436   2.332   1.858  0.00  0.00    -0.077 A 
ATOM      2  C3  UNL d   1       2.135   1.841   1.685  0.00  0.00     0.002 A 
ATOM      3  C4  UNL d   1       1.207   2.553   0.921  0.00  0.00     0.002 A 
ATOM      4  C5  UNL d   1       1.572   3.757   0.322  0.00  0.00    -0.004 A 
ATOM      5  C6  UNL d   1       2.864   4.254   0.490  0.00  0.00     0.002 A 
ATOM      6  C7  UNL d   1       3.792   3.545   1.254  0.00  0.00     0.002 A 
ENDROOT
BRANCH   1   7
ATOM      7  C1  UNL d   1       4.453   1.542   2.639  0.00  0.00     0.055 C 
ATOM      8  C   UNL d   1       3.844   0.269   3.211  0.00  0.00     0.019 C 
ENDBRANCH   1   7
TORSDOF 1
ENDMDL
