MODEL 1
REMARK minimizedAffinity 7.92612171
REMARK minimizedRMSD -1
REMARK  1 active torsions:
REMARK  status: ('A' for Active; 'I' for Inactive)
REMARK    1  A    between atoms: C1_2  and  C2_3 
ROOT
ATOM      1  C2  UNL d   1       0.062  -0.799  -0.213  0.00  0.00    -0.077 A 
ATOM      2  C3  UNL d   1       1.302  -1.197  -0.731  0.00  0.00     0.002 A 
ATOM      3  C4  UNL d   1       1.709  -2.530  -0.645  0.00  0.00     0.002 A 
ATOM      4  C5  UNL d   1       0.880  -3.476  -0.046  0.00  0.00    -0.004 A 
ATOM      5  C6  UNL d   1      -0.354  -3.090   0.474  0.00  0.00     0.002 A 
ATOM      6  C7  UNL d   1      -0.762  -1.758   0.390  0.00  0.00     0.002 A 
ENDROOT
BRANCH   1   7
ATOM      7  C1  UNL d   1      -0.401   0.628  -0.349  0.00  0.00     0.055 C 
ATOM      8  C   UNL d   1       0.754   1.603  -0.168  0.00  0.00     0.019 C 
ENDBRANCH   1   7
TORSDOF 1
ENDMDL
