MODEL 1
REMARK minimizedAffinity 1.9203819
REMARK minimizedRMSD -1
REMARK  1 active torsions:
REMARK  status: ('A' for Active; 'I' for Inactive)
REMARK    1  A    between atoms: C1_2  and  C2_3 
ROOT
ATOM      1  C2  UNL d   1       0.701  -1.654  -0.832  0.00  0.00    -0.077 A 
ATOM      2  C3  UNL d   1      -0.238  -2.512  -0.244  0.00  0.00     0.002 A 
ATOM      3  C4  UNL d   1      -1.414  -2.000   0.308  0.00  0.00     0.002 A 
ATOM      4  C5  UNL d   1      -1.663  -0.629   0.272  0.00  0.00    -0.004 A 
ATOM      5  C6  UNL d   1      -0.734   0.232  -0.309  0.00  0.00     0.002 A 
ATOM      6  C7  UNL d   1       0.443  -0.278  -0.860  0.00  0.00     0.002 A 
ENDROOT
BRANCH   1   7
ATOM      7  C1  UNL d   1       1.947  -2.210  -1.471  0.00  0.00     0.055 C 
ATOM      8  C   UNL d   1       1.611  -3.267  -2.513  0.00  0.00     0.019 C 
ENDBRANCH   1   7
TORSDOF 1
ENDMDL
