MODEL 1
REMARK minimizedAffinity 3.18964887
REMARK minimizedRMSD -1
REMARK  1 active torsions:
REMARK  status: ('A' for Active; 'I' for Inactive)
REMARK    1  A    between atoms: C1_2  and  C2_3 
ROOT
ATOM      1  C2  UNL d   1       1.810  -1.976  -2.547  0.00  0.00    -0.077 A 
ATOM      2  C3  UNL d   1       1.887  -0.716  -3.158  0.00  0.00     0.002 A 
ATOM      3  C4  UNL d   1       1.549  -0.563  -4.504  0.00  0.00     0.002 A 
ATOM      4  C5  UNL d   1       1.129  -1.663  -5.249  0.00  0.00    -0.004 A 
ATOM      5  C6  UNL d   1       1.051  -2.920  -4.651  0.00  0.00     0.002 A 
ATOM      6  C7  UNL d   1       1.389  -3.075  -3.306  0.00  0.00     0.002 A 
ENDROOT
BRANCH   1   7
ATOM      7  C1  UNL d   1       2.126  -2.134  -1.083  0.00  0.00     0.055 C 
ATOM      8  C   UNL d   1       0.891  -1.914  -0.222  0.00  0.00     0.019 C 
ENDBRANCH   1   7
TORSDOF 1
ENDMDL
