MODEL 1
REMARK minimizedAffinity 1.89779747
REMARK minimizedRMSD -1
REMARK  1 active torsions:
REMARK  status: ('A' for Active; 'I' for Inactive)
REMARK    1  A    between atoms: C1_2  and  C2_3 
ROOT
ATOM      1  C2  UNL d   1       0.779  -1.707  -0.252  0.00  0.00    -0.077 A 
ATOM      2  C3  UNL d   1       1.568  -1.781  -1.409  0.00  0.00     0.002 A 
ATOM      3  C4  UNL d   1       1.501  -0.776  -2.375  0.00  0.00     0.002 A 
ATOM      4  C5  UNL d   1       0.650   0.312  -2.193  0.00  0.00    -0.004 A 
ATOM      5  C6  UNL d   1      -0.140   0.394  -1.047  0.00  0.00     0.002 A 
ATOM      6  C7  UNL d   1      -0.075  -0.611  -0.081  0.00  0.00     0.002 A 
ENDROOT
BRANCH   1   7
ATOM      7  C1  UNL d   1       0.886  -2.766   0.814  0.00  0.00     0.055 C 
ATOM      8  C   UNL d   1       1.357  -2.175   2.135  0.00  0.00     0.019 C 
ENDBRANCH   1   7
TORSDOF 1
ENDMDL
