MODEL 1
REMARK minimizedAffinity 0.616239071
REMARK minimizedRMSD -1
REMARK  1 active torsions:
REMARK  status: ('A' for Active; 'I' for Inactive)
REMARK    1  A    between atoms: C1_2  and  C2_3 
ROOT
ATOM      1  C2  UNL d   1       1.445  -1.183  -1.488  0.00  0.00    -0.077 A 
ATOM      2  C3  UNL d   1       1.607  -2.446  -0.903  0.00  0.00     0.002 A 
ATOM      3  C4  UNL d   1       0.719  -2.889   0.079  0.00  0.00     0.002 A 
ATOM      4  C5  UNL d   1      -0.340  -2.077   0.481  0.00  0.00    -0.004 A 
ATOM      5  C6  UNL d   1      -0.509  -0.818  -0.094  0.00  0.00     0.002 A 
ATOM      6  C7  UNL d   1       0.379  -0.373  -1.075  0.00  0.00     0.002 A 
ENDROOT
BRANCH   1   7
ATOM      7  C1  UNL d   1       2.372  -0.723  -2.583  0.00  0.00     0.055 C 
ATOM      8  C   UNL d   1       1.611  -0.012  -3.692  0.00  0.00     0.019 C 
ENDBRANCH   1   7
TORSDOF 1
ENDMDL
