MODEL 1
REMARK minimizedAffinity 2.22544265
REMARK minimizedRMSD -1
REMARK  1 active torsions:
REMARK  status: ('A' for Active; 'I' for Inactive)
REMARK    1  A    between atoms: C1_2  and  C2_3 
ROOT
ATOM      1  C2  UNL d   1       1.580  -0.041  -3.242  0.00  0.00    -0.077 A 
ATOM      2  C3  UNL d   1       2.000  -1.350  -2.963  0.00  0.00     0.002 A 
ATOM      3  C4  UNL d   1       1.609  -1.980  -1.780  0.00  0.00     0.002 A 
ATOM      4  C5  UNL d   1       0.794  -1.311  -0.869  0.00  0.00    -0.004 A 
ATOM      5  C6  UNL d   1       0.373  -0.009  -1.137  0.00  0.00     0.002 A 
ATOM      6  C7  UNL d   1       0.764   0.623  -2.318  0.00  0.00     0.002 A 
ENDROOT
BRANCH   1   7
ATOM      7  C1  UNL d   1       1.960   0.622  -4.540  0.00  0.00     0.055 C 
ATOM      8  C   UNL d   1       1.241   1.951  -4.714  0.00  0.00     0.019 C 
ENDBRANCH   1   7
TORSDOF 1
ENDMDL
