MODEL 1
REMARK minimizedAffinity 8.02819347
REMARK minimizedRMSD -1
REMARK  1 active torsions:
REMARK  status: ('A' for Active; 'I' for Inactive)
REMARK    1  A    between atoms: C1_2  and  C2_3 
ROOT
ATOM      1  C2  UNL d   1      -3.639  -1.021   3.627  0.00  0.00    -0.077 A 
ATOM      2  C3  UNL d   1      -2.370  -1.123   3.040  0.00  0.00     0.002 A 
ATOM      3  C4  UNL d   1      -1.535  -0.007   2.963  0.00  0.00     0.002 A 
ATOM      4  C5  UNL d   1      -1.958   1.218   3.476  0.00  0.00    -0.004 A 
ATOM      5  C6  UNL d   1      -3.218   1.330   4.061  0.00  0.00     0.002 A 
ATOM      6  C7  UNL d   1      -4.055   0.216   4.137  0.00  0.00     0.002 A 
ENDROOT
BRANCH   1   7
ATOM      7  C1  UNL d   1      -4.521  -2.235   3.755  0.00  0.00     0.055 C 
ATOM      8  C   UNL d   1      -5.994  -1.852   3.756  0.00  0.00     0.019 C 
ENDBRANCH   1   7
TORSDOF 1
ENDMDL
