MODEL 1
REMARK minimizedAffinity -1.04818833
REMARK minimizedRMSD -1
REMARK  1 active torsions:
REMARK  status: ('A' for Active; 'I' for Inactive)
REMARK    1  A    between atoms: C1_2  and  C2_3 
ROOT
ATOM      1  C2  UNL d   1       1.115  -0.935  -1.617  0.00  0.00    -0.077 A 
ATOM      2  C3  UNL d   1       0.409   0.060  -0.927  0.00  0.00     0.002 A 
ATOM      3  C4  UNL d   1       0.252   1.330  -1.485  0.00  0.00     0.002 A 
ATOM      4  C5  UNL d   1       0.796   1.615  -2.736  0.00  0.00    -0.004 A 
ATOM      5  C6  UNL d   1       1.502   0.632  -3.429  0.00  0.00     0.002 A 
ATOM      6  C7  UNL d   1       1.660  -0.637  -2.872  0.00  0.00     0.002 A 
ENDROOT
BRANCH   1   7
ATOM      7  C1  UNL d   1       1.243  -2.321  -1.038  0.00  0.00     0.055 C 
ATOM      8  C   UNL d   1      -0.046  -2.756  -0.356  0.00  0.00     0.019 C 
ENDBRANCH   1   7
TORSDOF 1
ENDMDL
