MODEL 1
REMARK minimizedAffinity -2.96965432
REMARK minimizedRMSD -1
REMARK  1 active torsions:
REMARK  status: ('A' for Active; 'I' for Inactive)
REMARK    1  A    between atoms: C1_2  and  C2_3 
ROOT
ATOM      1  C2  UNL d   1       4.935   1.224   4.772  0.00  0.00    -0.077 A 
ATOM      2  C3  UNL d   1       5.690   0.775   5.864  0.00  0.00     0.002 A 
ATOM      3  C4  UNL d   1       6.000  -0.580   6.000  0.00  0.00     0.002 A 
ATOM      4  C5  UNL d   1       5.563  -1.495   5.045  0.00  0.00    -0.004 A 
ATOM      5  C6  UNL d   1       4.809  -1.059   3.955  0.00  0.00     0.002 A 
ATOM      6  C7  UNL d   1       4.498   0.295   3.819  0.00  0.00     0.002 A 
ENDROOT
BRANCH   1   7
ATOM      7  C1  UNL d   1       4.642   2.691   4.598  0.00  0.00     0.055 C 
ATOM      8  C   UNL d   1       5.876   3.538   4.870  0.00  0.00     0.019 C 
ENDBRANCH   1   7
TORSDOF 1
ENDMDL
