MODEL 1
REMARK minimizedAffinity -1.73941183
REMARK minimizedRMSD -1
REMARK  0 active torsions:
REMARK  status: ('A' for Active; 'I' for Inactive)
ROOT
ATOM      1  C1  BNZ d   1       0.257   3.995   1.297  0.00  0.00     0.000 A 
ATOM      2  C2  BNZ d   1       1.404   4.345   1.959  0.00  0.00     0.000 A 
ATOM      3  C3  BNZ d   1       2.613   3.829   1.584  0.00  0.00     0.000 A 
ATOM      4  C4  BNZ d   1       2.669   2.934   0.577  0.00  0.00     0.000 A 
ATOM      5  C5  BNZ d   1       1.520   2.564  -0.094  0.00  0.00     0.000 A 
ATOM      6  C6  BNZ d   1       0.310   3.115   0.261  0.00  0.00     0.000 A 
ENDROOT
TORSDOF 0
ENDMDL
