MODEL 1
REMARK minimizedAffinity -2.26602674
REMARK minimizedRMSD -1
REMARK  0 active torsions:
REMARK  status: ('A' for Active; 'I' for Inactive)
ROOT
ATOM      1  C1  BNZ d   1       0.375  -0.852   0.496  0.00  0.00     0.000 A 
ATOM      2  C2  BNZ d   1      -0.184   0.328   0.082  0.00  0.00     0.000 A 
ATOM      3  C3  BNZ d   1      -0.269   0.633  -1.248  0.00  0.00     0.000 A 
ATOM      4  C4  BNZ d   1       0.240  -0.223  -2.158  0.00  0.00     0.000 A 
ATOM      5  C5  BNZ d   1       0.815  -1.411  -1.755  0.00  0.00     0.000 A 
ATOM      6  C6  BNZ d   1       0.864  -1.733  -0.418  0.00  0.00     0.000 A 
ENDROOT
TORSDOF 0
ENDMDL
