MODEL 1
REMARK minimizedAffinity -3.26863074
REMARK minimizedRMSD -1
REMARK  0 active torsions:
REMARK  status: ('A' for Active; 'I' for Inactive)
ROOT
ATOM      1  C1  BNZ d   1      -0.106   1.922  -0.252  0.00  0.00     0.000 A 
ATOM      2  C2  BNZ d   1       0.354   3.182   0.024  0.00  0.00     0.000 A 
ATOM      3  C3  BNZ d   1       1.558   3.367   0.643  0.00  0.00     0.000 A 
ATOM      4  C4  BNZ d   1       2.282   2.294   1.021  0.00  0.00     0.000 A 
ATOM      5  C5  BNZ d   1       1.827   1.017   0.759  0.00  0.00     0.000 A 
ATOM      6  C6  BNZ d   1       0.633   0.835   0.101  0.00  0.00     0.000 A 
ENDROOT
TORSDOF 0
ENDMDL
