MODEL 1
REMARK minimizedAffinity -3.38036633
REMARK minimizedRMSD -1
REMARK  0 active torsions:
REMARK  status: ('A' for Active; 'I' for Inactive)
ROOT
ATOM      1  C1  BNZ d   1      -1.670  -0.713   1.462  0.00  0.00     0.000 A 
ATOM      2  C2  BNZ d   1      -1.810  -2.073   1.384  0.00  0.00     0.000 A 
ATOM      3  C3  BNZ d   1      -0.974  -2.820   0.602  0.00  0.00     0.000 A 
ATOM      4  C4  BNZ d   1      -0.024  -2.203  -0.130  0.00  0.00     0.000 A 
ATOM      5  C5  BNZ d   1       0.124  -0.831  -0.070  0.00  0.00     0.000 A 
ATOM      6  C6  BNZ d   1      -0.695  -0.087   0.748  0.00  0.00     0.000 A 
ENDROOT
TORSDOF 0
ENDMDL
