MODEL 1
REMARK minimizedAffinity -1.7178936
REMARK minimizedRMSD -1
REMARK  0 active torsions:
REMARK  status: ('A' for Active; 'I' for Inactive)
ROOT
ATOM      1  C1  BNZ d   1       0.409   0.417   0.352  0.00  0.00     0.000 A 
ATOM      2  C2  BNZ d   1       0.801   1.631   0.850  0.00  0.00     0.000 A 
ATOM      3  C3  BNZ d   1       0.863   2.732   0.042  0.00  0.00     0.000 A 
ATOM      4  C4  BNZ d   1       0.571   2.609  -1.269  0.00  0.00     0.000 A 
ATOM      5  C5  BNZ d   1       0.183   1.390  -1.788  0.00  0.00     0.000 A 
ATOM      6  C6  BNZ d   1       0.084   0.292  -0.963  0.00  0.00     0.000 A 
ENDROOT
TORSDOF 0
ENDMDL
