MODEL 1
REMARK minimizedAffinity -2.76203752
REMARK minimizedRMSD -1
REMARK  0 active torsions:
REMARK  status: ('A' for Active; 'I' for Inactive)
ROOT
ATOM      1  C1  BNZ d   1      -0.570  -1.620  -1.335  0.00  0.00     0.000 A 
ATOM      2  C2  BNZ d   1      -1.000  -2.465  -0.347  0.00  0.00     0.000 A 
ATOM      3  C3  BNZ d   1      -1.126  -2.028   0.942  0.00  0.00     0.000 A 
ATOM      4  C4  BNZ d   1      -0.784  -0.760   1.249  0.00  0.00     0.000 A 
ATOM      5  C5  BNZ d   1      -0.341   0.101   0.265  0.00  0.00     0.000 A 
ATOM      6  C6  BNZ d   1      -0.252  -0.331  -1.038  0.00  0.00     0.000 A 
ENDROOT
TORSDOF 0
ENDMDL
