MODEL 1
REMARK minimizedAffinity -3.44404769
REMARK minimizedRMSD -1
REMARK  0 active torsions:
REMARK  status: ('A' for Active; 'I' for Inactive)
ROOT
ATOM      1  C1  BNZ d   1      -0.383   1.026  -0.277  0.00  0.00     0.000 A 
ATOM      2  C2  BNZ d   1      -0.718  -0.132   0.374  0.00  0.00     0.000 A 
ATOM      3  C3  BNZ d   1      -0.069  -0.505   1.517  0.00  0.00     0.000 A 
ATOM      4  C4  BNZ d   1       0.939   0.258   1.986  0.00  0.00     0.000 A 
ATOM      5  C5  BNZ d   1       1.295   1.423   1.337  0.00  0.00     0.000 A 
ATOM      6  C6  BNZ d   1       0.614   1.816   0.208  0.00  0.00     0.000 A 
ENDROOT
TORSDOF 0
ENDMDL
