MODEL 1
REMARK minimizedAffinity -4.30252504
REMARK minimizedRMSD -1
REMARK  0 active torsions:
REMARK  status: ('A' for Active; 'I' for Inactive)
ROOT
ATOM      1  C1  BNZ d   1      -0.781  -2.798   0.822  0.00  0.00     0.000 A 
ATOM      2  C2  BNZ d   1      -1.015  -1.593   1.431  0.00  0.00     0.000 A 
ATOM      3  C3  BNZ d   1      -0.531  -0.433   0.895  0.00  0.00     0.000 A 
ATOM      4  C4  BNZ d   1       0.218  -0.482  -0.226  0.00  0.00     0.000 A 
ATOM      5  C5  BNZ d   1       0.470  -1.689  -0.846  0.00  0.00     0.000 A 
ATOM      6  C6  BNZ d   1      -0.051  -2.851  -0.325  0.00  0.00     0.000 A 
ENDROOT
TORSDOF 0
ENDMDL
