MODEL 1
REMARK minimizedAffinity -4.51970577
REMARK minimizedRMSD -1
REMARK  0 active torsions:
REMARK  status: ('A' for Active; 'I' for Inactive)
ROOT
ATOM      1  C1  BNZ d   1      -0.831  -1.444  -0.024  0.00  0.00     0.000 A 
ATOM      2  C2  BNZ d   1      -0.209  -0.662  -0.960  0.00  0.00     0.000 A 
ATOM      3  C3  BNZ d   1       0.021  -1.132  -2.223  0.00  0.00     0.000 A 
ATOM      4  C4  BNZ d   1      -0.335  -2.394  -2.536  0.00  0.00     0.000 A 
ATOM      5  C5  BNZ d   1      -0.954  -3.198  -1.600  0.00  0.00     0.000 A 
ATOM      6  C6  BNZ d   1      -1.219  -2.709  -0.341  0.00  0.00     0.000 A 
ENDROOT
TORSDOF 0
ENDMDL
