MODEL 1
REMARK minimizedAffinity -4.70487976
REMARK minimizedRMSD -1
REMARK  0 active torsions:
REMARK  status: ('A' for Active; 'I' for Inactive)
ROOT
ATOM      1  C1  BNZ d   1      -0.452  -2.510   0.112  0.00  0.00     0.000 A 
ATOM      2  C2  BNZ d   1      -0.476  -3.445  -0.888  0.00  0.00     0.000 A 
ATOM      3  C3  BNZ d   1      -0.211  -3.093  -2.182  0.00  0.00     0.000 A 
ATOM      4  C4  BNZ d   1       0.039  -1.801  -2.480  0.00  0.00     0.000 A 
ATOM      5  C5  BNZ d   1       0.058  -0.845  -1.484  0.00  0.00     0.000 A 
ATOM      6  C6  BNZ d   1      -0.171  -1.210  -0.177  0.00  0.00     0.000 A 
ENDROOT
TORSDOF 0
ENDMDL
