MODEL 1
REMARK minimizedAffinity -1.70544744
REMARK minimizedRMSD -1
REMARK  0 active torsions:
REMARK  status: ('A' for Active; 'I' for Inactive)
ROOT
ATOM      1  C1  BNZ d   1      -0.398   0.531   0.998  0.00  0.00     0.000 A 
ATOM      2  C2  BNZ d   1       0.027   0.201  -0.261  0.00  0.00     0.000 A 
ATOM      3  C3  BNZ d   1      -0.241  -1.030  -0.791  0.00  0.00     0.000 A 
ATOM      4  C4  BNZ d   1      -0.898  -1.943  -0.047  0.00  0.00     0.000 A 
ATOM      5  C5  BNZ d   1      -1.325  -1.629   1.227  0.00  0.00     0.000 A 
ATOM      6  C6  BNZ d   1      -1.088  -0.376   1.743  0.00  0.00     0.000 A 
ENDROOT
TORSDOF 0
ENDMDL
