MODEL 1
REMARK minimizedAffinity -4.90966272
REMARK minimizedRMSD -1
REMARK  0 active torsions:
REMARK  status: ('A' for Active; 'I' for Inactive)
ROOT
ATOM      1  C1  BNZ d   1       0.018  -3.847  -0.521  0.00  0.00     0.000 A 
ATOM      2  C2  BNZ d   1       0.816  -2.776  -0.219  0.00  0.00     0.000 A 
ATOM      3  C3  BNZ d   1       0.753  -1.627  -0.956  0.00  0.00     0.000 A 
ATOM      4  C4  BNZ d   1      -0.077  -1.564  -2.017  0.00  0.00     0.000 A 
ATOM      5  C5  BNZ d   1      -0.881  -2.638  -2.340  0.00  0.00     0.000 A 
ATOM      6  C6  BNZ d   1      -0.844  -3.780  -1.573  0.00  0.00     0.000 A 
ENDROOT
TORSDOF 0
ENDMDL
