MODEL 1
REMARK minimizedAffinity -3.97352672
REMARK minimizedRMSD -1
REMARK  0 active torsions:
REMARK  status: ('A' for Active; 'I' for Inactive)
ROOT
ATOM      1  C1  BNZ d   1      -1.231  -2.059   0.853  0.00  0.00     0.000 A 
ATOM      2  C2  BNZ d   1      -1.500  -0.720   0.952  0.00  0.00     0.000 A 
ATOM      3  C3  BNZ d   1      -0.487   0.190   1.079  0.00  0.00     0.000 A 
ATOM      4  C4  BNZ d   1       0.788  -0.244   1.148  0.00  0.00     0.000 A 
ATOM      5  C5  BNZ d   1       1.075  -1.591   1.060  0.00  0.00     0.000 A 
ATOM      6  C6  BNZ d   1       0.056  -2.501   0.893  0.00  0.00     0.000 A 
ENDROOT
TORSDOF 0
ENDMDL
