MODEL 1
REMARK minimizedAffinity 11.1574507
REMARK minimizedRMSD -1
REMARK  0 active torsions:
REMARK  status: ('A' for Active; 'I' for Inactive)
ROOT
ATOM      1  C1  BNZ d   1      -5.279  -1.563   4.814  0.00  0.00     0.000 A 
ATOM      2  C2  BNZ d   1      -5.497  -0.903   3.634  0.00  0.00     0.000 A 
ATOM      3  C3  BNZ d   1      -5.772   0.436   3.621  0.00  0.00     0.000 A 
ATOM      4  C4  BNZ d   1      -5.868   1.104   4.789  0.00  0.00     0.000 A 
ATOM      5  C5  BNZ d   1      -5.660   0.451   5.987  0.00  0.00     0.000 A 
ATOM      6  C6  BNZ d   1      -5.344  -0.889   5.994  0.00  0.00     0.000 A 
ENDROOT
TORSDOF 0
ENDMDL
