MODEL 1
REMARK minimizedAffinity -0.762828171
REMARK minimizedRMSD -1
REMARK  0 active torsions:
REMARK  status: ('A' for Active; 'I' for Inactive)
ROOT
ATOM      1  C1  BNZ d   1       4.488  -1.784  -3.717  0.00  0.00     0.000 A 
ATOM      2  C2  BNZ d   1       4.962  -2.708  -4.610  0.00  0.00     0.000 A 
ATOM      3  C3  BNZ d   1       4.180  -3.152  -5.640  0.00  0.00     0.000 A 
ATOM      4  C4  BNZ d   1       2.914  -2.701  -5.752  0.00  0.00     0.000 A 
ATOM      5  C5  BNZ d   1       2.418  -1.776  -4.854  0.00  0.00     0.000 A 
ATOM      6  C6  BNZ d   1       3.221  -1.303  -3.842  0.00  0.00     0.000 A 
ENDROOT
TORSDOF 0
ENDMDL
