MODEL 1
REMARK minimizedAffinity 5.37347937
REMARK minimizedRMSD -1
REMARK  0 active torsions:
REMARK  status: ('A' for Active; 'I' for Inactive)
ROOT
ATOM      1  C1  BNZ d   1      -2.763  -6.000   1.864  0.00  0.00     0.000 A 
ATOM      2  C2  BNZ d   1      -2.460  -5.998   3.199  0.00  0.00     0.000 A 
ATOM      3  C3  BNZ d   1      -1.160  -5.971   3.622  0.00  0.00     0.000 A 
ATOM      4  C4  BNZ d   1      -0.166  -5.986   2.711  0.00  0.00     0.000 A 
ATOM      5  C5  BNZ d   1      -0.456  -5.998   1.361  0.00  0.00     0.000 A 
ATOM      6  C6  BNZ d   1      -1.765  -5.986   0.939  0.00  0.00     0.000 A 
ENDROOT
TORSDOF 0
ENDMDL
