MODEL 1
REMARK minimizedAffinity 12.3736506
REMARK minimizedRMSD -1
REMARK  0 active torsions:
REMARK  status: ('A' for Active; 'I' for Inactive)
ROOT
ATOM      1  C1  BNZ d   1      -5.910   2.261   4.813  0.00  0.00     0.000 A 
ATOM      2  C2  BNZ d   1      -5.717   1.584   5.988  0.00  0.00     0.000 A 
ATOM      3  C3  BNZ d   1      -5.598   0.222   6.000  0.00  0.00     0.000 A 
ATOM      4  C4  BNZ d   1      -5.713  -0.464   4.844  0.00  0.00     0.000 A 
ATOM      5  C5  BNZ d   1      -5.918   0.204   3.653  0.00  0.00     0.000 A 
ATOM      6  C6  BNZ d   1      -5.997   1.577   3.640  0.00  0.00     0.000 A 
ENDROOT
TORSDOF 0
ENDMDL
