MODEL 1
REMARK minimizedAffinity 3.06781411
REMARK minimizedRMSD -1
REMARK  0 active torsions:
REMARK  status: ('A' for Active; 'I' for Inactive)
ROOT
ATOM      1  C1  BNZ d   1      -5.999  -1.783   2.698  0.00  0.00     0.000 A 
ATOM      2  C2  BNZ d   1      -5.199  -2.220   1.676  0.00  0.00     0.000 A 
ATOM      3  C3  BNZ d   1      -3.839  -2.120   1.760  0.00  0.00     0.000 A 
ATOM      4  C4  BNZ d   1      -3.282  -1.548   2.847  0.00  0.00     0.000 A 
ATOM      5  C5  BNZ d   1      -4.075  -1.094   3.882  0.00  0.00     0.000 A 
ATOM      6  C6  BNZ d   1      -5.442  -1.232   3.811  0.00  0.00     0.000 A 
ENDROOT
TORSDOF 0
ENDMDL
