MODEL 1
REMARK minimizedAffinity 4.34516191
REMARK minimizedRMSD -1
REMARK  0 active torsions:
REMARK  status: ('A' for Active; 'I' for Inactive)
ROOT
ATOM      1  C1  BNZ d   1      -1.855  -3.747   0.781  0.00  0.00     0.000 A 
ATOM      2  C2  BNZ d   1      -2.535  -4.897   1.083  0.00  0.00     0.000 A 
ATOM      3  C3  BNZ d   1      -2.437  -5.999   0.279  0.00  0.00     0.000 A 
ATOM      4  C4  BNZ d   1      -1.694  -5.936  -0.844  0.00  0.00     0.000 A 
ATOM      5  C5  BNZ d   1      -1.011  -4.781  -1.167  0.00  0.00     0.000 A 
ATOM      6  C6  BNZ d   1      -1.080  -3.687  -0.335  0.00  0.00     0.000 A 
ENDROOT
TORSDOF 0
ENDMDL
