MODEL 1
REMARK minimizedAffinity 2.62915134
REMARK minimizedRMSD -1
REMARK  0 active torsions:
REMARK  status: ('A' for Active; 'I' for Inactive)
ROOT
ATOM      1  C1  BNZ d   1      -0.769  -2.471   3.192  0.00  0.00     0.000 A 
ATOM      2  C2  BNZ d   1      -0.040  -3.629   3.134  0.00  0.00     0.000 A 
ATOM      3  C3  BNZ d   1      -0.349  -4.606   2.229  0.00  0.00     0.000 A 
ATOM      4  C4  BNZ d   1      -1.409  -4.441   1.411  0.00  0.00     0.000 A 
ATOM      5  C5  BNZ d   1      -2.159  -3.283   1.464  0.00  0.00     0.000 A 
ATOM      6  C6  BNZ d   1      -1.821  -2.285   2.349  0.00  0.00     0.000 A 
ENDROOT
TORSDOF 0
ENDMDL
