MODEL 1
REMARK minimizedAffinity -0.967186272
REMARK minimizedRMSD -1
REMARK  0 active torsions:
REMARK  status: ('A' for Active; 'I' for Inactive)
ROOT
ATOM      1  C1  BNZ d   1       5.999  -0.046   4.737  0.00  0.00     0.000 A 
ATOM      2  C2  BNZ d   1       5.850  -0.686   5.938  0.00  0.00     0.000 A 
ATOM      3  C3  BNZ d   1       5.324  -1.946   5.998  0.00  0.00     0.000 A 
ATOM      4  C4  BNZ d   1       4.911  -2.547   4.864  0.00  0.00     0.000 A 
ATOM      5  C5  BNZ d   1       5.046  -1.911   3.646  0.00  0.00     0.000 A 
ATOM      6  C6  BNZ d   1       5.612  -0.658   3.585  0.00  0.00     0.000 A 
ENDROOT
TORSDOF 0
ENDMDL
