MODEL 1
REMARK minimizedAffinity 5.11586714
REMARK minimizedRMSD -1
REMARK  0 active torsions:
REMARK  status: ('A' for Active; 'I' for Inactive)
ROOT
ATOM      1  C1  BNZ d   1       4.321  -0.752  -4.495  0.00  0.00     0.000 A 
ATOM      2  C2  BNZ d   1       3.825   0.054  -5.485  0.00  0.00     0.000 A 
ATOM      3  C3  BNZ d   1       3.375   1.313  -5.202  0.00  0.00     0.000 A 
ATOM      4  C4  BNZ d   1       3.385   1.750  -3.926  0.00  0.00     0.000 A 
ATOM      5  C5  BNZ d   1       3.873   0.946  -2.916  0.00  0.00     0.000 A 
ATOM      6  C6  BNZ d   1       4.361  -0.307  -3.210  0.00  0.00     0.000 A 
ENDROOT
TORSDOF 0
ENDMDL
