MODEL 1
REMARK minimizedAffinity 0.43005082
REMARK minimizedRMSD -1
REMARK  0 active torsions:
REMARK  status: ('A' for Active; 'I' for Inactive)
ROOT
ATOM      1  C1  BNZ d   1       5.998  -2.532   5.020  0.00  0.00     0.000 A 
ATOM      2  C2  BNZ d   1       5.999  -1.194   4.730  0.00  0.00     0.000 A 
ATOM      3  C3  BNZ d   1       5.420  -0.727   3.583  0.00  0.00     0.000 A 
ATOM      4  C4  BNZ d   1       4.879  -1.600   2.709  0.00  0.00     0.000 A 
ATOM      5  C5  BNZ d   1       4.879  -2.953   2.984  0.00  0.00     0.000 A 
ATOM      6  C6  BNZ d   1       5.428  -3.416   4.158  0.00  0.00     0.000 A 
ENDROOT
TORSDOF 0
ENDMDL
