MODEL 1
REMARK minimizedAffinity -0.0520169549
REMARK minimizedRMSD -1
REMARK  0 active torsions:
REMARK  status: ('A' for Active; 'I' for Inactive)
ROOT
ATOM      1  C1  BNZ d   1      -0.002  -0.034   0.416  0.00  0.00     0.000 A 
ATOM      2  C2  BNZ d   1      -0.335  -0.865  -0.620  0.00  0.00     0.000 A 
ATOM      3  C3  BNZ d   1      -1.268  -1.851  -0.454  0.00  0.00     0.000 A 
ATOM      4  C4  BNZ d   1      -1.836  -2.030   0.756  0.00  0.00     0.000 A 
ATOM      5  C5  BNZ d   1      -1.503  -1.206   1.813  0.00  0.00     0.000 A 
ATOM      6  C6  BNZ d   1      -0.593  -0.190   1.632  0.00  0.00     0.000 A 
ENDROOT
TORSDOF 0
ENDMDL
