MODEL 1
REMARK minimizedAffinity 4.79886675
REMARK minimizedRMSD -1
REMARK  0 active torsions:
REMARK  status: ('A' for Active; 'I' for Inactive)
ROOT
ATOM      1  C1  BNZ d   1       1.678  -4.359   3.900  0.00  0.00     0.000 A 
ATOM      2  C2  BNZ d   1       0.734  -4.377   2.908  0.00  0.00     0.000 A 
ATOM      3  C3  BNZ d   1      -0.365  -5.184   3.003  0.00  0.00     0.000 A 
ATOM      4  C4  BNZ d   1      -0.499  -6.000   4.068  0.00  0.00     0.000 A 
ATOM      5  C5  BNZ d   1       0.449  -6.000   5.072  0.00  0.00     0.000 A 
ATOM      6  C6  BNZ d   1       1.534  -5.158   4.992  0.00  0.00     0.000 A 
ENDROOT
TORSDOF 0
ENDMDL
