MODEL 1
REMARK minimizedAffinity 1.28550959
REMARK minimizedRMSD -1
REMARK  0 active torsions:
REMARK  status: ('A' for Active; 'I' for Inactive)
ROOT
ATOM      1  C1  BNZ d   1      -0.292  -0.894  -0.710  0.00  0.00     0.000 A 
ATOM      2  C2  BNZ d   1      -1.606  -1.185  -0.454  0.00  0.00     0.000 A 
ATOM      3  C3  BNZ d   1      -2.363  -1.862  -1.369  0.00  0.00     0.000 A 
ATOM      4  C4  BNZ d   1      -1.819  -2.212  -2.552  0.00  0.00     0.000 A 
ATOM      5  C5  BNZ d   1      -0.499  -1.917  -2.829  0.00  0.00     0.000 A 
ATOM      6  C6  BNZ d   1       0.272  -1.269  -1.890  0.00  0.00     0.000 A 
ENDROOT
TORSDOF 0
ENDMDL
