MODEL 1
REMARK minimizedAffinity -0.126565084
REMARK minimizedRMSD -1
REMARK  0 active torsions:
REMARK  status: ('A' for Active; 'I' for Inactive)
ROOT
ATOM      1  C1  BNZ d   1      -2.109  -0.303  -2.606  0.00  0.00     0.000 A 
ATOM      2  C2  BNZ d   1      -2.607  -1.556  -2.363  0.00  0.00     0.000 A 
ATOM      3  C3  BNZ d   1      -2.253  -2.243  -1.236  0.00  0.00     0.000 A 
ATOM      4  C4  BNZ d   1      -1.372  -1.695  -0.374  0.00  0.00     0.000 A 
ATOM      5  C5  BNZ d   1      -0.854  -0.437  -0.610  0.00  0.00     0.000 A 
ATOM      6  C6  BNZ d   1      -1.243   0.268  -1.726  0.00  0.00     0.000 A 
ENDROOT
TORSDOF 0
ENDMDL
