MODEL 1
REMARK minimizedAffinity -1.03164184
REMARK minimizedRMSD -1
REMARK  0 active torsions:
REMARK  status: ('A' for Active; 'I' for Inactive)
ROOT
ATOM      1  C1  BNZ d   1      -0.470  -0.272   2.095  0.00  0.00     0.000 A 
ATOM      2  C2  BNZ d   1      -0.873  -1.360   1.367  0.00  0.00     0.000 A 
ATOM      3  C3  BNZ d   1      -0.791  -1.358   0.003  0.00  0.00     0.000 A 
ATOM      4  C4  BNZ d   1      -0.344  -0.256  -0.633  0.00  0.00     0.000 A 
ATOM      5  C5  BNZ d   1       0.058   0.851   0.086  0.00  0.00     0.000 A 
ATOM      6  C6  BNZ d   1       0.011   0.832   1.461  0.00  0.00     0.000 A 
ENDROOT
TORSDOF 0
ENDMDL
