MODEL 1
REMARK minimizedAffinity 6.96707487
REMARK minimizedRMSD -1
REMARK  0 active torsions:
REMARK  status: ('A' for Active; 'I' for Inactive)
ROOT
ATOM      1  C1  BNZ d   1      -4.467  -2.495   0.999  0.00  0.00     0.000 A 
ATOM      2  C2  BNZ d   1      -3.544  -3.316   0.407  0.00  0.00     0.000 A 
ATOM      3  C3  BNZ d   1      -2.296  -3.466   0.944  0.00  0.00     0.000 A 
ATOM      4  C4  BNZ d   1      -1.959  -2.767   2.046  0.00  0.00     0.000 A 
ATOM      5  C5  BNZ d   1      -2.875  -1.928   2.649  0.00  0.00     0.000 A 
ATOM      6  C6  BNZ d   1      -4.143  -1.808   2.129  0.00  0.00     0.000 A 
ENDROOT
TORSDOF 0
ENDMDL
