MODEL 1
REMARK minimizedAffinity 4.09965467
REMARK minimizedRMSD -1
REMARK  1 active torsions:
REMARK  status: ('A' for Active; 'I' for Inactive)
REMARK    1  A    between atoms: C1_2  and  C2_3 
ROOT
ATOM      1  C2  UNL d   1       3.503   5.594   5.265  0.00  0.00    -0.076 A 
ATOM      2  C3  UNL d   1       4.700   5.514   5.999  0.00  0.00     0.004 A 
ATOM      3  C4  UNL d   1       5.936   5.665   5.374  0.00  0.00    -0.003 A 
ATOM      4  C5  UNL d   1       5.996   5.899   4.005  0.00  0.00     0.000 A 
ATOM      5  C6  UNL d   1       4.819   5.999   3.264  0.00  0.00     0.000 A 
ATOM      6  C7  UNL d   1       3.564   5.865   3.882  0.00  0.00    -0.073 A 
ATOM      7  C8  UNL d   1       2.326   5.976   3.034  0.00  0.00     0.078 C 
ENDROOT
BRANCH   1   8
ATOM      8  C1  UNL d   1       2.193   5.395   5.993  0.00  0.00     0.053 C 
ATOM      9  C   UNL d   1       1.182   4.611   5.170  0.00  0.00     0.018 C 
ENDBRANCH   1   8
TORSDOF 1
ENDMDL
