MODEL 1
REMARK minimizedAffinity 18.3913937
REMARK minimizedRMSD -1
REMARK  1 active torsions:
REMARK  status: ('A' for Active; 'I' for Inactive)
REMARK    1  A    between atoms: C1_2  and  C2_3 
ROOT
ATOM      1  C2  UNL d   1      -3.715   3.278  -4.187  0.00  0.00    -0.076 A 
ATOM      2  C3  UNL d   1      -3.561   4.666  -4.349  0.00  0.00     0.004 A 
ATOM      3  C4  UNL d   1      -4.404   5.388  -5.192  0.00  0.00    -0.003 A 
ATOM      4  C5  UNL d   1      -5.415   4.734  -5.887  0.00  0.00     0.000 A 
ATOM      5  C6  UNL d   1      -5.593   3.360  -5.726  0.00  0.00     0.000 A 
ATOM      6  C7  UNL d   1      -4.762   2.620  -4.867  0.00  0.00    -0.073 A 
ATOM      7  C8  UNL d   1      -4.995   1.140  -4.735  0.00  0.00     0.078 C 
ENDROOT
BRANCH   1   8
ATOM      8  C1  UNL d   1      -2.753   2.544  -3.280  0.00  0.00     0.053 C 
ATOM      9  C   UNL d   1      -3.453   1.884  -2.102  0.00  0.00     0.018 C 
ENDBRANCH   1   8
TORSDOF 1
ENDMDL
