MODEL 1
REMARK minimizedAffinity 7.59479952
REMARK minimizedRMSD -1
REMARK  1 active torsions:
REMARK  status: ('A' for Active; 'I' for Inactive)
REMARK    1  A    between atoms: C1_2  and  C2_3 
ROOT
ATOM      1  C2  UNL d   1       3.348   5.024   3.710  0.00  0.00    -0.076 A 
ATOM      2  C3  UNL d   1       4.646   5.343   3.275  0.00  0.00     0.004 A 
ATOM      3  C4  UNL d   1       5.607   5.812   4.169  0.00  0.00    -0.003 A 
ATOM      4  C5  UNL d   1       5.286   5.967   5.513  0.00  0.00     0.000 A 
ATOM      5  C6  UNL d   1       4.009   5.638   5.965  0.00  0.00     0.000 A 
ATOM      6  C7  UNL d   1       3.033   5.150   5.080  0.00  0.00    -0.073 A 
ATOM      7  C8  UNL d   1       1.670   4.816   5.621  0.00  0.00     0.078 C 
ENDROOT
BRANCH   1   8
ATOM      8  C1  UNL d   1       2.339   4.547   2.690  0.00  0.00     0.053 C 
ATOM      9  C   UNL d   1       1.331   3.572   3.279  0.00  0.00     0.018 C 
ENDBRANCH   1   8
TORSDOF 1
ENDMDL
