MODEL 1
REMARK minimizedAffinity -2.14816403
REMARK minimizedRMSD -1
REMARK  0 active torsions:
REMARK  status: ('A' for Active; 'I' for Inactive)
ROOT
ATOM      1  C2' OXE d   1      -0.270   1.756   0.626  0.00  0.00     0.078 C 
ATOM      2  C1' OXE d   1       2.291   1.877   1.769  0.00  0.00     0.078 C 
ATOM      3  C1  OXE d   1       1.966   0.693   0.893  0.00  0.00    -0.078 A 
ATOM      4  C2  OXE d   1       0.696   0.618   0.376  0.00  0.00    -0.078 A 
ATOM      5  C3  OXE d   1       0.361  -0.425  -0.483  0.00  0.00     0.003 A 
ATOM      6  C4  OXE d   1       1.257  -1.479  -0.701  0.00  0.00    -0.002 A 
ATOM      7  C5  OXE d   1       2.543  -1.442  -0.151  0.00  0.00    -0.002 A 
ATOM      8  C6  OXE d   1       2.927  -0.345   0.612  0.00  0.00     0.003 A 
ENDROOT
TORSDOF 0
ENDMDL
