MODEL 1
REMARK minimizedAffinity -3.55208111
REMARK minimizedRMSD -1
REMARK  0 active torsions:
REMARK  status: ('A' for Active; 'I' for Inactive)
ROOT
ATOM      1  C2' OXE d   1       1.422   0.684   0.611  0.00  0.00     0.078 C 
ATOM      2  C1' OXE d   1       1.768   0.495  -2.168  0.00  0.00     0.078 C 
ATOM      3  C1  OXE d   1       0.369   0.355  -1.622  0.00  0.00    -0.078 A 
ATOM      4  C2  OXE d   1       0.215   0.402  -0.257  0.00  0.00    -0.078 A 
ATOM      5  C3  OXE d   1      -1.060   0.333   0.296  0.00  0.00     0.003 A 
ATOM      6  C4  OXE d   1      -2.170   0.062  -0.514  0.00  0.00    -0.002 A 
ATOM      7  C5  OXE d   1      -2.030  -0.030  -1.903  0.00  0.00    -0.002 A 
ATOM      8  C6  OXE d   1      -0.777   0.156  -2.475  0.00  0.00     0.003 A 
ENDROOT
TORSDOF 0
ENDMDL
