MODEL 1
REMARK minimizedAffinity -0.43459183
REMARK minimizedRMSD -1
REMARK  0 active torsions:
REMARK  status: ('A' for Active; 'I' for Inactive)
ROOT
ATOM      1  C2' OXE d   1      -0.699  -1.978   1.591  0.00  0.00     0.078 C 
ATOM      2  C1' OXE d   1       1.606  -1.552   3.136  0.00  0.00     0.078 C 
ATOM      3  C1  OXE d   1       1.273  -0.535   2.073  0.00  0.00    -0.078 A 
ATOM      4  C2  OXE d   1       0.170  -0.776   1.291  0.00  0.00    -0.078 A 
ATOM      5  C3  OXE d   1      -0.212   0.157   0.331  0.00  0.00     0.003 A 
ATOM      6  C4  OXE d   1       0.602   1.262   0.053  0.00  0.00    -0.002 A 
ATOM      7  C5  OXE d   1       1.752   1.505   0.811  0.00  0.00    -0.002 A 
ATOM      8  C6  OXE d   1       2.078   0.641   1.851  0.00  0.00     0.003 A 
ENDROOT
TORSDOF 0
ENDMDL
