MODEL 1
REMARK minimizedAffinity 0.1790611
REMARK minimizedRMSD -1
REMARK  0 active torsions:
REMARK  status: ('A' for Active; 'I' for Inactive)
ROOT
ATOM      1  C2' OXE d   1      -2.176  -0.522   0.799  0.00  0.00     0.078 C 
ATOM      2  C1' OXE d   1       0.012   0.560  -0.588  0.00  0.00     0.078 C 
ATOM      3  C1  OXE d   1      -1.226   0.222  -1.380  0.00  0.00    -0.078 A 
ATOM      4  C2  OXE d   1      -2.274  -0.351  -0.701  0.00  0.00    -0.078 A 
ATOM      5  C3  OXE d   1      -3.460  -0.632  -1.374  0.00  0.00     0.003 A 
ATOM      6  C4  OXE d   1      -3.540  -0.480  -2.764  0.00  0.00    -0.002 A 
ATOM      7  C5  OXE d   1      -2.469   0.065  -3.481  0.00  0.00    -0.002 A 
ATOM      8  C6  OXE d   1      -1.323   0.459  -2.800  0.00  0.00     0.003 A 
ENDROOT
TORSDOF 0
ENDMDL
