MODEL 1
REMARK minimizedAffinity -1.76414132
REMARK minimizedRMSD -1
REMARK  0 active torsions:
REMARK  status: ('A' for Active; 'I' for Inactive)
ROOT
ATOM      1  C2' OXE d   1       0.660   2.014  -0.236  0.00  0.00     0.078 C 
ATOM      2  C1' OXE d   1       2.686   0.306   0.689  0.00  0.00     0.078 C 
ATOM      3  C1  OXE d   1       1.256  -0.142   0.860  0.00  0.00    -0.078 A 
ATOM      4  C2  OXE d   1       0.269   0.722   0.447  0.00  0.00    -0.078 A 
ATOM      5  C3  OXE d   1      -1.065   0.335   0.532  0.00  0.00     0.003 A 
ATOM      6  C4  OXE d   1      -1.418  -0.858   1.174  0.00  0.00    -0.002 A 
ATOM      7  C5  OXE d   1      -0.430  -1.734   1.638  0.00  0.00    -0.002 A 
ATOM      8  C6  OXE d   1       0.909  -1.411   1.451  0.00  0.00     0.003 A 
ENDROOT
TORSDOF 0
ENDMDL
