MODEL 1
REMARK minimizedAffinity -2.56429458
REMARK minimizedRMSD -1
REMARK  0 active torsions:
REMARK  status: ('A' for Active; 'I' for Inactive)
ROOT
ATOM      1  C2' OXE d   1      -1.152  -1.403   1.400  0.00  0.00     0.078 C 
ATOM      2  C1' OXE d   1      -1.770   0.479  -0.589  0.00  0.00     0.078 C 
ATOM      3  C1  OXE d   1      -0.391   0.525   0.019  0.00  0.00    -0.078 A 
ATOM      4  C2  OXE d   1      -0.112  -0.369   1.024  0.00  0.00    -0.078 A 
ATOM      5  C3  OXE d   1       1.163  -0.406   1.581  0.00  0.00     0.003 A 
ATOM      6  C4  OXE d   1       2.115   0.561   1.235  0.00  0.00    -0.002 A 
ATOM      7  C5  OXE d   1       1.839   1.506   0.242  0.00  0.00    -0.002 A 
ATOM      8  C6  OXE d   1       0.608   1.475  -0.405  0.00  0.00     0.003 A 
ENDROOT
TORSDOF 0
ENDMDL
