MODEL 1
REMARK minimizedAffinity -5.47773218
REMARK minimizedRMSD -1
REMARK  0 active torsions:
REMARK  status: ('A' for Active; 'I' for Inactive)
ROOT
ATOM      1  C2' OXE d   1       1.082   1.686   0.153  0.00  0.00     0.078 C 
ATOM      2  C1' OXE d   1      -1.185   0.035   0.027  0.00  0.00     0.078 C 
ATOM      3  C1  OXE d   1       0.048  -0.513   0.701  0.00  0.00    -0.078 A 
ATOM      4  C2  OXE d   1       1.167   0.284   0.717  0.00  0.00    -0.078 A 
ATOM      5  C3  OXE d   1       2.314  -0.152   1.374  0.00  0.00     0.003 A 
ATOM      6  C4  OXE d   1       2.388  -1.453   1.885  0.00  0.00    -0.002 A 
ATOM      7  C5  OXE d   1       1.272  -2.296   1.844  0.00  0.00    -0.002 A 
ATOM      8  C6  OXE d   1       0.083  -1.827   1.295  0.00  0.00     0.003 A 
ENDROOT
TORSDOF 0
ENDMDL
