MODEL 1
REMARK minimizedAffinity -0.759463727
REMARK minimizedRMSD -1
REMARK  0 active torsions:
REMARK  status: ('A' for Active; 'I' for Inactive)
ROOT
ATOM      1  C2' OXE d   1       0.722  -1.248   1.414  0.00  0.00     0.078 C 
ATOM      2  C1' OXE d   1       1.558   1.243   0.427  0.00  0.00     0.078 C 
ATOM      3  C1  OXE d   1       0.146   0.805   0.126  0.00  0.00    -0.078 A 
ATOM      4  C2  OXE d   1      -0.240  -0.436   0.573  0.00  0.00    -0.078 A 
ATOM      5  C3  OXE d   1      -1.548  -0.866   0.370  0.00  0.00     0.003 A 
ATOM      6  C4  OXE d   1      -2.427  -0.113  -0.417  0.00  0.00    -0.002 A 
ATOM      7  C5  OXE d   1      -2.042   1.136  -0.916  0.00  0.00    -0.002 A 
ATOM      8  C6  OXE d   1      -0.776   1.627  -0.618  0.00  0.00     0.003 A 
ENDROOT
TORSDOF 0
ENDMDL
