MODEL 1
REMARK minimizedAffinity -4.42927647
REMARK minimizedRMSD -1
REMARK  0 active torsions:
REMARK  status: ('A' for Active; 'I' for Inactive)
ROOT
ATOM      1  C2' OXE d   1       0.481   1.231  -0.159  0.00  0.00     0.078 C 
ATOM      2  C1' OXE d   1      -1.112  -0.933   0.655  0.00  0.00     0.078 C 
ATOM      3  C1  OXE d   1       0.374  -1.023   0.897  0.00  0.00    -0.078 A 
ATOM      4  C2  OXE d   1       1.151   0.020   0.454  0.00  0.00    -0.078 A 
ATOM      5  C3  OXE d   1       2.521   0.013   0.701  0.00  0.00     0.003 A 
ATOM      6  C4  OXE d   1       3.135  -1.115   1.259  0.00  0.00    -0.002 A 
ATOM      7  C5  OXE d   1       2.366  -2.205   1.681  0.00  0.00    -0.002 A 
ATOM      8  C6  OXE d   1       0.983  -2.157   1.547  0.00  0.00     0.003 A 
ENDROOT
TORSDOF 0
ENDMDL
