MODEL 1
REMARK minimizedAffinity -5.47498608
REMARK minimizedRMSD -1
REMARK  0 active torsions:
REMARK  status: ('A' for Active; 'I' for Inactive)
ROOT
ATOM      1  C2' OXE d   1      -1.303  -1.871   1.228  0.00  0.00     0.078 C 
ATOM      2  C1' OXE d   1       0.024   0.174  -0.163  0.00  0.00     0.078 C 
ATOM      3  C1  OXE d   1       0.864  -0.807   0.616  0.00  0.00    -0.078 A 
ATOM      4  C2  OXE d   1       0.204  -1.777   1.331  0.00  0.00    -0.078 A 
ATOM      5  C3  OXE d   1       0.933  -2.740   2.022  0.00  0.00     0.003 A 
ATOM      6  C4  OXE d   1       2.326  -2.640   2.120  0.00  0.00    -0.002 A 
ATOM      7  C5  OXE d   1       3.016  -1.636   1.431  0.00  0.00    -0.002 A 
ATOM      8  C6  OXE d   1       2.305  -0.739   0.642  0.00  0.00     0.003 A 
ENDROOT
TORSDOF 0
ENDMDL
