MODEL 1
REMARK minimizedAffinity -4.10659266
REMARK minimizedRMSD -1
REMARK  0 active torsions:
REMARK  status: ('A' for Active; 'I' for Inactive)
ROOT
ATOM      1  C2' OXE d   1       0.604   1.665  -0.085  0.00  0.00     0.078 C 
ATOM      2  C1' OXE d   1      -1.007  -0.631   0.016  0.00  0.00     0.078 C 
ATOM      3  C1  OXE d   1       0.326  -0.675   0.722  0.00  0.00    -0.078 A 
ATOM      4  C2  OXE d   1       1.128   0.437   0.628  0.00  0.00    -0.078 A 
ATOM      5  C3  OXE d   1       2.343   0.469   1.305  0.00  0.00     0.003 A 
ATOM      6  C4  OXE d   1       2.824  -0.675   1.953  0.00  0.00    -0.002 A 
ATOM      7  C5  OXE d   1       2.040  -1.831   2.027  0.00  0.00    -0.002 A 
ATOM      8  C6  OXE d   1       0.773  -1.834   1.454  0.00  0.00     0.003 A 
ENDROOT
TORSDOF 0
ENDMDL
