MODEL 1
REMARK minimizedAffinity -5.03832769
REMARK minimizedRMSD -1
REMARK  0 active torsions:
REMARK  status: ('A' for Active; 'I' for Inactive)
ROOT
ATOM      1  C2' OXE d   1       1.571   1.758  -0.007  0.00  0.00     0.078 C 
ATOM      2  C1' OXE d   1      -0.173  -0.336  -0.680  0.00  0.00     0.078 C 
ATOM      3  C1  OXE d   1       1.014  -0.662   0.193  0.00  0.00    -0.078 A 
ATOM      4  C2  OXE d   1       1.888   0.360   0.478  0.00  0.00    -0.078 A 
ATOM      5  C3  OXE d   1       2.969   0.126   1.323  0.00  0.00     0.003 A 
ATOM      6  C4  OXE d   1       3.260  -1.172   1.760  0.00  0.00    -0.002 A 
ATOM      7  C5  OXE d   1       2.405  -2.235   1.447  0.00  0.00    -0.002 A 
ATOM      8  C6  OXE d   1       1.257  -1.989   0.702  0.00  0.00     0.003 A 
ENDROOT
TORSDOF 0
ENDMDL
