MODEL 1
REMARK minimizedAffinity -5.66737413
REMARK minimizedRMSD -1
REMARK  0 active torsions:
REMARK  status: ('A' for Active; 'I' for Inactive)
ROOT
ATOM      1  C2' OXE d   1       0.455  -2.850   1.242  0.00  0.00     0.078 C 
ATOM      2  C1' OXE d   1      -1.162  -0.760   0.294  0.00  0.00     0.078 C 
ATOM      3  C1  OXE d   1       0.290  -0.457   0.570  0.00  0.00    -0.078 A 
ATOM      4  C2  OXE d   1       1.063  -1.474   1.077  0.00  0.00    -0.078 A 
ATOM      5  C3  OXE d   1       2.421  -1.263   1.298  0.00  0.00     0.003 A 
ATOM      6  C4  OXE d   1       2.972   0.016   1.153  0.00  0.00    -0.002 A 
ATOM      7  C5  OXE d   1       2.193   1.075   0.675  0.00  0.00    -0.002 A 
ATOM      8  C6  OXE d   1       0.864   0.845   0.339  0.00  0.00     0.003 A 
ENDROOT
TORSDOF 0
ENDMDL
