MODEL 1
REMARK minimizedAffinity -3.30908298
REMARK minimizedRMSD -1
REMARK  0 active torsions:
REMARK  status: ('A' for Active; 'I' for Inactive)
ROOT
ATOM      1  C2' OXE d   1      -1.109  -0.343  -0.010  0.00  0.00     0.078 C 
ATOM      2  C1' OXE d   1       0.843   1.665  -0.205  0.00  0.00     0.078 C 
ATOM      3  C1  OXE d   1       1.164   0.451   0.630  0.00  0.00    -0.078 A 
ATOM      4  C2  OXE d   1       0.185  -0.506   0.757  0.00  0.00    -0.078 A 
ATOM      5  C3  OXE d   1       0.449  -1.671   1.471  0.00  0.00     0.003 A 
ATOM      6  C4  OXE d   1       1.645  -1.809   2.186  0.00  0.00    -0.002 A 
ATOM      7  C5  OXE d   1       2.640  -0.829   2.102  0.00  0.00    -0.002 A 
ATOM      8  C6  OXE d   1       2.432   0.285   1.296  0.00  0.00     0.003 A 
ENDROOT
TORSDOF 0
ENDMDL
