MODEL 1
REMARK minimizedAffinity -5.15508318
REMARK minimizedRMSD -1
REMARK  0 active torsions:
REMARK  status: ('A' for Active; 'I' for Inactive)
ROOT
ATOM      1  C2' OXE d   1       0.211   1.952  -0.212  0.00  0.00     0.078 C 
ATOM      2  C1' OXE d   1      -1.317  -0.257   0.603  0.00  0.00     0.078 C 
ATOM      3  C1  OXE d   1       0.182  -0.348   0.743  0.00  0.00    -0.078 A 
ATOM      4  C2  OXE d   1       0.925   0.719   0.299  0.00  0.00    -0.078 A 
ATOM      5  C3  OXE d   1       2.308   0.709   0.455  0.00  0.00     0.003 A 
ATOM      6  C4  OXE d   1       2.961  -0.439   0.919  0.00  0.00    -0.002 A 
ATOM      7  C5  OXE d   1       2.226  -1.552   1.340  0.00  0.00    -0.002 A 
ATOM      8  C6  OXE d   1       0.836  -1.507   1.299  0.00  0.00     0.003 A 
ENDROOT
TORSDOF 0
ENDMDL
