MODEL 1
REMARK minimizedAffinity -2.22110772
REMARK minimizedRMSD -1
REMARK  0 active torsions:
REMARK  status: ('A' for Active; 'I' for Inactive)
ROOT
ATOM      1  C2' OXE d   1      -1.932  -1.320   0.597  0.00  0.00     0.078 C 
ATOM      2  C1' OXE d   1      -0.455   0.925  -0.214  0.00  0.00     0.078 C 
ATOM      3  C1  OXE d   1      -1.656   0.538  -1.040  0.00  0.00    -0.078 A 
ATOM      4  C2  OXE d   1      -2.346  -0.589  -0.663  0.00  0.00    -0.078 A 
ATOM      5  C3  OXE d   1      -3.493  -0.960  -1.358  0.00  0.00     0.003 A 
ATOM      6  C4  OXE d   1      -3.863  -0.285  -2.528  0.00  0.00    -0.002 A 
ATOM      7  C5  OXE d   1      -3.151   0.842  -2.952  0.00  0.00    -0.002 A 
ATOM      8  C6  OXE d   1      -2.073   1.291  -2.198  0.00  0.00     0.003 A 
ENDROOT
TORSDOF 0
ENDMDL
