MODEL 1
REMARK minimizedAffinity -2.32996702
REMARK minimizedRMSD -1
REMARK  1 active torsions:
REMARK  status: ('A' for Active; 'I' for Inactive)
REMARK    1  A    between atoms: C3_4  and  O_7 
ROOT
ATOM      1  C   UNL d   1       0.832   0.578  -1.295  0.00  0.00    -0.033 A 
ATOM      2  C1  UNL d   1       0.449  -0.538  -2.041  0.00  0.00     0.039 A 
ATOM      3  C2  UNL d   1       0.777  -1.821  -1.599  0.00  0.00    -0.080 A 
ATOM      4  C3  UNL d   1       1.486  -1.975  -0.411  0.00  0.00     0.150 A 
ATOM      5  C4  UNL d   1       1.867  -0.867   0.340  0.00  0.00    -0.007 A 
ATOM      6  C5  UNL d   1       1.539   0.414  -0.104  0.00  0.00     0.039 A 
ENDROOT
BRANCH   4   7
ATOM      7  O   UNL d   1       1.833  -3.207   0.058  0.00  0.00    -0.526 OA
ATOM      8  H5  UNL d   1       1.529  -3.875  -0.579  0.00  0.00     0.418 HD
ENDBRANCH   4   7
TORSDOF 1
ENDMDL
