MODEL 1
REMARK minimizedAffinity -3.3710072
REMARK minimizedRMSD -1
REMARK  1 active torsions:
REMARK  status: ('A' for Active; 'I' for Inactive)
REMARK    1  A    between atoms: C3_4  and  O_7 
ROOT
ATOM      1  C   UNL d   1       1.549   0.960  -1.486  0.00  0.00    -0.033 A 
ATOM      2  C1  UNL d   1       0.798  -0.043  -2.102  0.00  0.00     0.039 A 
ATOM      3  C2  UNL d   1       0.574  -1.254  -1.444  0.00  0.00    -0.080 A 
ATOM      4  C3  UNL d   1       1.105  -1.449  -0.172  0.00  0.00     0.150 A 
ATOM      5  C4  UNL d   1       1.852  -0.453   0.449  0.00  0.00    -0.007 A 
ATOM      6  C5  UNL d   1       2.075   0.755  -0.210  0.00  0.00     0.039 A 
ENDROOT
BRANCH   4   7
ATOM      7  O   UNL d   1       0.918  -2.616   0.507  0.00  0.00    -0.526 OA
ATOM      8  H5  UNL d   1       0.408  -3.222  -0.057  0.00  0.00     0.418 HD
ENDBRANCH   4   7
TORSDOF 1
ENDMDL
