MODEL 1
REMARK minimizedAffinity 4.00165415
REMARK minimizedRMSD -1
REMARK  1 active torsions:
REMARK  status: ('A' for Active; 'I' for Inactive)
REMARK    1  A    between atoms: C3_4  and  O_7 
ROOT
ATOM      1  C   UNL d   1       2.334   1.048  -0.962  0.00  0.00    -0.033 A 
ATOM      2  C1  UNL d   1       1.961   2.093  -1.810  0.00  0.00     0.039 A 
ATOM      3  C2  UNL d   1       0.633   2.219  -2.223  0.00  0.00    -0.080 A 
ATOM      4  C3  UNL d   1      -0.311   1.297  -1.779  0.00  0.00     0.150 A 
ATOM      5  C4  UNL d   1       0.053   0.257  -0.930  0.00  0.00    -0.007 A 
ATOM      6  C5  UNL d   1       1.379   0.131  -0.521  0.00  0.00     0.039 A 
ENDROOT
BRANCH   4   7
ATOM      7  O   UNL d   1      -1.618   1.377  -2.158  0.00  0.00    -0.526 OA
ATOM      8  H5  UNL d   1      -1.717   2.128  -2.767  0.00  0.00     0.418 HD
ENDBRANCH   4   7
TORSDOF 1
ENDMDL
