MODEL 1
REMARK minimizedAffinity 1.25909185
REMARK minimizedRMSD -1
REMARK  1 active torsions:
REMARK  status: ('A' for Active; 'I' for Inactive)
REMARK    1  A    between atoms: C3_4  and  O_7 
ROOT
ATOM      1  C   UNL d   1       1.072   0.541  -2.427  0.00  0.00    -0.033 A 
ATOM      2  C1  UNL d   1       0.818  -0.435  -1.461  0.00  0.00     0.039 A 
ATOM      3  C2  UNL d   1       1.041  -0.158  -0.111  0.00  0.00    -0.080 A 
ATOM      4  C3  UNL d   1       1.518   1.097   0.259  0.00  0.00     0.150 A 
ATOM      5  C4  UNL d   1       1.770   2.074  -0.698  0.00  0.00    -0.007 A 
ATOM      6  C5  UNL d   1       1.547   1.796  -2.045  0.00  0.00     0.039 A 
ENDROOT
BRANCH   4   7
ATOM      7  O   UNL d   1       1.756   1.412   1.564  0.00  0.00    -0.526 OA
ATOM      8  H5  UNL d   1       1.564   0.631   2.109  0.00  0.00     0.418 HD
ENDBRANCH   4   7
TORSDOF 1
ENDMDL
