MODEL 1
REMARK minimizedAffinity 2.54310751
REMARK minimizedRMSD -1
REMARK  1 active torsions:
REMARK  status: ('A' for Active; 'I' for Inactive)
REMARK    1  A    between atoms: C3_4  and  O_7 
ROOT
ATOM      1  C   UNL d   1      -3.359   1.757   3.452  0.00  0.00    -0.033 A 
ATOM      2  C1  UNL d   1      -2.500   2.778   3.040  0.00  0.00     0.039 A 
ATOM      3  C2  UNL d   1      -2.451   3.152   1.696  0.00  0.00    -0.080 A 
ATOM      4  C3  UNL d   1      -3.266   2.499   0.775  0.00  0.00     0.150 A 
ATOM      5  C4  UNL d   1      -4.127   1.483   1.178  0.00  0.00    -0.007 A 
ATOM      6  C5  UNL d   1      -4.173   1.111   2.521  0.00  0.00     0.039 A 
ENDROOT
BRANCH   4   7
ATOM      7  O   UNL d   1      -3.250   2.826  -0.549  0.00  0.00    -0.526 OA
ATOM      8  H5  UNL d   1      -2.587   3.523  -0.685  0.00  0.00     0.418 HD
ENDBRANCH   4   7
TORSDOF 1
ENDMDL
