MODEL 1
REMARK minimizedAffinity -1.21519101
REMARK minimizedRMSD -1
REMARK  1 active torsions:
REMARK  status: ('A' for Active; 'I' for Inactive)
REMARK    1  A    between atoms: C3_4  and  O_7 
ROOT
ATOM      1  C   UNL d   1       0.897  -0.351  -0.655  0.00  0.00    -0.033 A 
ATOM      2  C1  UNL d   1       0.775   0.012  -1.997  0.00  0.00     0.039 A 
ATOM      3  C2  UNL d   1       1.185   1.278  -2.420  0.00  0.00    -0.080 A 
ATOM      4  C3  UNL d   1       1.716   2.170  -1.492  0.00  0.00     0.150 A 
ATOM      5  C4  UNL d   1       1.844   1.814  -0.154  0.00  0.00    -0.007 A 
ATOM      6  C5  UNL d   1       1.432   0.550   0.267  0.00  0.00     0.039 A 
ENDROOT
BRANCH   4   7
ATOM      7  O   UNL d   1       2.126   3.418  -1.857  0.00  0.00    -0.526 OA
ATOM      8  H5  UNL d   1       1.951   3.534  -2.806  0.00  0.00     0.418 HD
ENDBRANCH   4   7
TORSDOF 1
ENDMDL
