MODEL 1
REMARK minimizedAffinity -3.60928273
REMARK minimizedRMSD -1
REMARK  1 active torsions:
REMARK  status: ('A' for Active; 'I' for Inactive)
REMARK    1  A    between atoms: C3_4  and  O_7 
ROOT
ATOM      1  C   UNL d   1       0.938   0.459  -0.180  0.00  0.00    -0.033 A 
ATOM      2  C1  UNL d   1       1.278   1.517   0.664  0.00  0.00     0.039 A 
ATOM      3  C2  UNL d   1       1.807   2.695   0.133  0.00  0.00    -0.080 A 
ATOM      4  C3  UNL d   1       1.991   2.801  -1.243  0.00  0.00     0.150 A 
ATOM      5  C4  UNL d   1       1.651   1.752  -2.091  0.00  0.00    -0.007 A 
ATOM      6  C5  UNL d   1       1.124   0.576  -1.558  0.00  0.00     0.039 A 
ENDROOT
BRANCH   4   7
ATOM      7  O   UNL d   1       2.509   3.929  -1.808  0.00  0.00    -0.526 OA
ATOM      8  H5  UNL d   1       2.723   4.557  -1.099  0.00  0.00     0.418 HD
ENDBRANCH   4   7
TORSDOF 1
ENDMDL
