MODEL 1
REMARK minimizedAffinity -3.77999854
REMARK minimizedRMSD -1
REMARK  1 active torsions:
REMARK  status: ('A' for Active; 'I' for Inactive)
REMARK    1  A    between atoms: C3_4  and  O_7 
ROOT
ATOM      1  C   UNL d   1       0.885   0.059   0.262  0.00  0.00    -0.033 A 
ATOM      2  C1  UNL d   1       0.947   1.291   0.916  0.00  0.00     0.039 A 
ATOM      3  C2  UNL d   1       1.254   2.449   0.198  0.00  0.00    -0.080 A 
ATOM      4  C3  UNL d   1       1.494   2.361  -1.170  0.00  0.00     0.150 A 
ATOM      5  C4  UNL d   1       1.430   1.138  -1.828  0.00  0.00    -0.007 A 
ATOM      6  C5  UNL d   1       1.125  -0.018  -1.110  0.00  0.00     0.039 A 
ENDROOT
BRANCH   4   7
ATOM      7  O   UNL d   1       1.801   3.463  -1.912  0.00  0.00    -0.526 OA
ATOM      8  H5  UNL d   1       1.838   4.233  -1.319  0.00  0.00     0.418 HD
ENDBRANCH   4   7
TORSDOF 1
ENDMDL
