MODEL 1
REMARK minimizedAffinity -4.29361582
REMARK minimizedRMSD -1
REMARK  1 active torsions:
REMARK  status: ('A' for Active; 'I' for Inactive)
REMARK    1  A    between atoms: C3_4  and  O_7 
ROOT
ATOM      1  C   UNL d   1       0.697   0.976   0.602  0.00  0.00    -0.033 A 
ATOM      2  C1  UNL d   1       1.877   1.445   0.021  0.00  0.00     0.039 A 
ATOM      3  C2  UNL d   1       2.190   1.111  -1.298  0.00  0.00    -0.080 A 
ATOM      4  C3  UNL d   1       1.315   0.308  -2.025  0.00  0.00     0.150 A 
ATOM      5  C4  UNL d   1       0.136  -0.160  -1.454  0.00  0.00    -0.007 A 
ATOM      6  C5  UNL d   1      -0.174   0.174  -0.136  0.00  0.00     0.039 A 
ENDROOT
BRANCH   4   7
ATOM      7  O   UNL d   1       1.580  -0.049  -3.313  0.00  0.00    -0.526 OA
ATOM      8  H5  UNL d   1       2.441   0.323  -3.565  0.00  0.00     0.418 HD
ENDBRANCH   4   7
TORSDOF 1
ENDMDL
