MODEL 1
REMARK minimizedAffinity 3.79146647
REMARK minimizedRMSD -1
REMARK  1 active torsions:
REMARK  status: ('A' for Active; 'I' for Inactive)
REMARK    1  A    between atoms: C3_4  and  O_7 
ROOT
ATOM      1  C   UNL d   1      -2.515   2.000   4.089  0.00  0.00    -0.033 A 
ATOM      2  C1  UNL d   1      -1.710   3.018   3.575  0.00  0.00     0.039 A 
ATOM      3  C2  UNL d   1      -1.958   3.530   2.300  0.00  0.00    -0.080 A 
ATOM      4  C3  UNL d   1      -3.013   3.016   1.551  0.00  0.00     0.150 A 
ATOM      5  C4  UNL d   1      -3.822   2.005   2.059  0.00  0.00    -0.007 A 
ATOM      6  C5  UNL d   1      -3.572   1.495   3.332  0.00  0.00     0.039 A 
ENDROOT
BRANCH   4   7
ATOM      7  O   UNL d   1      -3.291   3.481   0.299  0.00  0.00    -0.526 OA
ATOM      8  H5  UNL d   1      -2.633   4.157   0.069  0.00  0.00     0.418 HD
ENDBRANCH   4   7
TORSDOF 1
ENDMDL
