MODEL 1
REMARK minimizedAffinity 6.81810617
REMARK minimizedRMSD -1
REMARK  1 active torsions:
REMARK  status: ('A' for Active; 'I' for Inactive)
REMARK    1  A    between atoms: C3_4  and  O_7 
ROOT
ATOM      1  C   UNL d   1       1.487   1.927  -0.181  0.00  0.00    -0.033 A 
ATOM      2  C1  UNL d   1       0.482   1.197  -0.819  0.00  0.00     0.039 A 
ATOM      3  C2  UNL d   1       0.056   1.562  -2.097  0.00  0.00    -0.080 A 
ATOM      4  C3  UNL d   1       0.643   2.656  -2.727  0.00  0.00     0.150 A 
ATOM      5  C4  UNL d   1       1.648   3.385  -2.098  0.00  0.00    -0.007 A 
ATOM      6  C5  UNL d   1       2.071   3.020  -0.821  0.00  0.00     0.039 A 
ENDROOT
BRANCH   4   7
ATOM      7  O   UNL d   1       0.258   3.053  -3.972  0.00  0.00    -0.526 OA
ATOM      8  H5  UNL d   1      -0.464   2.475  -4.270  0.00  0.00     0.418 HD
ENDBRANCH   4   7
TORSDOF 1
ENDMDL
