MODEL 1
REMARK minimizedAffinity -0.0540799275
REMARK minimizedRMSD -1
REMARK  1 active torsions:
REMARK  status: ('A' for Active; 'I' for Inactive)
REMARK    1  A    between atoms: C3_4  and  O_7 
ROOT
ATOM      1  C   UNL d   1       0.842   0.085  -1.723  0.00  0.00    -0.033 A 
ATOM      2  C1  UNL d   1       0.925   0.743  -2.952  0.00  0.00     0.039 A 
ATOM      3  C2  UNL d   1       1.492   2.017  -3.027  0.00  0.00    -0.080 A 
ATOM      4  C3  UNL d   1       1.973   2.620  -1.868  0.00  0.00     0.150 A 
ATOM      5  C4  UNL d   1       1.896   1.969  -0.641  0.00  0.00    -0.007 A 
ATOM      6  C5  UNL d   1       1.329   0.698  -0.568  0.00  0.00     0.039 A 
ENDROOT
BRANCH   4   7
ATOM      7  O   UNL d   1       2.530   3.864  -1.890  0.00  0.00    -0.526 OA
ATOM      8  H5  UNL d   1       2.489   4.203  -2.800  0.00  0.00     0.418 HD
ENDBRANCH   4   7
TORSDOF 1
ENDMDL
