MODEL 1
REMARK minimizedAffinity 1.50092947
REMARK minimizedRMSD -1
REMARK  1 active torsions:
REMARK  status: ('A' for Active; 'I' for Inactive)
REMARK    1  A    between atoms: C3_4  and  O_7 
ROOT
ATOM      1  C   UNL d   1       1.042  -0.152   0.191  0.00  0.00    -0.033 A 
ATOM      2  C1  UNL d   1       1.527   0.892   0.981  0.00  0.00     0.039 A 
ATOM      3  C2  UNL d   1       1.902   2.100   0.391  0.00  0.00    -0.080 A 
ATOM      4  C3  UNL d   1       1.785   2.252  -0.988  0.00  0.00     0.150 A 
ATOM      5  C4  UNL d   1       1.299   1.218  -1.780  0.00  0.00    -0.007 A 
ATOM      6  C5  UNL d   1       0.926   0.012  -1.189  0.00  0.00     0.039 A 
ENDROOT
BRANCH   4   7
ATOM      7  O   UNL d   1       2.143   3.412  -1.609  0.00  0.00    -0.526 OA
ATOM      8  H5  UNL d   1       2.488   4.026  -0.940  0.00  0.00     0.418 HD
ENDBRANCH   4   7
TORSDOF 1
ENDMDL
