MODEL 1
REMARK minimizedAffinity 4.06119013
REMARK minimizedRMSD -1
REMARK  1 active torsions:
REMARK  status: ('A' for Active; 'I' for Inactive)
REMARK    1  A    between atoms: C3_4  and  O_7 
ROOT
ATOM      1  C   UNL d   1       0.944   0.188   0.179  0.00  0.00    -0.033 A 
ATOM      2  C1  UNL d   1       1.343   1.411   0.721  0.00  0.00     0.039 A 
ATOM      3  C2  UNL d   1       1.597   2.498  -0.118  0.00  0.00    -0.080 A 
ATOM      4  C3  UNL d   1       1.447   2.349  -1.494  0.00  0.00     0.150 A 
ATOM      5  C4  UNL d   1       1.046   1.134  -2.040  0.00  0.00    -0.007 A 
ATOM      6  C5  UNL d   1       0.794   0.050  -1.201  0.00  0.00     0.039 A 
ENDROOT
BRANCH   4   7
ATOM      7  O   UNL d   1       1.687   3.380  -2.353  0.00  0.00    -0.526 OA
ATOM      8  H5  UNL d   1       1.984   4.148  -1.836  0.00  0.00     0.418 HD
ENDBRANCH   4   7
TORSDOF 1
ENDMDL
