MODEL 1
REMARK minimizedAffinity -2.17182899
REMARK minimizedRMSD -1
REMARK  1 active torsions:
REMARK  status: ('A' for Active; 'I' for Inactive)
REMARK    1  A    between atoms: C3_4  and  O_7 
ROOT
ATOM      1  C   UNL d   1       1.527   1.991  -0.037  0.00  0.00    -0.033 A 
ATOM      2  C1  UNL d   1       2.217   1.135   0.822  0.00  0.00     0.039 A 
ATOM      3  C2  UNL d   1       2.186  -0.245   0.609  0.00  0.00    -0.080 A 
ATOM      4  C3  UNL d   1       1.463  -0.754  -0.466  0.00  0.00     0.150 A 
ATOM      5  C4  UNL d   1       0.776   0.094  -1.328  0.00  0.00    -0.007 A 
ATOM      6  C5  UNL d   1       0.807   1.471  -1.113  0.00  0.00     0.039 A 
ENDROOT
BRANCH   4   7
ATOM      7  O   UNL d   1       1.399  -2.094  -0.711  0.00  0.00    -0.526 OA
ATOM      8  H5  UNL d   1       1.898  -2.558  -0.018  0.00  0.00     0.418 HD
ENDBRANCH   4   7
TORSDOF 1
ENDMDL
