MODEL 1
REMARK minimizedAffinity -0.205626383
REMARK minimizedRMSD -1
REMARK  0 active torsions:
REMARK  status: ('A' for Active; 'I' for Inactive)
ROOT
ATOM      1  C1  BNZ d   1      -0.237  -5.996  -5.726  0.00  0.00     0.000 A 
ATOM      2  C2  BNZ d   1      -1.601  -5.999  -5.605  0.00  0.00     0.000 A 
ATOM      3  C3  BNZ d   1      -2.194  -5.978  -4.374  0.00  0.00     0.000 A 
ATOM      4  C4  BNZ d   1      -1.425  -5.994  -3.267  0.00  0.00     0.000 A 
ATOM      5  C5  BNZ d   1      -0.048  -6.000  -3.372  0.00  0.00     0.000 A 
ATOM      6  C6  BNZ d   1       0.546  -5.982  -4.613  0.00  0.00     0.000 A 
ENDROOT
TORSDOF 0
ENDMDL
