MODEL 1
REMARK minimizedAffinity 1.03489864
REMARK minimizedRMSD -1
REMARK  0 active torsions:
REMARK  status: ('A' for Active; 'I' for Inactive)
ROOT
ATOM      1  C1  BNZ d   1       4.859   2.045  -1.351  0.00  0.00     0.000 A 
ATOM      2  C2  BNZ d   1       3.710   2.515  -0.772  0.00  0.00     0.000 A 
ATOM      3  C3  BNZ d   1       3.688   3.731  -0.148  0.00  0.00     0.000 A 
ATOM      4  C4  BNZ d   1       4.822   4.456  -0.069  0.00  0.00     0.000 A 
ATOM      5  C5  BNZ d   1       5.990   3.992  -0.639  0.00  0.00     0.000 A 
ATOM      6  C6  BNZ d   1       6.000   2.785  -1.300  0.00  0.00     0.000 A 
ENDROOT
TORSDOF 0
ENDMDL
