MODEL 1
REMARK minimizedAffinity -2.04584789
REMARK minimizedRMSD -1
REMARK  0 active torsions:
REMARK  status: ('A' for Active; 'I' for Inactive)
ROOT
ATOM      1  C1  BNZ d   1      -1.092  -5.272  -5.999  0.00  0.00     0.000 A 
ATOM      2  C2  BNZ d   1       0.251  -5.275  -5.735  0.00  0.00     0.000 A 
ATOM      3  C3  BNZ d   1       0.723  -5.658  -4.511  0.00  0.00     0.000 A 
ATOM      4  C4  BNZ d   1      -0.150  -6.000  -3.541  0.00  0.00     0.000 A 
ATOM      5  C5  BNZ d   1      -1.508  -5.993  -3.789  0.00  0.00     0.000 A 
ATOM      6  C6  BNZ d   1      -1.977  -5.644  -5.035  0.00  0.00     0.000 A 
ENDROOT
TORSDOF 0
ENDMDL
