MODEL 1
REMARK minimizedAffinity -1.0466944
REMARK minimizedRMSD -1
REMARK  0 active torsions:
REMARK  status: ('A' for Active; 'I' for Inactive)
ROOT
ATOM      1  C1  BNZ d   1       0.377  -5.966  -3.636  0.00  0.00     0.000 A 
ATOM      2  C2  BNZ d   1      -0.991  -5.979  -3.585  0.00  0.00     0.000 A 
ATOM      3  C3  BNZ d   1      -1.735  -5.986  -4.731  0.00  0.00     0.000 A 
ATOM      4  C4  BNZ d   1      -1.111  -5.939  -5.926  0.00  0.00     0.000 A 
ATOM      5  C5  BNZ d   1       0.268  -5.916  -5.995  0.00  0.00     0.000 A 
ATOM      6  C6  BNZ d   1       1.014  -5.949  -4.839  0.00  0.00     0.000 A 
ENDROOT
TORSDOF 0
ENDMDL
