MODEL 1
REMARK minimizedAffinity -2.73678255
REMARK minimizedRMSD -1
REMARK  0 active torsions:
REMARK  status: ('A' for Active; 'I' for Inactive)
ROOT
ATOM      1  C1  BNZ d   1      -2.109  -5.962  -4.190  0.00  0.00     0.000 A 
ATOM      2  C2  BNZ d   1      -1.420  -5.960  -5.374  0.00  0.00     0.000 A 
ATOM      3  C3  BNZ d   1      -0.053  -5.999  -5.388  0.00  0.00     0.000 A 
ATOM      4  C4  BNZ d   1       0.622  -6.000  -4.220  0.00  0.00     0.000 A 
ATOM      5  C5  BNZ d   1      -0.058  -5.992  -3.019  0.00  0.00     0.000 A 
ATOM      6  C6  BNZ d   1      -1.434  -5.993  -3.009  0.00  0.00     0.000 A 
ENDROOT
TORSDOF 0
ENDMDL
