MODEL 1
REMARK minimizedAffinity 0.81986475
REMARK minimizedRMSD -1
REMARK  0 active torsions:
REMARK  status: ('A' for Active; 'I' for Inactive)
ROOT
ATOM      1  C1  BNZ d   1       1.550  -5.981  -5.585  0.00  0.00     0.000 A 
ATOM      2  C2  BNZ d   1       0.245  -5.939  -5.997  0.00  0.00     0.000 A 
ATOM      3  C3  BNZ d   1      -0.775  -5.901  -5.087  0.00  0.00     0.000 A 
ATOM      4  C4  BNZ d   1      -0.490  -5.946  -3.770  0.00  0.00     0.000 A 
ATOM      5  C5  BNZ d   1       0.820  -5.998  -3.339  0.00  0.00     0.000 A 
ATOM      6  C6  BNZ d   1       1.846  -5.996  -4.257  0.00  0.00     0.000 A 
ENDROOT
TORSDOF 0
ENDMDL
