MODEL 1
REMARK minimizedAffinity -2.4473803
REMARK minimizedRMSD -1
REMARK  0 active torsions:
REMARK  status: ('A' for Active; 'I' for Inactive)
ROOT
ATOM      1  C1  BNZ d   1       0.427  -5.998  -3.618  0.00  0.00     0.000 A 
ATOM      2  C2  BNZ d   1       1.125  -5.972  -4.796  0.00  0.00     0.000 A 
ATOM      3  C3  BNZ d   1       0.484  -5.764  -5.985  0.00  0.00     0.000 A 
ATOM      4  C4  BNZ d   1      -0.857  -5.622  -6.000  0.00  0.00     0.000 A 
ATOM      5  C5  BNZ d   1      -1.576  -5.655  -4.821  0.00  0.00     0.000 A 
ATOM      6  C6  BNZ d   1      -0.923  -5.826  -3.622  0.00  0.00     0.000 A 
ENDROOT
TORSDOF 0
ENDMDL
