MODEL 1
REMARK minimizedAffinity -0.680462658
REMARK minimizedRMSD -1
REMARK  0 active torsions:
REMARK  status: ('A' for Active; 'I' for Inactive)
ROOT
ATOM      1  C1  BNZ d   1      -5.971  -3.617   5.055  0.00  0.00     0.000 A 
ATOM      2  C2  BNZ d   1      -5.752  -3.661   3.704  0.00  0.00     0.000 A 
ATOM      3  C3  BNZ d   1      -5.572  -4.855   3.063  0.00  0.00     0.000 A 
ATOM      4  C4  BNZ d   1      -5.570  -5.998   3.778  0.00  0.00     0.000 A 
ATOM      5  C5  BNZ d   1      -5.780  -5.970   5.142  0.00  0.00     0.000 A 
ATOM      6  C6  BNZ d   1      -6.000  -4.770   5.779  0.00  0.00     0.000 A 
ENDROOT
TORSDOF 0
ENDMDL
