MODEL 1
REMARK minimizedAffinity 1.58700335
REMARK minimizedRMSD -1
REMARK  0 active torsions:
REMARK  status: ('A' for Active; 'I' for Inactive)
ROOT
ATOM      1  C1  BNZ d   1       3.219  -0.066   2.277  0.00  0.00     0.000 A 
ATOM      2  C2  BNZ d   1       2.642   0.220   1.069  0.00  0.00     0.000 A 
ATOM      3  C3  BNZ d   1       1.383  -0.222   0.772  0.00  0.00     0.000 A 
ATOM      4  C4  BNZ d   1       0.719  -0.981   1.667  0.00  0.00     0.000 A 
ATOM      5  C5  BNZ d   1       1.290  -1.286   2.886  0.00  0.00     0.000 A 
ATOM      6  C6  BNZ d   1       2.542  -0.807   3.197  0.00  0.00     0.000 A 
ENDROOT
TORSDOF 0
ENDMDL
