MODEL 1
REMARK minimizedAffinity -3.65493321
REMARK minimizedRMSD -1
REMARK  0 active torsions:
REMARK  status: ('A' for Active; 'I' for Inactive)
ROOT
ATOM      1  C1  BNZ d   1      -0.836  -5.999  -2.796  0.00  0.00     0.000 A 
ATOM      2  C2  BNZ d   1      -0.181  -5.895  -3.995  0.00  0.00     0.000 A 
ATOM      3  C3  BNZ d   1      -0.877  -5.730  -5.160  0.00  0.00     0.000 A 
ATOM      4  C4  BNZ d   1      -2.225  -5.709  -5.130  0.00  0.00     0.000 A 
ATOM      5  C5  BNZ d   1      -2.899  -5.823  -3.931  0.00  0.00     0.000 A 
ATOM      6  C6  BNZ d   1      -2.195  -5.950  -2.756  0.00  0.00     0.000 A 
ENDROOT
TORSDOF 0
ENDMDL
