MODEL 1
REMARK minimizedAffinity -2.81235647
REMARK minimizedRMSD -1
REMARK  0 active torsions:
REMARK  status: ('A' for Active; 'I' for Inactive)
ROOT
ATOM      1  C1  BNZ d   1      -1.148  -5.997  -2.646  0.00  0.00     0.000 A 
ATOM      2  C2  BNZ d   1      -0.304  -6.000  -3.725  0.00  0.00     0.000 A 
ATOM      3  C3  BNZ d   1      -0.797  -5.977  -4.999  0.00  0.00     0.000 A 
ATOM      4  C4  BNZ d   1      -2.132  -5.993  -5.194  0.00  0.00     0.000 A 
ATOM      5  C5  BNZ d   1      -2.995  -5.999  -4.117  0.00  0.00     0.000 A 
ATOM      6  C6  BNZ d   1      -2.496  -5.983  -2.835  0.00  0.00     0.000 A 
ENDROOT
TORSDOF 0
ENDMDL
