MODEL 1
REMARK minimizedAffinity -0.118615419
REMARK minimizedRMSD -1
REMARK  0 active torsions:
REMARK  status: ('A' for Active; 'I' for Inactive)
ROOT
ATOM      1  C1  BNZ d   1      -2.126  -5.996  -3.005  0.00  0.00     0.000 A 
ATOM      2  C2  BNZ d   1      -2.715  -6.000  -4.241  0.00  0.00     0.000 A 
ATOM      3  C3  BNZ d   1      -1.957  -6.000  -5.378  0.00  0.00     0.000 A 
ATOM      4  C4  BNZ d   1      -0.613  -5.956  -5.278  0.00  0.00     0.000 A 
ATOM      5  C5  BNZ d   1      -0.004  -5.943  -4.039  0.00  0.00     0.000 A 
ATOM      6  C6  BNZ d   1      -0.769  -5.982  -2.896  0.00  0.00     0.000 A 
ENDROOT
TORSDOF 0
ENDMDL
