MODEL 1
REMARK minimizedAffinity -1.13731468
REMARK minimizedRMSD -1
REMARK  0 active torsions:
REMARK  status: ('A' for Active; 'I' for Inactive)
ROOT
ATOM      1  C1  BNZ d   1       0.384  -5.969  -4.321  0.00  0.00     0.000 A 
ATOM      2  C2  BNZ d   1       0.034  -6.000  -2.997  0.00  0.00     0.000 A 
ATOM      3  C3  BNZ d   1      -1.272  -5.866  -2.615  0.00  0.00     0.000 A 
ATOM      4  C4  BNZ d   1      -2.219  -5.662  -3.553  0.00  0.00     0.000 A 
ATOM      5  C5  BNZ d   1      -1.881  -5.619  -4.891  0.00  0.00     0.000 A 
ATOM      6  C6  BNZ d   1      -0.571  -5.793  -5.274  0.00  0.00     0.000 A 
ENDROOT
TORSDOF 0
ENDMDL
