MODEL 1
REMARK minimizedAffinity -2.31729984
REMARK minimizedRMSD -1
REMARK  0 active torsions:
REMARK  status: ('A' for Active; 'I' for Inactive)
ROOT
ATOM      1  C1  BNZ d   1      -0.514  -5.961  -5.230  0.00  0.00     0.000 A 
ATOM      2  C2  BNZ d   1      -1.884  -5.975  -5.252  0.00  0.00     0.000 A 
ATOM      3  C3  BNZ d   1      -2.602  -5.974  -4.089  0.00  0.00     0.000 A 
ATOM      4  C4  BNZ d   1      -1.952  -5.999  -2.908  0.00  0.00     0.000 A 
ATOM      5  C5  BNZ d   1      -0.572  -5.995  -2.869  0.00  0.00     0.000 A 
ATOM      6  C6  BNZ d   1       0.148  -5.957  -4.042  0.00  0.00     0.000 A 
ENDROOT
TORSDOF 0
ENDMDL
