MODEL 1
REMARK minimizedAffinity -1.8664428
REMARK minimizedRMSD -1
REMARK  0 active torsions:
REMARK  status: ('A' for Active; 'I' for Inactive)
ROOT
ATOM      1  C1  BNZ d   1      -3.957  -5.957  -0.780  0.00  0.00     0.000 A 
ATOM      2  C2  BNZ d   1      -3.277  -5.941   0.408  0.00  0.00     0.000 A 
ATOM      3  C3  BNZ d   1      -3.947  -5.973   1.599  0.00  0.00     0.000 A 
ATOM      4  C4  BNZ d   1      -5.296  -5.981   1.600  0.00  0.00     0.000 A 
ATOM      5  C5  BNZ d   1      -5.996  -5.987   0.410  0.00  0.00     0.000 A 
ATOM      6  C6  BNZ d   1      -5.317  -5.994  -0.786  0.00  0.00     0.000 A 
ENDROOT
TORSDOF 0
ENDMDL
