MODEL 1
REMARK minimizedAffinity -2.43468785
REMARK minimizedRMSD -1
REMARK  0 active torsions:
REMARK  status: ('A' for Active; 'I' for Inactive)
ROOT
ATOM      1  C1  BNZ d   1      -1.139  -6.000  -3.416  0.00  0.00     0.000 A 
ATOM      2  C2  BNZ d   1      -1.981  -5.996  -4.496  0.00  0.00     0.000 A 
ATOM      3  C3  BNZ d   1      -1.486  -6.000  -5.770  0.00  0.00     0.000 A 
ATOM      4  C4  BNZ d   1      -0.151  -5.967  -5.963  0.00  0.00     0.000 A 
ATOM      5  C5  BNZ d   1       0.711  -5.961  -4.884  0.00  0.00     0.000 A 
ATOM      6  C6  BNZ d   1       0.209  -5.996  -3.603  0.00  0.00     0.000 A 
ENDROOT
TORSDOF 0
ENDMDL
