MODEL 1
REMARK minimizedAffinity -1.18858266
REMARK minimizedRMSD -1
REMARK  0 active torsions:
REMARK  status: ('A' for Active; 'I' for Inactive)
ROOT
ATOM      1  C1  BNZ d   1      -4.008   1.653  -1.249  0.00  0.00     0.000 A 
ATOM      2  C2  BNZ d   1      -3.914   1.199   0.040  0.00  0.00     0.000 A 
ATOM      3  C3  BNZ d   1      -4.618   0.101   0.449  0.00  0.00     0.000 A 
ATOM      4  C4  BNZ d   1      -5.446  -0.516  -0.419  0.00  0.00     0.000 A 
ATOM      5  C5  BNZ d   1      -5.560  -0.064  -1.719  0.00  0.00     0.000 A 
ATOM      6  C6  BNZ d   1      -4.819   1.017  -2.137  0.00  0.00     0.000 A 
ENDROOT
TORSDOF 0
ENDMDL
