MODEL 1
REMARK minimizedAffinity -3.58704948
REMARK minimizedRMSD -1
REMARK  1 active torsions:
REMARK  status: ('A' for Active; 'I' for Inactive)
REMARK    1  A    between atoms: C1_2  and  C2_3 
ROOT
ATOM      1  C2  UNL d   1      -0.227   0.114   1.304  0.00  0.00    -0.076 A 
ATOM      2  C3  UNL d   1      -0.056   0.075   2.699  0.00  0.00     0.004 A 
ATOM      3  C4  UNL d   1      -1.113   0.367   3.560  0.00  0.00    -0.003 A 
ATOM      4  C5  UNL d   1      -2.358   0.702   3.040  0.00  0.00     0.000 A 
ATOM      5  C6  UNL d   1      -2.551   0.727   1.659  0.00  0.00     0.000 A 
ATOM      6  C7  UNL d   1      -1.500   0.420   0.777  0.00  0.00    -0.073 A 
ATOM      7  C8  UNL d   1      -1.763   0.469  -0.703  0.00  0.00     0.078 C 
ENDROOT
BRANCH   1   8
ATOM      8  C1  UNL d   1       0.962  -0.186   0.420  0.00  0.00     0.053 C 
ATOM      9  C   UNL d   1       2.108   0.790   0.634  0.00  0.00     0.018 C 
ENDBRANCH   1   8
TORSDOF 1
ENDMDL
