MODEL 1
REMARK minimizedAffinity 1.05926991
REMARK minimizedRMSD -1
REMARK  1 active torsions:
REMARK  status: ('A' for Active; 'I' for Inactive)
REMARK    1  A    between atoms: C1_2  and  C2_3 
ROOT
ATOM      1  C2  UNL d   1       0.437  -0.215  -0.497  0.00  0.00    -0.076 A 
ATOM      2  C3  UNL d   1       1.730  -0.338   0.041  0.00  0.00     0.004 A 
ATOM      3  C4  UNL d   1       1.981  -0.040   1.379  0.00  0.00    -0.003 A 
ATOM      4  C5  UNL d   1       0.944   0.386   2.201  0.00  0.00     0.000 A 
ATOM      5  C6  UNL d   1      -0.348   0.496   1.688  0.00  0.00     0.000 A 
ATOM      6  C7  UNL d   1      -0.622   0.184   0.346  0.00  0.00    -0.073 A 
ATOM      7  C8  UNL d   1      -2.033   0.327  -0.156  0.00  0.00     0.078 C 
ENDROOT
BRANCH   1   8
ATOM      8  C1  UNL d   1       0.230  -0.527  -1.962  0.00  0.00     0.053 C 
ATOM      9  C   UNL d   1       1.531  -0.513  -2.751  0.00  0.00     0.018 C 
ENDBRANCH   1   8
TORSDOF 1
ENDMDL
