MODEL 1
REMARK minimizedAffinity -2.88484836
REMARK minimizedRMSD -1
REMARK  1 active torsions:
REMARK  status: ('A' for Active; 'I' for Inactive)
REMARK    1  A    between atoms: C1_2  and  C2_3 
ROOT
ATOM      1  C2  UNL d   1       0.591  -0.493  -0.983  0.00  0.00    -0.076 A 
ATOM      2  C3  UNL d   1       1.589  -1.474  -1.117  0.00  0.00     0.004 A 
ATOM      3  C4  UNL d   1       1.950  -1.963  -2.371  0.00  0.00    -0.003 A 
ATOM      4  C5  UNL d   1       1.319  -1.479  -3.512  0.00  0.00     0.000 A 
ATOM      5  C6  UNL d   1       0.340  -0.493  -3.399  0.00  0.00     0.000 A 
ATOM      6  C7  UNL d   1      -0.025   0.022  -2.143  0.00  0.00    -0.073 A 
ATOM      7  C8  UNL d   1      -1.092   1.080  -2.079  0.00  0.00     0.078 C 
ENDROOT
BRANCH   1   8
ATOM      8  C1  UNL d   1       0.222  -0.021   0.405  0.00  0.00     0.053 C 
ATOM      9  C   UNL d   1       1.438   0.376   1.228  0.00  0.00     0.018 C 
ENDBRANCH   1   8
TORSDOF 1
ENDMDL
