MODEL 1
REMARK minimizedAffinity -4.46843481
REMARK minimizedRMSD -1
REMARK  1 active torsions:
REMARK  status: ('A' for Active; 'I' for Inactive)
REMARK    1  A    between atoms: C1_2  and  C2_3 
ROOT
ATOM      1  C2  UNL d   1       0.020  -0.523  -0.812  0.00  0.00    -0.076 A 
ATOM      2  C3  UNL d   1       0.911  -1.609  -0.869  0.00  0.00     0.004 A 
ATOM      3  C4  UNL d   1       1.430  -2.048  -2.086  0.00  0.00    -0.003 A 
ATOM      4  C5  UNL d   1       1.068  -1.407  -3.266  0.00  0.00     0.000 A 
ATOM      5  C6  UNL d   1       0.200  -0.316  -3.226  0.00  0.00     0.000 A 
ATOM      6  C7  UNL d   1      -0.320   0.149  -2.006  0.00  0.00    -0.073 A 
ATOM      7  C8  UNL d   1      -1.258   1.325  -2.022  0.00  0.00     0.078 C 
ENDROOT
BRANCH   1   8
ATOM      8  C1  UNL d   1      -0.532  -0.109   0.533  0.00  0.00     0.053 C 
ATOM      9  C   UNL d   1       0.521  -0.141   1.630  0.00  0.00     0.018 C 
ENDBRANCH   1   8
TORSDOF 1
ENDMDL
