MODEL 1
REMARK minimizedAffinity -3.60636592
REMARK minimizedRMSD -1
REMARK  1 active torsions:
REMARK  status: ('A' for Active; 'I' for Inactive)
REMARK    1  A    between atoms: C1_2  and  C2_3 
ROOT
ATOM      1  C2  UNL d   1      -0.381   0.639   0.120  0.00  0.00    -0.076 A 
ATOM      2  C3  UNL d   1       0.918   0.532   0.647  0.00  0.00     0.004 A 
ATOM      3  C4  UNL d   1       1.129   0.421   2.020  0.00  0.00    -0.003 A 
ATOM      4  C5  UNL d   1       0.044   0.414   2.890  0.00  0.00     0.000 A 
ATOM      5  C6  UNL d   1      -1.253   0.501   2.384  0.00  0.00     0.000 A 
ATOM      6  C7  UNL d   1      -1.484   0.597   1.001  0.00  0.00    -0.073 A 
ATOM      7  C8  UNL d   1      -2.902   0.694   0.510  0.00  0.00     0.078 C 
ENDROOT
BRANCH   1   8
ATOM      8  C1  UNL d   1      -0.547   0.784  -1.375  0.00  0.00     0.053 C 
ATOM      9  C   UNL d   1       0.669   0.294  -2.147  0.00  0.00     0.018 C 
ENDBRANCH   1   8
TORSDOF 1
ENDMDL
