MODEL 1
REMARK minimizedAffinity 0.104390673
REMARK minimizedRMSD -1
REMARK  1 active torsions:
REMARK  status: ('A' for Active; 'I' for Inactive)
REMARK    1  A    between atoms: C1_2  and  C2_3 
ROOT
ATOM      1  C2  UNL d   1      -0.508   0.395   0.474  0.00  0.00    -0.076 A 
ATOM      2  C3  UNL d   1       0.829   0.173   0.847  0.00  0.00     0.004 A 
ATOM      3  C4  UNL d   1       1.194   0.084   2.190  0.00  0.00    -0.003 A 
ATOM      4  C5  UNL d   1       0.228   0.216   3.181  0.00  0.00     0.000 A 
ATOM      5  C6  UNL d   1      -1.106   0.419   2.829  0.00  0.00     0.000 A 
ATOM      6  C7  UNL d   1      -1.494   0.494   1.480  0.00  0.00    -0.073 A 
ATOM      7  C8  UNL d   1      -2.945   0.720   1.157  0.00  0.00     0.078 C 
ENDROOT
BRANCH   1   8
ATOM      8  C1  UNL d   1      -0.840   0.509  -0.996  0.00  0.00     0.053 C 
ATOM      9  C   UNL d   1       0.320   0.097  -1.889  0.00  0.00     0.018 C 
ENDBRANCH   1   8
TORSDOF 1
ENDMDL
