MODEL 1
REMARK minimizedAffinity -3.99325013
REMARK minimizedRMSD -1
REMARK  1 active torsions:
REMARK  status: ('A' for Active; 'I' for Inactive)
REMARK    1  A    between atoms: C1_2  and  C2_3 
ROOT
ATOM      1  C2  UNL d   1      -0.895   0.229   0.593  0.00  0.00    -0.076 A 
ATOM      2  C3  UNL d   1      -2.247   0.501   0.319  0.00  0.00     0.004 A 
ATOM      3  C4  UNL d   1      -3.157   0.723   1.352  0.00  0.00    -0.003 A 
ATOM      4  C5  UNL d   1      -2.729   0.678   2.674  0.00  0.00     0.000 A 
ATOM      5  C6  UNL d   1      -1.388   0.427   2.963  0.00  0.00     0.000 A 
ATOM      6  C7  UNL d   1      -0.455   0.217   1.933  0.00  0.00    -0.073 A 
ATOM      7  C8  UNL d   1       0.978  -0.055   2.303  0.00  0.00     0.078 C 
ENDROOT
BRANCH   1   8
ATOM      8  C1  UNL d   1       0.040  -0.030  -0.567  0.00  0.00     0.053 C 
ATOM      9  C   UNL d   1       0.078   1.125  -1.555  0.00  0.00     0.018 C 
ENDBRANCH   1   8
TORSDOF 1
ENDMDL
