MODEL 1
REMARK minimizedAffinity -2.50902295
REMARK minimizedRMSD -1
REMARK  1 active torsions:
REMARK  status: ('A' for Active; 'I' for Inactive)
REMARK    1  A    between atoms: C1_2  and  C2_3 
ROOT
ATOM      1  C2  UNL d   1      -0.947   0.380   0.829  0.00  0.00    -0.076 A 
ATOM      2  C3  UNL d   1      -0.927   0.481   2.231  0.00  0.00     0.004 A 
ATOM      3  C4  UNL d   1       0.241   0.241   2.952  0.00  0.00    -0.003 A 
ATOM      4  C5  UNL d   1       1.410  -0.103   2.282  0.00  0.00     0.000 A 
ATOM      5  C6  UNL d   1       1.414  -0.190   0.890  0.00  0.00     0.000 A 
ATOM      6  C7  UNL d   1       0.248   0.064   0.147  0.00  0.00    -0.073 A 
ATOM      7  C8  UNL d   1       0.308  -0.051  -1.351  0.00  0.00     0.078 C 
ENDROOT
BRANCH   1   8
ATOM      8  C1  UNL d   1      -2.250   0.625   0.103  0.00  0.00     0.053 C 
ATOM      9  C   UNL d   1      -3.443   0.664   1.045  0.00  0.00     0.018 C 
ENDBRANCH   1   8
TORSDOF 1
ENDMDL
