MODEL 1
REMARK minimizedAffinity -1.58224261
REMARK minimizedRMSD -1
REMARK  1 active torsions:
REMARK  status: ('A' for Active; 'I' for Inactive)
REMARK    1  A    between atoms: C1_2  and  C2_3 
ROOT
ATOM      1  C2  UNL d   1       0.416   0.253  -0.232  0.00  0.00    -0.076 A 
ATOM      2  C3  UNL d   1       1.769   0.218   0.148  0.00  0.00     0.004 A 
ATOM      3  C4  UNL d   1       2.136   0.181   1.493  0.00  0.00    -0.003 A 
ATOM      4  C5  UNL d   1       1.155   0.177   2.479  0.00  0.00     0.000 A 
ATOM      5  C6  UNL d   1      -0.192   0.193   2.120  0.00  0.00     0.000 A 
ATOM      6  C7  UNL d   1      -0.579   0.214   0.769  0.00  0.00    -0.073 A 
ATOM      7  C8  UNL d   1      -2.046   0.237   0.438  0.00  0.00     0.078 C 
ENDROOT
BRANCH   1   8
ATOM      8  C1  UNL d   1       0.079   0.320  -1.704  0.00  0.00     0.053 C 
ATOM      9  C   UNL d   1       0.507  -0.930  -2.457  0.00  0.00     0.018 C 
ENDBRANCH   1   8
TORSDOF 1
ENDMDL
