MODEL 1
REMARK minimizedAffinity -3.50797915
REMARK minimizedRMSD -1
REMARK  1 active torsions:
REMARK  status: ('A' for Active; 'I' for Inactive)
REMARK    1  A    between atoms: C1_2  and  C2_3 
ROOT
ATOM      1  C2  UNL d   1      -0.622   0.025   0.549  0.00  0.00    -0.076 A 
ATOM      2  C3  UNL d   1      -1.999   0.162   0.305  0.00  0.00     0.004 A 
ATOM      3  C4  UNL d   1      -2.882   0.479   1.336  0.00  0.00    -0.003 A 
ATOM      4  C5  UNL d   1      -2.401   0.666   2.628  0.00  0.00     0.000 A 
ATOM      5  C6  UNL d   1      -1.035   0.552   2.884  0.00  0.00     0.000 A 
ATOM      6  C7  UNL d   1      -0.130   0.249   1.852  0.00  0.00    -0.073 A 
ATOM      7  C8  UNL d   1       1.332   0.132   2.186  0.00  0.00     0.078 C 
ENDROOT
BRANCH   1   8
ATOM      8  C1  UNL d   1       0.284  -0.347  -0.604  0.00  0.00     0.053 C 
ATOM      9  C   UNL d   1       0.154   0.609  -1.779  0.00  0.00     0.018 C 
ENDBRANCH   1   8
TORSDOF 1
ENDMDL
