MODEL 1
REMARK minimizedAffinity -5.26648092
REMARK minimizedRMSD -1
REMARK  1 active torsions:
REMARK  status: ('A' for Active; 'I' for Inactive)
REMARK    1  A    between atoms: C1_2  and  C2_3 
ROOT
ATOM      1  C2  UNL d   1       0.756  -0.164  -1.165  0.00  0.00    -0.076 A 
ATOM      2  C3  UNL d   1       1.884  -0.970  -1.401  0.00  0.00     0.004 A 
ATOM      3  C4  UNL d   1       2.209  -1.390  -2.690  0.00  0.00    -0.003 A 
ATOM      4  C5  UNL d   1       1.412  -1.011  -3.764  0.00  0.00     0.000 A 
ATOM      5  C6  UNL d   1       0.299  -0.198  -3.551  0.00  0.00     0.000 A 
ATOM      6  C7  UNL d   1      -0.033   0.248  -2.260  0.00  0.00    -0.073 A 
ATOM      7  C8  UNL d   1      -1.248   1.118  -2.087  0.00  0.00     0.078 C 
ENDROOT
BRANCH   1   8
ATOM      8  C1  UNL d   1       0.438   0.238   0.257  0.00  0.00     0.053 C 
ATOM      9  C   UNL d   1       0.879  -0.807   1.271  0.00  0.00     0.018 C 
ENDBRANCH   1   8
TORSDOF 1
ENDMDL
