MODEL 1
REMARK minimizedAffinity -4.77281332
REMARK minimizedRMSD -1
REMARK  3 active torsions:
REMARK  status: ('A' for Active; 'I' for Inactive)
REMARK    1  A    between atoms: C3'_2  and  C2'_3 
REMARK    2  A    between atoms: C2'_3  and  C1'_4 
REMARK    3  A    between atoms: C1'_4  and  C1_5 
ROOT
ATOM      1  C1  N4B d   1       0.382  -0.642  -0.407  0.00  0.00    -0.075 A 
ATOM      2  C2  N4B d   1      -0.505  -0.767   0.685  0.00  0.00     0.002 A 
ATOM      3  C3  N4B d   1      -0.808  -2.010   1.185  0.00  0.00     0.002 A 
ATOM      4  C4  N4B d   1      -0.253  -3.138   0.600  0.00  0.00    -0.004 A 
ATOM      5  C5  N4B d   1       0.623  -3.008  -0.438  0.00  0.00     0.002 A 
ATOM      6  C6  N4B d   1       0.939  -1.765  -0.948  0.00  0.00     0.002 A 
ENDROOT
BRANCH   1   7
ATOM      7  C1' N4B d   1       0.677   0.689  -1.042  0.00  0.00     0.057 C 
BRANCH   7   8
ATOM      8  C2' N4B d   1       0.752   1.757   0.044  0.00  0.00     0.009 C 
BRANCH   8   9
ATOM      9  C3' N4B d   1       2.170   2.259   0.251  0.00  0.00     0.004 C 
ATOM     10  C4' N4B d   1       2.228   3.517   1.065  0.00  0.00     0.003 C 
ENDBRANCH   8   9
ENDBRANCH   7   8
ENDBRANCH   1   7
TORSDOF 3
ENDMDL
