MODEL 1
REMARK minimizedAffinity -4.94492531
REMARK minimizedRMSD -1
REMARK  3 active torsions:
REMARK  status: ('A' for Active; 'I' for Inactive)
REMARK    1  A    between atoms: C3'_2  and  C2'_3 
REMARK    2  A    between atoms: C2'_3  and  C1'_4 
REMARK    3  A    between atoms: C1'_4  and  C1_5 
ROOT
ATOM      1  C1  N4B d   1       0.173  -0.413   0.029  0.00  0.00    -0.075 A 
ATOM      2  C2  N4B d   1      -0.753  -0.954   0.948  0.00  0.00     0.002 A 
ATOM      3  C3  N4B d   1      -0.981  -2.308   0.974  0.00  0.00     0.002 A 
ATOM      4  C4  N4B d   1      -0.313  -3.134   0.083  0.00  0.00    -0.004 A 
ATOM      5  C5  N4B d   1       0.599  -2.606  -0.784  0.00  0.00     0.002 A 
ATOM      6  C6  N4B d   1       0.842  -1.248  -0.819  0.00  0.00     0.002 A 
ENDROOT
BRANCH   1   7
ATOM      7  C1' N4B d   1       0.393   1.070  -0.095  0.00  0.00     0.057 C 
BRANCH   7   8
ATOM      8  C2' N4B d   1       1.653   1.456   0.674  0.00  0.00     0.009 C 
BRANCH   8   9
ATOM      9  C3' N4B d   1       1.804   2.963   0.798  0.00  0.00     0.004 C 
ATOM     10  C4' N4B d   1       2.894   3.511  -0.075  0.00  0.00     0.003 C 
ENDBRANCH   8   9
ENDBRANCH   7   8
ENDBRANCH   1   7
TORSDOF 3
ENDMDL
