MODEL 1
REMARK minimizedAffinity 5.61933231
REMARK minimizedRMSD -1
REMARK  3 active torsions:
REMARK  status: ('A' for Active; 'I' for Inactive)
REMARK    1  A    between atoms: C3'_2  and  C2'_3 
REMARK    2  A    between atoms: C2'_3  and  C1'_4 
REMARK    3  A    between atoms: C1'_4  and  C1_5 
ROOT
ATOM      1  C1  N4B d   1       4.137  -4.052  -3.783  0.00  0.00    -0.075 A 
ATOM      2  C2  N4B d   1       3.047  -3.780  -2.927  0.00  0.00     0.002 A 
ATOM      3  C3  N4B d   1       3.125  -2.747  -2.024  0.00  0.00     0.002 A 
ATOM      4  C4  N4B d   1       4.283  -1.988  -1.948  0.00  0.00    -0.004 A 
ATOM      5  C5  N4B d   1       5.321  -2.241  -2.797  0.00  0.00     0.002 A 
ATOM      6  C6  N4B d   1       5.255  -3.273  -3.711  0.00  0.00     0.002 A 
ENDROOT
BRANCH   1   7
ATOM      7  C1' N4B d   1       4.132  -5.224  -4.726  0.00  0.00     0.057 C 
BRANCH   7   8
ATOM      8  C2' N4B d   1       3.217  -4.913  -5.907  0.00  0.00     0.009 C 
BRANCH   8   9
ATOM      9  C3' N4B d   1       2.057  -5.890  -6.000  0.00  0.00     0.004 C 
ATOM     10  C4' N4B d   1       0.721  -5.213  -5.944  0.00  0.00     0.003 C 
ENDBRANCH   8   9
ENDBRANCH   7   8
ENDBRANCH   1   7
TORSDOF 3
ENDMDL
