MODEL 1
REMARK minimizedAffinity -4.79112434
REMARK minimizedRMSD -1
REMARK  3 active torsions:
REMARK  status: ('A' for Active; 'I' for Inactive)
REMARK    1  A    between atoms: C3'_2  and  C2'_3 
REMARK    2  A    between atoms: C2'_3  and  C1'_4 
REMARK    3  A    between atoms: C1'_4  and  C1_5 
ROOT
ATOM      1  C1  N4B d   1      -0.043  -0.666  -1.471  0.00  0.00    -0.075 A 
ATOM      2  C2  N4B d   1      -0.866  -1.786  -1.720  0.00  0.00     0.002 A 
ATOM      3  C3  N4B d   1      -0.301  -3.018  -1.942  0.00  0.00     0.002 A 
ATOM      4  C4  N4B d   1       1.080  -3.149  -1.939  0.00  0.00    -0.004 A 
ATOM      5  C5  N4B d   1       1.867  -2.067  -1.673  0.00  0.00     0.002 A 
ATOM      6  C6  N4B d   1       1.312  -0.824  -1.444  0.00  0.00     0.002 A 
ENDROOT
BRANCH   1   7
ATOM      7  C1' N4B d   1      -0.613   0.717  -1.307  0.00  0.00     0.057 C 
BRANCH   7   8
ATOM      8  C2' N4B d   1      -1.472   0.759  -0.047  0.00  0.00     0.009 C 
BRANCH   8   9
ATOM      9  C3' N4B d   1      -2.348   1.999   0.002  0.00  0.00     0.004 C 
ATOM     10  C4' N4B d   1      -3.443   1.896   1.022  0.00  0.00     0.003 C 
ENDBRANCH   8   9
ENDBRANCH   7   8
ENDBRANCH   1   7
TORSDOF 3
ENDMDL
