MODEL 1
REMARK minimizedAffinity 6.46614552
REMARK minimizedRMSD -1
REMARK  3 active torsions:
REMARK  status: ('A' for Active; 'I' for Inactive)
REMARK    1  A    between atoms: C3'_2  and  C2'_3 
REMARK    2  A    between atoms: C2'_3  and  C1'_4 
REMARK    3  A    between atoms: C1'_4  and  C1_5 
ROOT
ATOM      1  C1  N4B d   1       1.402  -3.591  -2.497  0.00  0.00    -0.075 A 
ATOM      2  C2  N4B d   1       2.421  -4.044  -3.363  0.00  0.00     0.002 A 
ATOM      3  C3  N4B d   1       3.651  -3.433  -3.356  0.00  0.00     0.002 A 
ATOM      4  C4  N4B d   1       3.878  -2.359  -2.508  0.00  0.00    -0.004 A 
ATOM      5  C5  N4B d   1       2.897  -1.943  -1.656  0.00  0.00     0.002 A 
ATOM      6  C6  N4B d   1       1.657  -2.551  -1.650  0.00  0.00     0.002 A 
ENDROOT
BRANCH   1   7
ATOM      7  C1' N4B d   1       0.015  -4.172  -2.529  0.00  0.00     0.057 C 
BRANCH   7   8
ATOM      8  C2' N4B d   1      -1.004  -3.037  -2.482  0.00  0.00     0.009 C 
BRANCH   8   9
ATOM      9  C3' N4B d   1      -2.398  -3.539  -2.144  0.00  0.00     0.004 C 
ATOM     10  C4' N4B d   1      -2.698  -4.875  -2.755  0.00  0.00     0.003 C 
ENDBRANCH   8   9
ENDBRANCH   7   8
ENDBRANCH   1   7
TORSDOF 3
ENDMDL
