MODEL 1
REMARK minimizedAffinity 5.54171753
REMARK minimizedRMSD -1
REMARK  3 active torsions:
REMARK  status: ('A' for Active; 'I' for Inactive)
REMARK    1  A    between atoms: C3'_2  and  C2'_3 
REMARK    2  A    between atoms: C2'_3  and  C1'_4 
REMARK    3  A    between atoms: C1'_4  and  C1_5 
ROOT
ATOM      1  C1  N4B d   1      -1.134  -5.020  -3.418  0.00  0.00    -0.075 A 
ATOM      2  C2  N4B d   1      -1.222  -3.635  -3.157  0.00  0.00     0.002 A 
ATOM      3  C3  N4B d   1      -1.887  -3.188  -2.041  0.00  0.00     0.002 A 
ATOM      4  C4  N4B d   1      -2.484  -4.102  -1.186  0.00  0.00    -0.004 A 
ATOM      5  C5  N4B d   1      -2.373  -5.439  -1.432  0.00  0.00     0.002 A 
ATOM      6  C6  N4B d   1      -1.705  -5.903  -2.547  0.00  0.00     0.002 A 
ENDROOT
BRANCH   1   7
ATOM      7  C1' N4B d   1      -0.493  -5.553  -4.670  0.00  0.00     0.057 C 
BRANCH   7   8
ATOM      8  C2' N4B d   1      -0.908  -4.685  -5.854  0.00  0.00     0.009 C 
BRANCH   8   9
ATOM      9  C3' N4B d   1      -2.418  -4.607  -6.000  0.00  0.00     0.004 C 
ATOM     10  C4' N4B d   1      -3.073  -5.956  -5.982  0.00  0.00     0.003 C 
ENDBRANCH   8   9
ENDBRANCH   7   8
ENDBRANCH   1   7
TORSDOF 3
ENDMDL
