MODEL 1
REMARK minimizedAffinity 5.06691313
REMARK minimizedRMSD -1
REMARK  3 active torsions:
REMARK  status: ('A' for Active; 'I' for Inactive)
REMARK    1  A    between atoms: C3'_2  and  C2'_3 
REMARK    2  A    between atoms: C2'_3  and  C1'_4 
REMARK    3  A    between atoms: C1'_4  and  C1_5 
ROOT
ATOM      1  C1  N4B d   1       5.156  -3.116   3.631  0.00  0.00    -0.075 A 
ATOM      2  C2  N4B d   1       3.894  -3.743   3.532  0.00  0.00     0.002 A 
ATOM      3  C3  N4B d   1       3.191  -4.055   4.670  0.00  0.00     0.002 A 
ATOM      4  C4  N4B d   1       3.736  -3.767   5.913  0.00  0.00    -0.004 A 
ATOM      5  C5  N4B d   1       4.943  -3.138   5.999  0.00  0.00     0.002 A 
ATOM      6  C6  N4B d   1       5.659  -2.815   4.864  0.00  0.00     0.002 A 
ENDROOT
BRANCH   1   7
ATOM      7  C1' N4B d   1       6.000  -2.833   2.418  0.00  0.00     0.057 C 
BRANCH   7   8
ATOM      8  C2' N4B d   1       5.535  -3.721   1.268  0.00  0.00     0.009 C 
BRANCH   8   9
ATOM      9  C3' N4B d   1       5.999  -3.194  -0.079  0.00  0.00     0.004 C 
ATOM     10  C4' N4B d   1       4.861  -2.869  -1.000  0.00  0.00     0.003 C 
ENDBRANCH   8   9
ENDBRANCH   7   8
ENDBRANCH   1   7
TORSDOF 3
ENDMDL
