MODEL 1
REMARK minimizedAffinity -3.59310651
REMARK minimizedRMSD -1
REMARK  3 active torsions:
REMARK  status: ('A' for Active; 'I' for Inactive)
REMARK    1  A    between atoms: C3'_2  and  C2'_3 
REMARK    2  A    between atoms: C2'_3  and  C1'_4 
REMARK    3  A    between atoms: C1'_4  and  C1_5 
ROOT
ATOM      1  C1  N4B d   1      -0.135  -0.201   0.077  0.00  0.00    -0.075 A 
ATOM      2  C2  N4B d   1      -0.198  -1.002   1.238  0.00  0.00     0.002 A 
ATOM      3  C3  N4B d   1       0.284  -2.288   1.212  0.00  0.00     0.002 A 
ATOM      4  C4  N4B d   1       0.814  -2.798   0.036  0.00  0.00    -0.004 A 
ATOM      5  C5  N4B d   1       0.894  -2.008  -1.074  0.00  0.00     0.002 A 
ATOM      6  C6  N4B d   1       0.417  -0.713  -1.061  0.00  0.00     0.002 A 
ENDROOT
BRANCH   1   7
ATOM      7  C1' N4B d   1      -0.727   1.182   0.034  0.00  0.00     0.057 C 
BRANCH   7   8
ATOM      8  C2' N4B d   1      -2.240   1.084   0.213  0.00  0.00     0.009 C 
BRANCH   8   9
ATOM      9  C3' N4B d   1      -2.912   2.443   0.116  0.00  0.00     0.004 C 
ATOM     10  C4' N4B d   1      -2.094   3.541   0.730  0.00  0.00     0.003 C 
ENDBRANCH   8   9
ENDBRANCH   7   8
ENDBRANCH   1   7
TORSDOF 3
ENDMDL
