MODEL 1
REMARK minimizedAffinity -2.0571115
REMARK minimizedRMSD -1
REMARK  0 active torsions:
REMARK  status: ('A' for Active; 'I' for Inactive)
ROOT
ATOM      1  C   UNL d   1       0.424   1.582  -1.765  0.00  0.00     0.172 C 
ATOM      2  N   UNL d   1       0.528   0.355  -1.010  0.00  0.00    -0.070 N 
ATOM      3  C1  UNL d   1       0.840  -0.875  -1.525  0.00  0.00    -0.004 A 
ATOM      4  C2  UNL d   1       0.839  -1.780  -0.486  0.00  0.00    -0.047 A 
ATOM      5  C3  UNL d   1       0.515  -1.070   0.694  0.00  0.00    -0.047 A 
ATOM      6  C4  UNL d   1       0.328   0.250   0.341  0.00  0.00    -0.004 A 
ENDROOT
TORSDOF 0
ENDMDL
