MODEL 1
REMARK minimizedAffinity -3.00630116
REMARK minimizedRMSD -1
REMARK  0 active torsions:
REMARK  status: ('A' for Active; 'I' for Inactive)
ROOT
ATOM      1  C   UNL d   1      -0.052  -2.678   0.805  0.00  0.00     0.172 C 
ATOM      2  N   UNL d   1       0.061  -1.293   0.414  0.00  0.00    -0.070 N 
ATOM      3  C1  UNL d   1      -0.937  -0.358   0.489  0.00  0.00    -0.004 A 
ATOM      4  C2  UNL d   1      -0.432   0.837   0.024  0.00  0.00    -0.047 A 
ATOM      5  C3  UNL d   1       0.916   0.612  -0.344  0.00  0.00    -0.047 A 
ATOM      6  C4  UNL d   1       1.195  -0.715  -0.092  0.00  0.00    -0.004 A 
ENDROOT
TORSDOF 0
ENDMDL
