MODEL 1
REMARK minimizedAffinity -3.9084208
REMARK minimizedRMSD -1
REMARK  0 active torsions:
REMARK  status: ('A' for Active; 'I' for Inactive)
ROOT
ATOM      1  C   UNL d   1       0.181  -0.122  -0.366  0.00  0.00     0.172 C 
ATOM      2  N   UNL d   1      -0.790  -0.856   0.411  0.00  0.00    -0.070 N 
ATOM      3  C1  UNL d   1      -0.730  -2.191   0.709  0.00  0.00    -0.004 A 
ATOM      4  C2  UNL d   1      -1.839  -2.505   1.465  0.00  0.00    -0.047 A 
ATOM      5  C3  UNL d   1      -2.591  -1.317   1.627  0.00  0.00    -0.047 A 
ATOM      6  C4  UNL d   1      -1.919  -0.312   0.965  0.00  0.00    -0.004 A 
ENDROOT
TORSDOF 0
ENDMDL
