MODEL 1
REMARK minimizedAffinity -1.66736138
REMARK minimizedRMSD -1
REMARK  0 active torsions:
REMARK  status: ('A' for Active; 'I' for Inactive)
ROOT
ATOM      1  C   UNL d   1       0.672   2.139  -0.154  0.00  0.00     0.172 C 
ATOM      2  N   UNL d   1       0.475   0.708  -0.166  0.00  0.00    -0.070 N 
ATOM      3  C1  UNL d   1      -0.221   0.006  -1.113  0.00  0.00    -0.004 A 
ATOM      4  C2  UNL d   1      -0.177  -1.327  -0.767  0.00  0.00    -0.047 A 
ATOM      5  C3  UNL d   1       0.571  -1.430   0.430  0.00  0.00    -0.047 A 
ATOM      6  C4  UNL d   1       0.963  -0.155   0.780  0.00  0.00    -0.004 A 
ENDROOT
TORSDOF 0
ENDMDL
