MODEL 1
REMARK minimizedAffinity -1.73116195
REMARK minimizedRMSD -1
REMARK  0 active torsions:
REMARK  status: ('A' for Active; 'I' for Inactive)
ROOT
ATOM      1  C   UNL d   1       0.346   0.665  -0.091  0.00  0.00     0.172 C 
ATOM      2  N   UNL d   1       0.023  -0.612   0.501  0.00  0.00    -0.070 N 
ATOM      3  C1  UNL d   1      -0.932  -0.829   1.458  0.00  0.00    -0.004 A 
ATOM      4  C2  UNL d   1      -0.931  -2.175   1.757  0.00  0.00    -0.047 A 
ATOM      5  C3  UNL d   1       0.059  -2.787   0.953  0.00  0.00    -0.047 A 
ATOM      6  C4  UNL d   1       0.635  -1.796   0.185  0.00  0.00    -0.004 A 
ENDROOT
TORSDOF 0
ENDMDL
