MODEL 1
REMARK minimizedAffinity -1.31148052
REMARK minimizedRMSD -1
REMARK  0 active torsions:
REMARK  status: ('A' for Active; 'I' for Inactive)
ROOT
ATOM      1  C   UNL d   1       0.505   1.707   0.265  0.00  0.00     0.172 C 
ATOM      2  N   UNL d   1       0.472   0.281   0.038  0.00  0.00    -0.070 N 
ATOM      3  C1  UNL d   1       0.010  -0.337  -1.093  0.00  0.00    -0.004 A 
ATOM      4  C2  UNL d   1       0.149  -1.697  -0.917  0.00  0.00    -0.047 A 
ATOM      5  C3  UNL d   1       0.713  -1.903   0.364  0.00  0.00    -0.047 A 
ATOM      6  C4  UNL d   1       0.902  -0.662   0.934  0.00  0.00    -0.004 A 
ENDROOT
TORSDOF 0
ENDMDL
