MODEL 1
REMARK minimizedAffinity -2.9009285
REMARK minimizedRMSD -1
REMARK  0 active torsions:
REMARK  status: ('A' for Active; 'I' for Inactive)
ROOT
ATOM      1  C   UNL d   1       0.427   2.430  -2.722  0.00  0.00     0.172 C 
ATOM      2  N   UNL d   1       0.346   1.440  -1.675  0.00  0.00    -0.070 N 
ATOM      3  C1  UNL d   1       0.661   1.642  -0.358  0.00  0.00    -0.004 A 
ATOM      4  C2  UNL d   1       0.449   0.458   0.314  0.00  0.00    -0.047 A 
ATOM      5  C3  UNL d   1      -0.009  -0.490  -0.632  0.00  0.00    -0.047 A 
ATOM      6  C4  UNL d   1      -0.064   0.145  -1.855  0.00  0.00    -0.004 A 
ENDROOT
TORSDOF 0
ENDMDL
