MODEL 1
REMARK minimizedAffinity -3.3323307
REMARK minimizedRMSD -1
REMARK  0 active torsions:
REMARK  status: ('A' for Active; 'I' for Inactive)
ROOT
ATOM      1  C   UNL d   1      -1.829  -1.851   1.481  0.00  0.00     0.172 C 
ATOM      2  N   UNL d   1      -0.978  -0.884   0.830  0.00  0.00    -0.070 N 
ATOM      3  C1  UNL d   1      -1.250   0.451   0.686  0.00  0.00    -0.004 A 
ATOM      4  C2  UNL d   1      -0.194   1.027   0.013  0.00  0.00    -0.047 A 
ATOM      5  C3  UNL d   1       0.744   0.003  -0.258  0.00  0.00    -0.047 A 
ATOM      6  C4  UNL d   1       0.234  -1.169   0.259  0.00  0.00    -0.004 A 
ENDROOT
TORSDOF 0
ENDMDL
