MODEL 1
REMARK minimizedAffinity -3.13220215
REMARK minimizedRMSD -1
REMARK  0 active torsions:
REMARK  status: ('A' for Active; 'I' for Inactive)
ROOT
ATOM      1  C   UNL d   1       1.033   2.116  -3.058  0.00  0.00     0.172 C 
ATOM      2  N   UNL d   1       0.647   1.437  -1.844  0.00  0.00    -0.070 N 
ATOM      3  C1  UNL d   1       0.448   0.089  -1.711  0.00  0.00    -0.004 A 
ATOM      4  C2  UNL d   1       0.092  -0.159  -0.403  0.00  0.00    -0.047 A 
ATOM      5  C3  UNL d   1       0.075   1.084   0.274  0.00  0.00    -0.047 A 
ATOM      6  C4  UNL d   1       0.422   2.055  -0.642  0.00  0.00    -0.004 A 
ENDROOT
TORSDOF 0
ENDMDL
