MODEL 1
REMARK minimizedAffinity -2.06682062
REMARK minimizedRMSD -1
REMARK  0 active torsions:
REMARK  status: ('A' for Active; 'I' for Inactive)
ROOT
ATOM      1  C   UNL d   1      -2.356  -2.140   0.299  0.00  0.00     0.172 C 
ATOM      2  N   UNL d   1      -1.533  -0.961   0.432  0.00  0.00    -0.070 N 
ATOM      3  C1  UNL d   1      -0.188  -0.894   0.184  0.00  0.00    -0.004 A 
ATOM      4  C2  UNL d   1       0.221   0.400   0.426  0.00  0.00    -0.047 A 
ATOM      5  C3  UNL d   1      -0.917   1.135   0.833  0.00  0.00    -0.047 A 
ATOM      6  C4  UNL d   1      -1.989   0.268   0.828  0.00  0.00    -0.004 A 
ENDROOT
TORSDOF 0
ENDMDL
