MODEL 1
REMARK minimizedAffinity -2.22828722
REMARK minimizedRMSD -1
REMARK  0 active torsions:
REMARK  status: ('A' for Active; 'I' for Inactive)
ROOT
ATOM      1  C   UNL d   1       0.341   1.966  -0.061  0.00  0.00     0.172 C 
ATOM      2  N   UNL d   1       0.473   0.531  -0.156  0.00  0.00    -0.070 N 
ATOM      3  C1  UNL d   1       1.321  -0.244   0.589  0.00  0.00    -0.004 A 
ATOM      4  C2  UNL d   1       1.145  -1.555   0.201  0.00  0.00    -0.047 A 
ATOM      5  C3  UNL d   1       0.158  -1.568  -0.812  0.00  0.00    -0.047 A 
ATOM      6  C4  UNL d   1      -0.241  -0.263  -1.014  0.00  0.00    -0.004 A 
ENDROOT
TORSDOF 0
ENDMDL
