MODEL 1
REMARK minimizedAffinity -2.62853289
REMARK minimizedRMSD -1
REMARK  0 active torsions:
REMARK  status: ('A' for Active; 'I' for Inactive)
ROOT
ATOM      1  C   UNL d   1       1.107   2.266  -2.381  0.00  0.00     0.172 C 
ATOM      2  N   UNL d   1       0.417   1.585  -1.311  0.00  0.00    -0.070 N 
ATOM      3  C1  UNL d   1      -0.044   2.167  -0.160  0.00  0.00    -0.004 A 
ATOM      4  C2  UNL d   1      -0.641   1.186   0.600  0.00  0.00    -0.047 A 
ATOM      5  C3  UNL d   1      -0.536  -0.029  -0.118  0.00  0.00    -0.047 A 
ATOM      6  C4  UNL d   1       0.123   0.247  -1.297  0.00  0.00    -0.004 A 
ENDROOT
TORSDOF 0
ENDMDL
