MODEL 1
REMARK minimizedAffinity -2.97028685
REMARK minimizedRMSD -1
REMARK  0 active torsions:
REMARK  status: ('A' for Active; 'I' for Inactive)
ROOT
ATOM      1  C   UNL d   1       0.661   0.131  -0.071  0.00  0.00     0.172 C 
ATOM      2  N   UNL d   1       0.716   0.734  -1.382  0.00  0.00    -0.070 N 
ATOM      3  C1  UNL d   1       0.118   0.243  -2.512  0.00  0.00    -0.004 A 
ATOM      4  C2  UNL d   1       0.406   1.103  -3.549  0.00  0.00    -0.047 A 
ATOM      5  C3  UNL d   1       1.205   2.146  -3.025  0.00  0.00    -0.047 A 
ATOM      6  C4  UNL d   1       1.382   1.893  -1.681  0.00  0.00    -0.004 A 
ENDROOT
TORSDOF 0
ENDMDL
