MODEL 1
REMARK minimizedAffinity -3.04141736
REMARK minimizedRMSD -1
REMARK  0 active torsions:
REMARK  status: ('A' for Active; 'I' for Inactive)
ROOT
ATOM      1  C   UNL d   1       0.413   0.679  -0.535  0.00  0.00     0.172 C 
ATOM      2  N   UNL d   1       0.538   1.116  -1.905  0.00  0.00    -0.070 N 
ATOM      3  C1  UNL d   1       1.201   2.237  -2.329  0.00  0.00    -0.004 A 
ATOM      4  C2  UNL d   1       1.089   2.300  -3.701  0.00  0.00    -0.047 A 
ATOM      5  C3  UNL d   1       0.332   1.179  -4.116  0.00  0.00    -0.047 A 
ATOM      6  C4  UNL d   1       0.003   0.463  -2.985  0.00  0.00    -0.004 A 
ENDROOT
TORSDOF 0
ENDMDL
