MODEL 1
REMARK minimizedAffinity -2.37118697
REMARK minimizedRMSD -1
REMARK  0 active torsions:
REMARK  status: ('A' for Active; 'I' for Inactive)
ROOT
ATOM      1  C   UNL d   1       0.343   0.952  -0.892  0.00  0.00     0.172 C 
ATOM      2  N   UNL d   1       0.279  -0.333  -0.236  0.00  0.00    -0.070 N 
ATOM      3  C1  UNL d   1      -0.411  -0.608   0.915  0.00  0.00    -0.004 A 
ATOM      4  C2  UNL d   1      -0.221  -1.940   1.212  0.00  0.00    -0.047 A 
ATOM      5  C3  UNL d   1       0.612  -2.484   0.206  0.00  0.00    -0.047 A 
ATOM      6  C4  UNL d   1       0.907  -1.467  -0.677  0.00  0.00    -0.004 A 
ENDROOT
TORSDOF 0
ENDMDL
