MODEL 1
REMARK minimizedAffinity -2.86751962
REMARK minimizedRMSD -1
REMARK  0 active torsions:
REMARK  status: ('A' for Active; 'I' for Inactive)
ROOT
ATOM      1  C   UNL d   1       0.443   1.110  -0.957  0.00  0.00     0.172 C 
ATOM      2  N   UNL d   1       0.970   1.499  -2.244  0.00  0.00    -0.070 N 
ATOM      3  C1  UNL d   1       0.277   2.153  -3.226  0.00  0.00    -0.004 A 
ATOM      4  C2  UNL d   1       1.130   2.340  -4.292  0.00  0.00    -0.047 A 
ATOM      5  C3  UNL d   1       2.380   1.778  -3.938  0.00  0.00    -0.047 A 
ATOM      6  C4  UNL d   1       2.253   1.264  -2.665  0.00  0.00    -0.004 A 
ENDROOT
TORSDOF 0
ENDMDL
