MODEL 1
REMARK minimizedAffinity 1.49371922
REMARK minimizedRMSD -1
REMARK  0 active torsions:
REMARK  status: ('A' for Active; 'I' for Inactive)
ROOT
ATOM      1  C   UNL d   1      -0.778   1.499   3.297  0.00  0.00     0.077 C 
ATOM      2  C1  UNL d   1      -0.655   0.856   1.948  0.00  0.00    -0.074 A 
ATOM      3  C2  UNL d   1       0.596   0.667   1.352  0.00  0.00    -0.005 A 
ATOM      4  C3  UNL d   1       0.695   0.058   0.101  0.00  0.00     0.006 A 
ATOM      5  C4  UNL d   1      -0.454  -0.367  -0.566  0.00  0.00    -0.005 A 
ATOM      6  C5  UNL d   1      -1.714  -0.187   0.014  0.00  0.00    -0.074 A 
ATOM      7  C6  UNL d   1      -2.958  -0.647  -0.686  0.00  0.00     0.077 C 
ATOM      8  C7  UNL d   1      -1.805   0.419   1.274  0.00  0.00    -0.001 A 
ENDROOT
TORSDOF 0
ENDMDL
