MODEL 1
REMARK minimizedAffinity -4.95341253
REMARK minimizedRMSD -1
REMARK  0 active torsions:
REMARK  status: ('A' for Active; 'I' for Inactive)
ROOT
ATOM      1  C   UNL d   1       2.396  -0.431   2.867  0.00  0.00     0.077 C 
ATOM      2  C1  UNL d   1       1.029   0.047   2.476  0.00  0.00    -0.074 A 
ATOM      3  C2  UNL d   1       0.212   0.717   3.392  0.00  0.00    -0.005 A 
ATOM      4  C3  UNL d   1      -1.053   1.164   3.011  0.00  0.00     0.006 A 
ATOM      5  C4  UNL d   1      -1.513   0.946   1.712  0.00  0.00    -0.005 A 
ATOM      6  C5  UNL d   1      -0.710   0.279   0.782  0.00  0.00    -0.074 A 
ATOM      7  C6  UNL d   1      -1.186   0.046  -0.621  0.00  0.00     0.077 C 
ATOM      8  C7  UNL d   1       0.563  -0.161   1.170  0.00  0.00    -0.001 A 
ENDROOT
TORSDOF 0
ENDMDL
