MODEL 1
REMARK minimizedAffinity -5.89587259
REMARK minimizedRMSD -1
REMARK  0 active torsions:
REMARK  status: ('A' for Active; 'I' for Inactive)
ROOT
ATOM      1  C   UNL d   1       0.278  -0.297  -1.488  0.00  0.00     0.077 C 
ATOM      2  C1  UNL d   1      -0.038   0.083  -0.072  0.00  0.00    -0.074 A 
ATOM      3  C2  UNL d   1      -1.308   0.550   0.280  0.00  0.00    -0.005 A 
ATOM      4  C3  UNL d   1      -1.590   0.891   1.603  0.00  0.00     0.006 A 
ATOM      5  C4  UNL d   1      -0.606   0.769   2.585  0.00  0.00    -0.005 A 
ATOM      6  C5  UNL d   1       0.670   0.303   2.251  0.00  0.00    -0.074 A 
ATOM      7  C6  UNL d   1       1.736   0.157   3.296  0.00  0.00     0.077 C 
ATOM      8  C7  UNL d   1       0.943  -0.044   0.921  0.00  0.00    -0.001 A 
ENDROOT
TORSDOF 0
ENDMDL
