MODEL 1
REMARK minimizedAffinity -4.75728989
REMARK minimizedRMSD -1
REMARK  0 active torsions:
REMARK  status: ('A' for Active; 'I' for Inactive)
ROOT
ATOM      1  C   UNL d   1       0.210  -0.022  -1.210  0.00  0.00     0.077 C 
ATOM      2  C1  UNL d   1      -0.151   0.249   0.220  0.00  0.00    -0.074 A 
ATOM      3  C2  UNL d   1      -1.450   0.627   0.574  0.00  0.00    -0.005 A 
ATOM      4  C3  UNL d   1      -1.773   0.868   1.909  0.00  0.00     0.006 A 
ATOM      5  C4  UNL d   1      -0.802   0.732   2.902  0.00  0.00    -0.005 A 
ATOM      6  C5  UNL d   1       0.502   0.354   2.567  0.00  0.00    -0.074 A 
ATOM      7  C6  UNL d   1       1.555   0.194   3.624  0.00  0.00     0.077 C 
ATOM      8  C7  UNL d   1       0.817   0.108   1.224  0.00  0.00    -0.001 A 
ENDROOT
TORSDOF 0
ENDMDL
