MODEL 1
REMARK minimizedAffinity -3.76499796
REMARK minimizedRMSD -1
REMARK  0 active torsions:
REMARK  status: ('A' for Active; 'I' for Inactive)
ROOT
ATOM      1  C   UNL d   1      -0.134   2.069   2.637  0.00  0.00     0.077 C 
ATOM      2  C1  UNL d   1      -0.487   1.143   1.512  0.00  0.00    -0.074 A 
ATOM      3  C2  UNL d   1      -1.707   0.459   1.499  0.00  0.00    -0.005 A 
ATOM      4  C3  UNL d   1      -2.025  -0.391   0.440  0.00  0.00     0.006 A 
ATOM      5  C4  UNL d   1      -1.128  -0.567  -0.614  0.00  0.00    -0.005 A 
ATOM      6  C5  UNL d   1       0.096   0.108  -0.619  0.00  0.00    -0.074 A 
ATOM      7  C6  UNL d   1       1.067  -0.062  -1.749  0.00  0.00     0.077 C 
ATOM      8  C7  UNL d   1       0.406   0.967   0.445  0.00  0.00    -0.001 A 
ENDROOT
TORSDOF 0
ENDMDL
