MODEL 1
REMARK minimizedAffinity -0.130364463
REMARK minimizedRMSD -1
REMARK  0 active torsions:
REMARK  status: ('A' for Active; 'I' for Inactive)
ROOT
ATOM      1  C   UNL d   1      -1.681   0.974   2.973  0.00  0.00     0.077 C 
ATOM      2  C1  UNL d   1      -0.970   0.356   1.806  0.00  0.00    -0.074 A 
ATOM      3  C2  UNL d   1      -1.635   0.135   0.595  0.00  0.00    -0.005 A 
ATOM      4  C3  UNL d   1      -0.958  -0.432  -0.485  0.00  0.00     0.006 A 
ATOM      5  C4  UNL d   1       0.387  -0.783  -0.366  0.00  0.00    -0.005 A 
ATOM      6  C5  UNL d   1       1.068  -0.569   0.837  0.00  0.00    -0.074 A 
ATOM      7  C6  UNL d   1       2.516  -0.932   0.979  0.00  0.00     0.077 C 
ATOM      8  C7  UNL d   1       0.383   0.007   1.915  0.00  0.00    -0.001 A 
ENDROOT
TORSDOF 0
ENDMDL
