MODEL 1
REMARK minimizedAffinity -4.23518801
REMARK minimizedRMSD -1
REMARK  0 active torsions:
REMARK  status: ('A' for Active; 'I' for Inactive)
ROOT
ATOM      1  C   UNL d   1      -1.869  -0.008  -0.089  0.00  0.00     0.077 C 
ATOM      2  C1  UNL d   1      -1.070   0.288   1.145  0.00  0.00    -0.074 A 
ATOM      3  C2  UNL d   1      -1.690   0.757   2.308  0.00  0.00    -0.005 A 
ATOM      4  C3  UNL d   1      -0.935   1.019   3.451  0.00  0.00     0.006 A 
ATOM      5  C4  UNL d   1       0.446   0.815   3.443  0.00  0.00    -0.005 A 
ATOM      6  C5  UNL d   1       1.083   0.345   2.290  0.00  0.00    -0.074 A 
ATOM      7  C6  UNL d   1       2.564   0.110   2.268  0.00  0.00     0.077 C 
ATOM      8  C7  UNL d   1       0.317   0.077   1.148  0.00  0.00    -0.001 A 
ENDROOT
TORSDOF 0
ENDMDL
