MODEL 1
REMARK minimizedAffinity -5.5096159
REMARK minimizedRMSD -1
REMARK  0 active torsions:
REMARK  status: ('A' for Active; 'I' for Inactive)
ROOT
ATOM      1  C   UNL d   1       0.281  -0.428  -0.832  0.00  0.00     0.077 C 
ATOM      2  C1  UNL d   1       0.596  -0.174   0.612  0.00  0.00    -0.074 A 
ATOM      3  C2  UNL d   1       1.783  -0.645   1.182  0.00  0.00    -0.005 A 
ATOM      4  C3  UNL d   1       2.067  -0.393   2.524  0.00  0.00     0.006 A 
ATOM      5  C4  UNL d   1       1.169   0.333   3.308  0.00  0.00    -0.005 A 
ATOM      6  C5  UNL d   1      -0.022   0.813   2.755  0.00  0.00    -0.074 A 
ATOM      7  C6  UNL d   1      -0.993   1.604   3.580  0.00  0.00     0.077 C 
ATOM      8  C7  UNL d   1      -0.297   0.561   1.404  0.00  0.00    -0.001 A 
ENDROOT
TORSDOF 0
ENDMDL
