MODEL 1
REMARK minimizedAffinity -6.13456869
REMARK minimizedRMSD -1
REMARK  0 active torsions:
REMARK  status: ('A' for Active; 'I' for Inactive)
ROOT
ATOM      1  C   UNL d   1       1.052   0.285   3.518  0.00  0.00     0.077 C 
ATOM      2  C1  UNL d   1       0.148   0.405   2.328  0.00  0.00    -0.074 A 
ATOM      3  C2  UNL d   1      -1.134   0.950   2.451  0.00  0.00    -0.005 A 
ATOM      4  C3  UNL d   1      -1.960   1.064   1.333  0.00  0.00     0.006 A 
ATOM      5  C4  UNL d   1      -1.514   0.634   0.083  0.00  0.00    -0.005 A 
ATOM      6  C5  UNL d   1      -0.235   0.086  -0.060  0.00  0.00    -0.074 A 
ATOM      7  C6  UNL d   1       0.263  -0.372  -1.398  0.00  0.00     0.077 C 
ATOM      8  C7  UNL d   1       0.592  -0.018   1.067  0.00  0.00    -0.001 A 
ENDROOT
TORSDOF 0
ENDMDL
