MODEL 1
REMARK minimizedAffinity -1.16350424
REMARK minimizedRMSD -1
REMARK  0 active torsions:
REMARK  status: ('A' for Active; 'I' for Inactive)
ROOT
ATOM      1  C   UNL d   1      -0.498   0.031   1.477  0.00  0.00     0.023 A 
ATOM      2  C1  UNL d   1       0.773  -0.358   1.052  0.00  0.00     0.003 A 
ATOM      3  C2  UNL d   1       1.009  -0.618  -0.300  0.00  0.00     0.048 A 
ATOM      4  C3  UNL d   1      -0.029  -0.486  -1.221  0.00  0.00     0.023 A 
ATOM      5  C4  UNL d   1      -1.302  -0.096  -0.801  0.00  0.00     0.048 A 
ATOM      6  C5  UNL d   1      -1.533   0.162   0.552  0.00  0.00     0.003 A 
ATOM      7  I   UNL d   1       0.320  -0.872  -3.233  0.00  0.00    -0.146 I 
ENDROOT
TORSDOF 0
ENDMDL
