MODEL 1
REMARK minimizedAffinity -2.92804527
REMARK minimizedRMSD -1
REMARK  0 active torsions:
REMARK  status: ('A' for Active; 'I' for Inactive)
ROOT
ATOM      1  C   UNL d   1      -1.717  -0.229   0.798  0.00  0.00     0.023 A 
ATOM      2  C1  UNL d   1      -0.406   0.218   0.964  0.00  0.00     0.003 A 
ATOM      3  C2  UNL d   1       0.421   0.385  -0.148  0.00  0.00     0.048 A 
ATOM      4  C3  UNL d   1      -0.069   0.105  -1.423  0.00  0.00     0.023 A 
ATOM      5  C4  UNL d   1      -1.380  -0.341  -1.594  0.00  0.00     0.048 A 
ATOM      6  C5  UNL d   1      -2.204  -0.508  -0.479  0.00  0.00     0.003 A 
ATOM      7  I   UNL d   1       1.162   0.353  -3.080  0.00  0.00    -0.146 I 
ENDROOT
TORSDOF 0
ENDMDL
