MODEL 1
REMARK minimizedAffinity -1.1737802
REMARK minimizedRMSD -1
REMARK  0 active torsions:
REMARK  status: ('A' for Active; 'I' for Inactive)
ROOT
ATOM      1  C   UNL d   1      -2.017   0.355   0.349  0.00  0.00     0.023 A 
ATOM      2  C1  UNL d   1      -2.147   0.531   1.727  0.00  0.00     0.003 A 
ATOM      3  C2  UNL d   1      -1.084   0.218   2.575  0.00  0.00     0.048 A 
ATOM      4  C3  UNL d   1       0.108  -0.269   2.040  0.00  0.00     0.023 A 
ATOM      5  C4  UNL d   1       0.243  -0.446   0.662  0.00  0.00     0.048 A 
ATOM      6  C5  UNL d   1      -0.823  -0.133  -0.183  0.00  0.00     0.003 A 
ATOM      7  I   UNL d   1       1.693  -0.736   3.301  0.00  0.00    -0.146 I 
ENDROOT
TORSDOF 0
ENDMDL
