MODEL 1
REMARK minimizedAffinity -0.136878207
REMARK minimizedRMSD -1
REMARK  0 active torsions:
REMARK  status: ('A' for Active; 'I' for Inactive)
ROOT
ATOM      1  C   UNL d   1      -0.949  -0.150   1.244  0.00  0.00     0.023 A 
ATOM      2  C1  UNL d   1      -1.737   0.143   0.131  0.00  0.00     0.003 A 
ATOM      3  C2  UNL d   1      -1.150   0.257  -1.131  0.00  0.00     0.048 A 
ATOM      4  C3  UNL d   1       0.225   0.075  -1.274  0.00  0.00     0.023 A 
ATOM      5  C4  UNL d   1       1.017  -0.219  -0.163  0.00  0.00     0.048 A 
ATOM      6  C5  UNL d   1       0.427  -0.330   1.097  0.00  0.00     0.003 A 
ATOM      7  I   UNL d   1       1.100   0.244  -3.151  0.00  0.00    -0.146 I 
ENDROOT
TORSDOF 0
ENDMDL
