MODEL 1
REMARK minimizedAffinity -1.1610043
REMARK minimizedRMSD -1
REMARK  0 active torsions:
REMARK  status: ('A' for Active; 'I' for Inactive)
ROOT
ATOM      1  C   UNL d   1       1.680  -1.118  -0.707  0.00  0.00     0.023 A 
ATOM      2  C1  UNL d   1       2.012  -0.821   0.615  0.00  0.00     0.003 A 
ATOM      3  C2  UNL d   1       1.070  -0.225   1.455  0.00  0.00     0.048 A 
ATOM      4  C3  UNL d   1      -0.202   0.071   0.968  0.00  0.00     0.023 A 
ATOM      5  C4  UNL d   1      -0.539  -0.225  -0.354  0.00  0.00     0.048 A 
ATOM      6  C5  UNL d   1       0.406  -0.820  -1.191  0.00  0.00     0.003 A 
ATOM      7  I   UNL d   1      -1.606   0.959   2.217  0.00  0.00    -0.146 I 
ENDROOT
TORSDOF 0
ENDMDL
