MODEL 1
REMARK minimizedAffinity 6.02475595
REMARK minimizedRMSD -1
REMARK  0 active torsions:
REMARK  status: ('A' for Active; 'I' for Inactive)
ROOT
ATOM      1  C   UNL d   1      -2.201  -1.893  -5.436  0.00  0.00     0.023 A 
ATOM      2  C1  UNL d   1      -1.242  -2.265  -4.494  0.00  0.00     0.003 A 
ATOM      3  C2  UNL d   1      -0.247  -1.361  -4.114  0.00  0.00     0.048 A 
ATOM      4  C3  UNL d   1      -0.219  -0.087  -4.679  0.00  0.00     0.023 A 
ATOM      5  C4  UNL d   1      -1.177   0.290  -5.622  0.00  0.00     0.048 A 
ATOM      6  C5  UNL d   1      -2.169  -0.617  -5.999  0.00  0.00     0.003 A 
ATOM      7  I   UNL d   1       1.260   1.260  -4.116  0.00  0.00    -0.146 I 
ENDROOT
TORSDOF 0
ENDMDL
