MODEL 1
REMARK minimizedAffinity -2.38880563
REMARK minimizedRMSD -1
REMARK  0 active torsions:
REMARK  status: ('A' for Active; 'I' for Inactive)
ROOT
ATOM      1  C   UNL d   1      -1.116   0.114   2.313  0.00  0.00     0.023 A 
ATOM      2  C1  UNL d   1       0.131  -0.443   2.031  0.00  0.00     0.003 A 
ATOM      3  C2  UNL d   1       0.579  -0.524   0.711  0.00  0.00     0.048 A 
ATOM      4  C3  UNL d   1      -0.225  -0.043  -0.322  0.00  0.00     0.023 A 
ATOM      5  C4  UNL d   1      -1.474   0.516  -0.045  0.00  0.00     0.048 A 
ATOM      6  C5  UNL d   1      -1.917   0.594   1.277  0.00  0.00     0.003 A 
ATOM      7  I   UNL d   1       0.439  -0.162  -2.288  0.00  0.00    -0.146 I 
ENDROOT
TORSDOF 0
ENDMDL
