MODEL 1
REMARK minimizedAffinity -1.14628518
REMARK minimizedRMSD -1
REMARK  0 active torsions:
REMARK  status: ('A' for Active; 'I' for Inactive)
ROOT
ATOM      1  C   UNL d   1      -0.895  -0.310   2.014  0.00  0.00     0.023 A 
ATOM      2  C1  UNL d   1      -1.804   0.081   1.030  0.00  0.00     0.003 A 
ATOM      3  C2  UNL d   1      -1.427   0.072  -0.314  0.00  0.00     0.048 A 
ATOM      4  C3  UNL d   1      -0.140  -0.330  -0.669  0.00  0.00     0.023 A 
ATOM      5  C4  UNL d   1       0.773  -0.722   0.312  0.00  0.00     0.048 A 
ATOM      6  C5  UNL d   1       0.392  -0.710   1.655  0.00  0.00     0.003 A 
ATOM      7  I   UNL d   1       0.424  -0.344  -2.669  0.00  0.00    -0.146 I 
ENDROOT
TORSDOF 0
ENDMDL
