MODEL 1
REMARK minimizedAffinity -2.21577501
REMARK minimizedRMSD -1
REMARK  0 active torsions:
REMARK  status: ('A' for Active; 'I' for Inactive)
ROOT
ATOM      1  C   UNL d   1      -0.556   0.642   3.558  0.00  0.00     0.023 A 
ATOM      2  C1  UNL d   1       0.673   0.009   3.369  0.00  0.00     0.003 A 
ATOM      3  C2  UNL d   1       1.058  -0.405   2.092  0.00  0.00     0.048 A 
ATOM      4  C3  UNL d   1       0.209  -0.183   1.009  0.00  0.00     0.023 A 
ATOM      5  C4  UNL d   1      -1.021   0.451   1.193  0.00  0.00     0.048 A 
ATOM      6  C5  UNL d   1      -1.402   0.862   2.471  0.00  0.00     0.003 A 
ATOM      7  I   UNL d   1       0.779  -0.798  -0.893  0.00  0.00    -0.146 I 
ENDROOT
TORSDOF 0
ENDMDL
