MODEL 1
REMARK minimizedAffinity 0.325603127
REMARK minimizedRMSD -1
REMARK  0 active torsions:
REMARK  status: ('A' for Active; 'I' for Inactive)
ROOT
ATOM      1  C   UNL d   1      -1.428   0.401   2.241  0.00  0.00     0.023 A 
ATOM      2  C1  UNL d   1      -2.213   0.569   1.101  0.00  0.00     0.003 A 
ATOM      3  C2  UNL d   1      -1.660   0.367  -0.165  0.00  0.00     0.048 A 
ATOM      4  C3  UNL d   1      -0.321  -0.004  -0.284  0.00  0.00     0.023 A 
ATOM      5  C4  UNL d   1       0.468  -0.175   0.855  0.00  0.00     0.048 A 
ATOM      6  C5  UNL d   1      -0.089   0.029   2.118  0.00  0.00     0.003 A 
ATOM      7  I   UNL d   1       0.504  -0.306  -2.167  0.00  0.00    -0.146 I 
ENDROOT
TORSDOF 0
ENDMDL
