MODEL 1
REMARK minimizedAffinity -2.45396709
REMARK minimizedRMSD -1
REMARK  0 active torsions:
REMARK  status: ('A' for Active; 'I' for Inactive)
ROOT
ATOM      1  C   UNL d   1      -1.459   0.527  -0.058  0.00  0.00     0.023 A 
ATOM      2  C1  UNL d   1      -2.015   0.793   1.194  0.00  0.00     0.003 A 
ATOM      3  C2  UNL d   1      -1.296   0.501   2.355  0.00  0.00     0.048 A 
ATOM      4  C3  UNL d   1      -0.021  -0.056   2.257  0.00  0.00     0.023 A 
ATOM      5  C4  UNL d   1       0.539  -0.322   1.007  0.00  0.00     0.048 A 
ATOM      6  C5  UNL d   1      -0.184  -0.030  -0.151  0.00  0.00     0.003 A 
ATOM      7  I   UNL d   1       1.051  -0.491   3.983  0.00  0.00    -0.146 I 
ENDROOT
TORSDOF 0
ENDMDL
