MODEL 1
REMARK minimizedAffinity -2.76356554
REMARK minimizedRMSD -1
REMARK  0 active torsions:
REMARK  status: ('A' for Active; 'I' for Inactive)
ROOT
ATOM      1  C   UNL d   1      -2.016   0.409   0.152  0.00  0.00     0.023 A 
ATOM      2  C1  UNL d   1      -0.797  -0.135  -0.253  0.00  0.00     0.003 A 
ATOM      3  C2  UNL d   1       0.221  -0.342   0.680  0.00  0.00     0.048 A 
ATOM      4  C3  UNL d   1       0.012  -0.003   2.017  0.00  0.00     0.023 A 
ATOM      5  C4  UNL d   1      -1.206   0.540   2.426  0.00  0.00     0.048 A 
ATOM      6  C5  UNL d   1      -2.221   0.746   1.490  0.00  0.00     0.003 A 
ATOM      7  I   UNL d   1       1.526  -0.310   3.408  0.00  0.00    -0.146 I 
ENDROOT
TORSDOF 0
ENDMDL
