MODEL 1
REMARK minimizedAffinity -1.46614087
REMARK minimizedRMSD -1
REMARK  0 active torsions:
REMARK  status: ('A' for Active; 'I' for Inactive)
ROOT
ATOM      1  C   UNL d   1      -1.601   0.283  -0.121  0.00  0.00     0.023 A 
ATOM      2  C1  UNL d   1      -2.221   0.521   1.105  0.00  0.00     0.003 A 
ATOM      3  C2  UNL d   1      -1.562   0.204   2.295  0.00  0.00     0.048 A 
ATOM      4  C3  UNL d   1      -0.283  -0.350   2.251  0.00  0.00     0.023 A 
ATOM      5  C4  UNL d   1       0.342  -0.588   1.025  0.00  0.00     0.048 A 
ATOM      6  C5  UNL d   1      -0.321  -0.271  -0.162  0.00  0.00     0.003 A 
ATOM      7  I   UNL d   1       0.700  -0.822   4.020  0.00  0.00    -0.146 I 
ENDROOT
TORSDOF 0
ENDMDL
