MODEL 1
REMARK minimizedAffinity 9.52434444
REMARK minimizedRMSD -1
REMARK  3 active torsions:
REMARK  status: ('A' for Active; 'I' for Inactive)
REMARK    1  A    between atoms: C3'_2  and  C2'_3 
REMARK    2  A    between atoms: C2'_3  and  C1'_4 
REMARK    3  A    between atoms: C1'_4  and  C1_5 
ROOT
ATOM      1  C1  N4B d   1       3.567  -5.663  -5.161  0.00  0.00    -0.075 A 
ATOM      2  C2  N4B d   1       3.547  -5.393  -3.775  0.00  0.00     0.002 A 
ATOM      3  C3  N4B d   1       2.360  -5.098  -3.150  0.00  0.00     0.002 A 
ATOM      4  C4  N4B d   1       1.189  -5.048  -3.891  0.00  0.00    -0.004 A 
ATOM      5  C5  N4B d   1       1.213  -5.335  -5.225  0.00  0.00     0.002 A 
ATOM      6  C6  N4B d   1       2.398  -5.638  -5.865  0.00  0.00     0.002 A 
ENDROOT
BRANCH   1   7
ATOM      7  C1' N4B d   1       4.853  -5.907  -5.904  0.00  0.00     0.057 C 
BRANCH   7   8
ATOM      8  C2' N4B d   1       5.986  -5.167  -5.199  0.00  0.00     0.009 C 
BRANCH   8   9
ATOM      9  C3' N4B d   1       6.000  -3.688  -5.544  0.00  0.00     0.004 C 
ATOM     10  C4' N4B d   1       5.671  -2.815  -4.369  0.00  0.00     0.003 C 
ENDBRANCH   8   9
ENDBRANCH   7   8
ENDBRANCH   1   7
TORSDOF 3
ENDMDL
