MODEL 1
REMARK minimizedAffinity 11.510951
REMARK minimizedRMSD -1
REMARK  3 active torsions:
REMARK  status: ('A' for Active; 'I' for Inactive)
REMARK    1  A    between atoms: C3'_2  and  C2'_3 
REMARK    2  A    between atoms: C2'_3  and  C1'_4 
REMARK    3  A    between atoms: C1'_4  and  C1_5 
ROOT
ATOM      1  C1  N4B d   1       0.344  -1.362   0.133  0.00  0.00    -0.075 A 
ATOM      2  C2  N4B d   1       0.381  -1.643  -1.250  0.00  0.00     0.002 A 
ATOM      3  C3  N4B d   1      -0.512  -2.533  -1.795  0.00  0.00     0.002 A 
ATOM      4  C4  N4B d   1      -1.436  -3.165  -0.976  0.00  0.00    -0.004 A 
ATOM      5  C5  N4B d   1      -1.482  -2.869   0.354  0.00  0.00     0.002 A 
ATOM      6  C6  N4B d   1      -0.593  -1.974   0.915  0.00  0.00     0.002 A 
ENDROOT
BRANCH   1   7
ATOM      7  C1' N4B d   1       1.355  -0.462   0.789  0.00  0.00     0.057 C 
BRANCH   7   8
ATOM      8  C2' N4B d   1       0.903   0.988   0.645  0.00  0.00     0.009 C 
BRANCH   8   9
ATOM      9  C3' N4B d   1       1.648   1.708  -0.466  0.00  0.00     0.004 C 
ATOM     10  C4' N4B d   1       0.877   1.749  -1.751  0.00  0.00     0.003 C 
ENDBRANCH   8   9
ENDBRANCH   7   8
ENDBRANCH   1   7
TORSDOF 3
ENDMDL
