MODEL 1
REMARK minimizedAffinity 15.0832434
REMARK minimizedRMSD -1
REMARK  3 active torsions:
REMARK  status: ('A' for Active; 'I' for Inactive)
REMARK    1  A    between atoms: C3'_2  and  C2'_3 
REMARK    2  A    between atoms: C2'_3  and  C1'_4 
REMARK    3  A    between atoms: C1'_4  and  C1_5 
ROOT
ATOM      1  C1  N4B d   1      -1.201  -3.771  -0.928  0.00  0.00    -0.075 A 
ATOM      2  C2  N4B d   1      -1.040  -4.884  -0.074  0.00  0.00     0.002 A 
ATOM      3  C3  N4B d   1      -1.847  -5.985  -0.222  0.00  0.00     0.002 A 
ATOM      4  C4  N4B d   1      -2.830  -5.989  -1.201  0.00  0.00    -0.004 A 
ATOM      5  C5  N4B d   1      -2.962  -4.920  -2.038  0.00  0.00     0.002 A 
ATOM      6  C6  N4B d   1      -2.155  -3.808  -1.903  0.00  0.00     0.002 A 
ENDROOT
BRANCH   1   7
ATOM      7  C1' N4B d   1      -0.400  -2.510  -0.749  0.00  0.00     0.057 C 
BRANCH   7   8
ATOM      8  C2' N4B d   1      -0.554  -2.018   0.687  0.00  0.00     0.009 C 
BRANCH   8   9
ATOM      9  C3' N4B d   1       0.785  -1.676   1.317  0.00  0.00     0.004 C 
ATOM     10  C4' N4B d   1       1.130  -0.222   1.194  0.00  0.00     0.003 C 
ENDBRANCH   8   9
ENDBRANCH   7   8
ENDBRANCH   1   7
TORSDOF 3
ENDMDL
