MODEL 1
REMARK minimizedAffinity 6.06507874
REMARK minimizedRMSD -1
REMARK  3 active torsions:
REMARK  status: ('A' for Active; 'I' for Inactive)
REMARK    1  A    between atoms: C3'_2  and  C2'_3 
REMARK    2  A    between atoms: C2'_3  and  C1'_4 
REMARK    3  A    between atoms: C1'_4  and  C1_5 
ROOT
ATOM      1  C1  N4B d   1      -1.465  -3.524   1.270  0.00  0.00    -0.075 A 
ATOM      2  C2  N4B d   1      -1.545  -4.923   1.447  0.00  0.00     0.002 A 
ATOM      3  C3  N4B d   1      -1.170  -5.486   2.642  0.00  0.00     0.002 A 
ATOM      4  C4  N4B d   1      -0.695  -4.677   3.663  0.00  0.00    -0.004 A 
ATOM      5  C5  N4B d   1      -0.644  -3.324   3.492  0.00  0.00     0.002 A 
ATOM      6  C6  N4B d   1      -1.022  -2.744   2.298  0.00  0.00     0.002 A 
ENDROOT
BRANCH   1   7
ATOM      7  C1' N4B d   1      -1.783  -2.871  -0.047  0.00  0.00     0.057 C 
BRANCH   7   8
ATOM      8  C2' N4B d   1      -0.744  -3.297  -1.081  0.00  0.00     0.009 C 
BRANCH   8   9
ATOM      9  C3' N4B d   1      -1.388  -3.743  -2.383  0.00  0.00     0.004 C 
ATOM     10  C4' N4B d   1      -2.696  -4.446  -2.173  0.00  0.00     0.003 C 
ENDBRANCH   8   9
ENDBRANCH   7   8
ENDBRANCH   1   7
TORSDOF 3
ENDMDL
