MODEL 1
REMARK minimizedAffinity 9.20509148
REMARK minimizedRMSD -1
REMARK  3 active torsions:
REMARK  status: ('A' for Active; 'I' for Inactive)
REMARK    1  A    between atoms: C3'_2  and  C2'_3 
REMARK    2  A    between atoms: C2'_3  and  C1'_4 
REMARK    3  A    between atoms: C1'_4  and  C1_5 
ROOT
ATOM      1  C1  N4B d   1      -0.679  -0.078   1.687  0.00  0.00    -0.075 A 
ATOM      2  C2  N4B d   1       0.382   0.234   0.809  0.00  0.00     0.002 A 
ATOM      3  C3  N4B d   1       0.755   1.543   0.621  0.00  0.00     0.002 A 
ATOM      4  C4  N4B d   1       0.073   2.552   1.283  0.00  0.00    -0.004 A 
ATOM      5  C5  N4B d   1      -0.934   2.240   2.149  0.00  0.00     0.002 A 
ATOM      6  C6  N4B d   1      -1.317   0.929   2.351  0.00  0.00     0.002 A 
ENDROOT
BRANCH   1   7
ATOM      7  C1' N4B d   1      -1.178  -1.487   1.859  0.00  0.00     0.057 C 
BRANCH   7   8
ATOM      8  C2' N4B d   1      -0.648  -2.349   0.717  0.00  0.00     0.009 C 
BRANCH   8   9
ATOM      9  C3' N4B d   1      -1.714  -2.624  -0.329  0.00  0.00     0.004 C 
ATOM     10  C4' N4B d   1      -1.311  -3.691  -1.303  0.00  0.00     0.003 C 
ENDBRANCH   8   9
ENDBRANCH   7   8
ENDBRANCH   1   7
TORSDOF 3
ENDMDL
