MODEL 1
REMARK minimizedAffinity 11.9445906
REMARK minimizedRMSD -1
REMARK  3 active torsions:
REMARK  status: ('A' for Active; 'I' for Inactive)
REMARK    1  A    between atoms: C3'_2  and  C2'_3 
REMARK    2  A    between atoms: C2'_3  and  C1'_4 
REMARK    3  A    between atoms: C1'_4  and  C1_5 
ROOT
ATOM      1  C1  N4B d   1       1.147   0.583   1.128  0.00  0.00    -0.075 A 
ATOM      2  C2  N4B d   1       1.356   1.304  -0.069  0.00  0.00     0.002 A 
ATOM      3  C3  N4B d   1       1.812   2.599  -0.020  0.00  0.00     0.002 A 
ATOM      4  C4  N4B d   1       2.045   3.197   1.209  0.00  0.00    -0.004 A 
ATOM      5  C5  N4B d   1       1.864   2.486   2.359  0.00  0.00     0.002 A 
ATOM      6  C6  N4B d   1       1.411   1.183   2.325  0.00  0.00     0.002 A 
ENDROOT
BRANCH   1   7
ATOM      7  C1' N4B d   1       0.568  -0.805   1.127  0.00  0.00     0.057 C 
BRANCH   7   8
ATOM      8  C2' N4B d   1       0.281  -1.228  -0.310  0.00  0.00     0.009 C 
BRANCH   8   9
ATOM      9  C3' N4B d   1      -0.804  -2.289  -0.385  0.00  0.00     0.004 C 
ATOM     10  C4' N4B d   1      -0.863  -2.966  -1.721  0.00  0.00     0.003 C 
ENDBRANCH   8   9
ENDBRANCH   7   8
ENDBRANCH   1   7
TORSDOF 3
ENDMDL
