MODEL 1
REMARK minimizedAffinity 9.37293148
REMARK minimizedRMSD -1
REMARK  3 active torsions:
REMARK  status: ('A' for Active; 'I' for Inactive)
REMARK    1  A    between atoms: C3'_2  and  C2'_3 
REMARK    2  A    between atoms: C2'_3  and  C1'_4 
REMARK    3  A    between atoms: C1'_4  and  C1_5 
ROOT
ATOM      1  C1  N4B d   1      -1.217   3.637   2.077  0.00  0.00    -0.075 A 
ATOM      2  C2  N4B d   1      -1.885   3.995   3.268  0.00  0.00     0.002 A 
ATOM      3  C3  N4B d   1      -1.477   3.468   4.469  0.00  0.00     0.002 A 
ATOM      4  C4  N4B d   1      -0.419   2.572   4.501  0.00  0.00    -0.004 A 
ATOM      5  C5  N4B d   1       0.238   2.252   3.348  0.00  0.00     0.002 A 
ATOM      6  C6  N4B d   1      -0.159   2.777   2.135  0.00  0.00     0.002 A 
ENDROOT
BRANCH   1   7
ATOM      7  C1' N4B d   1      -1.682   4.120   0.730  0.00  0.00     0.057 C 
BRANCH   7   8
ATOM      8  C2' N4B d   1      -0.466   4.422  -0.141  0.00  0.00     0.009 C 
BRANCH   8   9
ATOM      9  C3' N4B d   1      -0.009   5.863  -0.000  0.00  0.00     0.004 C 
ATOM     10  C4' N4B d   1       1.484   6.000   0.026  0.00  0.00     0.003 C 
ENDBRANCH   8   9
ENDBRANCH   7   8
ENDBRANCH   1   7
TORSDOF 3
ENDMDL
