MODEL 1
REMARK minimizedAffinity 9.1228199
REMARK minimizedRMSD -1
REMARK  3 active torsions:
REMARK  status: ('A' for Active; 'I' for Inactive)
REMARK    1  A    between atoms: C3'_2  and  C2'_3 
REMARK    2  A    between atoms: C2'_3  and  C1'_4 
REMARK    3  A    between atoms: C1'_4  and  C1_5 
ROOT
ATOM      1  C1  N4B d   1       1.117   2.484   1.274  0.00  0.00    -0.075 A 
ATOM      2  C2  N4B d   1       1.549   1.354   0.546  0.00  0.00     0.002 A 
ATOM      3  C3  N4B d   1       2.523   0.535   1.063  0.00  0.00     0.002 A 
ATOM      4  C4  N4B d   1       3.090   0.835   2.292  0.00  0.00    -0.004 A 
ATOM      5  C5  N4B d   1       2.649   1.914   3.001  0.00  0.00     0.002 A 
ATOM      6  C6  N4B d   1       1.668   2.744   2.496  0.00  0.00     0.002 A 
ENDROOT
BRANCH   1   7
ATOM      7  C1' N4B d   1       0.117   3.456   0.712  0.00  0.00     0.057 C 
BRANCH   7   8
ATOM      8  C2' N4B d   1       0.687   4.084  -0.557  0.00  0.00     0.009 C 
BRANCH   8   9
ATOM      9  C3' N4B d   1       1.009   5.556  -0.367  0.00  0.00     0.004 C 
ATOM     10  C4' N4B d   1       2.206   5.995  -1.156  0.00  0.00     0.003 C 
ENDBRANCH   8   9
ENDBRANCH   7   8
ENDBRANCH   1   7
TORSDOF 3
ENDMDL
