MODEL 1
REMARK minimizedAffinity 9.11468029
REMARK minimizedRMSD -1
REMARK  3 active torsions:
REMARK  status: ('A' for Active; 'I' for Inactive)
REMARK    1  A    between atoms: C3'_2  and  C2'_3 
REMARK    2  A    between atoms: C2'_3  and  C1'_4 
REMARK    3  A    between atoms: C1'_4  and  C1_5 
ROOT
ATOM      1  C1  N4B d   1       4.507   3.303   2.403  0.00  0.00    -0.075 A 
ATOM      2  C2  N4B d   1       3.859   2.331   1.611  0.00  0.00     0.002 A 
ATOM      3  C3  N4B d   1       3.329   2.680   0.392  0.00  0.00     0.002 A 
ATOM      4  C4  N4B d   1       3.420   3.993  -0.044  0.00  0.00    -0.004 A 
ATOM      5  C5  N4B d   1       4.071   4.920   0.716  0.00  0.00     0.002 A 
ATOM      6  C6  N4B d   1       4.611   4.583   1.941  0.00  0.00     0.002 A 
ENDROOT
BRANCH   1   7
ATOM      7  C1' N4B d   1       5.026   2.988   3.780  0.00  0.00     0.057 C 
BRANCH   7   8
ATOM      8  C2' N4B d   1       4.061   2.029   4.471  0.00  0.00     0.009 C 
BRANCH   8   9
ATOM      9  C3' N4B d   1       3.320   2.696   5.617  0.00  0.00     0.004 C 
ATOM     10  C4' N4B d   1       3.912   4.020   5.999  0.00  0.00     0.003 C 
ENDBRANCH   8   9
ENDBRANCH   7   8
ENDBRANCH   1   7
TORSDOF 3
ENDMDL
