MODEL 1
REMARK minimizedAffinity -3.22198677
REMARK minimizedRMSD -1
REMARK  3 active torsions:
REMARK  status: ('A' for Active; 'I' for Inactive)
REMARK    1  A    between atoms: C3'_2  and  C2'_3 
REMARK    2  A    between atoms: C2'_3  and  C1'_4 
REMARK    3  A    between atoms: C1'_4  and  C1_5 
ROOT
ATOM      1  C1  N4B d   1       3.561   2.550   1.425  0.00  0.00    -0.075 A 
ATOM      2  C2  N4B d   1       4.345   3.670   1.779  0.00  0.00     0.002 A 
ATOM      3  C3  N4B d   1       4.897   3.753   3.034  0.00  0.00     0.002 A 
ATOM      4  C4  N4B d   1       4.663   2.742   3.954  0.00  0.00    -0.004 A 
ATOM      5  C5  N4B d   1       3.925   1.652   3.596  0.00  0.00     0.002 A 
ATOM      6  C6  N4B d   1       3.368   1.553   2.337  0.00  0.00     0.002 A 
ENDROOT
BRANCH   1   7
ATOM      7  C1' N4B d   1       2.866   2.455   0.094  0.00  0.00     0.057 C 
BRANCH   7   8
ATOM      8  C2' N4B d   1       1.700   3.439   0.067  0.00  0.00     0.009 C 
BRANCH   8   9
ATOM      9  C3' N4B d   1       0.358   2.730   0.110  0.00  0.00     0.004 C 
ATOM     10  C4' N4B d   1       0.234   1.791   1.273  0.00  0.00     0.003 C 
ENDBRANCH   8   9
ENDBRANCH   7   8
ENDBRANCH   1   7
TORSDOF 3
ENDMDL
