MODEL 1
REMARK minimizedAffinity -0.639268517
REMARK minimizedRMSD -1
REMARK  2 active torsions:
REMARK  status: ('A' for Active; 'I' for Inactive)
REMARK    1  A    between atoms: C2'_3  and  C1'_4 
REMARK    2  A    between atoms: C1'_4  and  C1_5 
ROOT
ATOM      1  C1  I4B d   1      -0.120  -0.410  -0.381  0.00  0.00    -0.075 A 
ATOM      2  C2  I4B d   1      -1.095   0.393  -0.918  0.00  0.00     0.003 A 
ATOM      3  C3  I4B d   1      -2.092   0.958  -0.086  0.00  0.00     0.002 A 
ATOM      4  C4  I4B d   1      -2.106   0.655   1.260  0.00  0.00    -0.004 A 
ATOM      5  C5  I4B d   1      -1.103  -0.141   1.807  0.00  0.00     0.002 A 
ATOM      6  C6  I4B d   1      -0.097  -0.667   0.984  0.00  0.00     0.003 A 
ENDROOT
BRANCH   1   7
ATOM      7  C1' I4B d   1       0.898  -1.017  -1.293  0.00  0.00     0.060 C 
BRANCH   7   8
ATOM      8  C2' I4B d   1       0.970  -0.165  -2.544  0.00  0.00    -0.013 C 
ATOM      9  C4' I4B d   1       2.334   0.453  -2.705  0.00  0.00     0.013 C 
ATOM     10  C3' I4B d   1       0.628  -1.036  -3.717  0.00  0.00     0.013 C 
ENDBRANCH   7   8
ENDBRANCH   1   7
TORSDOF 2
ENDMDL
