MODEL 1
REMARK minimizedAffinity -5.64349508
REMARK minimizedRMSD -1
REMARK  2 active torsions:
REMARK  status: ('A' for Active; 'I' for Inactive)
REMARK    1  A    between atoms: C2'_3  and  C1'_4 
REMARK    2  A    between atoms: C1'_4  and  C1_5 
ROOT
ATOM      1  C1  I4B d   1       0.299  -0.095   0.048  0.00  0.00    -0.075 A 
ATOM      2  C2  I4B d   1      -1.041   0.186  -0.050  0.00  0.00     0.003 A 
ATOM      3  C3  I4B d   1      -1.696   0.905   0.979  0.00  0.00     0.002 A 
ATOM      4  C4  I4B d   1      -0.989   1.276   2.104  0.00  0.00    -0.004 A 
ATOM      5  C5  I4B d   1       0.375   1.010   2.192  0.00  0.00     0.002 A 
ATOM      6  C6  I4B d   1       1.026   0.331   1.152  0.00  0.00     0.003 A 
ENDROOT
BRANCH   1   7
ATOM      7  C1' I4B d   1       0.951  -0.885  -1.042  0.00  0.00     0.060 C 
BRANCH   7   8
ATOM      8  C2' I4B d   1       0.876  -0.070  -2.318  0.00  0.00    -0.013 C 
ATOM      9  C4' I4B d   1       2.224   0.494  -2.684  0.00  0.00     0.013 C 
ATOM     10  C3' I4B d   1       0.348  -0.959  -3.404  0.00  0.00     0.013 C 
ENDBRANCH   7   8
ENDBRANCH   1   7
TORSDOF 2
ENDMDL
