MODEL 1
REMARK minimizedAffinity -3.13630295
REMARK minimizedRMSD -1
REMARK  2 active torsions:
REMARK  status: ('A' for Active; 'I' for Inactive)
REMARK    1  A    between atoms: C2'_3  and  C1'_4 
REMARK    2  A    between atoms: C1'_4  and  C1_5 
ROOT
ATOM      1  C1  I4B d   1      -0.067   0.090  -0.235  0.00  0.00    -0.075 A 
ATOM      2  C2  I4B d   1       0.777   0.558   0.742  0.00  0.00     0.003 A 
ATOM      3  C3  I4B d   1       0.252   1.055   1.959  0.00  0.00     0.002 A 
ATOM      4  C4  I4B d   1      -1.115   1.112   2.137  0.00  0.00    -0.004 A 
ATOM      5  C5  I4B d   1      -1.968   0.615   1.155  0.00  0.00     0.002 A 
ATOM      6  C6  I4B d   1      -1.441   0.090  -0.033  0.00  0.00     0.003 A 
ENDROOT
BRANCH   1   7
ATOM      7  C1' I4B d   1       0.520  -0.397  -1.521  0.00  0.00     0.060 C 
BRANCH   7   8
ATOM      8  C2' I4B d   1       0.831   0.812  -2.380  0.00  0.00    -0.013 C 
ATOM      9  C4' I4B d   1       2.270   1.230  -2.234  0.00  0.00     0.013 C 
ATOM     10  C3' I4B d   1       0.510   0.464  -3.803  0.00  0.00     0.013 C 
ENDBRANCH   7   8
ENDBRANCH   1   7
TORSDOF 2
ENDMDL
