MODEL 1
REMARK minimizedAffinity -3.51173091
REMARK minimizedRMSD -1
REMARK  2 active torsions:
REMARK  status: ('A' for Active; 'I' for Inactive)
REMARK    1  A    between atoms: C2'_3  and  C1'_4 
REMARK    2  A    between atoms: C1'_4  and  C1_5 
ROOT
ATOM      1  C1  I4B d   1       0.309  -0.351  -0.556  0.00  0.00    -0.075 A 
ATOM      2  C2  I4B d   1       0.991  -0.061   0.599  0.00  0.00     0.003 A 
ATOM      3  C3  I4B d   1       0.305   0.469   1.719  0.00  0.00     0.002 A 
ATOM      4  C4  I4B d   1      -1.045   0.739   1.623  0.00  0.00    -0.004 A 
ATOM      5  C5  I4B d   1      -1.740   0.423   0.459  0.00  0.00     0.002 A 
ATOM      6  C6  I4B d   1      -1.061  -0.137  -0.634  0.00  0.00     0.003 A 
ENDROOT
BRANCH   1   7
ATOM      7  C1' I4B d   1       1.071  -0.878  -1.730  0.00  0.00     0.060 C 
BRANCH   7   8
ATOM      8  C2' I4B d   1       1.094   0.200  -2.794  0.00  0.00    -0.013 C 
ATOM      9  C4' I4B d   1       2.405   0.942  -2.790  0.00  0.00     0.013 C 
ATOM     10  C3' I4B d   1       0.846  -0.454  -4.121  0.00  0.00     0.013 C 
ENDBRANCH   7   8
ENDBRANCH   1   7
TORSDOF 2
ENDMDL
