MODEL 1
REMARK minimizedAffinity -5.37884665
REMARK minimizedRMSD -1
REMARK  2 active torsions:
REMARK  status: ('A' for Active; 'I' for Inactive)
REMARK    1  A    between atoms: C2'_3  and  C1'_4 
REMARK    2  A    between atoms: C1'_4  and  C1_5 
ROOT
ATOM      1  C1  I4B d   1       0.275  -0.026  -0.050  0.00  0.00    -0.075 A 
ATOM      2  C2  I4B d   1      -1.056   0.052  -0.378  0.00  0.00     0.003 A 
ATOM      3  C3  I4B d   1      -1.985   0.603   0.537  0.00  0.00     0.002 A 
ATOM      4  C4  I4B d   1      -1.551   1.014   1.781  0.00  0.00    -0.004 A 
ATOM      5  C5  I4B d   1      -0.198   0.956   2.103  0.00  0.00     0.002 A 
ATOM      6  C6  I4B d   1       0.723   0.444   1.178  0.00  0.00     0.003 A 
ENDROOT
BRANCH   1   7
ATOM      7  C1' I4B d   1       1.224  -0.644  -1.027  0.00  0.00     0.060 C 
BRANCH   7   8
ATOM      8  C2' I4B d   1       0.887  -0.112  -2.405  0.00  0.00    -0.013 C 
ATOM      9  C4' I4B d   1       2.052   0.632  -3.003  0.00  0.00     0.013 C 
ATOM     10  C3' I4B d   1       0.488  -1.274  -3.266  0.00  0.00     0.013 C 
ENDBRANCH   7   8
ENDBRANCH   1   7
TORSDOF 2
ENDMDL
