MODEL 1
REMARK minimizedAffinity 11.9503727
REMARK minimizedRMSD -1
REMARK  2 active torsions:
REMARK  status: ('A' for Active; 'I' for Inactive)
REMARK    1  A    between atoms: C2'_3  and  C1'_4 
REMARK    2  A    between atoms: C1'_4  and  C1_5 
ROOT
ATOM      1  C1  I4B d   1       3.665  -0.382  -1.819  0.00  0.00    -0.075 A 
ATOM      2  C2  I4B d   1       4.776   0.327  -1.438  0.00  0.00     0.003 A 
ATOM      3  C3  I4B d   1       5.958   0.275  -2.216  0.00  0.00     0.002 A 
ATOM      4  C4  I4B d   1       6.000  -0.534  -3.334  0.00  0.00    -0.004 A 
ATOM      5  C5  I4B d   1       4.865  -1.234  -3.732  0.00  0.00     0.002 A 
ATOM      6  C6  I4B d   1       3.686  -1.149  -2.977  0.00  0.00     0.003 A 
ENDROOT
BRANCH   1   7
ATOM      7  C1' I4B d   1       2.445  -0.330  -0.956  0.00  0.00     0.060 C 
BRANCH   7   8
ATOM      8  C2' I4B d   1       2.858  -0.688   0.458  0.00  0.00    -0.013 C 
ATOM      9  C4' I4B d   1       1.937  -0.059   1.470  0.00  0.00     0.013 C 
ATOM     10  C3' I4B d   1       2.854  -2.182   0.577  0.00  0.00     0.013 C 
ENDBRANCH   7   8
ENDBRANCH   1   7
TORSDOF 2
ENDMDL
