MODEL 1
REMARK minimizedAffinity 13.3517799
REMARK minimizedRMSD -1
REMARK  2 active torsions:
REMARK  status: ('A' for Active; 'I' for Inactive)
REMARK    1  A    between atoms: C2'_3  and  C1'_4 
REMARK    2  A    between atoms: C1'_4  and  C1_5 
ROOT
ATOM      1  C1  I4B d   1       1.142  -3.165   4.348  0.00  0.00    -0.075 A 
ATOM      2  C2  I4B d   1       2.140  -3.616   5.176  0.00  0.00     0.003 A 
ATOM      3  C3  I4B d   1       1.926  -4.749   5.999  0.00  0.00     0.002 A 
ATOM      4  C4  I4B d   1       0.691  -5.365   5.999  0.00  0.00    -0.004 A 
ATOM      5  C5  I4B d   1      -0.311  -4.920   5.142  0.00  0.00     0.002 A 
ATOM      6  C6  I4B d   1      -0.081  -3.821   4.303  0.00  0.00     0.003 A 
ENDROOT
BRANCH   1   7
ATOM      7  C1' I4B d   1       1.391  -1.946   3.517  0.00  0.00     0.060 C 
BRANCH   7   8
ATOM      8  C2' I4B d   1       0.566  -0.813   4.093  0.00  0.00    -0.013 C 
ATOM      9  C4' I4B d   1       1.415   0.110   4.927  0.00  0.00     0.013 C 
ATOM     10  C3' I4B d   1      -0.071  -0.078   2.951  0.00  0.00     0.013 C 
ENDBRANCH   7   8
ENDBRANCH   1   7
TORSDOF 2
ENDMDL
