MODEL 1
REMARK minimizedAffinity 11.4198208
REMARK minimizedRMSD -1
REMARK  2 active torsions:
REMARK  status: ('A' for Active; 'I' for Inactive)
REMARK    1  A    between atoms: C2'_3  and  C1'_4 
REMARK    2  A    between atoms: C1'_4  and  C1_5 
ROOT
ATOM      1  C1  I4B d   1      -5.096   1.744  -4.584  0.00  0.00    -0.075 A 
ATOM      2  C2  I4B d   1      -5.614   1.364  -3.371  0.00  0.00     0.003 A 
ATOM      3  C3  I4B d   1      -5.999   2.342  -2.423  0.00  0.00     0.002 A 
ATOM      4  C4  I4B d   1      -5.804   3.678  -2.707  0.00  0.00    -0.004 A 
ATOM      5  C5  I4B d   1      -5.300   4.062  -3.946  0.00  0.00     0.002 A 
ATOM      6  C6  I4B d   1      -4.955   3.090  -4.896  0.00  0.00     0.003 A 
ENDROOT
BRANCH   1   7
ATOM      7  C1' I4B d   1      -4.668   0.684  -5.549  0.00  0.00     0.060 C 
BRANCH   7   8
ATOM      8  C2' I4B d   1      -3.159   0.745  -5.671  0.00  0.00    -0.013 C 
ATOM      9  C4' I4B d   1      -2.694   2.139  -6.000  0.00  0.00     0.013 C 
ATOM     10  C3' I4B d   1      -2.571   0.269  -4.376  0.00  0.00     0.013 C 
ENDBRANCH   7   8
ENDBRANCH   1   7
TORSDOF 2
ENDMDL
