MODEL 1
REMARK minimizedAffinity 8.11002636
REMARK minimizedRMSD -1
REMARK  2 active torsions:
REMARK  status: ('A' for Active; 'I' for Inactive)
REMARK    1  A    between atoms: C2'_3  and  C1'_4 
REMARK    2  A    between atoms: C1'_4  and  C1_5 
ROOT
ATOM      1  C1  I4B d   1       2.448  -2.011  -0.526  0.00  0.00    -0.075 A 
ATOM      2  C2  I4B d   1       1.877  -1.322   0.515  0.00  0.00     0.003 A 
ATOM      3  C3  I4B d   1       2.324  -0.017   0.837  0.00  0.00     0.002 A 
ATOM      4  C4  I4B d   1       3.371   0.536   0.129  0.00  0.00    -0.004 A 
ATOM      5  C5  I4B d   1       3.933  -0.154  -0.941  0.00  0.00     0.002 A 
ATOM      6  C6  I4B d   1       3.460  -1.431  -1.279  0.00  0.00     0.003 A 
ENDROOT
BRANCH   1   7
ATOM      7  C1' I4B d   1       1.974  -3.399  -0.818  0.00  0.00     0.060 C 
BRANCH   7   8
ATOM      8  C2' I4B d   1       0.975  -3.322  -1.954  0.00  0.00    -0.013 C 
ATOM      9  C4' I4B d   1       1.652  -2.973  -3.253  0.00  0.00     0.013 C 
ATOM     10  C3' I4B d   1       0.276  -4.646  -2.047  0.00  0.00     0.013 C 
ENDBRANCH   7   8
ENDBRANCH   1   7
TORSDOF 2
ENDMDL
