MODEL 1
REMARK minimizedAffinity 13.7009144
REMARK minimizedRMSD -1
REMARK  2 active torsions:
REMARK  status: ('A' for Active; 'I' for Inactive)
REMARK    1  A    between atoms: C2'_3  and  C1'_4 
REMARK    2  A    between atoms: C1'_4  and  C1_5 
ROOT
ATOM      1  C1  I4B d   1       2.446  -1.672  -0.618  0.00  0.00    -0.075 A 
ATOM      2  C2  I4B d   1       1.850  -0.933   0.374  0.00  0.00     0.003 A 
ATOM      3  C3  I4B d   1       2.253   0.404   0.607  0.00  0.00     0.002 A 
ATOM      4  C4  I4B d   1       3.282   0.943  -0.138  0.00  0.00    -0.004 A 
ATOM      5  C5  I4B d   1       3.869   0.201  -1.159  0.00  0.00     0.002 A 
ATOM      6  C6  I4B d   1       3.440  -1.111  -1.409  0.00  0.00     0.003 A 
ENDROOT
BRANCH   1   7
ATOM      7  C1' I4B d   1       2.019  -3.092  -0.814  0.00  0.00     0.060 C 
BRANCH   7   8
ATOM      8  C2' I4B d   1       1.108  -3.142  -2.024  0.00  0.00    -0.013 C 
ATOM      9  C4' I4B d   1       1.901  -3.242  -3.300  0.00  0.00     0.013 C 
ATOM     10  C3' I4B d   1       0.190  -4.318  -1.863  0.00  0.00     0.013 C 
ENDBRANCH   7   8
ENDBRANCH   1   7
TORSDOF 2
ENDMDL
