MODEL 1
REMARK minimizedAffinity 18.1258163
REMARK minimizedRMSD -1
REMARK  2 active torsions:
REMARK  status: ('A' for Active; 'I' for Inactive)
REMARK    1  A    between atoms: C2'_3  and  C1'_4 
REMARK    2  A    between atoms: C1'_4  and  C1_5 
ROOT
ATOM      1  C1  I4B d   1       1.924  -2.004  -2.323  0.00  0.00    -0.075 A 
ATOM      2  C2  I4B d   1       2.902  -1.146  -1.888  0.00  0.00     0.003 A 
ATOM      3  C3  I4B d   1       4.209  -1.224  -2.426  0.00  0.00     0.002 A 
ATOM      4  C4  I4B d   1       4.505  -2.201  -3.354  0.00  0.00    -0.004 A 
ATOM      5  C5  I4B d   1       3.506  -3.056  -3.811  0.00  0.00     0.002 A 
ATOM      6  C6  I4B d   1       2.204  -2.949  -3.301  0.00  0.00     0.003 A 
ENDROOT
BRANCH   1   7
ATOM      7  C1' I4B d   1       0.562  -1.916  -1.709  0.00  0.00     0.060 C 
BRANCH   7   8
ATOM      8  C2' I4B d   1      -0.430  -2.515  -2.685  0.00  0.00    -0.013 C 
ATOM      9  C4' I4B d   1      -1.077  -3.750  -2.115  0.00  0.00     0.013 C 
ATOM     10  C3' I4B d   1      -1.453  -1.467  -3.007  0.00  0.00     0.013 C 
ENDBRANCH   7   8
ENDBRANCH   1   7
TORSDOF 2
ENDMDL
