MODEL 1
REMARK minimizedAffinity -5.0943284
REMARK minimizedRMSD -1
REMARK  1 active torsions:
REMARK  status: ('A' for Active; 'I' for Inactive)
REMARK    1  A    between atoms: C1_2  and  C2_3 
ROOT
ATOM      1  C2  UNL d   1      -0.505  -0.077  -0.078  0.00  0.00    -0.081 A 
ATOM      2  C3  UNL d   1       0.276   1.079   0.036  0.00  0.00     0.006 A 
ATOM      3  C4  UNL d   1       1.624   0.991   0.391  0.00  0.00     0.002 A 
ATOM      4  C5  UNL d   1       2.215  -0.255   0.629  0.00  0.00    -0.080 A 
ATOM      5  C6  UNL d   1       3.669  -0.366   0.981  0.00  0.00     0.076 C 
ATOM      6  C7  UNL d   1       1.430  -1.409   0.532  0.00  0.00     0.002 A 
ATOM      7  C8  UNL d   1       0.082  -1.321   0.178  0.00  0.00     0.006 A 
ENDROOT
BRANCH   1   8
ATOM      8  C1  UNL d   1      -1.943   0.010  -0.524  0.00  0.00     0.054 C 
ATOM      9  C   UNL d   1      -2.057  -0.053  -2.040  0.00  0.00     0.018 C 
ENDBRANCH   1   8
TORSDOF 1
ENDMDL
