MODEL 1
REMARK minimizedAffinity -5.02827454
REMARK minimizedRMSD -1
REMARK  1 active torsions:
REMARK  status: ('A' for Active; 'I' for Inactive)
REMARK    1  A    between atoms: C1_2  and  C2_3 
ROOT
ATOM      1  C2  UNL d   1      -0.858   0.224  -0.415  0.00  0.00    -0.081 A 
ATOM      2  C3  UNL d   1       0.039   1.297  -0.479  0.00  0.00     0.006 A 
ATOM      3  C4  UNL d   1       1.279   1.222   0.159  0.00  0.00     0.002 A 
ATOM      4  C5  UNL d   1       1.646   0.070   0.864  0.00  0.00    -0.080 A 
ATOM      5  C6  UNL d   1       2.987  -0.035   1.528  0.00  0.00     0.076 C 
ATOM      6  C7  UNL d   1       0.743  -0.995   0.942  0.00  0.00     0.002 A 
ATOM      7  C8  UNL d   1      -0.498  -0.920   0.305  0.00  0.00     0.006 A 
ENDROOT
BRANCH   1   8
ATOM      8  C1  UNL d   1      -2.170   0.276  -1.156  0.00  0.00     0.054 C 
ATOM      9  C   UNL d   1      -2.097  -0.497  -2.465  0.00  0.00     0.018 C 
ENDBRANCH   1   8
TORSDOF 1
ENDMDL
