MODEL 1
REMARK minimizedAffinity -3.72989702
REMARK minimizedRMSD -1
REMARK  1 active torsions:
REMARK  status: ('A' for Active; 'I' for Inactive)
REMARK    1  A    between atoms: C1_2  and  C2_3 
ROOT
ATOM      1  C2  UNL d   1      -0.560   0.206  -0.357  0.00  0.00    -0.081 A 
ATOM      2  C3  UNL d   1       0.353   1.264  -0.275  0.00  0.00     0.006 A 
ATOM      3  C4  UNL d   1       1.645   1.049   0.212  0.00  0.00     0.002 A 
ATOM      4  C5  UNL d   1       2.046  -0.229   0.618  0.00  0.00    -0.080 A 
ATOM      5  C6  UNL d   1       3.439  -0.480   1.115  0.00  0.00     0.076 C 
ATOM      6  C7  UNL d   1       1.128  -1.282   0.552  0.00  0.00     0.002 A 
ATOM      7  C8  UNL d   1      -0.163  -1.067   0.065  0.00  0.00     0.006 A 
ENDROOT
BRANCH   1   8
ATOM      8  C1  UNL d   1      -1.932   0.422  -0.943  0.00  0.00     0.054 C 
ATOM      9  C   UNL d   1      -2.038  -0.174  -2.340  0.00  0.00     0.018 C 
ENDBRANCH   1   8
TORSDOF 1
ENDMDL
