MODEL 1
REMARK minimizedAffinity -3.49962592
REMARK minimizedRMSD -1
REMARK  1 active torsions:
REMARK  status: ('A' for Active; 'I' for Inactive)
REMARK    1  A    between atoms: C1_2  and  C2_3 
ROOT
ATOM      1  C2  UNL d   1       0.560   0.045  -0.262  0.00  0.00    -0.081 A 
ATOM      2  C3  UNL d   1       0.101  -0.541  -1.448  0.00  0.00     0.006 A 
ATOM      3  C4  UNL d   1      -1.244  -0.444  -1.812  0.00  0.00     0.002 A 
ATOM      4  C5  UNL d   1      -2.151   0.246  -1.001  0.00  0.00    -0.080 A 
ATOM      5  C6  UNL d   1      -3.591   0.384  -1.395  0.00  0.00     0.076 C 
ATOM      6  C7  UNL d   1      -1.697   0.817   0.193  0.00  0.00     0.002 A 
ATOM      7  C8  UNL d   1      -0.352   0.719   0.558  0.00  0.00     0.006 A 
ENDROOT
BRANCH   1   8
ATOM      8  C1  UNL d   1       2.022  -0.002   0.101  0.00  0.00     0.054 C 
ATOM      9  C   UNL d   1       2.306  -1.104   1.112  0.00  0.00     0.018 C 
ENDBRANCH   1   8
TORSDOF 1
ENDMDL
