MODEL 1
REMARK minimizedAffinity -4.7392869
REMARK minimizedRMSD -1
REMARK  1 active torsions:
REMARK  status: ('A' for Active; 'I' for Inactive)
REMARK    1  A    between atoms: C1_2  and  C2_3 
ROOT
ATOM      1  C2  UNL d   1      -0.662  -0.115   0.304  0.00  0.00    -0.081 A 
ATOM      2  C3  UNL d   1       0.242   0.946   0.170  0.00  0.00     0.006 A 
ATOM      3  C4  UNL d   1       1.611   0.738   0.353  0.00  0.00     0.002 A 
ATOM      4  C5  UNL d   1       2.100  -0.535   0.664  0.00  0.00    -0.080 A 
ATOM      5  C6  UNL d   1       3.571  -0.779   0.832  0.00  0.00     0.076 C 
ATOM      6  C7  UNL d   1       1.196  -1.592   0.814  0.00  0.00     0.002 A 
ATOM      7  C8  UNL d   1      -0.173  -1.385   0.633  0.00  0.00     0.006 A 
ENDROOT
BRANCH   1   8
ATOM      8  C1  UNL d   1      -2.132   0.092   0.045  0.00  0.00     0.054 C 
ATOM      9  C   UNL d   1      -2.424   0.176  -1.447  0.00  0.00     0.018 C 
ENDBRANCH   1   8
TORSDOF 1
ENDMDL
