MODEL 1
REMARK minimizedAffinity -5.1556468
REMARK minimizedRMSD -1
REMARK  1 active torsions:
REMARK  status: ('A' for Active; 'I' for Inactive)
REMARK    1  A    between atoms: C1_2  and  C2_3 
ROOT
ATOM      1  C2  UNL d   1       0.380  -0.493   0.008  0.00  0.00    -0.081 A 
ATOM      2  C3  UNL d   1      -0.968  -0.662   0.349  0.00  0.00     0.006 A 
ATOM      3  C4  UNL d   1      -1.976  -0.144  -0.467  0.00  0.00     0.002 A 
ATOM      4  C5  UNL d   1      -1.654   0.544  -1.642  0.00  0.00    -0.080 A 
ATOM      5  C6  UNL d   1      -2.727   1.079  -2.543  0.00  0.00     0.076 C 
ATOM      6  C7  UNL d   1      -0.308   0.728  -1.975  0.00  0.00     0.002 A 
ATOM      7  C8  UNL d   1       0.700   0.211  -1.158  0.00  0.00     0.006 A 
ENDROOT
BRANCH   1   8
ATOM      8  C1  UNL d   1       1.467  -1.106   0.852  0.00  0.00     0.054 C 
ATOM      9  C   UNL d   1       2.607  -0.125   1.084  0.00  0.00     0.018 C 
ENDBRANCH   1   8
TORSDOF 1
ENDMDL
