MODEL 1
REMARK minimizedAffinity -5.9265933
REMARK minimizedRMSD -1
REMARK  1 active torsions:
REMARK  status: ('A' for Active; 'I' for Inactive)
REMARK    1  A    between atoms: C1_2  and  C2_3 
ROOT
ATOM      1  C2  UNL d   1      -0.792  -0.031  -0.423  0.00  0.00    -0.081 A 
ATOM      2  C3  UNL d   1      -0.040   1.126  -0.185  0.00  0.00     0.006 A 
ATOM      3  C4  UNL d   1       1.270   1.033   0.292  0.00  0.00     0.002 A 
ATOM      4  C5  UNL d   1       1.851  -0.216   0.531  0.00  0.00    -0.080 A 
ATOM      5  C6  UNL d   1       3.266  -0.331   1.014  0.00  0.00     0.076 C 
ATOM      6  C7  UNL d   1       1.094  -1.372   0.310  0.00  0.00     0.002 A 
ATOM      7  C8  UNL d   1      -0.216  -1.280  -0.166  0.00  0.00     0.006 A 
ENDROOT
BRANCH   1   8
ATOM      8  C1  UNL d   1      -2.182   0.063  -0.999  0.00  0.00     0.054 C 
ATOM      9  C   UNL d   1      -2.261  -0.602  -2.365  0.00  0.00     0.018 C 
ENDBRANCH   1   8
TORSDOF 1
ENDMDL
