MODEL 1
REMARK minimizedAffinity 11.9319925
REMARK minimizedRMSD -1
REMARK  0 active torsions:
REMARK  status: ('A' for Active; 'I' for Inactive)
ROOT
ATOM      1  C   UNL d   1       0.626  -4.197   0.943  0.00  0.00     0.124 A 
ATOM      2  C1  UNL d   1       1.830  -3.519   0.808  0.00  0.00     0.062 A 
ATOM      3  C2  UNL d   1       1.891  -2.148   1.042  0.00  0.00     0.162 A 
ATOM      4  C3  UNL d   1       0.744  -1.446   1.414  0.00  0.00    -0.034 A 
ATOM      5  C4  UNL d   1      -0.463  -2.135   1.547  0.00  0.00     0.162 A 
ATOM      6  C5  UNL d   1      -0.518  -3.505   1.312  0.00  0.00     0.062 A 
ATOM      7  F   UNL d   1      -1.682  -4.159   1.443  0.00  0.00    -0.097 F 
ATOM      8  F1  UNL d   1      -1.584  -1.491   1.903  0.00  0.00    -0.096 F 
ATOM      9  I   UNL d   1       0.831   0.603   1.764  0.00  0.00    -0.060 I 
ATOM     10  F2  UNL d   1       3.067  -1.518   0.904  0.00  0.00    -0.096 F 
ATOM     11  F3  UNL d   1       2.937  -4.185   0.451  0.00  0.00    -0.097 F 
ATOM     12  F4  UNL d   1       0.571  -5.516   0.717  0.00  0.00    -0.092 F 
ENDROOT
TORSDOF 0
ENDMDL
