MODEL 1
REMARK minimizedAffinity 11.3376446
REMARK minimizedRMSD -1
REMARK  0 active torsions:
REMARK  status: ('A' for Active; 'I' for Inactive)
ROOT
ATOM      1  C   UNL d   1      -0.285   0.711   0.839  0.00  0.00     0.124 A 
ATOM      2  C1  UNL d   1      -1.365  -0.159   0.791  0.00  0.00     0.062 A 
ATOM      3  C2  UNL d   1      -1.156  -1.535   0.791  0.00  0.00     0.162 A 
ATOM      4  C3  UNL d   1       0.139  -2.051   0.839  0.00  0.00    -0.034 A 
ATOM      5  C4  UNL d   1       1.221  -1.169   0.886  0.00  0.00     0.162 A 
ATOM      6  C5  UNL d   1       1.007   0.205   0.886  0.00  0.00     0.062 A 
ATOM      7  F   UNL d   1       2.052   1.044   0.932  0.00  0.00    -0.097 F 
ATOM      8  F1  UNL d   1       2.479  -1.631   0.933  0.00  0.00    -0.096 F 
ATOM      9  I   UNL d   1       0.455  -4.108   0.839  0.00  0.00    -0.060 I 
ATOM     10  F2  UNL d   1      -2.219  -2.352   0.744  0.00  0.00    -0.096 F 
ATOM     11  F3  UNL d   1      -2.614   0.327   0.745  0.00  0.00    -0.097 F 
ATOM     12  F4  UNL d   1      -0.488   2.034   0.838  0.00  0.00    -0.092 F 
ENDROOT
TORSDOF 0
ENDMDL
