MODEL 1
REMARK minimizedAffinity 12.2369595
REMARK minimizedRMSD -1
REMARK  0 active torsions:
REMARK  status: ('A' for Active; 'I' for Inactive)
ROOT
ATOM      1  C   UNL d   1       1.623  -0.049   1.421  0.00  0.00     0.124 A 
ATOM      2  C1  UNL d   1       0.719   0.848   0.869  0.00  0.00     0.062 A 
ATOM      3  C2  UNL d   1       1.174   1.922   0.110  0.00  0.00     0.162 A 
ATOM      4  C3  UNL d   1       2.540   2.105  -0.104  0.00  0.00    -0.034 A 
ATOM      5  C4  UNL d   1       3.443   1.199   0.455  0.00  0.00     0.162 A 
ATOM      6  C5  UNL d   1       2.984   0.127   1.213  0.00  0.00     0.062 A 
ATOM      7  F   UNL d   1       3.859  -0.739   1.745  0.00  0.00    -0.097 F 
ATOM      8  F1  UNL d   1       4.764   1.345   0.269  0.00  0.00    -0.096 F 
ATOM      9  I   UNL d   1       3.224   3.710  -1.238  0.00  0.00    -0.060 I 
ATOM     10  F2  UNL d   1       0.278   2.774  -0.411  0.00  0.00    -0.096 F 
ATOM     11  F3  UNL d   1      -0.596   0.681   1.069  0.00  0.00    -0.097 F 
ATOM     12  F4  UNL d   1       1.183  -1.081   2.152  0.00  0.00    -0.092 F 
ENDROOT
TORSDOF 0
ENDMDL
