MODEL 1
REMARK minimizedAffinity 21.5180817
REMARK minimizedRMSD -1
REMARK  0 active torsions:
REMARK  status: ('A' for Active; 'I' for Inactive)
ROOT
ATOM      1  C   UNL d   1       0.720  -3.144   2.622  0.00  0.00     0.124 A 
ATOM      2  C1  UNL d   1       1.177  -4.191   3.411  0.00  0.00     0.062 A 
ATOM      3  C2  UNL d   1       2.520  -4.261   3.770  0.00  0.00     0.162 A 
ATOM      4  C3  UNL d   1       3.415  -3.281   3.342  0.00  0.00    -0.034 A 
ATOM      5  C4  UNL d   1       2.948  -2.232   2.548  0.00  0.00     0.162 A 
ATOM      6  C5  UNL d   1       1.605  -2.166   2.192  0.00  0.00     0.062 A 
ATOM      7  F   UNL d   1       1.166  -1.154   1.430  0.00  0.00    -0.097 F 
ATOM      8  F1  UNL d   1       3.782  -1.273   2.120  0.00  0.00    -0.096 F 
ATOM      9  I   UNL d   1       5.424  -3.383   3.878  0.00  0.00    -0.060 I 
ATOM     10  F2  UNL d   1       2.934  -5.284   4.533  0.00  0.00    -0.096 F 
ATOM     11  F3  UNL d   1       0.324  -5.137   3.827  0.00  0.00    -0.097 F 
ATOM     12  F4  UNL d   1      -0.572  -3.079   2.276  0.00  0.00    -0.092 F 
ENDROOT
TORSDOF 0
ENDMDL
