MODEL 1
REMARK minimizedAffinity 8.92141914
REMARK minimizedRMSD -1
REMARK  0 active torsions:
REMARK  status: ('A' for Active; 'I' for Inactive)
ROOT
ATOM      1  C   UNL d   1      -4.478   2.493  -2.626  0.00  0.00     0.124 A 
ATOM      2  C1  UNL d   1      -5.041   1.426  -1.939  0.00  0.00     0.062 A 
ATOM      3  C2  UNL d   1      -5.390   0.262  -2.618  0.00  0.00     0.162 A 
ATOM      4  C3  UNL d   1      -5.176   0.157  -3.992  0.00  0.00    -0.034 A 
ATOM      5  C4  UNL d   1      -4.611   1.235  -4.677  0.00  0.00     0.162 A 
ATOM      6  C5  UNL d   1      -4.264   2.396  -3.994  0.00  0.00     0.062 A 
ATOM      7  F   UNL d   1      -3.720   3.425  -4.660  0.00  0.00    -0.097 F 
ATOM      8  F1  UNL d   1      -4.391   1.168  -5.998  0.00  0.00    -0.096 F 
ATOM      9  I   UNL d   1      -5.696  -1.582  -5.010  0.00  0.00    -0.060 I 
ATOM     10  F2  UNL d   1      -5.932  -0.753  -1.928  0.00  0.00    -0.096 F 
ATOM     11  F3  UNL d   1      -5.250   1.517  -0.618  0.00  0.00    -0.097 F 
ATOM     12  F4  UNL d   1      -4.144   3.612  -1.971  0.00  0.00    -0.092 F 
ENDROOT
TORSDOF 0
ENDMDL
