MODEL 1
REMARK minimizedAffinity -1.62039614
REMARK minimizedRMSD -1
REMARK  0 active torsions:
REMARK  status: ('A' for Active; 'I' for Inactive)
ROOT
ATOM      1  C   UNL d   1       5.871   0.010   4.059  0.00  0.00    -0.002 A 
ATOM      2  C1  UNL d   1       5.719   0.215   5.423  0.00  0.00     0.010 A 
ATOM      3  C2  UNL d   1       5.666   1.509   5.945  0.00  0.00     0.041 A 
ATOM      4  C3  UNL d   1       5.767   2.604   5.064  0.00  0.00    -0.075 A 
ATOM      5  S   UNL d   1       5.726   4.277   5.477  0.00  0.00     0.015 SA
ATOM      6  C4  UNL d   1       5.908   4.759   3.852  0.00  0.00     0.022 A 
ATOM      7  C5  UNL d   1       5.999   3.682   3.002  0.00  0.00     0.026 A 
ATOM      8  C6  UNL d   1       5.919   2.423   3.686  0.00  0.00    -0.082 A 
ATOM      9  C7  UNL d   1       5.970   1.098   3.188  0.00  0.00     0.045 A 
ENDROOT
TORSDOF 0
ENDMDL
