MODEL 1
REMARK minimizedAffinity -2.02386284
REMARK minimizedRMSD -1
REMARK  0 active torsions:
REMARK  status: ('A' for Active; 'I' for Inactive)
ROOT
ATOM      1  C   UNL d   1       6.000   4.903   2.892  0.00  0.00    -0.002 A 
ATOM      2  C1  UNL d   1       6.000   5.267   4.231  0.00  0.00     0.010 A 
ATOM      3  C2  UNL d   1       5.996   4.293   5.232  0.00  0.00     0.041 A 
ATOM      4  C3  UNL d   1       5.993   2.934   4.860  0.00  0.00    -0.075 A 
ATOM      5  S   UNL d   1       5.989   1.568   5.912  0.00  0.00     0.015 SA
ATOM      6  C4  UNL d   1       5.988   0.470   4.609  0.00  0.00     0.022 A 
ATOM      7  C5  UNL d   1       5.990   1.112   3.393  0.00  0.00     0.026 A 
ATOM      8  C6  UNL d   1       5.994   2.543   3.518  0.00  0.00    -0.082 A 
ATOM      9  C7  UNL d   1       5.997   3.554   2.527  0.00  0.00     0.045 A 
ENDROOT
TORSDOF 0
ENDMDL
