MODEL 1
REMARK minimizedAffinity 1.24208128
REMARK minimizedRMSD -1
REMARK  0 active torsions:
REMARK  status: ('A' for Active; 'I' for Inactive)
ROOT
ATOM      1  C   UNL d   1       6.000   5.970   3.465  0.00  0.00    -0.002 A 
ATOM      2  C1  UNL d   1       5.999   5.670   2.110  0.00  0.00     0.010 A 
ATOM      3  C2  UNL d   1       5.997   4.343   1.676  0.00  0.00     0.041 A 
ATOM      4  C3  UNL d   1       5.994   3.312   2.636  0.00  0.00    -0.075 A 
ATOM      5  S   UNL d   1       5.990   1.614   2.338  0.00  0.00     0.015 SA
ATOM      6  C4  UNL d   1       5.987   1.246   4.002  0.00  0.00     0.022 A 
ATOM      7  C5  UNL d   1       5.990   2.379   4.781  0.00  0.00     0.026 A 
ATOM      8  C6  UNL d   1       5.993   3.589   4.006  0.00  0.00    -0.082 A 
ATOM      9  C7  UNL d   1       5.996   4.944   4.414  0.00  0.00     0.045 A 
ENDROOT
TORSDOF 0
ENDMDL
