MODEL 1
REMARK minimizedAffinity 0.327424645
REMARK minimizedRMSD -1
REMARK  0 active torsions:
REMARK  status: ('A' for Active; 'I' for Inactive)
ROOT
ATOM      1  C   UNL d   1       5.998   5.443   2.395  0.00  0.00    -0.002 A 
ATOM      2  C1  UNL d   1       5.999   5.705   3.758  0.00  0.00     0.010 A 
ATOM      3  C2  UNL d   1       5.999   4.659   4.682  0.00  0.00     0.041 A 
ATOM      4  C3  UNL d   1       5.999   3.332   4.210  0.00  0.00    -0.075 A 
ATOM      5  S   UNL d   1       5.999   1.891   5.157  0.00  0.00     0.015 SA
ATOM      6  C4  UNL d   1       5.998   0.894   3.775  0.00  0.00     0.022 A 
ATOM      7  C5  UNL d   1       5.997   1.625   2.611  0.00  0.00     0.026 A 
ATOM      8  C6  UNL d   1       5.998   3.042   2.842  0.00  0.00    -0.082 A 
ATOM      9  C7  UNL d   1       5.998   4.125   1.930  0.00  0.00     0.045 A 
ENDROOT
TORSDOF 0
ENDMDL
