MODEL 1
REMARK minimizedAffinity 6.01822662
REMARK minimizedRMSD -1
REMARK  0 active torsions:
REMARK  status: ('A' for Active; 'I' for Inactive)
ROOT
ATOM      1  C   UNL d   1       5.998   5.995   2.945  0.00  0.00    -0.002 A 
ATOM      2  C1  UNL d   1       5.998   5.192   1.813  0.00  0.00     0.010 A 
ATOM      3  C2  UNL d   1       5.999   3.801   1.929  0.00  0.00     0.041 A 
ATOM      4  C3  UNL d   1       5.998   3.224   3.215  0.00  0.00    -0.075 A 
ATOM      5  S   UNL d   1       5.998   1.544   3.600  0.00  0.00     0.015 SA
ATOM      6  C4  UNL d   1       5.998   1.852   5.276  0.00  0.00     0.022 A 
ATOM      7  C5  UNL d   1       5.998   3.199   5.553  0.00  0.00     0.026 A 
ATOM      8  C6  UNL d   1       5.998   4.012   4.369  0.00  0.00    -0.082 A 
ATOM      9  C7  UNL d   1       5.998   5.420   4.218  0.00  0.00     0.045 A 
ENDROOT
TORSDOF 0
ENDMDL
