MODEL 1
REMARK minimizedAffinity -2.74652863
REMARK minimizedRMSD -1
REMARK  0 active torsions:
REMARK  status: ('A' for Active; 'I' for Inactive)
ROOT
ATOM      1  C   UNL d   1       5.986   5.423   2.612  0.00  0.00    -0.002 A 
ATOM      2  C1  UNL d   1       5.984   5.624   3.985  0.00  0.00     0.010 A 
ATOM      3  C2  UNL d   1       5.985   4.538   4.862  0.00  0.00     0.041 A 
ATOM      4  C3  UNL d   1       5.990   3.233   4.331  0.00  0.00    -0.075 A 
ATOM      5  S   UNL d   1       5.994   1.752   5.213  0.00  0.00     0.015 SA
ATOM      6  C4  UNL d   1       6.000   0.817   3.789  0.00  0.00     0.022 A 
ATOM      7  C5  UNL d   1       5.999   1.599   2.658  0.00  0.00     0.026 A 
ATOM      8  C6  UNL d   1       5.994   3.005   2.952  0.00  0.00    -0.082 A 
ATOM      9  C7  UNL d   1       5.992   4.127   2.089  0.00  0.00     0.045 A 
ENDROOT
TORSDOF 0
ENDMDL
