MODEL 1
REMARK minimizedAffinity 1.3721503
REMARK minimizedRMSD -1
REMARK  0 active torsions:
REMARK  status: ('A' for Active; 'I' for Inactive)
ROOT
ATOM      1  C   UNL d   1       5.965   2.318   3.605  0.00  0.00    -0.002 A 
ATOM      2  C1  UNL d   1       5.958   2.441   4.988  0.00  0.00     0.010 A 
ATOM      3  C2  UNL d   1       5.962   1.306   5.801  0.00  0.00     0.041 A 
ATOM      4  C3  UNL d   1       5.976   0.034   5.197  0.00  0.00    -0.075 A 
ATOM      5  S   UNL d   1       5.985  -1.496   5.993  0.00  0.00     0.015 SA
ATOM      6  C4  UNL d   1       5.999  -2.348   4.518  0.00  0.00     0.022 A 
ATOM      7  C5  UNL d   1       5.998  -1.502   3.434  0.00  0.00     0.026 A 
ATOM      8  C6  UNL d   1       5.985  -0.116   3.807  0.00  0.00    -0.082 A 
ATOM      9  C7  UNL d   1       5.979   1.054   3.009  0.00  0.00     0.045 A 
ENDROOT
TORSDOF 0
ENDMDL
