MODEL 1
REMARK minimizedAffinity 0.662392795
REMARK minimizedRMSD -1
REMARK  0 active torsions:
REMARK  status: ('A' for Active; 'I' for Inactive)
ROOT
ATOM      1  C   UNL d   1       5.992  -0.712   5.990  0.00  0.00    -0.002 A 
ATOM      2  C1  UNL d   1       5.987  -1.404   4.787  0.00  0.00     0.010 A 
ATOM      3  C2  UNL d   1       5.981  -0.716   3.572  0.00  0.00     0.041 A 
ATOM      4  C3  UNL d   1       5.982   0.693   3.586  0.00  0.00    -0.075 A 
ATOM      5  S   UNL d   1       5.976   1.746   2.221  0.00  0.00     0.015 SA
ATOM      6  C4  UNL d   1       5.981   3.139   3.203  0.00  0.00     0.022 A 
ATOM      7  C5  UNL d   1       5.987   2.827   4.541  0.00  0.00     0.026 A 
ATOM      8  C6  UNL d   1       5.988   1.412   4.785  0.00  0.00    -0.082 A 
ATOM      9  C7  UNL d   1       5.993   0.686   6.000  0.00  0.00     0.045 A 
ENDROOT
TORSDOF 0
ENDMDL
