MODEL 1
REMARK minimizedAffinity -2.17897153
REMARK minimizedRMSD -1
REMARK  0 active torsions:
REMARK  status: ('A' for Active; 'I' for Inactive)
ROOT
ATOM      1  C   UNL d   1       5.997   2.132   3.731  0.00  0.00    -0.002 A 
ATOM      2  C1  UNL d   1       5.994   2.211   5.117  0.00  0.00     0.010 A 
ATOM      3  C2  UNL d   1       5.991   1.051   5.895  0.00  0.00     0.041 A 
ATOM      4  C3  UNL d   1       5.993  -0.202   5.250  0.00  0.00    -0.075 A 
ATOM      5  S   UNL d   1       5.991  -1.755   5.998  0.00  0.00     0.015 SA
ATOM      6  C4  UNL d   1       5.996  -2.560   4.496  0.00  0.00     0.022 A 
ATOM      7  C5  UNL d   1       5.999  -1.681   3.439  0.00  0.00     0.026 A 
ATOM      8  C6  UNL d   1       5.998  -0.307   3.856  0.00  0.00    -0.082 A 
ATOM      9  C7  UNL d   1       6.000   0.887   3.096  0.00  0.00     0.045 A 
ENDROOT
TORSDOF 0
ENDMDL
