MODEL 1
REMARK minimizedAffinity 0.376315087
REMARK minimizedRMSD -1
REMARK  0 active torsions:
REMARK  status: ('A' for Active; 'I' for Inactive)
ROOT
ATOM      1  C   UNL d   1       5.970   2.245   4.472  0.00  0.00    -0.002 A 
ATOM      2  C1  UNL d   1       5.978   2.072   3.095  0.00  0.00     0.010 A 
ATOM      3  C2  UNL d   1       5.988   0.791   2.539  0.00  0.00     0.041 A 
ATOM      4  C3  UNL d   1       5.988  -0.324   3.400  0.00  0.00    -0.075 A 
ATOM      5  S   UNL d   1       5.998  -1.987   2.945  0.00  0.00     0.015 SA
ATOM      6  C4  UNL d   1       5.991  -2.508   4.568  0.00  0.00     0.022 A 
ATOM      7  C5  UNL d   1       5.981  -1.452   5.448  0.00  0.00     0.026 A 
ATOM      8  C6  UNL d   1       5.979  -0.176   4.789  0.00  0.00    -0.082 A 
ATOM      9  C7  UNL d   1       5.970   1.136   5.322  0.00  0.00     0.045 A 
ENDROOT
TORSDOF 0
ENDMDL
