MODEL 1
REMARK minimizedAffinity -2.79486847
REMARK minimizedRMSD -1
REMARK  0 active torsions:
REMARK  status: ('A' for Active; 'I' for Inactive)
ROOT
ATOM      1  C   UNL d   1       5.975   0.516   4.045  0.00  0.00    -0.002 A 
ATOM      2  C1  UNL d   1       5.984   0.924   5.371  0.00  0.00     0.010 A 
ATOM      3  C2  UNL d   1       5.993   2.282   5.697  0.00  0.00     0.041 A 
ATOM      4  C3  UNL d   1       5.991   3.232   4.657  0.00  0.00    -0.075 A 
ATOM      5  S   UNL d   1       6.000   4.949   4.817  0.00  0.00     0.015 SA
ATOM      6  C4  UNL d   1       5.991   5.181   3.128  0.00  0.00     0.022 A 
ATOM      7  C5  UNL d   1       5.982   3.989   2.444  0.00  0.00     0.026 A 
ATOM      8  C6  UNL d   1       5.981   2.846   3.313  0.00  0.00    -0.082 A 
ATOM      9  C7  UNL d   1       5.973   1.462   3.016  0.00  0.00     0.045 A 
ENDROOT
TORSDOF 0
ENDMDL
