MODEL 1
REMARK minimizedAffinity 3.21367526
REMARK minimizedRMSD -1
REMARK  0 active torsions:
REMARK  status: ('A' for Active; 'I' for Inactive)
ROOT
ATOM      1  C   UNL d   1       1.809  -2.633  -4.102  0.00  0.00    -0.002 A 
ATOM      2  C1  UNL d   1       1.326  -3.556  -3.186  0.00  0.00     0.010 A 
ATOM      3  C2  UNL d   1       0.798  -3.134  -1.964  0.00  0.00     0.041 A 
ATOM      4  C3  UNL d   1       0.762  -1.755  -1.677  0.00  0.00    -0.075 A 
ATOM      5  S   UNL d   1       0.160  -1.007  -0.245  0.00  0.00     0.015 SA
ATOM      6  C4  UNL d   1       0.530   0.556  -0.817  0.00  0.00     0.022 A 
ATOM      7  C5  UNL d   1       1.100   0.526  -2.068  0.00  0.00     0.026 A 
ATOM      8  C6  UNL d   1       1.242  -0.806  -2.584  0.00  0.00    -0.082 A 
ATOM      9  C7  UNL d   1       1.772  -1.266  -3.814  0.00  0.00     0.045 A 
ENDROOT
TORSDOF 0
ENDMDL
