MODEL 1
REMARK minimizedAffinity 4.18682432
REMARK minimizedRMSD -1
REMARK  0 active torsions:
REMARK  status: ('A' for Active; 'I' for Inactive)
ROOT
ATOM      1  C   UNL d   1       3.725   3.734   1.978  0.00  0.00     0.172 C 
ATOM      2  N   UNL d   1       2.842   2.619   1.731  0.00  0.00    -0.070 N 
ATOM      3  C1  UNL d   1       1.629   2.413   2.333  0.00  0.00    -0.004 A 
ATOM      4  C2  UNL d   1       1.100   1.245   1.828  0.00  0.00    -0.047 A 
ATOM      5  C3  UNL d   1       2.028   0.731   0.891  0.00  0.00    -0.047 A 
ATOM      6  C4  UNL d   1       3.096   1.601   0.851  0.00  0.00    -0.004 A 
ENDROOT
TORSDOF 0
ENDMDL
