MODEL 1
REMARK minimizedAffinity 1.97186792
REMARK minimizedRMSD -1
REMARK  0 active torsions:
REMARK  status: ('A' for Active; 'I' for Inactive)
ROOT
ATOM      1  C   UNL d   1      -2.200  -6.000   1.086  0.00  0.00     0.172 C 
ATOM      2  N   UNL d   1      -2.069  -5.399  -0.220  0.00  0.00    -0.070 N 
ATOM      3  C1  UNL d   1      -1.057  -5.639  -1.111  0.00  0.00    -0.004 A 
ATOM      4  C2  UNL d   1      -1.295  -4.877  -2.235  0.00  0.00    -0.047 A 
ATOM      5  C3  UNL d   1      -2.490  -4.154  -2.011  0.00  0.00    -0.047 A 
ATOM      6  C4  UNL d   1      -2.948  -4.496  -0.756  0.00  0.00    -0.004 A 
ENDROOT
TORSDOF 0
ENDMDL
