MODEL 1
REMARK minimizedAffinity 1.38248658
REMARK minimizedRMSD -1
REMARK  0 active torsions:
REMARK  status: ('A' for Active; 'I' for Inactive)
ROOT
ATOM      1  C   UNL d   1       0.903   1.853   1.589  0.00  0.00     0.172 C 
ATOM      2  N   UNL d   1      -0.207   1.912   0.667  0.00  0.00    -0.070 N 
ATOM      3  C1  UNL d   1      -0.349   2.812  -0.355  0.00  0.00    -0.004 A 
ATOM      4  C2  UNL d   1      -1.536   2.536  -0.998  0.00  0.00    -0.047 A 
ATOM      5  C3  UNL d   1      -2.128   1.433  -0.340  0.00  0.00    -0.047 A 
ATOM      6  C4  UNL d   1      -1.285   1.066   0.687  0.00  0.00    -0.004 A 
ENDROOT
TORSDOF 0
ENDMDL
