MODEL 1
REMARK minimizedAffinity 0.42131415
REMARK minimizedRMSD -1
REMARK  0 active torsions:
REMARK  status: ('A' for Active; 'I' for Inactive)
ROOT
ATOM      1  C   UNL d   1       2.519   1.874   1.441  0.00  0.00     0.172 C 
ATOM      2  N   UNL d   1       1.151   1.780   0.988  0.00  0.00    -0.070 N 
ATOM      3  C1  UNL d   1       0.747   1.371  -0.254  0.00  0.00    -0.004 A 
ATOM      4  C2  UNL d   1      -0.630   1.421  -0.289  0.00  0.00    -0.047 A 
ATOM      5  C3  UNL d   1      -1.068   1.878   0.977  0.00  0.00    -0.047 A 
ATOM      6  C4  UNL d   1       0.055   2.093   1.748  0.00  0.00    -0.004 A 
ENDROOT
TORSDOF 0
ENDMDL
