MODEL 1
REMARK minimizedAffinity -2.09196615
REMARK minimizedRMSD -1
REMARK  0 active torsions:
REMARK  status: ('A' for Active; 'I' for Inactive)
ROOT
ATOM      1  C   UNL d   1       2.657   3.131   2.344  0.00  0.00     0.172 C 
ATOM      2  N   UNL d   1       1.236   2.882   2.414  0.00  0.00    -0.070 N 
ATOM      3  C1  UNL d   1       0.438   2.509   1.365  0.00  0.00    -0.004 A 
ATOM      4  C2  UNL d   1      -0.848   2.371   1.841  0.00  0.00    -0.047 A 
ATOM      5  C3  UNL d   1      -0.822   2.672   3.224  0.00  0.00    -0.047 A 
ATOM      6  C4  UNL d   1       0.480   2.985   3.552  0.00  0.00    -0.004 A 
ENDROOT
TORSDOF 0
ENDMDL
