MODEL 1
REMARK minimizedAffinity 1.39291131
REMARK minimizedRMSD -1
REMARK  0 active torsions:
REMARK  status: ('A' for Active; 'I' for Inactive)
ROOT
ATOM      1  C   UNL d   1      -1.482   3.056   3.551  0.00  0.00     0.172 C 
ATOM      2  N   UNL d   1      -0.359   2.550   2.797  0.00  0.00    -0.070 N 
ATOM      3  C1  UNL d   1      -0.436   1.848   1.624  0.00  0.00    -0.004 A 
ATOM      4  C2  UNL d   1       0.849   1.550   1.225  0.00  0.00    -0.047 A 
ATOM      5  C3  UNL d   1       1.729   2.090   2.193  0.00  0.00    -0.047 A 
ATOM      6  C4  UNL d   1       0.954   2.704   3.155  0.00  0.00    -0.004 A 
ENDROOT
TORSDOF 0
ENDMDL
