MODEL 1
REMARK minimizedAffinity 0.579714417
REMARK minimizedRMSD -1
REMARK  0 active torsions:
REMARK  status: ('A' for Active; 'I' for Inactive)
ROOT
ATOM      1  C   UNL d   1       4.068   5.995   4.118  0.00  0.00     0.172 C 
ATOM      2  N   UNL d   1       4.318   5.995   2.696  0.00  0.00    -0.070 N 
ATOM      3  C1  UNL d   1       5.552   5.990   2.102  0.00  0.00    -0.004 A 
ATOM      4  C2  UNL d   1       5.363   5.990   0.737  0.00  0.00    -0.047 A 
ATOM      5  C3  UNL d   1       3.968   5.997   0.502  0.00  0.00    -0.047 A 
ATOM      6  C4  UNL d   1       3.344   6.000   1.732  0.00  0.00    -0.004 A 
ENDROOT
TORSDOF 0
ENDMDL
