MODEL 1
REMARK minimizedAffinity 1.35515451
REMARK minimizedRMSD -1
REMARK  0 active torsions:
REMARK  status: ('A' for Active; 'I' for Inactive)
ROOT
ATOM      1  C   UNL d   1       5.996   3.441   2.037  0.00  0.00     0.172 C 
ATOM      2  N   UNL d   1       5.044   4.481   1.727  0.00  0.00    -0.070 N 
ATOM      3  C1  UNL d   1       4.853   5.047   0.495  0.00  0.00    -0.004 A 
ATOM      4  C2  UNL d   1       3.860   5.995   0.615  0.00  0.00    -0.047 A 
ATOM      5  C3  UNL d   1       3.440   5.999   1.967  0.00  0.00    -0.047 A 
ATOM      6  C4  UNL d   1       4.189   5.053   2.633  0.00  0.00    -0.004 A 
ENDROOT
TORSDOF 0
ENDMDL
