MODEL 1
REMARK minimizedAffinity 4.13069391
REMARK minimizedRMSD -1
REMARK  0 active torsions:
REMARK  status: ('A' for Active; 'I' for Inactive)
ROOT
ATOM      1  C   UNL d   1       1.167   1.159   0.127  0.00  0.00     0.172 C 
ATOM      2  N   UNL d   1       0.612   1.961   1.192  0.00  0.00    -0.070 N 
ATOM      3  C1  UNL d   1      -0.722   2.156   1.433  0.00  0.00    -0.004 A 
ATOM      4  C2  UNL d   1      -0.837   2.978   2.533  0.00  0.00    -0.047 A 
ATOM      5  C3  UNL d   1       0.474   3.290   2.967  0.00  0.00    -0.047 A 
ATOM      6  C4  UNL d   1       1.351   2.647   2.119  0.00  0.00    -0.004 A 
ENDROOT
TORSDOF 0
ENDMDL
