MODEL 1
REMARK minimizedAffinity 2.2613945
REMARK minimizedRMSD -1
REMARK  0 active torsions:
REMARK  status: ('A' for Active; 'I' for Inactive)
ROOT
ATOM      1  C   UNL d   1       1.649   0.643   0.126  0.00  0.00     0.172 C 
ATOM      2  N   UNL d   1       1.031   1.478   1.129  0.00  0.00    -0.070 N 
ATOM      3  C1  UNL d   1       1.694   2.220   2.070  0.00  0.00    -0.004 A 
ATOM      4  C2  UNL d   1       0.750   2.872   2.834  0.00  0.00    -0.047 A 
ATOM      5  C3  UNL d   1      -0.523   2.509   2.336  0.00  0.00    -0.047 A 
ATOM      6  C4  UNL d   1      -0.321   1.646   1.280  0.00  0.00    -0.004 A 
ENDROOT
TORSDOF 0
ENDMDL
