MODEL 1
REMARK minimizedAffinity -2.25243044
REMARK minimizedRMSD -1
REMARK  0 active torsions:
REMARK  status: ('A' for Active; 'I' for Inactive)
ROOT
ATOM      1  C   UNL d   1      -1.098   2.692   3.167  0.00  0.00     0.172 C 
ATOM      2  N   UNL d   1      -0.125   2.172   2.235  0.00  0.00    -0.070 N 
ATOM      3  C1  UNL d   1       1.234   2.301   2.346  0.00  0.00    -0.004 A 
ATOM      4  C2  UNL d   1       1.807   1.671   1.263  0.00  0.00    -0.047 A 
ATOM      5  C3  UNL d   1       0.756   1.146   0.473  0.00  0.00    -0.047 A 
ATOM      6  C4  UNL d   1      -0.429   1.471   1.099  0.00  0.00    -0.004 A 
ENDROOT
TORSDOF 0
ENDMDL
