MODEL 1
REMARK minimizedAffinity 1.53456593
REMARK minimizedRMSD -1
REMARK  0 active torsions:
REMARK  status: ('A' for Active; 'I' for Inactive)
ROOT
ATOM      1  C   UNL d   1      -1.534   2.545   3.357  0.00  0.00     0.172 C 
ATOM      2  N   UNL d   1      -0.208   2.603   2.787  0.00  0.00    -0.070 N 
ATOM      3  C1  UNL d   1       0.904   3.112   3.404  0.00  0.00    -0.004 A 
ATOM      4  C2  UNL d   1       1.964   2.984   2.533  0.00  0.00    -0.047 A 
ATOM      5  C3  UNL d   1       1.473   2.377   1.353  0.00  0.00    -0.047 A 
ATOM      6  C4  UNL d   1       0.125   2.153   1.537  0.00  0.00    -0.004 A 
ENDROOT
TORSDOF 0
ENDMDL
