MODEL 1
REMARK minimizedAffinity -0.868376613
REMARK minimizedRMSD -1
REMARK  0 active torsions:
REMARK  status: ('A' for Active; 'I' for Inactive)
ROOT
ATOM      1  C   UNL d   1       1.124   0.852   0.345  0.00  0.00     0.172 C 
ATOM      2  N   UNL d   1       0.777   1.798   1.380  0.00  0.00    -0.070 N 
ATOM      3  C1  UNL d   1      -0.495   2.127   1.767  0.00  0.00    -0.004 A 
ATOM      4  C2  UNL d   1      -0.401   3.059   2.777  0.00  0.00    -0.047 A 
ATOM      5  C3  UNL d   1       0.975   3.299   3.005  0.00  0.00    -0.047 A 
ATOM      6  C4  UNL d   1       1.681   2.505   2.126  0.00  0.00    -0.004 A 
ENDROOT
TORSDOF 0
ENDMDL
