MODEL 1
REMARK minimizedAffinity 1.34356296
REMARK minimizedRMSD -1
REMARK  0 active torsions:
REMARK  status: ('A' for Active; 'I' for Inactive)
ROOT
ATOM      1  C   UNL d   1       1.852   0.847   0.459  0.00  0.00     0.172 C 
ATOM      2  N   UNL d   1       1.213   1.718   1.417  0.00  0.00    -0.070 N 
ATOM      3  C1  UNL d   1       1.852   2.450   2.382  0.00  0.00    -0.004 A 
ATOM      4  C2  UNL d   1       0.895   3.147   3.086  0.00  0.00    -0.047 A 
ATOM      5  C3  UNL d   1      -0.364   2.822   2.526  0.00  0.00    -0.047 A 
ATOM      6  C4  UNL d   1      -0.137   1.936   1.495  0.00  0.00    -0.004 A 
ENDROOT
TORSDOF 0
ENDMDL
