MODEL 1
REMARK minimizedAffinity 3.04568291
REMARK minimizedRMSD -1
REMARK  0 active torsions:
REMARK  status: ('A' for Active; 'I' for Inactive)
ROOT
ATOM      1  C   UNL d   1       1.951   2.727   3.034  0.00  0.00     0.172 C 
ATOM      2  N   UNL d   1       1.001   2.180   2.093  0.00  0.00    -0.070 N 
ATOM      3  C1  UNL d   1       1.242   1.149   1.224  0.00  0.00    -0.004 A 
ATOM      4  C2  UNL d   1       0.089   0.929   0.502  0.00  0.00    -0.047 A 
ATOM      5  C3  UNL d   1      -0.877   1.860   0.951  0.00  0.00    -0.047 A 
ATOM      6  C4  UNL d   1      -0.286   2.623   1.936  0.00  0.00    -0.004 A 
ENDROOT
TORSDOF 0
ENDMDL
