MODEL 1
REMARK minimizedAffinity -1.47341561
REMARK minimizedRMSD -1
REMARK  0 active torsions:
REMARK  status: ('A' for Active; 'I' for Inactive)
ROOT
ATOM      1  C2' OXE d   1       2.687  -4.073   0.756  0.00  0.00     0.078 C 
ATOM      2  C1' OXE d   1       1.474  -1.543   0.678  0.00  0.00     0.078 C 
ATOM      3  C1  OXE d   1       0.822  -2.610   1.522  0.00  0.00    -0.078 A 
ATOM      4  C2  OXE d   1       1.396  -3.858   1.517  0.00  0.00    -0.078 A 
ATOM      5  C3  OXE d   1       0.866  -4.864   2.320  0.00  0.00     0.003 A 
ATOM      6  C4  OXE d   1      -0.333  -4.659   3.013  0.00  0.00    -0.002 A 
ATOM      7  C5  OXE d   1      -0.956  -3.407   2.999  0.00  0.00    -0.002 A 
ATOM      8  C6  OXE d   1      -0.370  -2.362   2.295  0.00  0.00     0.003 A 
ENDROOT
TORSDOF 0
ENDMDL
