MODEL 1
REMARK minimizedAffinity -1.80700803
REMARK minimizedRMSD -1
REMARK  0 active torsions:
REMARK  status: ('A' for Active; 'I' for Inactive)
ROOT
ATOM      1  C2' OXE d   1       2.832  -3.788   0.510  0.00  0.00     0.078 C 
ATOM      2  C1' OXE d   1       1.495  -1.396  -0.097  0.00  0.00     0.078 C 
ATOM      3  C1  OXE d   1       0.901  -2.283   0.969  0.00  0.00    -0.078 A 
ATOM      4  C2  OXE d   1       1.537  -3.474   1.226  0.00  0.00    -0.078 A 
ATOM      5  C3  OXE d   1       1.062  -4.304   2.238  0.00  0.00     0.003 A 
ATOM      6  C4  OXE d   1      -0.142  -4.010   2.889  0.00  0.00    -0.002 A 
ATOM      7  C5  OXE d   1      -0.827  -2.822   2.614  0.00  0.00    -0.002 A 
ATOM      8  C6  OXE d   1      -0.297  -1.929   1.689  0.00  0.00     0.003 A 
ENDROOT
TORSDOF 0
ENDMDL
