MODEL 1
REMARK minimizedAffinity 2.87578464
REMARK minimizedRMSD -1
REMARK  0 active torsions:
REMARK  status: ('A' for Active; 'I' for Inactive)
ROOT
ATOM      1  C2' OXE d   1      -3.379   3.050  -4.846  0.00  0.00     0.078 C 
ATOM      2  C1' OXE d   1      -3.525   5.854  -4.826  0.00  0.00     0.078 C 
ATOM      3  C1  OXE d   1      -2.226   5.220  -5.257  0.00  0.00    -0.078 A 
ATOM      4  C2  OXE d   1      -2.148   3.848  -5.219  0.00  0.00    -0.078 A 
ATOM      5  C3  OXE d   1      -0.992   3.211  -5.658  0.00  0.00     0.003 A 
ATOM      6  C4  OXE d   1       0.145   3.956  -5.992  0.00  0.00    -0.002 A 
ATOM      7  C5  OXE d   1       0.101   5.355  -6.000  0.00  0.00    -0.002 A 
ATOM      8  C6  OXE d   1      -1.088   6.000  -5.677  0.00  0.00     0.003 A 
ENDROOT
TORSDOF 0
ENDMDL
