MODEL 1
REMARK minimizedAffinity -1.86872685
REMARK minimizedRMSD -1
REMARK  0 active torsions:
REMARK  status: ('A' for Active; 'I' for Inactive)
ROOT
ATOM      1  C2' OXE d   1       2.758  -4.216   3.020  0.00  0.00     0.078 C 
ATOM      2  C1' OXE d   1       3.501  -3.931   0.328  0.00  0.00     0.078 C 
ATOM      3  C1  OXE d   1       2.275  -3.191   0.801  0.00  0.00    -0.078 A 
ATOM      4  C2  OXE d   1       1.892  -3.373   2.108  0.00  0.00    -0.078 A 
ATOM      5  C3  OXE d   1       0.800  -2.672   2.611  0.00  0.00     0.003 A 
ATOM      6  C4  OXE d   1      -0.001  -1.902   1.758  0.00  0.00    -0.002 A 
ATOM      7  C5  OXE d   1       0.348  -1.735   0.414  0.00  0.00    -0.002 A 
ATOM      8  C6  OXE d   1       1.505  -2.337  -0.069  0.00  0.00     0.003 A 
ENDROOT
TORSDOF 0
ENDMDL
