MODEL 1
REMARK minimizedAffinity 5.72952127
REMARK minimizedRMSD -1
REMARK  0 active torsions:
REMARK  status: ('A' for Active; 'I' for Inactive)
ROOT
ATOM      1  C2' OXE d   1      -1.029  -2.754   2.537  0.00  0.00     0.078 C 
ATOM      2  C1' OXE d   1      -0.043  -0.703   0.894  0.00  0.00     0.078 C 
ATOM      3  C1  OXE d   1       0.708  -2.010   0.914  0.00  0.00    -0.078 A 
ATOM      4  C2  OXE d   1       0.246  -2.992   1.756  0.00  0.00    -0.078 A 
ATOM      5  C3  OXE d   1       0.870  -4.236   1.773  0.00  0.00     0.003 A 
ATOM      6  C4  OXE d   1       2.054  -4.445   1.055  0.00  0.00    -0.002 A 
ATOM      7  C5  OXE d   1       2.565  -3.444   0.221  0.00  0.00    -0.002 A 
ATOM      8  C6  OXE d   1       1.882  -2.238   0.107  0.00  0.00     0.003 A 
ENDROOT
TORSDOF 0
ENDMDL
