MODEL 1
REMARK minimizedAffinity 3.29882669
REMARK minimizedRMSD -1
REMARK  0 active torsions:
REMARK  status: ('A' for Active; 'I' for Inactive)
ROOT
ATOM      1  C2' OXE d   1      -0.692   0.085   1.378  0.00  0.00     0.078 C 
ATOM      2  C1' OXE d   1      -1.145  -2.522   2.317  0.00  0.00     0.078 C 
ATOM      3  C1  OXE d   1       0.105  -2.272   1.510  0.00  0.00    -0.078 A 
ATOM      4  C2  OXE d   1       0.294  -1.004   1.015  0.00  0.00    -0.078 A 
ATOM      5  C3  OXE d   1       1.458  -0.706   0.311  0.00  0.00     0.003 A 
ATOM      6  C4  OXE d   1       2.360  -1.720  -0.029  0.00  0.00    -0.002 A 
ATOM      7  C5  OXE d   1       2.166  -3.027   0.431  0.00  0.00    -0.002 A 
ATOM      8  C6  OXE d   1       1.067  -3.310   1.236  0.00  0.00     0.003 A 
ENDROOT
TORSDOF 0
ENDMDL
