MODEL 1
REMARK minimizedAffinity 4.00007248
REMARK minimizedRMSD -1
REMARK  0 active torsions:
REMARK  status: ('A' for Active; 'I' for Inactive)
ROOT
ATOM      1  C2' OXE d   1      -0.750  -0.683   2.377  0.00  0.00     0.078 C 
ATOM      2  C1' OXE d   1      -1.621  -3.343   2.599  0.00  0.00     0.078 C 
ATOM      3  C1  OXE d   1      -0.365  -3.077   1.808  0.00  0.00    -0.078 A 
ATOM      4  C2  OXE d   1       0.028  -1.768   1.665  0.00  0.00    -0.078 A 
ATOM      5  C3  OXE d   1       1.210  -1.472   0.991  0.00  0.00     0.003 A 
ATOM      6  C4  OXE d   1       1.918  -2.481   0.327  0.00  0.00    -0.002 A 
ATOM      7  C5  OXE d   1       1.514  -3.816   0.426  0.00  0.00    -0.002 A 
ATOM      8  C6  OXE d   1       0.401  -4.136   1.196  0.00  0.00     0.003 A 
ENDROOT
TORSDOF 0
ENDMDL
