MODEL 1
REMARK minimizedAffinity -1.85139
REMARK minimizedRMSD -1
REMARK  0 active torsions:
REMARK  status: ('A' for Active; 'I' for Inactive)
ROOT
ATOM      1  C2' OXE d   1      -1.035  -2.222   2.695  0.00  0.00     0.078 C 
ATOM      2  C1' OXE d   1       0.022  -0.546   0.707  0.00  0.00     0.078 C 
ATOM      3  C1  OXE d   1       0.637  -1.913   0.874  0.00  0.00    -0.078 A 
ATOM      4  C2  OXE d   1       0.144  -2.709   1.881  0.00  0.00    -0.078 A 
ATOM      5  C3  OXE d   1       0.638  -4.000   2.043  0.00  0.00     0.003 A 
ATOM      6  C4  OXE d   1       1.735  -4.439   1.292  0.00  0.00    -0.002 A 
ATOM      7  C5  OXE d   1       2.278  -3.630   0.289  0.00  0.00    -0.002 A 
ATOM      8  C6  OXE d   1       1.714  -2.383   0.039  0.00  0.00     0.003 A 
ENDROOT
TORSDOF 0
ENDMDL
