MODEL 1
REMARK minimizedAffinity 2.66601467
REMARK minimizedRMSD -1
REMARK  0 active torsions:
REMARK  status: ('A' for Active; 'I' for Inactive)
ROOT
ATOM      1  C2' OXE d   1       1.800  -4.016   0.310  0.00  0.00     0.078 C 
ATOM      2  C1' OXE d   1       2.168  -1.539  -0.959  0.00  0.00     0.078 C 
ATOM      3  C1  OXE d   1       1.255  -1.586   0.241  0.00  0.00    -0.078 A 
ATOM      4  C2  OXE d   1       1.044  -2.811   0.827  0.00  0.00    -0.078 A 
ATOM      5  C3  OXE d   1       0.254  -2.902   1.969  0.00  0.00     0.003 A 
ATOM      6  C4  OXE d   1      -0.450  -1.784   2.435  0.00  0.00    -0.002 A 
ATOM      7  C5  OXE d   1      -0.280  -0.535   1.828  0.00  0.00    -0.002 A 
ATOM      8  C6  OXE d   1       0.600  -0.411   0.759  0.00  0.00     0.003 A 
ENDROOT
TORSDOF 0
ENDMDL
