MODEL 1
REMARK minimizedAffinity 2.24116969
REMARK minimizedRMSD -1
REMARK  0 active torsions:
REMARK  status: ('A' for Active; 'I' for Inactive)
ROOT
ATOM      1  C2' OXE d   1       3.722  -4.417  -0.772  0.00  0.00     0.078 C 
ATOM      2  C1' OXE d   1       2.580  -5.603   1.502  0.00  0.00     0.078 C 
ATOM      3  C1  OXE d   1       2.145  -4.204   1.144  0.00  0.00    -0.078 A 
ATOM      4  C2  OXE d   1       2.743  -3.614   0.057  0.00  0.00    -0.078 A 
ATOM      5  C3  OXE d   1       2.338  -2.346  -0.349  0.00  0.00     0.003 A 
ATOM      6  C4  OXE d   1       1.439  -1.606   0.428  0.00  0.00    -0.002 A 
ATOM      7  C5  OXE d   1       0.847  -2.173   1.562  0.00  0.00    -0.002 A 
ATOM      8  C6  OXE d   1       1.157  -3.484   1.909  0.00  0.00     0.003 A 
ENDROOT
TORSDOF 0
ENDMDL
