MODEL 1
REMARK minimizedAffinity -2.22418904
REMARK minimizedRMSD -1
REMARK  1 active torsions:
REMARK  status: ('A' for Active; 'I' for Inactive)
REMARK    1  A    between atoms: C1_2  and  C2_3 
ROOT
ATOM      1  C2  UNL d   1       2.073  -1.001  -0.956  0.00  0.00    -0.077 A 
ATOM      2  C3  UNL d   1       3.025   0.012  -1.139  0.00  0.00     0.002 A 
ATOM      3  C4  UNL d   1       4.160  -0.219  -1.919  0.00  0.00     0.002 A 
ATOM      4  C5  UNL d   1       4.352  -1.459  -2.524  0.00  0.00    -0.004 A 
ATOM      5  C6  UNL d   1       3.412  -2.473  -2.346  0.00  0.00     0.002 A 
ATOM      6  C7  UNL d   1       2.277  -2.245  -1.566  0.00  0.00     0.002 A 
ENDROOT
BRANCH   1   7
ATOM      7  C1  UNL d   1       0.824  -0.739  -0.156  0.00  0.00     0.055 C 
ATOM      8  C   UNL d   1      -0.416  -1.229  -0.889  0.00  0.00     0.019 C 
ENDBRANCH   1   7
TORSDOF 1
ENDMDL
