MODEL 1
REMARK minimizedAffinity -0.478278667
REMARK minimizedRMSD -1
REMARK  1 active torsions:
REMARK  status: ('A' for Active; 'I' for Inactive)
REMARK    1  A    between atoms: C1_2  and  C2_3 
ROOT
ATOM      1  C2  UNL d   1      -0.654  -2.218  -3.269  0.00  0.00    -0.077 A 
ATOM      2  C3  UNL d   1      -1.028  -0.909  -2.932  0.00  0.00     0.002 A 
ATOM      3  C4  UNL d   1      -0.688  -0.377  -1.687  0.00  0.00     0.002 A 
ATOM      4  C5  UNL d   1       0.030  -1.143  -0.772  0.00  0.00    -0.004 A 
ATOM      5  C6  UNL d   1       0.405  -2.446  -1.097  0.00  0.00     0.002 A 
ATOM      6  C7  UNL d   1       0.065  -2.981  -2.340  0.00  0.00     0.002 A 
ENDROOT
BRANCH   1   7
ATOM      7  C1  UNL d   1      -0.977  -2.777  -4.630  0.00  0.00     0.055 C 
ATOM      8  C   UNL d   1      -2.030  -3.872  -4.543  0.00  0.00     0.019 C 
ENDBRANCH   1   7
TORSDOF 1
ENDMDL
