MODEL 1
REMARK minimizedAffinity -1.3541857
REMARK minimizedRMSD -1
REMARK  1 active torsions:
REMARK  status: ('A' for Active; 'I' for Inactive)
REMARK    1  A    between atoms: C1_2  and  C2_3 
ROOT
ATOM      1  C2  UNL d   1       1.318  -0.664  -0.600  0.00  0.00    -0.077 A 
ATOM      2  C3  UNL d   1       1.205   0.220   0.482  0.00  0.00     0.002 A 
ATOM      3  C4  UNL d   1      -0.047   0.515   1.025  0.00  0.00     0.002 A 
ATOM      4  C5  UNL d   1      -1.194  -0.074   0.497  0.00  0.00    -0.004 A 
ATOM      5  C6  UNL d   1      -1.092  -0.953  -0.581  0.00  0.00     0.002 A 
ATOM      6  C7  UNL d   1       0.159  -1.248  -1.126  0.00  0.00     0.002 A 
ENDROOT
BRANCH   1   7
ATOM      7  C1  UNL d   1       2.672  -1.021  -1.155  0.00  0.00     0.055 C 
ATOM      8  C   UNL d   1       3.513   0.222  -1.407  0.00  0.00     0.019 C 
ENDBRANCH   1   7
TORSDOF 1
ENDMDL
