MODEL 1
REMARK minimizedAffinity 3.4285872
REMARK minimizedRMSD -1
REMARK  2 active torsions:
REMARK  status: ('A' for Active; 'I' for Inactive)
REMARK    1  A    between atoms: C1_2  and  C2_3 
REMARK    2  A    between atoms: C2_3  and  C3_4 
ROOT
ATOM      1  C3  UNL d   1       1.902  -1.233  -0.930  0.00  0.00    -0.075 A 
ATOM      2  C4  UNL d   1       2.626  -2.423  -1.093  0.00  0.00     0.002 A 
ATOM      3  C5  UNL d   1       3.003  -3.180   0.016  0.00  0.00     0.002 A 
ATOM      4  C6  UNL d   1       2.671  -2.753   1.300  0.00  0.00    -0.004 A 
ATOM      5  C7  UNL d   1       1.966  -1.564   1.475  0.00  0.00     0.002 A 
ATOM      6  C8  UNL d   1       1.584  -0.807   0.366  0.00  0.00     0.002 A 
ENDROOT
BRANCH   1   7
ATOM      7  C2  UNL d   1       1.465  -0.424  -2.129  0.00  0.00     0.056 C 
BRANCH   7   8
ATOM      8  C1  UNL d   1       2.206   0.908  -2.285  0.00  0.00     0.007 C 
ATOM      9  C   UNL d   1       2.355   1.345  -3.736  0.00  0.00     0.009 C 
ENDBRANCH   7   8
ENDBRANCH   1   7
TORSDOF 2
ENDMDL
