MODEL 1
REMARK minimizedAffinity -0.161008507
REMARK minimizedRMSD -1
REMARK  2 active torsions:
REMARK  status: ('A' for Active; 'I' for Inactive)
REMARK    1  A    between atoms: C1_2  and  C2_3 
REMARK    2  A    between atoms: C2_3  and  C3_4 
ROOT
ATOM      1  C3  UNL d   1       0.783  -1.028   2.221  0.00  0.00    -0.075 A 
ATOM      2  C4  UNL d   1       1.807  -1.819   2.761  0.00  0.00     0.002 A 
ATOM      3  C5  UNL d   1       2.794  -2.359   1.937  0.00  0.00     0.002 A 
ATOM      4  C6  UNL d   1       2.766  -2.124   0.564  0.00  0.00    -0.004 A 
ATOM      5  C7  UNL d   1       1.744  -1.353   0.015  0.00  0.00     0.002 A 
ATOM      6  C8  UNL d   1       0.756  -0.808   0.838  0.00  0.00     0.002 A 
ENDROOT
BRANCH   1   7
ATOM      7  C2  UNL d   1      -0.273  -0.416   3.112  0.00  0.00     0.056 C 
BRANCH   7   8
ATOM      8  C1  UNL d   1      -1.552  -0.008   2.373  0.00  0.00     0.007 C 
ATOM      9  C   UNL d   1      -2.340   1.078   3.093  0.00  0.00     0.009 C 
ENDBRANCH   7   8
ENDBRANCH   1   7
TORSDOF 2
ENDMDL
