MODEL 1
REMARK minimizedAffinity 8.27583218
REMARK minimizedRMSD -1
REMARK  2 active torsions:
REMARK  status: ('A' for Active; 'I' for Inactive)
REMARK    1  A    between atoms: C1_2  and  C2_3 
REMARK    2  A    between atoms: C2_3  and  C3_4 
ROOT
ATOM      1  C3  UNL d   1       1.041  -1.637   1.088  0.00  0.00    -0.075 A 
ATOM      2  C4  UNL d   1       2.362  -2.102   1.154  0.00  0.00     0.002 A 
ATOM      3  C5  UNL d   1       3.161  -2.131   0.011  0.00  0.00     0.002 A 
ATOM      4  C6  UNL d   1       2.648  -1.706  -1.212  0.00  0.00    -0.004 A 
ATOM      5  C7  UNL d   1       1.331  -1.258  -1.293  0.00  0.00     0.002 A 
ATOM      6  C8  UNL d   1       0.531  -1.224  -0.150  0.00  0.00     0.002 A 
ENDROOT
BRANCH   1   7
ATOM      7  C2  UNL d   1       0.180  -1.576   2.327  0.00  0.00     0.056 C 
BRANCH   7   8
ATOM      8  C1  UNL d   1       0.358  -0.294   3.147  0.00  0.00     0.007 C 
ATOM      9  C   UNL d   1       1.809  -0.010   3.511  0.00  0.00     0.009 C 
ENDBRANCH   7   8
ENDBRANCH   1   7
TORSDOF 2
ENDMDL
