MODEL 1
REMARK minimizedAffinity 2.19673014
REMARK minimizedRMSD -1
REMARK  2 active torsions:
REMARK  status: ('A' for Active; 'I' for Inactive)
REMARK    1  A    between atoms: C1_2  and  C2_3 
REMARK    2  A    between atoms: C2_3  and  C3_4 
ROOT
ATOM      1  C3  UNL d   1       0.968  -1.499   2.452  0.00  0.00    -0.075 A 
ATOM      2  C4  UNL d   1       0.841  -1.215   1.084  0.00  0.00     0.002 A 
ATOM      3  C5  UNL d   1       1.784  -1.690   0.172  0.00  0.00     0.002 A 
ATOM      4  C6  UNL d   1       2.868  -2.444   0.615  0.00  0.00    -0.004 A 
ATOM      5  C7  UNL d   1       3.013  -2.718   1.973  0.00  0.00     0.002 A 
ATOM      6  C8  UNL d   1       2.069  -2.247   2.888  0.00  0.00     0.002 A 
ENDROOT
BRANCH   1   7
ATOM      7  C2  UNL d   1      -0.064  -1.012   3.441  0.00  0.00     0.056 C 
BRANCH   7   8
ATOM      8  C1  UNL d   1      -0.431   0.467   3.282  0.00  0.00     0.007 C 
ATOM      9  C   UNL d   1      -1.928   0.728   3.381  0.00  0.00     0.009 C 
ENDBRANCH   7   8
ENDBRANCH   1   7
TORSDOF 2
ENDMDL
