MODEL 1
REMARK minimizedAffinity 2.10971427
REMARK minimizedRMSD -1
REMARK  2 active torsions:
REMARK  status: ('A' for Active; 'I' for Inactive)
REMARK    1  A    between atoms: C1_2  and  C2_3 
REMARK    2  A    between atoms: C2_3  and  C3_4 
ROOT
ATOM      1  C3  UNL d   1       0.935  -1.256   0.982  0.00  0.00    -0.075 A 
ATOM      2  C4  UNL d   1      -0.444  -1.483   1.095  0.00  0.00     0.002 A 
ATOM      3  C5  UNL d   1      -1.133  -1.102   2.247  0.00  0.00     0.002 A 
ATOM      4  C6  UNL d   1      -0.451  -0.500   3.303  0.00  0.00    -0.004 A 
ATOM      5  C7  UNL d   1       0.922  -0.284   3.208  0.00  0.00     0.002 A 
ATOM      6  C8  UNL d   1       1.613  -0.661   2.054  0.00  0.00     0.002 A 
ENDROOT
BRANCH   1   7
ATOM      7  C2  UNL d   1       1.680  -1.639  -0.274  0.00  0.00     0.056 C 
BRANCH   7   8
ATOM      8  C1  UNL d   1       1.015  -1.155  -1.567  0.00  0.00     0.007 C 
ATOM      9  C   UNL d   1       1.183   0.340  -1.804  0.00  0.00     0.009 C 
ENDBRANCH   7   8
ENDBRANCH   1   7
TORSDOF 2
ENDMDL
