MODEL 1
REMARK minimizedAffinity 7.48391962
REMARK minimizedRMSD -1
REMARK  0 active torsions:
REMARK  status: ('A' for Active; 'I' for Inactive)
ROOT
ATOM      1  C   UNL d   1      -0.337  -5.999   2.615  0.00  0.00     0.078 C 
ATOM      2  C1  UNL d   1      -0.903  -4.814   1.891  0.00  0.00    -0.077 A 
ATOM      3  C2  UNL d   1      -0.950  -4.777   0.492  0.00  0.00    -0.001 A 
ATOM      4  C3  UNL d   1      -1.471  -3.663  -0.168  0.00  0.00     0.003 A 
ATOM      5  C4  UNL d   1      -1.948  -2.577   0.563  0.00  0.00    -0.005 A 
ATOM      6  C5  UNL d   1      -1.904  -2.603   1.955  0.00  0.00     0.003 A 
ATOM      7  C6  UNL d   1      -1.383  -3.717   2.617  0.00  0.00    -0.001 A 
ENDROOT
TORSDOF 0
ENDMDL
