MODEL 1
REMARK minimizedAffinity 0.838360369
REMARK minimizedRMSD -1
REMARK  0 active torsions:
REMARK  status: ('A' for Active; 'I' for Inactive)
ROOT
ATOM      1  C   UNL d   1      -2.106  -2.478   3.633  0.00  0.00     0.078 C 
ATOM      2  C1  UNL d   1      -1.495  -3.298   2.535  0.00  0.00    -0.077 A 
ATOM      3  C2  UNL d   1      -1.058  -4.607   2.771  0.00  0.00    -0.001 A 
ATOM      4  C3  UNL d   1      -0.483  -5.355   1.743  0.00  0.00     0.003 A 
ATOM      5  C4  UNL d   1      -0.338  -4.802   0.472  0.00  0.00    -0.005 A 
ATOM      6  C5  UNL d   1      -0.768  -3.499   0.228  0.00  0.00     0.003 A 
ATOM      7  C6  UNL d   1      -1.343  -2.750   1.256  0.00  0.00    -0.001 A 
ENDROOT
TORSDOF 0
ENDMDL
