MODEL 1
REMARK minimizedAffinity 12.3816805
REMARK minimizedRMSD -1
REMARK  0 active torsions:
REMARK  status: ('A' for Active; 'I' for Inactive)
ROOT
ATOM      1  C   UNL d   1      -1.518  -6.000   4.243  0.00  0.00     0.078 C 
ATOM      2  C1  UNL d   1      -1.282  -5.323   2.925  0.00  0.00    -0.077 A 
ATOM      3  C2  UNL d   1      -1.743  -4.022   2.690  0.00  0.00    -0.001 A 
ATOM      4  C3  UNL d   1      -1.524  -3.409   1.455  0.00  0.00     0.003 A 
ATOM      5  C4  UNL d   1      -0.845  -4.089   0.446  0.00  0.00    -0.005 A 
ATOM      6  C5  UNL d   1      -0.384  -5.384   0.671  0.00  0.00     0.003 A 
ATOM      7  C6  UNL d   1      -0.602  -6.000   1.905  0.00  0.00    -0.001 A 
ENDROOT
TORSDOF 0
ENDMDL
