MODEL 1
REMARK minimizedAffinity 8.06029606
REMARK minimizedRMSD -1
REMARK  0 active torsions:
REMARK  status: ('A' for Active; 'I' for Inactive)
ROOT
ATOM      1  C   UNL d   1      -4.589   3.657  -6.000  0.00  0.00     0.078 C 
ATOM      2  C1  UNL d   1      -3.174   3.335  -5.625  0.00  0.00    -0.077 A 
ATOM      3  C2  UNL d   1      -2.123   4.195  -5.969  0.00  0.00    -0.001 A 
ATOM      4  C3  UNL d   1      -0.809   3.878  -5.622  0.00  0.00     0.003 A 
ATOM      5  C4  UNL d   1      -0.533   2.701  -4.929  0.00  0.00    -0.005 A 
ATOM      6  C5  UNL d   1      -1.571   1.838  -4.584  0.00  0.00     0.003 A 
ATOM      7  C6  UNL d   1      -2.886   2.153  -4.930  0.00  0.00    -0.001 A 
ENDROOT
TORSDOF 0
ENDMDL
