MODEL 1
REMARK minimizedAffinity 7.12439108
REMARK minimizedRMSD -1
REMARK  0 active torsions:
REMARK  status: ('A' for Active; 'I' for Inactive)
ROOT
ATOM      1  C   UNL d   1      -0.354  -5.563   1.130  0.00  0.00     0.078 C 
ATOM      2  C1  UNL d   1      -0.811  -4.191   0.733  0.00  0.00    -0.077 A 
ATOM      3  C2  UNL d   1      -1.889  -3.575   1.381  0.00  0.00    -0.001 A 
ATOM      4  C3  UNL d   1      -2.309  -2.301   0.995  0.00  0.00     0.003 A 
ATOM      5  C4  UNL d   1      -1.659  -1.633  -0.040  0.00  0.00    -0.005 A 
ATOM      6  C5  UNL d   1      -0.587  -2.239  -0.692  0.00  0.00     0.003 A 
ATOM      7  C6  UNL d   1      -0.165  -3.513  -0.308  0.00  0.00    -0.001 A 
ENDROOT
TORSDOF 0
ENDMDL
