MODEL 1
REMARK minimizedAffinity 4.42265129
REMARK minimizedRMSD -1
REMARK  0 active torsions:
REMARK  status: ('A' for Active; 'I' for Inactive)
ROOT
ATOM      1  C   UNL d   1      -2.307  -1.504  -2.047  0.00  0.00     0.078 C 
ATOM      2  C1  UNL d   1      -1.871  -2.321  -0.868  0.00  0.00    -0.077 A 
ATOM      3  C2  UNL d   1      -1.488  -3.659  -1.021  0.00  0.00    -0.001 A 
ATOM      4  C3  UNL d   1      -1.094  -4.411   0.087  0.00  0.00     0.003 A 
ATOM      5  C4  UNL d   1      -1.080  -3.834   1.356  0.00  0.00    -0.005 A 
ATOM      6  C5  UNL d   1      -1.462  -2.504   1.517  0.00  0.00     0.003 A 
ATOM      7  C6  UNL d   1      -1.857  -1.751   0.411  0.00  0.00    -0.001 A 
ENDROOT
TORSDOF 0
ENDMDL
