MODEL 1
REMARK minimizedAffinity 12.7843056
REMARK minimizedRMSD -1
REMARK  0 active torsions:
REMARK  status: ('A' for Active; 'I' for Inactive)
ROOT
ATOM      1  C   UNL d   1       3.371   2.768   0.007  0.00  0.00     0.078 C 
ATOM      2  C1  UNL d   1       2.835   1.651  -0.837  0.00  0.00    -0.077 A 
ATOM      3  C2  UNL d   1       1.540   1.155  -0.640  0.00  0.00    -0.001 A 
ATOM      4  C3  UNL d   1       1.057   0.109  -1.427  0.00  0.00     0.003 A 
ATOM      5  C4  UNL d   1       1.863  -0.452  -2.416  0.00  0.00    -0.005 A 
ATOM      6  C5  UNL d   1       3.153   0.032  -2.618  0.00  0.00     0.003 A 
ATOM      7  C6  UNL d   1       3.638   1.079  -1.832  0.00  0.00    -0.001 A 
ENDROOT
TORSDOF 0
ENDMDL
