MODEL 1
REMARK minimizedAffinity 10.2073116
REMARK minimizedRMSD -1
REMARK  0 active torsions:
REMARK  status: ('A' for Active; 'I' for Inactive)
ROOT
ATOM      1  C   UNL d   1      -6.000   2.985   6.000  0.00  0.00     0.078 C 
ATOM      2  C1  UNL d   1      -5.206   1.728   5.810  0.00  0.00    -0.077 A 
ATOM      3  C2  UNL d   1      -5.833   0.476   5.785  0.00  0.00    -0.001 A 
ATOM      4  C3  UNL d   1      -5.080  -0.688   5.617  0.00  0.00     0.003 A 
ATOM      5  C4  UNL d   1      -3.696  -0.611   5.475  0.00  0.00    -0.005 A 
ATOM      6  C5  UNL d   1      -3.063   0.630   5.502  0.00  0.00     0.003 A 
ATOM      7  C6  UNL d   1      -3.814   1.794   5.669  0.00  0.00    -0.001 A 
ENDROOT
TORSDOF 0
ENDMDL
