MODEL 1
REMARK minimizedAffinity 7.71792126
REMARK minimizedRMSD -1
REMARK  0 active torsions:
REMARK  status: ('A' for Active; 'I' for Inactive)
ROOT
ATOM      1  C   UNL d   1      -0.708  -5.942  -1.485  0.00  0.00     0.078 C 
ATOM      2  C1  UNL d   1      -0.703  -4.481  -1.822  0.00  0.00    -0.077 A 
ATOM      3  C2  UNL d   1      -0.603  -3.510  -0.818  0.00  0.00    -0.001 A 
ATOM      4  C3  UNL d   1      -0.609  -2.153  -1.146  0.00  0.00     0.003 A 
ATOM      5  C4  UNL d   1      -0.716  -1.755  -2.477  0.00  0.00    -0.005 A 
ATOM      6  C5  UNL d   1      -0.819  -2.715  -3.482  0.00  0.00     0.003 A 
ATOM      7  C6  UNL d   1      -0.813  -4.072  -3.157  0.00  0.00    -0.001 A 
ENDROOT
TORSDOF 0
ENDMDL
