MODEL 1
REMARK minimizedAffinity 13.5507355
REMARK minimizedRMSD -1
REMARK  0 active torsions:
REMARK  status: ('A' for Active; 'I' for Inactive)
ROOT
ATOM      1  C   UNL d   1      -4.310   0.285   6.000  0.00  0.00     0.078 C 
ATOM      2  C1  UNL d   1      -3.691  -1.037   5.657  0.00  0.00    -0.077 A 
ATOM      3  C2  UNL d   1      -4.324  -2.239   5.995  0.00  0.00    -0.001 A 
ATOM      4  C3  UNL d   1      -3.732  -3.463   5.679  0.00  0.00     0.003 A 
ATOM      5  C4  UNL d   1      -2.503  -3.496   5.023  0.00  0.00    -0.005 A 
ATOM      6  C5  UNL d   1      -1.864  -2.305   4.685  0.00  0.00     0.003 A 
ATOM      7  C6  UNL d   1      -2.455  -1.081   5.001  0.00  0.00    -0.001 A 
ENDROOT
TORSDOF 0
ENDMDL
