MODEL 1
REMARK minimizedAffinity 7.07324457
REMARK minimizedRMSD -1
REMARK  0 active torsions:
REMARK  status: ('A' for Active; 'I' for Inactive)
ROOT
ATOM      1  C   UNL d   1      -4.800   1.719  -0.981  0.00  0.00     0.078 C 
ATOM      2  C1  UNL d   1      -4.889   3.181  -0.658  0.00  0.00    -0.077 A 
ATOM      3  C2  UNL d   1      -5.735   3.645   0.357  0.00  0.00    -0.001 A 
ATOM      4  C3  UNL d   1      -5.815   5.010   0.640  0.00  0.00     0.003 A 
ATOM      5  C4  UNL d   1      -5.053   5.921  -0.088  0.00  0.00    -0.005 A 
ATOM      6  C5  UNL d   1      -4.211   5.469  -1.102  0.00  0.00     0.003 A 
ATOM      7  C6  UNL d   1      -4.129   4.105  -1.386  0.00  0.00    -0.001 A 
ENDROOT
TORSDOF 0
ENDMDL
