MODEL 1
REMARK minimizedAffinity 13.1826391
REMARK minimizedRMSD -1
REMARK  0 active torsions:
REMARK  status: ('A' for Active; 'I' for Inactive)
ROOT
ATOM      1  C   UNL d   1       1.261  -1.139   6.000  0.00  0.00     0.078 C 
ATOM      2  C1  UNL d   1      -0.101  -1.599   5.574  0.00  0.00    -0.077 A 
ATOM      3  C2  UNL d   1      -0.580  -2.865   5.935  0.00  0.00    -0.001 A 
ATOM      4  C3  UNL d   1      -1.847  -3.284   5.524  0.00  0.00     0.003 A 
ATOM      5  C4  UNL d   1      -2.644  -2.445   4.748  0.00  0.00    -0.005 A 
ATOM      6  C5  UNL d   1      -2.175  -1.185   4.382  0.00  0.00     0.003 A 
ATOM      7  C6  UNL d   1      -0.909  -0.764   4.792  0.00  0.00    -0.001 A 
ENDROOT
TORSDOF 0
ENDMDL
