MODEL 1
REMARK minimizedAffinity 1.18876088
REMARK minimizedRMSD -1
REMARK  0 active torsions:
REMARK  status: ('A' for Active; 'I' for Inactive)
ROOT
ATOM      1  C   UNL d   1      -3.386   1.175   5.984  0.00  0.00     0.078 C 
ATOM      2  C1  UNL d   1      -2.993  -0.273   5.997  0.00  0.00    -0.077 A 
ATOM      3  C2  UNL d   1      -1.646  -0.655   5.997  0.00  0.00    -0.001 A 
ATOM      4  C3  UNL d   1      -1.296  -2.006   5.999  0.00  0.00     0.003 A 
ATOM      5  C4  UNL d   1      -2.287  -2.986   6.000  0.00  0.00    -0.005 A 
ATOM      6  C5  UNL d   1      -3.630  -2.615   5.998  0.00  0.00     0.003 A 
ATOM      7  C6  UNL d   1      -3.982  -1.265   5.995  0.00  0.00    -0.001 A 
ENDROOT
TORSDOF 0
ENDMDL
