MODEL 1
REMARK minimizedAffinity 2.68195486
REMARK minimizedRMSD -1
REMARK  0 active torsions:
REMARK  status: ('A' for Active; 'I' for Inactive)
ROOT
ATOM      1  C   UNL d   1      -3.711   5.981  -1.777  0.00  0.00     0.078 C 
ATOM      2  C1  UNL d   1      -4.268   5.473  -0.481  0.00  0.00    -0.077 A 
ATOM      3  C2  UNL d   1      -3.615   4.465   0.239  0.00  0.00    -0.001 A 
ATOM      4  C3  UNL d   1      -4.150   3.995   1.439  0.00  0.00     0.003 A 
ATOM      5  C4  UNL d   1      -5.341   4.526   1.930  0.00  0.00    -0.005 A 
ATOM      6  C5  UNL d   1      -5.999   5.528   1.219  0.00  0.00     0.003 A 
ATOM      7  C6  UNL d   1      -5.466   5.999   0.019  0.00  0.00    -0.001 A 
ENDROOT
TORSDOF 0
ENDMDL
