MODEL 1
REMARK minimizedAffinity 17.5441093
REMARK minimizedRMSD -1
REMARK  0 active torsions:
REMARK  status: ('A' for Active; 'I' for Inactive)
ROOT
ATOM      1  C   UNL d   1       2.125   0.175  -1.916  0.00  0.00     0.078 C 
ATOM      2  C1  UNL d   1       2.970   1.283  -1.361  0.00  0.00    -0.077 A 
ATOM      3  C2  UNL d   1       4.228   1.571  -1.904  0.00  0.00    -0.001 A 
ATOM      4  C3  UNL d   1       5.008   2.599  -1.372  0.00  0.00     0.003 A 
ATOM      5  C4  UNL d   1       4.539   3.346  -0.293  0.00  0.00    -0.005 A 
ATOM      6  C5  UNL d   1       3.289   3.065   0.255  0.00  0.00     0.003 A 
ATOM      7  C6  UNL d   1       2.508   2.038  -0.276  0.00  0.00    -0.001 A 
ENDROOT
TORSDOF 0
ENDMDL
