MODEL 1
REMARK minimizedAffinity 5.79553795
REMARK minimizedRMSD -1
REMARK  0 active torsions:
REMARK  status: ('A' for Active; 'I' for Inactive)
ROOT
ATOM      1  C   UNL d   1      -4.170   1.869   5.998  0.00  0.00     0.078 C 
ATOM      2  C1  UNL d   1      -3.695   0.450   5.901  0.00  0.00    -0.077 A 
ATOM      3  C2  UNL d   1      -2.341   0.154   5.700  0.00  0.00    -0.001 A 
ATOM      4  C3  UNL d   1      -1.915  -1.171   5.602  0.00  0.00     0.003 A 
ATOM      5  C4  UNL d   1      -2.837  -2.212   5.703  0.00  0.00    -0.005 A 
ATOM      6  C5  UNL d   1      -4.186  -1.927   5.901  0.00  0.00     0.003 A 
ATOM      7  C6  UNL d   1      -4.614  -0.602   5.999  0.00  0.00    -0.001 A 
ENDROOT
TORSDOF 0
ENDMDL
