MODEL 1
REMARK minimizedAffinity 3.77217221
REMARK minimizedRMSD -1
REMARK  0 active torsions:
REMARK  status: ('A' for Active; 'I' for Inactive)
ROOT
ATOM      1  C   UNL d   1      -4.835   6.000  -2.450  0.00  0.00     0.078 C 
ATOM      2  C1  UNL d   1      -4.995   5.410  -1.081  0.00  0.00    -0.077 A 
ATOM      3  C2  UNL d   1      -5.868   5.980  -0.147  0.00  0.00    -0.001 A 
ATOM      4  C3  UNL d   1      -5.999   5.426   1.127  0.00  0.00     0.003 A 
ATOM      5  C4  UNL d   1      -5.259   4.300   1.480  0.00  0.00    -0.005 A 
ATOM      6  C5  UNL d   1      -4.386   3.726   0.558  0.00  0.00     0.003 A 
ATOM      7  C6  UNL d   1      -4.253   4.279  -0.717  0.00  0.00    -0.001 A 
ENDROOT
TORSDOF 0
ENDMDL
