MODEL 1
REMARK minimizedAffinity -2.96952295
REMARK minimizedRMSD -1
REMARK  0 active torsions:
REMARK  status: ('A' for Active; 'I' for Inactive)
ROOT
ATOM      1  C   UNL d   1       4.904   5.955   3.419  0.00  0.00     0.078 C 
ATOM      2  C1  UNL d   1       4.824   5.978   1.922  0.00  0.00    -0.077 A 
ATOM      3  C2  UNL d   1       3.588   5.987   1.265  0.00  0.00    -0.001 A 
ATOM      4  C3  UNL d   1       3.529   5.998  -0.129  0.00  0.00     0.003 A 
ATOM      5  C4  UNL d   1       4.703   6.000  -0.879  0.00  0.00    -0.005 A 
ATOM      6  C5  UNL d   1       5.939   5.989  -0.234  0.00  0.00     0.003 A 
ATOM      7  C6  UNL d   1       5.999   5.978   1.160  0.00  0.00    -0.001 A 
ENDROOT
TORSDOF 0
ENDMDL
