MODEL 1
REMARK minimizedAffinity 6.34726477
REMARK minimizedRMSD -1
REMARK  0 active torsions:
REMARK  status: ('A' for Active; 'I' for Inactive)
ROOT
ATOM      1  C   UNL d   1       5.061   5.915   5.232  0.00  0.00     0.078 C 
ATOM      2  C1  UNL d   1       4.917   5.734   3.750  0.00  0.00    -0.077 A 
ATOM      3  C2  UNL d   1       6.000   5.953   2.889  0.00  0.00    -0.001 A 
ATOM      4  C3  UNL d   1       5.849   5.790   1.511  0.00  0.00     0.003 A 
ATOM      5  C4  UNL d   1       4.618   5.408   0.982  0.00  0.00    -0.005 A 
ATOM      6  C5  UNL d   1       3.535   5.191   1.831  0.00  0.00     0.003 A 
ATOM      7  C6  UNL d   1       3.683   5.353   3.209  0.00  0.00    -0.001 A 
ENDROOT
TORSDOF 0
ENDMDL
