MODEL 1
REMARK minimizedAffinity -2.62559819
REMARK minimizedRMSD -1
REMARK  0 active torsions:
REMARK  status: ('A' for Active; 'I' for Inactive)
ROOT
ATOM      1  C   UNL d   1       4.862   5.902   4.650  0.00  0.00     0.078 C 
ATOM      2  C1  UNL d   1       4.875   5.661   3.170  0.00  0.00    -0.077 A 
ATOM      3  C2  UNL d   1       5.997   5.111   2.538  0.00  0.00    -0.001 A 
ATOM      4  C3  UNL d   1       5.999   4.901   1.158  0.00  0.00     0.003 A 
ATOM      5  C4  UNL d   1       4.882   5.239   0.398  0.00  0.00    -0.005 A 
ATOM      6  C5  UNL d   1       3.761   5.789   1.017  0.00  0.00     0.003 A 
ATOM      7  C6  UNL d   1       3.757   6.000   2.397  0.00  0.00    -0.001 A 
ENDROOT
TORSDOF 0
ENDMDL
