MODEL 1
REMARK minimizedAffinity 9.7777977
REMARK minimizedRMSD -1
REMARK  0 active torsions:
REMARK  status: ('A' for Active; 'I' for Inactive)
ROOT
ATOM      1  C   UNL d   1       2.158  -5.635   2.098  0.00  0.00     0.078 C 
ATOM      2  C1  UNL d   1       1.480  -4.708   1.134  0.00  0.00    -0.077 A 
ATOM      3  C2  UNL d   1       0.088  -4.560   1.133  0.00  0.00    -0.001 A 
ATOM      4  C3  UNL d   1      -0.530  -3.700   0.224  0.00  0.00     0.003 A 
ATOM      5  C4  UNL d   1       0.236  -2.983  -0.693  0.00  0.00    -0.005 A 
ATOM      6  C5  UNL d   1       1.622  -3.126  -0.701  0.00  0.00     0.003 A 
ATOM      7  C6  UNL d   1       2.242  -3.985   0.208  0.00  0.00    -0.001 A 
ENDROOT
TORSDOF 0
ENDMDL
