MODEL 1
REMARK minimizedAffinity -1.96879709
REMARK minimizedRMSD -1
REMARK  0 active torsions:
REMARK  status: ('A' for Active; 'I' for Inactive)
ROOT
ATOM      1  C   UNL d   1       2.321   5.997  -0.436  0.00  0.00     0.078 C 
ATOM      2  C1  UNL d   1       3.554   5.983   0.417  0.00  0.00    -0.077 A 
ATOM      3  C2  UNL d   1       3.465   5.968   1.814  0.00  0.00    -0.001 A 
ATOM      4  C3  UNL d   1       4.621   5.966   2.596  0.00  0.00     0.003 A 
ATOM      5  C4  UNL d   1       5.876   5.979   1.989  0.00  0.00    -0.005 A 
ATOM      6  C5  UNL d   1       5.975   5.996   0.599  0.00  0.00     0.003 A 
ATOM      7  C6  UNL d   1       4.819   5.999  -0.184  0.00  0.00    -0.001 A 
ENDROOT
TORSDOF 0
ENDMDL
