MODEL 1
REMARK minimizedAffinity 3.94626999
REMARK minimizedRMSD -1
REMARK  0 active torsions:
REMARK  status: ('A' for Active; 'I' for Inactive)
ROOT
ATOM      1  C   UNL d   1       1.799  -0.002  -2.252  0.00  0.00     0.078 C 
ATOM      2  C1  UNL d   1       3.263  -0.155  -2.534  0.00  0.00    -0.077 A 
ATOM      3  C2  UNL d   1       3.862   0.502  -3.616  0.00  0.00    -0.001 A 
ATOM      4  C3  UNL d   1       5.224   0.343  -3.873  0.00  0.00     0.003 A 
ATOM      5  C4  UNL d   1       6.000  -0.474  -3.053  0.00  0.00    -0.005 A 
ATOM      6  C5  UNL d   1       5.413  -1.133  -1.975  0.00  0.00     0.003 A 
ATOM      7  C6  UNL d   1       4.050  -0.975  -1.717  0.00  0.00    -0.001 A 
ENDROOT
TORSDOF 0
ENDMDL
