MODEL 1
REMARK minimizedAffinity 15.3765097
REMARK minimizedRMSD -1
REMARK  0 active torsions:
REMARK  status: ('A' for Active; 'I' for Inactive)
ROOT
ATOM      1  C   UNL d   1      -2.264   0.763   2.773  0.00  0.00     0.078 C 
ATOM      2  C1  UNL d   1      -3.568   0.349   3.388  0.00  0.00    -0.077 A 
ATOM      3  C2  UNL d   1      -4.706   0.149   2.598  0.00  0.00    -0.001 A 
ATOM      4  C3  UNL d   1      -5.916  -0.227   3.185  0.00  0.00     0.003 A 
ATOM      5  C4  UNL d   1      -5.998  -0.405   4.565  0.00  0.00    -0.005 A 
ATOM      6  C5  UNL d   1      -4.871  -0.205   5.359  0.00  0.00     0.003 A 
ATOM      7  C6  UNL d   1      -3.661   0.171   4.774  0.00  0.00    -0.001 A 
ENDROOT
TORSDOF 0
ENDMDL
