MODEL 1
REMARK minimizedAffinity 4.88503551
REMARK minimizedRMSD -1
REMARK  0 active torsions:
REMARK  status: ('A' for Active; 'I' for Inactive)
ROOT
ATOM      1  C   UNL d   1      -0.350  -3.017  -2.868  0.00  0.00     0.078 C 
ATOM      2  C1  UNL d   1       0.847  -2.593  -2.070  0.00  0.00    -0.077 A 
ATOM      3  C2  UNL d   1       1.539  -3.508  -1.266  0.00  0.00    -0.001 A 
ATOM      4  C3  UNL d   1       2.646  -3.097  -0.522  0.00  0.00     0.003 A 
ATOM      5  C4  UNL d   1       3.070  -1.771  -0.573  0.00  0.00    -0.005 A 
ATOM      6  C5  UNL d   1       2.387  -0.853  -1.369  0.00  0.00     0.003 A 
ATOM      7  C6  UNL d   1       1.280  -1.262  -2.114  0.00  0.00    -0.001 A 
ENDROOT
TORSDOF 0
ENDMDL
