MODEL 1
REMARK minimizedAffinity -3.33779359
REMARK minimizedRMSD -1
REMARK  0 active torsions:
REMARK  status: ('A' for Active; 'I' for Inactive)
ROOT
ATOM      1  C   UNL d   1       5.116  -1.740   4.464  0.00  0.00     0.078 C 
ATOM      2  C1  UNL d   1       5.086  -3.201   4.797  0.00  0.00    -0.077 A 
ATOM      3  C2  UNL d   1       5.997  -3.752   5.706  0.00  0.00    -0.001 A 
ATOM      4  C3  UNL d   1       5.964  -5.116   6.000  0.00  0.00     0.003 A 
ATOM      5  C4  UNL d   1       5.022  -5.941   5.388  0.00  0.00    -0.005 A 
ATOM      6  C5  UNL d   1       4.113  -5.402   4.480  0.00  0.00     0.003 A 
ATOM      7  C6  UNL d   1       4.145  -4.038   4.185  0.00  0.00    -0.001 A 
ENDROOT
TORSDOF 0
ENDMDL
