MODEL 1
REMARK minimizedAffinity 7.20871782
REMARK minimizedRMSD -1
REMARK  0 active torsions:
REMARK  status: ('A' for Active; 'I' for Inactive)
ROOT
ATOM      1  C   UNL d   1      -3.412  -1.828  -0.548  0.00  0.00     0.078 C 
ATOM      2  C1  UNL d   1      -2.044  -2.067  -1.113  0.00  0.00    -0.077 A 
ATOM      3  C2  UNL d   1      -1.176  -1.000  -1.379  0.00  0.00    -0.001 A 
ATOM      4  C3  UNL d   1       0.091  -1.237  -1.914  0.00  0.00     0.003 A 
ATOM      5  C4  UNL d   1       0.502  -2.540  -2.189  0.00  0.00    -0.005 A 
ATOM      6  C5  UNL d   1      -0.355  -3.607  -1.930  0.00  0.00     0.003 A 
ATOM      7  C6  UNL d   1      -1.623  -3.372  -1.395  0.00  0.00    -0.001 A 
ENDROOT
TORSDOF 0
ENDMDL
