MODEL 1
REMARK minimizedAffinity 1.79578948
REMARK minimizedRMSD -1
REMARK  0 active torsions:
REMARK  status: ('A' for Active; 'I' for Inactive)
ROOT
ATOM      1  C   UNL d   1       5.665   5.337   5.852  0.00  0.00     0.078 C 
ATOM      2  C1  UNL d   1       5.247   5.307   4.412  0.00  0.00    -0.077 A 
ATOM      3  C2  UNL d   1       5.995   4.605   3.458  0.00  0.00    -0.001 A 
ATOM      4  C3  UNL d   1       5.599   4.593   2.120  0.00  0.00     0.003 A 
ATOM      5  C4  UNL d   1       4.456   5.283   1.722  0.00  0.00    -0.005 A 
ATOM      6  C5  UNL d   1       3.707   5.986   2.663  0.00  0.00     0.003 A 
ATOM      7  C6  UNL d   1       4.101   5.999   4.002  0.00  0.00    -0.001 A 
ENDROOT
TORSDOF 0
ENDMDL
