MODEL 1
REMARK minimizedAffinity 6.83661556
REMARK minimizedRMSD -1
REMARK  0 active torsions:
REMARK  status: ('A' for Active; 'I' for Inactive)
ROOT
ATOM      1  C   UNL d   1       5.996  -5.321   5.918  0.00  0.00     0.078 C 
ATOM      2  C1  UNL d   1       5.048  -5.471   4.765  0.00  0.00    -0.077 A 
ATOM      3  C2  UNL d   1       5.508  -5.852   3.498  0.00  0.00    -0.001 A 
ATOM      4  C3  UNL d   1       4.616  -5.978   2.432  0.00  0.00     0.003 A 
ATOM      5  C4  UNL d   1       3.259  -5.723   2.621  0.00  0.00    -0.005 A 
ATOM      6  C5  UNL d   1       2.793  -5.341   3.877  0.00  0.00     0.003 A 
ATOM      7  C6  UNL d   1       3.683  -5.214   4.945  0.00  0.00    -0.001 A 
ENDROOT
TORSDOF 0
ENDMDL
