MODEL 1
REMARK minimizedAffinity 3.04142714
REMARK minimizedRMSD -1
REMARK  0 active torsions:
REMARK  status: ('A' for Active; 'I' for Inactive)
ROOT
ATOM      1  C   UNL d   1      -3.659  -1.807   0.624  0.00  0.00     0.078 C 
ATOM      2  C1  UNL d   1      -3.041  -0.765   1.508  0.00  0.00    -0.077 A 
ATOM      3  C2  UNL d   1      -3.365  -0.688   2.868  0.00  0.00    -0.001 A 
ATOM      4  C3  UNL d   1      -2.788   0.292   3.677  0.00  0.00     0.003 A 
ATOM      5  C4  UNL d   1      -1.885   1.205   3.135  0.00  0.00    -0.005 A 
ATOM      6  C5  UNL d   1      -1.558   1.137   1.782  0.00  0.00     0.003 A 
ATOM      7  C6  UNL d   1      -2.134   0.157   0.972  0.00  0.00    -0.001 A 
ENDROOT
TORSDOF 0
ENDMDL
