MODEL 1
REMARK minimizedAffinity 5.11951113
REMARK minimizedRMSD -1
REMARK  0 active torsions:
REMARK  status: ('A' for Active; 'I' for Inactive)
ROOT
ATOM      1  C   UNL d   1       1.952  -2.620  -1.127  0.00  0.00     0.078 C 
ATOM      2  C1  UNL d   1       1.232  -1.371  -1.539  0.00  0.00    -0.077 A 
ATOM      3  C2  UNL d   1       1.902  -0.341  -2.211  0.00  0.00    -0.001 A 
ATOM      4  C3  UNL d   1       1.221   0.820  -2.581  0.00  0.00     0.003 A 
ATOM      5  C4  UNL d   1      -0.133   0.963  -2.282  0.00  0.00    -0.005 A 
ATOM      6  C5  UNL d   1      -0.807  -0.056  -1.612  0.00  0.00     0.003 A 
ATOM      7  C6  UNL d   1      -0.128  -1.218  -1.242  0.00  0.00    -0.001 A 
ENDROOT
TORSDOF 0
ENDMDL
