MODEL 1
REMARK minimizedAffinity 1.68356323
REMARK minimizedRMSD -1
REMARK  0 active torsions:
REMARK  status: ('A' for Active; 'I' for Inactive)
ROOT
ATOM      1  C   UNL d   1       5.547   5.346   4.666  0.00  0.00     0.078 C 
ATOM      2  C1  UNL d   1       5.119   5.418   3.230  0.00  0.00    -0.077 A 
ATOM      3  C2  UNL d   1       5.978   5.017   2.200  0.00  0.00    -0.001 A 
ATOM      4  C3  UNL d   1       5.570   5.099   0.868  0.00  0.00     0.003 A 
ATOM      5  C4  UNL d   1       4.302   5.583   0.554  0.00  0.00    -0.005 A 
ATOM      6  C5  UNL d   1       3.441   5.987   1.572  0.00  0.00     0.003 A 
ATOM      7  C6  UNL d   1       3.847   5.905   2.905  0.00  0.00    -0.001 A 
ENDROOT
TORSDOF 0
ENDMDL
