MODEL 1
REMARK minimizedAffinity 9.01769543
REMARK minimizedRMSD -1
REMARK  0 active torsions:
REMARK  status: ('A' for Active; 'I' for Inactive)
ROOT
ATOM      1  C   UNL d   1       1.762  -5.209   1.630  0.00  0.00     0.078 C 
ATOM      2  C1  UNL d   1       0.989  -4.381   0.647  0.00  0.00    -0.077 A 
ATOM      3  C2  UNL d   1      -0.401  -4.246   0.753  0.00  0.00    -0.001 A 
ATOM      4  C3  UNL d   1      -1.108  -3.480  -0.174  0.00  0.00     0.003 A 
ATOM      5  C4  UNL d   1      -0.435  -2.844  -1.216  0.00  0.00    -0.005 A 
ATOM      6  C5  UNL d   1       0.947  -2.975  -1.331  0.00  0.00     0.003 A 
ATOM      7  C6  UNL d   1       1.656  -3.740  -0.404  0.00  0.00    -0.001 A 
ENDROOT
TORSDOF 0
ENDMDL
