MODEL 1
REMARK minimizedAffinity 3.63795328
REMARK minimizedRMSD -1
REMARK  2 active torsions:
REMARK  status: ('A' for Active; 'I' for Inactive)
REMARK    1  A    between atoms: C1_2  and  C2_3 
REMARK    2  A    between atoms: C2_3  and  C3_4 
ROOT
ATOM      1  C3  UNL d   1       3.440   1.032  -0.272  0.00  0.00    -0.075 A 
ATOM      2  C4  UNL d   1       4.047   1.410   0.935  0.00  0.00     0.002 A 
ATOM      3  C5  UNL d   1       5.184   2.219   0.932  0.00  0.00     0.002 A 
ATOM      4  C6  UNL d   1       5.732   2.651  -0.274  0.00  0.00    -0.004 A 
ATOM      5  C7  UNL d   1       5.147   2.268  -1.478  0.00  0.00     0.002 A 
ATOM      6  C8  UNL d   1       4.007   1.462  -1.479  0.00  0.00     0.002 A 
ENDROOT
BRANCH   1   7
ATOM      7  C2  UNL d   1       2.193   0.181  -0.275  0.00  0.00     0.056 C 
BRANCH   7   8
ATOM      8  C1  UNL d   1       2.459  -1.317  -0.086  0.00  0.00     0.007 C 
ATOM      9  C   UNL d   1       2.088  -2.151  -1.305  0.00  0.00     0.009 C 
ENDBRANCH   7   8
ENDBRANCH   1   7
TORSDOF 2
ENDMDL
