MODEL 1
REMARK minimizedAffinity 10.2117558
REMARK minimizedRMSD -1
REMARK  2 active torsions:
REMARK  status: ('A' for Active; 'I' for Inactive)
REMARK    1  A    between atoms: C1_2  and  C2_3 
REMARK    2  A    between atoms: C2_3  and  C3_4 
ROOT
ATOM      1  C3  UNL d   1      -1.500  -5.492   3.537  0.00  0.00    -0.075 A 
ATOM      2  C4  UNL d   1      -2.010  -5.996   4.743  0.00  0.00     0.002 A 
ATOM      3  C5  UNL d   1      -1.551  -5.506   5.966  0.00  0.00     0.002 A 
ATOM      4  C6  UNL d   1      -0.572  -4.516   6.000  0.00  0.00    -0.004 A 
ATOM      5  C7  UNL d   1      -0.046  -4.020   4.809  0.00  0.00     0.002 A 
ATOM      6  C8  UNL d   1      -0.506  -4.506   3.584  0.00  0.00     0.002 A 
ENDROOT
BRANCH   1   7
ATOM      7  C2  UNL d   1      -2.013  -5.997   2.210  0.00  0.00     0.056 C 
BRANCH   7   8
ATOM      8  C1  UNL d   1      -1.212  -5.501   1.002  0.00  0.00     0.007 C 
ATOM      9  C   UNL d   1      -1.773  -5.983  -0.329  0.00  0.00     0.009 C 
ENDBRANCH   7   8
ENDBRANCH   1   7
TORSDOF 2
ENDMDL
