MODEL 1
REMARK minimizedAffinity 11.4364815
REMARK minimizedRMSD -1
REMARK  2 active torsions:
REMARK  status: ('A' for Active; 'I' for Inactive)
REMARK    1  A    between atoms: C1_2  and  C2_3 
REMARK    2  A    between atoms: C2_3  and  C3_4 
ROOT
ATOM      1  C3  UNL d   1       4.724   2.694  -3.347  0.00  0.00    -0.075 A 
ATOM      2  C4  UNL d   1       5.688   3.640  -3.725  0.00  0.00     0.002 A 
ATOM      3  C5  UNL d   1       5.794   4.853  -3.044  0.00  0.00     0.002 A 
ATOM      4  C6  UNL d   1       4.934   5.140  -1.987  0.00  0.00    -0.004 A 
ATOM      5  C7  UNL d   1       3.962   4.214  -1.613  0.00  0.00     0.002 A 
ATOM      6  C8  UNL d   1       3.856   2.998  -2.289  0.00  0.00     0.002 A 
ENDROOT
BRANCH   1   7
ATOM      7  C2  UNL d   1       4.623   1.367  -4.060  0.00  0.00     0.056 C 
BRANCH   7   8
ATOM      8  C1  UNL d   1       5.973   0.787  -4.495  0.00  0.00     0.007 C 
ATOM      9  C   UNL d   1       5.998   0.353  -5.954  0.00  0.00     0.009 C 
ENDBRANCH   7   8
ENDBRANCH   1   7
TORSDOF 2
ENDMDL
