MODEL 1
REMARK minimizedAffinity 15.6747932
REMARK minimizedRMSD -1
REMARK  2 active torsions:
REMARK  status: ('A' for Active; 'I' for Inactive)
REMARK    1  A    between atoms: C1_2  and  C2_3 
REMARK    2  A    between atoms: C2_3  and  C3_4 
ROOT
ATOM      1  C3  UNL d   1       2.709  -0.276  -2.675  0.00  0.00    -0.075 A 
ATOM      2  C4  UNL d   1       2.367   0.272  -1.431  0.00  0.00     0.002 A 
ATOM      3  C5  UNL d   1       2.896   1.499  -1.028  0.00  0.00     0.002 A 
ATOM      4  C6  UNL d   1       3.780   2.186  -1.857  0.00  0.00    -0.004 A 
ATOM      5  C7  UNL d   1       4.140   1.642  -3.088  0.00  0.00     0.002 A 
ATOM      6  C8  UNL d   1       3.609   0.417  -3.496  0.00  0.00     0.002 A 
ENDROOT
BRANCH   1   7
ATOM      7  C2  UNL d   1       2.117  -1.589  -3.130  0.00  0.00     0.056 C 
BRANCH   7   8
ATOM      8  C1  UNL d   1       2.694  -2.815  -2.414  0.00  0.00     0.007 C 
ATOM      9  C   UNL d   1       1.969  -3.148  -1.117  0.00  0.00     0.009 C 
ENDBRANCH   7   8
ENDBRANCH   1   7
TORSDOF 2
ENDMDL
