MODEL 1
REMARK minimizedAffinity 6.80912304
REMARK minimizedRMSD -1
REMARK  2 active torsions:
REMARK  status: ('A' for Active; 'I' for Inactive)
REMARK    1  A    between atoms: C1_2  and  C2_3 
REMARK    2  A    between atoms: C2_3  and  C3_4 
ROOT
ATOM      1  C3  UNL d   1      -4.667   3.913   2.181  0.00  0.00    -0.075 A 
ATOM      2  C4  UNL d   1      -3.510   4.273   2.888  0.00  0.00     0.002 A 
ATOM      3  C5  UNL d   1      -3.599   4.747   4.198  0.00  0.00     0.002 A 
ATOM      4  C6  UNL d   1      -4.843   4.876   4.811  0.00  0.00    -0.004 A 
ATOM      5  C7  UNL d   1      -6.000   4.537   4.113  0.00  0.00     0.002 A 
ATOM      6  C8  UNL d   1      -5.913   4.059   2.804  0.00  0.00     0.002 A 
ENDROOT
BRANCH   1   7
ATOM      7  C2  UNL d   1      -4.575   3.372   0.774  0.00  0.00     0.056 C 
BRANCH   7   8
ATOM      8  C1  UNL d   1      -3.973   1.965   0.685  0.00  0.00     0.007 C 
ATOM      9  C   UNL d   1      -4.628   1.099  -0.382  0.00  0.00     0.009 C 
ENDBRANCH   7   8
ENDBRANCH   1   7
TORSDOF 2
ENDMDL
