MODEL 1
REMARK minimizedAffinity 0.65692389
REMARK minimizedRMSD -1
REMARK  2 active torsions:
REMARK  status: ('A' for Active; 'I' for Inactive)
REMARK    1  A    between atoms: C1_2  and  C2_3 
REMARK    2  A    between atoms: C2_3  and  C3_4 
ROOT
ATOM      1  C3  UNL d   1      -5.441   2.041  -2.207  0.00  0.00    -0.075 A 
ATOM      2  C4  UNL d   1      -5.069   3.163  -1.452  0.00  0.00     0.002 A 
ATOM      3  C5  UNL d   1      -4.528   3.009  -0.175  0.00  0.00     0.002 A 
ATOM      4  C6  UNL d   1      -4.362   1.736   0.366  0.00  0.00    -0.004 A 
ATOM      5  C7  UNL d   1      -4.743   0.616  -0.369  0.00  0.00     0.002 A 
ATOM      6  C8  UNL d   1      -5.281   0.766  -1.648  0.00  0.00     0.002 A 
ENDROOT
BRANCH   1   7
ATOM      7  C2  UNL d   1      -6.000   2.200  -3.601  0.00  0.00     0.056 C 
BRANCH   7   8
ATOM      8  C1  UNL d   1      -5.998   0.907  -4.424  0.00  0.00     0.007 C 
ATOM      9  C   UNL d   1      -5.983   1.153  -5.927  0.00  0.00     0.009 C 
ENDBRANCH   7   8
ENDBRANCH   1   7
TORSDOF 2
ENDMDL
