MODEL 1
REMARK minimizedAffinity -0.711374223
REMARK minimizedRMSD -1
REMARK  0 active torsions:
REMARK  status: ('A' for Active; 'I' for Inactive)
ROOT
ATOM      1  C1  BNZ d   1       2.553  -2.896   4.906  0.00  0.00     0.000 A 
ATOM      2  C2  BNZ d   1       2.631  -1.683   4.276  0.00  0.00     0.000 A 
ATOM      3  C3  BNZ d   1       1.871  -1.418   3.171  0.00  0.00     0.000 A 
ATOM      4  C4  BNZ d   1       1.066  -2.379   2.674  0.00  0.00     0.000 A 
ATOM      5  C5  BNZ d   1       0.984  -3.611   3.292  0.00  0.00     0.000 A 
ATOM      6  C6  BNZ d   1       1.721  -3.860   4.427  0.00  0.00     0.000 A 
ENDROOT
TORSDOF 0
ENDMDL
