MODEL 1
REMARK minimizedAffinity 5.57065582
REMARK minimizedRMSD -1
REMARK  0 active torsions:
REMARK  status: ('A' for Active; 'I' for Inactive)
ROOT
ATOM      1  C1  BNZ d   1      -4.787  -3.662  -1.677  0.00  0.00     0.000 A 
ATOM      2  C2  BNZ d   1      -3.699  -3.074  -2.264  0.00  0.00     0.000 A 
ATOM      3  C3  BNZ d   1      -3.737  -1.765  -2.656  0.00  0.00     0.000 A 
ATOM      4  C4  BNZ d   1      -4.874  -1.058  -2.497  0.00  0.00     0.000 A 
ATOM      5  C5  BNZ d   1      -5.983  -1.639  -1.915  0.00  0.00     0.000 A 
ATOM      6  C6  BNZ d   1      -5.929  -2.945  -1.486  0.00  0.00     0.000 A 
ENDROOT
TORSDOF 0
ENDMDL
