MODEL 1
REMARK minimizedAffinity 5.68988609
REMARK minimizedRMSD -1
REMARK  0 active torsions:
REMARK  status: ('A' for Active; 'I' for Inactive)
ROOT
ATOM      1  C1  BNZ d   1       3.987  -3.089   3.647  0.00  0.00     0.000 A 
ATOM      2  C2  BNZ d   1       5.283  -2.647   3.634  0.00  0.00     0.000 A 
ATOM      3  C3  BNZ d   1       5.998  -2.542   4.795  0.00  0.00     0.000 A 
ATOM      4  C4  BNZ d   1       5.404  -2.838   5.969  0.00  0.00     0.000 A 
ATOM      5  C5  BNZ d   1       4.095  -3.275   5.999  0.00  0.00     0.000 A 
ATOM      6  C6  BNZ d   1       3.391  -3.418   4.825  0.00  0.00     0.000 A 
ENDROOT
TORSDOF 0
ENDMDL
