MODEL 1
REMARK minimizedAffinity 4.13221884
REMARK minimizedRMSD -1
REMARK  0 active torsions:
REMARK  status: ('A' for Active; 'I' for Inactive)
ROOT
ATOM      1  C1  BNZ d   1       2.728  -5.976  -3.994  0.00  0.00     0.000 A 
ATOM      2  C2  BNZ d   1       2.670  -5.970  -2.626  0.00  0.00     0.000 A 
ATOM      3  C3  BNZ d   1       3.813  -5.949  -1.877  0.00  0.00     0.000 A 
ATOM      4  C4  BNZ d   1       5.011  -5.975  -2.495  0.00  0.00     0.000 A 
ATOM      5  C5  BNZ d   1       5.087  -5.991  -3.874  0.00  0.00     0.000 A 
ATOM      6  C6  BNZ d   1       3.934  -5.973  -4.625  0.00  0.00     0.000 A 
ENDROOT
TORSDOF 0
ENDMDL
