MODEL 1
REMARK minimizedAffinity 1.4171983
REMARK minimizedRMSD -1
REMARK  0 active torsions:
REMARK  status: ('A' for Active; 'I' for Inactive)
ROOT
ATOM      1  C1  BNZ d   1       2.956  -5.995  -4.105  0.00  0.00     0.000 A 
ATOM      2  C2  BNZ d   1       2.598  -5.943  -2.784  0.00  0.00     0.000 A 
ATOM      3  C3  BNZ d   1       3.549  -5.885  -1.804  0.00  0.00     0.000 A 
ATOM      4  C4  BNZ d   1       4.854  -5.919  -2.142  0.00  0.00     0.000 A 
ATOM      5  C5  BNZ d   1       5.230  -5.981  -3.469  0.00  0.00     0.000 A 
ATOM      6  C6  BNZ d   1       4.271  -6.000  -4.455  0.00  0.00     0.000 A 
ENDROOT
TORSDOF 0
ENDMDL
