MODEL 1
REMARK minimizedAffinity 3.42203474
REMARK minimizedRMSD -1
REMARK  0 active torsions:
REMARK  status: ('A' for Active; 'I' for Inactive)
ROOT
ATOM      1  C1  BNZ d   1       4.402  -3.300   4.106  0.00  0.00     0.000 A 
ATOM      2  C2  BNZ d   1       3.757  -2.189   3.632  0.00  0.00     0.000 A 
ATOM      3  C3  BNZ d   1       2.438  -2.242   3.279  0.00  0.00     0.000 A 
ATOM      4  C4  BNZ d   1       1.777  -3.415   3.362  0.00  0.00     0.000 A 
ATOM      5  C5  BNZ d   1       2.415  -4.546   3.830  0.00  0.00     0.000 A 
ATOM      6  C6  BNZ d   1       3.733  -4.479   4.221  0.00  0.00     0.000 A 
ENDROOT
TORSDOF 0
ENDMDL
