MODEL 1
REMARK minimizedAffinity 6.03490973
REMARK minimizedRMSD -1
REMARK  0 active torsions:
REMARK  status: ('A' for Active; 'I' for Inactive)
ROOT
ATOM      1  C1  BNZ d   1       2.088  -4.498   2.989  0.00  0.00     0.000 A 
ATOM      2  C2  BNZ d   1       1.354  -3.599   2.262  0.00  0.00     0.000 A 
ATOM      3  C3  BNZ d   1       1.587  -2.256   2.369  0.00  0.00     0.000 A 
ATOM      4  C4  BNZ d   1       2.524  -1.812   3.232  0.00  0.00     0.000 A 
ATOM      5  C5  BNZ d   1       3.265  -2.706   3.979  0.00  0.00     0.000 A 
ATOM      6  C6  BNZ d   1       3.055  -4.059   3.840  0.00  0.00     0.000 A 
ENDROOT
TORSDOF 0
ENDMDL
