MODEL 1
REMARK minimizedAffinity 0.345276415
REMARK minimizedRMSD -1
REMARK  0 active torsions:
REMARK  status: ('A' for Active; 'I' for Inactive)
ROOT
ATOM      1  C1  BNZ d   1       1.666  -1.765   2.748  0.00  0.00     0.000 A 
ATOM      2  C2  BNZ d   1       0.682  -2.678   3.018  0.00  0.00     0.000 A 
ATOM      3  C3  BNZ d   1       0.968  -3.839   3.681  0.00  0.00     0.000 A 
ATOM      4  C4  BNZ d   1       2.242  -4.103   4.036  0.00  0.00     0.000 A 
ATOM      5  C5  BNZ d   1       3.246  -3.197   3.762  0.00  0.00     0.000 A 
ATOM      6  C6  BNZ d   1       2.949  -2.011   3.130  0.00  0.00     0.000 A 
ENDROOT
TORSDOF 0
ENDMDL
