MODEL 1
REMARK minimizedAffinity -2.10048723
REMARK minimizedRMSD -1
REMARK  0 active torsions:
REMARK  status: ('A' for Active; 'I' for Inactive)
ROOT
ATOM      1  C1  BNZ d   1       5.192  -5.938  -4.549  0.00  0.00     0.000 A 
ATOM      2  C2  BNZ d   1       4.783  -5.945  -3.242  0.00  0.00     0.000 A 
ATOM      3  C3  BNZ d   1       3.454  -5.996  -2.925  0.00  0.00     0.000 A 
ATOM      4  C4  BNZ d   1       2.537  -6.000  -3.913  0.00  0.00     0.000 A 
ATOM      5  C5  BNZ d   1       2.933  -5.983  -5.236  0.00  0.00     0.000 A 
ATOM      6  C6  BNZ d   1       4.272  -5.971  -5.552  0.00  0.00     0.000 A 
ENDROOT
TORSDOF 0
ENDMDL
