MODEL 1
REMARK minimizedAffinity -5.51027727
REMARK minimizedRMSD -1
REMARK  0 active torsions:
REMARK  status: ('A' for Active; 'I' for Inactive)
ROOT
ATOM      1  C1  DEN d   1      -1.394   1.867   0.960  0.00  0.00     0.130 A 
ATOM      2  C2  DEN d   1      -0.414   2.291  -0.036  0.00  0.00    -0.031 A 
ATOM      3  C3  DEN d   1       0.347   1.100  -0.464  0.00  0.00     0.027 A 
ATOM      4  C4  DEN d   1       0.100  -1.348   0.311  0.00  0.00     0.027 A 
ATOM      5  C5  DEN d   1      -0.589  -2.195   1.150  0.00  0.00    -0.003 A 
ATOM      6  C6  DEN d   1      -1.562  -1.747   2.002  0.00  0.00     0.001 A 
ATOM      7  C7  DEN d   1      -1.907  -0.421   2.002  0.00  0.00     0.017 A 
ATOM      8  C8  DEN d   1      -1.212   0.441   1.164  0.00  0.00    -0.094 A 
ATOM      9  C9  DEN d   1      -0.239  -0.034   0.301  0.00  0.00    -0.072 A 
ENDROOT
TORSDOF 0
ENDMDL
