MODEL 1
REMARK minimizedAffinity -1.0285368
REMARK minimizedRMSD -1
REMARK  0 active torsions:
REMARK  status: ('A' for Active; 'I' for Inactive)
ROOT
ATOM      1  C1  DEN d   1      -0.601   1.293   0.496  0.00  0.00     0.130 A 
ATOM      2  C2  DEN d   1       0.354   1.429  -0.600  0.00  0.00    -0.031 A 
ATOM      3  C3  DEN d   1       0.924   0.095  -0.877  0.00  0.00     0.027 A 
ATOM      4  C4  DEN d   1       0.420  -2.157   0.277  0.00  0.00     0.027 A 
ATOM      5  C5  DEN d   1      -0.312  -2.770   1.269  0.00  0.00    -0.003 A 
ATOM      6  C6  DEN d   1      -1.158  -2.073   2.089  0.00  0.00     0.001 A 
ATOM      7  C7  DEN d   1      -1.329  -0.726   1.902  0.00  0.00     0.017 A 
ATOM      8  C8  DEN d   1      -0.589  -0.099   0.908  0.00  0.00    -0.094 A 
ATOM      9  C9  DEN d   1       0.253  -0.824   0.081  0.00  0.00    -0.072 A 
ENDROOT
TORSDOF 0
ENDMDL
