MODEL 1
REMARK minimizedAffinity -1.36521304
REMARK minimizedRMSD -1
REMARK  0 active torsions:
REMARK  status: ('A' for Active; 'I' for Inactive)
ROOT
ATOM      1  C1  DEN d   1      -0.875   1.142   1.192  0.00  0.00     0.130 A 
ATOM      2  C2  DEN d   1       0.037   1.798   0.259  0.00  0.00    -0.031 A 
ATOM      3  C3  DEN d   1       0.751   0.748  -0.496  0.00  0.00     0.027 A 
ATOM      4  C4  DEN d   1       0.529  -1.816  -0.314  0.00  0.00     0.027 A 
ATOM      5  C5  DEN d   1      -0.109  -2.843   0.346  0.00  0.00    -0.003 A 
ATOM      6  C6  DEN d   1      -1.015  -2.617   1.348  0.00  0.00     0.001 A 
ATOM      7  C7  DEN d   1      -1.341  -1.331   1.690  0.00  0.00     0.017 A 
ATOM      8  C8  DEN d   1      -0.697  -0.290   1.035  0.00  0.00    -0.094 A 
ATOM      9  C9  DEN d   1       0.206  -0.539   0.016  0.00  0.00    -0.072 A 
ENDROOT
TORSDOF 0
ENDMDL
