MODEL 1
REMARK minimizedAffinity -5.31306648
REMARK minimizedRMSD -1
REMARK  0 active torsions:
REMARK  status: ('A' for Active; 'I' for Inactive)
ROOT
ATOM      1  C1  DEN d   1      -2.014  -1.262   0.750  0.00  0.00     0.130 A 
ATOM      2  C2  DEN d   1      -1.499  -2.625   0.849  0.00  0.00    -0.031 A 
ATOM      3  C3  DEN d   1      -0.030  -2.568   0.716  0.00  0.00     0.027 A 
ATOM      4  C4  DEN d   1       1.491  -0.513   0.375  0.00  0.00     0.027 A 
ATOM      5  C5  DEN d   1       1.510   0.855   0.219  0.00  0.00    -0.003 A 
ATOM      6  C6  DEN d   1       0.363   1.604   0.195  0.00  0.00     0.001 A 
ATOM      7  C7  DEN d   1      -0.850   0.993   0.375  0.00  0.00     0.017 A 
ATOM      8  C8  DEN d   1      -0.878  -0.387   0.525  0.00  0.00    -0.094 A 
ATOM      9  C9  DEN d   1       0.293  -1.125   0.559  0.00  0.00    -0.072 A 
ENDROOT
TORSDOF 0
ENDMDL
