MODEL 1
REMARK minimizedAffinity -5.89159966
REMARK minimizedRMSD -1
REMARK  0 active torsions:
REMARK  status: ('A' for Active; 'I' for Inactive)
ROOT
ATOM      1  C1  DEN d   1      -2.311  -0.579   0.753  0.00  0.00     0.130 A 
ATOM      2  C2  DEN d   1      -2.242  -2.015   1.009  0.00  0.00    -0.031 A 
ATOM      3  C3  DEN d   1      -0.886  -2.478   0.649  0.00  0.00     0.027 A 
ATOM      4  C4  DEN d   1       1.103  -1.117  -0.269  0.00  0.00     0.027 A 
ATOM      5  C5  DEN d   1       1.520   0.136  -0.661  0.00  0.00    -0.003 A 
ATOM      6  C6  DEN d   1       0.687   1.222  -0.642  0.00  0.00     0.001 A 
ATOM      7  C7  DEN d   1      -0.595   1.086  -0.179  0.00  0.00     0.017 A 
ATOM      8  C8  DEN d   1      -1.026  -0.175   0.212  0.00  0.00    -0.094 A 
ATOM      9  C9  DEN d   1      -0.164  -1.259   0.197  0.00  0.00    -0.072 A 
ENDROOT
TORSDOF 0
ENDMDL
