MODEL 1
REMARK minimizedAffinity -2.15000725
REMARK minimizedRMSD -1
REMARK  0 active torsions:
REMARK  status: ('A' for Active; 'I' for Inactive)
ROOT
ATOM      1  C1  DEN d   1       1.552   0.374  -3.098  0.00  0.00     0.130 A 
ATOM      2  C2  DEN d   1       1.086   1.681  -3.554  0.00  0.00    -0.031 A 
ATOM      3  C3  DEN d   1       0.204   2.241  -2.510  0.00  0.00     0.027 A 
ATOM      4  C4  DEN d   1      -0.478   1.220  -0.242  0.00  0.00     0.027 A 
ATOM      5  C5  DEN d   1      -0.343   0.124   0.581  0.00  0.00    -0.003 A 
ATOM      6  C6  DEN d   1       0.399  -0.971   0.224  0.00  0.00     0.001 A 
ATOM      7  C7  DEN d   1       1.072  -0.975  -0.969  0.00  0.00     0.017 A 
ATOM      8  C8  DEN d   1       0.935   0.123  -1.807  0.00  0.00    -0.094 A 
ATOM      9  C9  DEN d   1       0.191   1.225  -1.423  0.00  0.00    -0.072 A 
ENDROOT
TORSDOF 0
ENDMDL
