MODEL 1
REMARK minimizedAffinity 1.48154342
REMARK minimizedRMSD -1
REMARK  0 active torsions:
REMARK  status: ('A' for Active; 'I' for Inactive)
ROOT
ATOM      1  C1  DEN d   1       1.004   2.576  -4.892  0.00  0.00     0.130 A 
ATOM      2  C2  DEN d   1      -0.028   2.215  -3.924  0.00  0.00    -0.031 A 
ATOM      3  C3  DEN d   1       0.632   1.960  -2.627  0.00  0.00     0.027 A 
ATOM      4  C4  DEN d   1       3.136   2.094  -2.027  0.00  0.00     0.027 A 
ATOM      5  C5  DEN d   1       4.397   2.350  -2.521  0.00  0.00    -0.003 A 
ATOM      6  C6  DEN d   1       4.616   2.663  -3.836  0.00  0.00     0.001 A 
ATOM      7  C7  DEN d   1       3.554   2.773  -4.694  0.00  0.00     0.017 A 
ATOM      8  C8  DEN d   1       2.281   2.509  -4.206  0.00  0.00    -0.094 A 
ATOM      9  C9  DEN d   1       2.079   2.207  -2.870  0.00  0.00    -0.072 A 
ENDROOT
TORSDOF 0
ENDMDL
