MODEL 1
REMARK minimizedAffinity 0.33051616
REMARK minimizedRMSD -1
REMARK  0 active torsions:
REMARK  status: ('A' for Active; 'I' for Inactive)
ROOT
ATOM      1  C1  DEN d   1       2.069  -1.228  -0.136  0.00  0.00     0.130 A 
ATOM      2  C2  DEN d   1       2.127   0.083  -0.776  0.00  0.00    -0.031 A 
ATOM      3  C3  DEN d   1       0.859   0.786  -0.494  0.00  0.00     0.027 A 
ATOM      4  C4  DEN d   1      -1.176  -0.024   0.869  0.00  0.00     0.027 A 
ATOM      5  C5  DEN d   1      -1.695  -1.073   1.596  0.00  0.00    -0.003 A 
ATOM      6  C6  DEN d   1      -1.015  -2.250   1.766  0.00  0.00     0.001 A 
ATOM      7  C7  DEN d   1       0.242  -2.390   1.240  0.00  0.00     0.017 A 
ATOM      8  C8  DEN d   1       0.769  -1.340   0.500  0.00  0.00    -0.094 A 
ATOM      9  C9  DEN d   1       0.071  -0.154   0.350  0.00  0.00    -0.072 A 
ENDROOT
TORSDOF 0
ENDMDL
