MODEL 1
REMARK minimizedAffinity -5.71763229
REMARK minimizedRMSD -1
REMARK  0 active torsions:
REMARK  status: ('A' for Active; 'I' for Inactive)
ROOT
ATOM      1  C1  DEN d   1       0.869   0.567  -0.284  0.00  0.00     0.130 A 
ATOM      2  C2  DEN d   1       0.136   1.831  -0.271  0.00  0.00    -0.031 A 
ATOM      3  C3  DEN d   1      -1.219   1.567   0.253  0.00  0.00     0.027 A 
ATOM      4  C4  DEN d   1      -2.247  -0.663   1.045  0.00  0.00     0.027 A 
ATOM      5  C5  DEN d   1      -2.014  -2.010   1.210  0.00  0.00    -0.003 A 
ATOM      6  C6  DEN d   1      -0.825  -2.594   0.861  0.00  0.00     0.001 A 
ATOM      7  C7  DEN d   1       0.192  -1.820   0.369  0.00  0.00     0.017 A 
ATOM      8  C8  DEN d   1      -0.038  -0.462   0.192  0.00  0.00    -0.094 A 
ATOM      9  C9  DEN d   1      -1.242   0.112   0.563  0.00  0.00    -0.072 A 
ENDROOT
TORSDOF 0
ENDMDL
