MODEL 1
REMARK minimizedAffinity 0.0257411748
REMARK minimizedRMSD -1
REMARK  0 active torsions:
REMARK  status: ('A' for Active; 'I' for Inactive)
ROOT
ATOM      1  C1  DEN d   1      -1.893   1.079   0.834  0.00  0.00     0.130 A 
ATOM      2  C2  DEN d   1      -1.203   2.345   0.599  0.00  0.00    -0.031 A 
ATOM      3  C3  DEN d   1       0.167   2.039   0.138  0.00  0.00     0.027 A 
ATOM      4  C4  DEN d   1       1.278  -0.258  -0.235  0.00  0.00     0.027 A 
ATOM      5  C5  DEN d   1       1.093  -1.621  -0.157  0.00  0.00    -0.003 A 
ATOM      6  C6  DEN d   1      -0.079  -2.174   0.285  0.00  0.00     0.001 A 
ATOM      7  C7  DEN d   1      -1.128  -1.361   0.624  0.00  0.00     0.017 A 
ATOM      8  C8  DEN d   1      -0.946   0.014   0.556  0.00  0.00    -0.094 A 
ATOM      9  C9  DEN d   1       0.242   0.554   0.094  0.00  0.00    -0.072 A 
ENDROOT
TORSDOF 0
ENDMDL
