MODEL 1
REMARK minimizedAffinity -4.76869297
REMARK minimizedRMSD -1
REMARK  0 active torsions:
REMARK  status: ('A' for Active; 'I' for Inactive)
ROOT
ATOM      1  C1  DEN d   1       1.244  -0.364   0.050  0.00  0.00     0.130 A 
ATOM      2  C2  DEN d   1       0.838   1.019  -0.187  0.00  0.00    -0.031 A 
ATOM      3  C3  DEN d   1      -0.620   1.111   0.031  0.00  0.00     0.027 A 
ATOM      4  C4  DEN d   1      -2.278  -0.743   0.715  0.00  0.00     0.027 A 
ATOM      5  C5  DEN d   1      -2.404  -2.080   1.018  0.00  0.00    -0.003 A 
ATOM      6  C6  DEN d   1      -1.337  -2.940   0.987  0.00  0.00     0.001 A 
ATOM      7  C7  DEN d   1      -0.089  -2.461   0.689  0.00  0.00     0.017 A 
ATOM      8  C8  DEN d   1       0.045  -1.115   0.375  0.00  0.00    -0.094 A 
ATOM      9  C9  DEN d   1      -1.043  -0.260   0.424  0.00  0.00    -0.072 A 
ENDROOT
TORSDOF 0
ENDMDL
