MODEL 1
REMARK minimizedAffinity -2.03508544
REMARK minimizedRMSD -1
REMARK  0 active torsions:
REMARK  status: ('A' for Active; 'I' for Inactive)
ROOT
ATOM      1  C1  DEN d   1      -0.752  -1.684   1.813  0.00  0.00     0.130 A 
ATOM      2  C2  DEN d   1       0.218  -2.505   1.094  0.00  0.00    -0.031 A 
ATOM      3  C3  DEN d   1       0.865  -1.658   0.071  0.00  0.00     0.027 A 
ATOM      4  C4  DEN d   1       0.464   0.833  -0.463  0.00  0.00     0.027 A 
ATOM      5  C5  DEN d   1      -0.271   1.949  -0.127  0.00  0.00    -0.003 A 
ATOM      6  C6  DEN d   1      -1.234   1.923   0.847  0.00  0.00     0.001 A 
ATOM      7  C7  DEN d   1      -1.456   0.770   1.552  0.00  0.00     0.017 A 
ATOM      8  C8  DEN d   1      -0.724  -0.361   1.214  0.00  0.00    -0.094 A 
ATOM      9  C9  DEN d   1       0.253  -0.312   0.235  0.00  0.00    -0.072 A 
ENDROOT
TORSDOF 0
ENDMDL
