MODEL 1
REMARK minimizedAffinity -3.95000696
REMARK minimizedRMSD -1
REMARK  0 active torsions:
REMARK  status: ('A' for Active; 'I' for Inactive)
ROOT
ATOM      1  C1  DEN d   1      -1.855  -0.627   1.183  0.00  0.00     0.130 A 
ATOM      2  C2  DEN d   1      -1.462  -1.941   1.684  0.00  0.00    -0.031 A 
ATOM      3  C3  DEN d   1      -0.103  -2.231   1.186  0.00  0.00     0.027 A 
ATOM      4  C4  DEN d   1       1.425  -0.779  -0.301  0.00  0.00     0.027 A 
ATOM      5  C5  DEN d   1       1.521   0.412  -0.986  0.00  0.00    -0.003 A 
ATOM      6  C6  DEN d   1       0.495   1.318  -1.023  0.00  0.00     0.001 A 
ATOM      7  C7  DEN d   1      -0.657   1.068  -0.326  0.00  0.00     0.017 A 
ATOM      8  C8  DEN d   1      -0.765  -0.135   0.361  0.00  0.00    -0.094 A 
ATOM      9  C9  DEN d   1       0.289  -1.032   0.396  0.00  0.00    -0.072 A 
ENDROOT
TORSDOF 0
ENDMDL
