MODEL 1
REMARK minimizedAffinity -5.6999526
REMARK minimizedRMSD -1
REMARK  0 active torsions:
REMARK  status: ('A' for Active; 'I' for Inactive)
ROOT
ATOM      1  C1  DEN d   1       0.616  -0.518   0.080  0.00  0.00     0.130 A 
ATOM      2  C2  DEN d   1       0.567   0.924   0.306  0.00  0.00    -0.031 A 
ATOM      3  C3  DEN d   1      -0.673   1.227   1.050  0.00  0.00     0.027 A 
ATOM      4  C4  DEN d   1      -2.508  -0.388   1.872  0.00  0.00     0.027 A 
ATOM      5  C5  DEN d   1      -2.911  -1.705   1.906  0.00  0.00    -0.003 A 
ATOM      6  C6  DEN d   1      -2.191  -2.705   1.310  0.00  0.00     0.001 A 
ATOM      7  C7  DEN d   1      -1.004  -2.411   0.691  0.00  0.00     0.017 A 
ATOM      8  C8  DEN d   1      -0.594  -1.085   0.646  0.00  0.00    -0.094 A 
ATOM      9  C9  DEN d   1      -1.331  -0.090   1.266  0.00  0.00    -0.072 A 
ENDROOT
TORSDOF 0
ENDMDL
