MODEL 1
REMARK minimizedAffinity -0.676876545
REMARK minimizedRMSD -1
REMARK  0 active torsions:
REMARK  status: ('A' for Active; 'I' for Inactive)
ROOT
ATOM      1  C1  DEN d   1      -1.632   1.983   1.303  0.00  0.00     0.130 A 
ATOM      2  C2  DEN d   1      -3.037   1.588   1.339  0.00  0.00    -0.031 A 
ATOM      3  C3  DEN d   1      -3.137   0.206   0.828  0.00  0.00     0.027 A 
ATOM      4  C4  DEN d   1      -1.260  -1.354  -0.006  0.00  0.00     0.027 A 
ATOM      5  C5  DEN d   1       0.094  -1.458  -0.236  0.00  0.00    -0.003 A 
ATOM      6  C6  DEN d   1       0.956  -0.420  -0.003  0.00  0.00     0.001 A 
ATOM      7  C7  DEN d   1       0.480   0.754   0.517  0.00  0.00     0.017 A 
ATOM      8  C8  DEN d   1      -0.886   0.869   0.745  0.00  0.00    -0.094 A 
ATOM      9  C9  DEN d   1      -1.739  -0.196   0.514  0.00  0.00    -0.072 A 
ENDROOT
TORSDOF 0
ENDMDL
