MODEL 1
REMARK minimizedAffinity 6.77880573
REMARK minimizedRMSD -1
REMARK  0 active torsions:
REMARK  status: ('A' for Active; 'I' for Inactive)
ROOT
ATOM      1  C1  DEN d   1      -5.995  -0.421  -2.430  0.00  0.00     0.130 A 
ATOM      2  C2  DEN d   1      -5.304  -1.121  -1.350  0.00  0.00    -0.031 A 
ATOM      3  C3  DEN d   1      -4.468  -2.178  -1.954  0.00  0.00     0.027 A 
ATOM      4  C4  DEN d   1      -4.176  -2.794  -4.442  0.00  0.00     0.027 A 
ATOM      5  C5  DEN d   1      -4.567  -2.490  -5.727  0.00  0.00    -0.003 A 
ATOM      6  C6  DEN d   1      -5.480  -1.506  -5.998  0.00  0.00     0.001 A 
ATOM      7  C7  DEN d   1      -5.999  -0.759  -4.973  0.00  0.00     0.017 A 
ATOM      8  C8  DEN d   1      -5.615  -1.065  -3.674  0.00  0.00    -0.094 A 
ATOM      9  C9  DEN d   1      -4.681  -2.056  -3.421  0.00  0.00    -0.072 A 
ENDROOT
TORSDOF 0
ENDMDL
