MODEL 1
REMARK minimizedAffinity -5.06086111
REMARK minimizedRMSD -1
REMARK  1 active torsions:
REMARK  status: ('A' for Active; 'I' for Inactive)
REMARK    1  A    between atoms: C1_2  and  C2_3 
ROOT
ATOM      1  C2  UNL d   1       0.247  -0.016   0.341  0.00  0.00    -0.077 A 
ATOM      2  C3  UNL d   1       1.647  -0.047   0.415  0.00  0.00     0.002 A 
ATOM      3  C4  UNL d   1       2.283  -0.396   1.608  0.00  0.00     0.002 A 
ATOM      4  C5  UNL d   1       1.529  -0.721   2.733  0.00  0.00    -0.004 A 
ATOM      5  C6  UNL d   1       0.136  -0.691   2.670  0.00  0.00     0.002 A 
ATOM      6  C7  UNL d   1      -0.502  -0.341   1.479  0.00  0.00     0.002 A 
ENDROOT
BRANCH   1   7
ATOM      7  C1  UNL d   1      -0.441   0.313  -0.958  0.00  0.00     0.055 C 
ATOM      8  C   UNL d   1       0.152  -0.478  -2.115  0.00  0.00     0.019 C 
ENDBRANCH   1   7
TORSDOF 1
ENDMDL
