MODEL 1
REMARK minimizedAffinity -4.14547586
REMARK minimizedRMSD -1
REMARK  1 active torsions:
REMARK  status: ('A' for Active; 'I' for Inactive)
REMARK    1  A    between atoms: C1_2  and  C2_3 
ROOT
ATOM      1  C2  UNL d   1       1.038  -0.578   0.323  0.00  0.00    -0.077 A 
ATOM      2  C3  UNL d   1       2.068  -1.511   0.512  0.00  0.00     0.002 A 
ATOM      3  C4  UNL d   1       2.400  -1.945   1.797  0.00  0.00     0.002 A 
ATOM      4  C5  UNL d   1       1.706  -1.455   2.901  0.00  0.00    -0.004 A 
ATOM      5  C6  UNL d   1       0.682  -0.526   2.723  0.00  0.00     0.002 A 
ATOM      6  C7  UNL d   1       0.348  -0.090   1.440  0.00  0.00     0.002 A 
ENDROOT
BRANCH   1   7
ATOM      7  C1  UNL d   1       0.645  -0.147  -1.066  0.00  0.00     0.055 C 
ATOM      8  C   UNL d   1      -0.696   0.573  -1.063  0.00  0.00     0.019 C 
ENDBRANCH   1   7
TORSDOF 1
ENDMDL
