MODEL 1
REMARK minimizedAffinity -4.81108284
REMARK minimizedRMSD -1
REMARK  1 active torsions:
REMARK  status: ('A' for Active; 'I' for Inactive)
REMARK    1  A    between atoms: C1_2  and  C2_3 
ROOT
ATOM      1  C2  UNL d   1       0.391   0.066   0.687  0.00  0.00    -0.077 A 
ATOM      2  C3  UNL d   1      -0.281  -0.198   1.889  0.00  0.00     0.002 A 
ATOM      3  C4  UNL d   1       0.245  -1.111   2.805  0.00  0.00     0.002 A 
ATOM      4  C5  UNL d   1       1.445  -1.763   2.532  0.00  0.00    -0.004 A 
ATOM      5  C6  UNL d   1       2.120  -1.508   1.339  0.00  0.00     0.002 A 
ATOM      6  C7  UNL d   1       1.596  -0.597   0.421  0.00  0.00     0.002 A 
ENDROOT
BRANCH   1   7
ATOM      7  C1  UNL d   1      -0.148   1.087  -0.281  0.00  0.00     0.055 C 
ATOM      8  C   UNL d   1      -0.729   0.422  -1.520  0.00  0.00     0.019 C 
ENDBRANCH   1   7
TORSDOF 1
ENDMDL
