MODEL 1
REMARK minimizedAffinity -5.73825979
REMARK minimizedRMSD -1
REMARK  1 active torsions:
REMARK  status: ('A' for Active; 'I' for Inactive)
REMARK    1  A    between atoms: C1_2  and  C2_3 
ROOT
ATOM      1  C2  UNL d   1       0.706  -0.670   0.186  0.00  0.00    -0.077 A 
ATOM      2  C3  UNL d   1       1.907  -1.375   0.347  0.00  0.00     0.002 A 
ATOM      3  C4  UNL d   1       2.395  -1.655   1.625  0.00  0.00     0.002 A 
ATOM      4  C5  UNL d   1       1.687  -1.239   2.750  0.00  0.00    -0.004 A 
ATOM      5  C6  UNL d   1       0.492  -0.536   2.600  0.00  0.00     0.002 A 
ATOM      6  C7  UNL d   1       0.003  -0.254   1.324  0.00  0.00     0.002 A 
ENDROOT
BRANCH   1   7
ATOM      7  C1  UNL d   1       0.153  -0.409  -1.191  0.00  0.00     0.055 C 
ATOM      8  C   UNL d   1      -0.809   0.770  -1.187  0.00  0.00     0.019 C 
ENDBRANCH   1   7
TORSDOF 1
ENDMDL
