MODEL 1
REMARK minimizedAffinity -0.441995114
REMARK minimizedRMSD -1
REMARK  1 active torsions:
REMARK  status: ('A' for Active; 'I' for Inactive)
REMARK    1  A    between atoms: N_2  and  C1_3 
ROOT
ATOM      1  C1  UNL d   1       2.048   0.713  -4.178  0.00  0.00     0.143 A 
ATOM      2  C2  UNL d   1       2.034   1.395  -5.399  0.00  0.00    -0.057 A 
ATOM      3  C3  UNL d   1       1.540   2.702  -5.495  0.00  0.00     0.033 A 
ATOM      4  C4  UNL d   1       1.023   3.340  -4.373  0.00  0.00    -0.042 A 
ATOM      5  C5  UNL d   1       1.004   2.672  -3.154  0.00  0.00     0.033 A 
ATOM      6  C6  UNL d   1       1.505   1.370  -3.063  0.00  0.00    -0.057 A 
ENDROOT
BRANCH   1   7
ATOM      7  N   UNL d   1       2.435  -0.622  -4.037  0.00  0.00    -0.732 N 
ATOM      8  C   UNL d   1       1.442  -1.672  -3.947  0.00  0.00     0.284 C 
ATOM      9  H3  UNL d   1       3.237  -0.857  -4.617  0.00  0.00     0.395 HD
ENDBRANCH   1   7
TORSDOF 1
ENDMDL
