MODEL 1
REMARK minimizedAffinity -1.54476011
REMARK minimizedRMSD -1
REMARK  1 active torsions:
REMARK  status: ('A' for Active; 'I' for Inactive)
REMARK    1  A    between atoms: N_2  and  C1_3 
ROOT
ATOM      1  C1  UNL d   1       0.403   0.010  -1.999  0.00  0.00     0.143 A 
ATOM      2  C2  UNL d   1       1.544   0.445  -2.682  0.00  0.00    -0.057 A 
ATOM      3  C3  UNL d   1       1.911  -0.114  -3.912  0.00  0.00     0.033 A 
ATOM      4  C4  UNL d   1       1.157  -1.142  -4.468  0.00  0.00    -0.042 A 
ATOM      5  C5  UNL d   1       0.033  -1.608  -3.794  0.00  0.00     0.033 A 
ATOM      6  C6  UNL d   1      -0.332  -1.041  -2.570  0.00  0.00    -0.057 A 
ENDROOT
BRANCH   1   7
ATOM      7  N   UNL d   1       0.041   0.458  -0.726  0.00  0.00    -0.732 N 
ATOM      8  C   UNL d   1      -0.375  -0.480   0.295  0.00  0.00     0.284 C 
ATOM      9  H3  UNL d   1       0.651   1.198  -0.386  0.00  0.00     0.395 HD
ENDBRANCH   1   7
TORSDOF 1
ENDMDL
