MODEL 1
REMARK minimizedAffinity -2.89313364
REMARK minimizedRMSD -1
REMARK  1 active torsions:
REMARK  status: ('A' for Active; 'I' for Inactive)
REMARK    1  A    between atoms: N_2  and  C1_3 
ROOT
ATOM      1  C1  UNL d   1       0.108   0.142  -0.211  0.00  0.00     0.143 A 
ATOM      2  C2  UNL d   1       1.280   0.331   0.529  0.00  0.00    -0.057 A 
ATOM      3  C3  UNL d   1       1.316   0.086   1.907  0.00  0.00     0.033 A 
ATOM      4  C4  UNL d   1       0.169  -0.327   2.577  0.00  0.00    -0.042 A 
ATOM      5  C5  UNL d   1      -1.014  -0.498   1.865  0.00  0.00     0.033 A 
ATOM      6  C6  UNL d   1      -1.042  -0.258   0.488  0.00  0.00    -0.057 A 
ENDROOT
BRANCH   1   7
ATOM      7  N   UNL d   1      -0.017   0.463  -1.565  0.00  0.00    -0.732 N 
ATOM      8  C   UNL d   1       0.639  -0.338  -2.576  0.00  0.00     0.284 C 
ATOM      9  H3  UNL d   1      -0.962   0.750  -1.810  0.00  0.00     0.395 HD
ENDBRANCH   1   7
TORSDOF 1
ENDMDL
