MODEL 1
REMARK minimizedAffinity -2.89292049
REMARK minimizedRMSD -1
REMARK  1 active torsions:
REMARK  status: ('A' for Active; 'I' for Inactive)
REMARK    1  A    between atoms: N_2  and  C1_3 
ROOT
ATOM      1  C1  UNL d   1      -0.402   0.086  -0.019  0.00  0.00     0.143 A 
ATOM      2  C2  UNL d   1      -1.531  -0.604   0.435  0.00  0.00    -0.057 A 
ATOM      3  C3  UNL d   1      -1.683  -0.937   1.787  0.00  0.00     0.033 A 
ATOM      4  C4  UNL d   1      -0.692  -0.610   2.706  0.00  0.00    -0.042 A 
ATOM      5  C5  UNL d   1       0.451   0.053   2.272  0.00  0.00     0.033 A 
ATOM      6  C6  UNL d   1       0.594   0.389   0.922  0.00  0.00    -0.057 A 
ENDROOT
BRANCH   1   7
ATOM      7  N   UNL d   1      -0.147   0.358  -1.365  0.00  0.00    -0.732 N 
ATOM      8  C   UNL d   1       0.137  -0.715  -2.294  0.00  0.00     0.284 C 
ATOM      9  H3  UNL d   1      -0.760   1.080  -1.739  0.00  0.00     0.395 HD
ENDBRANCH   1   7
TORSDOF 1
ENDMDL
