MODEL 1
REMARK minimizedAffinity 1.11732304
REMARK minimizedRMSD -1
REMARK  1 active torsions:
REMARK  status: ('A' for Active; 'I' for Inactive)
REMARK    1  A    between atoms: N_2  and  C1_3 
ROOT
ATOM      1  C1  UNL d   1       0.379  -0.441  -1.660  0.00  0.00     0.143 A 
ATOM      2  C2  UNL d   1       0.393  -1.557  -0.817  0.00  0.00    -0.057 A 
ATOM      3  C3  UNL d   1      -0.479  -1.653   0.275  0.00  0.00     0.033 A 
ATOM      4  C4  UNL d   1      -1.363  -0.618   0.560  0.00  0.00    -0.042 A 
ATOM      5  C5  UNL d   1      -1.377   0.512  -0.250  0.00  0.00     0.033 A 
ATOM      6  C6  UNL d   1      -0.508   0.599  -1.342  0.00  0.00    -0.057 A 
ENDROOT
BRANCH   1   7
ATOM      7  N   UNL d   1       1.288  -0.242  -2.702  0.00  0.00    -0.732 N 
ATOM      8  C   UNL d   1       1.834  -1.369  -3.428  0.00  0.00     0.284 C 
ATOM      9  H3  UNL d   1       1.038   0.550  -3.290  0.00  0.00     0.395 HD
ENDBRANCH   1   7
TORSDOF 1
ENDMDL
