MODEL 1
REMARK minimizedAffinity -3.28660226
REMARK minimizedRMSD -1
REMARK  1 active torsions:
REMARK  status: ('A' for Active; 'I' for Inactive)
REMARK    1  A    between atoms: N_2  and  C1_3 
ROOT
ATOM      1  C1  UNL d   1      -1.153  -0.428   1.135  0.00  0.00     0.143 A 
ATOM      2  C2  UNL d   1      -2.288  -0.010   0.433  0.00  0.00    -0.057 A 
ATOM      3  C3  UNL d   1      -2.180   0.775  -0.721  0.00  0.00     0.033 A 
ATOM      4  C4  UNL d   1      -0.931   1.182  -1.178  0.00  0.00    -0.042 A 
ATOM      5  C5  UNL d   1       0.210   0.800  -0.482  0.00  0.00     0.033 A 
ATOM      6  C6  UNL d   1       0.096   0.010   0.666  0.00  0.00    -0.057 A 
ENDROOT
BRANCH   1   7
ATOM      7  N   UNL d   1      -1.199  -1.126   2.344  0.00  0.00    -0.732 N 
ATOM      8  C   UNL d   1      -0.990  -0.439   3.601  0.00  0.00     0.284 C 
ATOM      9  H3  UNL d   1      -1.948  -1.815   2.366  0.00  0.00     0.395 HD
ENDBRANCH   1   7
TORSDOF 1
ENDMDL
