MODEL 1
REMARK minimizedAffinity -1.2990272
REMARK minimizedRMSD -1
REMARK  1 active torsions:
REMARK  status: ('A' for Active; 'I' for Inactive)
REMARK    1  A    between atoms: N_2  and  C1_3 
ROOT
ATOM      1  C1  UNL d   1       0.002  -0.258  -1.338  0.00  0.00     0.143 A 
ATOM      2  C2  UNL d   1      -1.173  -0.516  -0.625  0.00  0.00    -0.057 A 
ATOM      3  C3  UNL d   1      -1.191  -0.502   0.775  0.00  0.00     0.033 A 
ATOM      4  C4  UNL d   1      -0.023  -0.259   1.489  0.00  0.00    -0.042 A 
ATOM      5  C5  UNL d   1       1.163  -0.025   0.801  0.00  0.00     0.033 A 
ATOM      6  C6  UNL d   1       1.173  -0.033  -0.597  0.00  0.00    -0.057 A 
ENDROOT
BRANCH   1   7
ATOM      7  N   UNL d   1       0.106  -0.354  -2.728  0.00  0.00    -0.732 N 
ATOM      8  C   UNL d   1       1.181  -1.109  -3.337  0.00  0.00     0.284 C 
ATOM      9  H3  UNL d   1      -0.798  -0.482  -3.177  0.00  0.00     0.395 HD
ENDBRANCH   1   7
TORSDOF 1
ENDMDL
