MODEL 1
REMARK minimizedAffinity -5.0856514
REMARK minimizedRMSD -1
REMARK  1 active torsions:
REMARK  status: ('A' for Active; 'I' for Inactive)
REMARK    1  A    between atoms: N_2  and  C1_3 
ROOT
ATOM      1  C1  UNL d   1      -0.266  -0.277   0.782  0.00  0.00     0.143 A 
ATOM      2  C2  UNL d   1       0.321   0.556   1.740  0.00  0.00    -0.057 A 
ATOM      3  C3  UNL d   1      -0.055   0.493   3.087  0.00  0.00     0.033 A 
ATOM      4  C4  UNL d   1      -1.051  -0.388   3.496  0.00  0.00    -0.042 A 
ATOM      5  C5  UNL d   1      -1.666  -1.208   2.557  0.00  0.00     0.033 A 
ATOM      6  C6  UNL d   1      -1.281  -1.145   1.215  0.00  0.00    -0.057 A 
ENDROOT
BRANCH   1   7
ATOM      7  N   UNL d   1      -0.005  -0.193  -0.588  0.00  0.00    -0.732 N 
ATOM      8  C   UNL d   1       0.056   1.093  -1.249  0.00  0.00     0.284 C 
ATOM      9  H3  UNL d   1       0.713  -0.849  -0.887  0.00  0.00     0.395 HD
ENDBRANCH   1   7
TORSDOF 1
ENDMDL
