MODEL 1
REMARK minimizedAffinity -5.0460186
REMARK minimizedRMSD -1
REMARK  1 active torsions:
REMARK  status: ('A' for Active; 'I' for Inactive)
REMARK    1  A    between atoms: N_2  and  C1_3 
ROOT
ATOM      1  C1  UNL d   1       0.048   0.121   0.254  0.00  0.00     0.143 A 
ATOM      2  C2  UNL d   1       1.066   0.511   1.130  0.00  0.00    -0.057 A 
ATOM      3  C3  UNL d   1       0.975   0.264   2.506  0.00  0.00     0.033 A 
ATOM      4  C4  UNL d   1      -0.153  -0.354   3.034  0.00  0.00    -0.042 A 
ATOM      5  C5  UNL d   1      -1.189  -0.729   2.185  0.00  0.00     0.033 A 
ATOM      6  C6  UNL d   1      -1.089  -0.485   0.812  0.00  0.00    -0.057 A 
ENDROOT
BRANCH   1   7
ATOM      7  N   UNL d   1       0.035   0.426  -1.109  0.00  0.00    -0.732 N 
ATOM      8  C   UNL d   1       0.923  -0.257  -2.026  0.00  0.00     0.284 C 
ATOM      9  H3  UNL d   1      -0.907   0.563  -1.467  0.00  0.00     0.395 HD
ENDBRANCH   1   7
TORSDOF 1
ENDMDL
