MODEL 1
REMARK minimizedAffinity -3.96086907
REMARK minimizedRMSD -1
REMARK  1 active torsions:
REMARK  status: ('A' for Active; 'I' for Inactive)
REMARK    1  A    between atoms: N_2  and  C1_3 
ROOT
ATOM      1  C1  UNL d   1       0.002   0.242   0.034  0.00  0.00     0.143 A 
ATOM      2  C2  UNL d   1      -1.115  -0.143   0.784  0.00  0.00    -0.057 A 
ATOM      3  C3  UNL d   1      -1.042  -0.285   2.175  0.00  0.00     0.033 A 
ATOM      4  C4  UNL d   1       0.162  -0.073   2.839  0.00  0.00    -0.042 A 
ATOM      5  C5  UNL d   1       1.291   0.285   2.111  0.00  0.00     0.033 A 
ATOM      6  C6  UNL d   1       1.210   0.432   0.723  0.00  0.00    -0.057 A 
ENDROOT
BRANCH   1   7
ATOM      7  N   UNL d   1       0.017   0.305  -1.361  0.00  0.00    -0.732 N 
ATOM      8  C   UNL d   1       1.013  -0.420  -2.121  0.00  0.00     0.284 C 
ATOM      9  H3  UNL d   1      -0.917   0.271  -1.762  0.00  0.00     0.395 HD
ENDBRANCH   1   7
TORSDOF 1
ENDMDL
