MODEL 1
REMARK minimizedAffinity -5.65291071
REMARK minimizedRMSD -1
REMARK  1 active torsions:
REMARK  status: ('A' for Active; 'I' for Inactive)
REMARK    1  A    between atoms: C1_2  and  C2_3 
ROOT
ATOM      1  C2  UNL d   1      -1.382   0.170   1.347  0.00  0.00    -0.073 A 
ATOM      2  C3  UNL d   1      -1.132   1.372   2.018  0.00  0.00    -0.002 A 
ATOM      3  C4  UNL d   1      -1.491   1.520   3.358  0.00  0.00     0.004 A 
ATOM      4  C5  UNL d   1      -2.097   0.466   4.043  0.00  0.00    -0.004 A 
ATOM      5  C6  UNL d   1      -2.344  -0.748   3.393  0.00  0.00    -0.075 A 
ATOM      6  C7  UNL d   1      -2.996  -1.890   4.114  0.00  0.00     0.076 C 
ATOM      7  C8  UNL d   1      -1.983  -0.887   2.046  0.00  0.00     0.001 A 
ENDROOT
BRANCH   1   8
ATOM      8  C1  UNL d   1      -0.990   0.004  -0.098  0.00  0.00     0.053 C 
ATOM      9  C   UNL d   1       0.520  -0.008  -0.282  0.00  0.00     0.018 C 
ENDBRANCH   1   8
TORSDOF 1
ENDMDL
