MODEL 1
REMARK minimizedAffinity -1.3431375
REMARK minimizedRMSD -1
REMARK  1 active torsions:
REMARK  status: ('A' for Active; 'I' for Inactive)
REMARK    1  A    between atoms: C1_2  and  C2_3 
ROOT
ATOM      1  C2  UNL d   1      -1.768  -0.358   0.330  0.00  0.00    -0.073 A 
ATOM      2  C3  UNL d   1      -2.074   0.877  -0.252  0.00  0.00    -0.002 A 
ATOM      3  C4  UNL d   1      -1.156   1.507  -1.093  0.00  0.00     0.004 A 
ATOM      4  C5  UNL d   1       0.073   0.907  -1.365  0.00  0.00    -0.004 A 
ATOM      5  C6  UNL d   1       0.393  -0.333  -0.802  0.00  0.00    -0.075 A 
ATOM      6  C7  UNL d   1       1.711  -0.991  -1.083  0.00  0.00     0.076 C 
ATOM      7  C8  UNL d   1      -0.534  -0.958   0.043  0.00  0.00     0.001 A 
ENDROOT
BRANCH   1   8
ATOM      8  C1  UNL d   1      -2.759  -1.044   1.234  0.00  0.00     0.053 C 
ATOM      9  C   UNL d   1      -2.464  -0.789   2.703  0.00  0.00     0.018 C 
ENDBRANCH   1   8
TORSDOF 1
ENDMDL
