MODEL 1
REMARK minimizedAffinity -3.34125781
REMARK minimizedRMSD -1
REMARK  1 active torsions:
REMARK  status: ('A' for Active; 'I' for Inactive)
REMARK    1  A    between atoms: C1_2  and  C2_3 
ROOT
ATOM      1  C2  UNL d   1      -0.277   0.352  -0.752  0.00  0.00    -0.073 A 
ATOM      2  C3  UNL d   1       0.691   0.818  -1.648  0.00  0.00    -0.002 A 
ATOM      3  C4  UNL d   1       1.761   0.002  -2.017  0.00  0.00     0.004 A 
ATOM      4  C5  UNL d   1       1.871  -1.288  -1.500  0.00  0.00    -0.004 A 
ATOM      5  C6  UNL d   1       0.907  -1.777  -0.612  0.00  0.00    -0.075 A 
ATOM      6  C7  UNL d   1       1.011  -3.162  -0.045  0.00  0.00     0.076 C 
ATOM      7  C8  UNL d   1      -0.164  -0.950  -0.244  0.00  0.00     0.001 A 
ENDROOT
BRANCH   1   8
ATOM      8  C1  UNL d   1      -1.438   1.227  -0.355  0.00  0.00     0.053 C 
ATOM      9  C   UNL d   1      -1.920   0.930   1.056  0.00  0.00     0.018 C 
ENDBRANCH   1   8
TORSDOF 1
ENDMDL
