MODEL 1
REMARK minimizedAffinity -0.825919986
REMARK minimizedRMSD -1
REMARK  1 active torsions:
REMARK  status: ('A' for Active; 'I' for Inactive)
REMARK    1  A    between atoms: C1_2  and  C2_3 
ROOT
ATOM      1  C2  UNL d   1      -1.663   0.730   1.544  0.00  0.00    -0.073 A 
ATOM      2  C3  UNL d   1      -1.388   1.979   2.113  0.00  0.00    -0.002 A 
ATOM      3  C4  UNL d   1      -1.589   2.192   3.477  0.00  0.00     0.004 A 
ATOM      4  C5  UNL d   1      -2.061   1.159   4.287  0.00  0.00    -0.004 A 
ATOM      5  C6  UNL d   1      -2.330  -0.099   3.740  0.00  0.00    -0.075 A 
ATOM      6  C7  UNL d   1      -2.840  -1.220   4.597  0.00  0.00     0.076 C 
ATOM      7  C8  UNL d   1      -2.128  -0.305   2.368  0.00  0.00     0.001 A 
ENDROOT
BRANCH   1   8
ATOM      8  C1  UNL d   1      -1.441   0.493   0.073  0.00  0.00     0.053 C 
ATOM      9  C   UNL d   1      -0.010   0.078  -0.228  0.00  0.00     0.018 C 
ENDBRANCH   1   8
TORSDOF 1
ENDMDL
