MODEL 1
REMARK minimizedAffinity -3.5367744
REMARK minimizedRMSD -1
REMARK  1 active torsions:
REMARK  status: ('A' for Active; 'I' for Inactive)
REMARK    1  A    between atoms: C1_2  and  C2_3 
ROOT
ATOM      1  C2  UNL d   1      -2.637  -0.542   2.640  0.00  0.00    -0.073 A 
ATOM      2  C3  UNL d   1      -2.479   0.301   3.746  0.00  0.00    -0.002 A 
ATOM      3  C4  UNL d   1      -1.991   1.597   3.580  0.00  0.00     0.004 A 
ATOM      4  C5  UNL d   1      -1.663   2.066   2.308  0.00  0.00    -0.004 A 
ATOM      5  C6  UNL d   1      -1.825   1.243   1.189  0.00  0.00    -0.075 A 
ATOM      6  C7  UNL d   1      -1.474   1.732  -0.185  0.00  0.00     0.076 C 
ATOM      7  C8  UNL d   1      -2.313  -0.059   1.365  0.00  0.00     0.001 A 
ENDROOT
BRANCH   1   8
ATOM      8  C1  UNL d   1      -3.171  -1.941   2.814  0.00  0.00     0.053 C 
ATOM      9  C   UNL d   1      -3.886  -2.118   4.144  0.00  0.00     0.018 C 
ENDBRANCH   1   8
TORSDOF 1
ENDMDL
