MODEL 1
REMARK minimizedAffinity -4.67801857
REMARK minimizedRMSD -1
REMARK  1 active torsions:
REMARK  status: ('A' for Active; 'I' for Inactive)
REMARK    1  A    between atoms: C1_2  and  C2_3 
ROOT
ATOM      1  C2  UNL d   1       0.016  -0.905   0.889  0.00  0.00    -0.073 A 
ATOM      2  C3  UNL d   1       0.933  -1.887   0.499  0.00  0.00    -0.002 A 
ATOM      3  C4  UNL d   1       1.610  -1.776  -0.716  0.00  0.00     0.004 A 
ATOM      4  C5  UNL d   1       1.383  -0.680  -1.549  0.00  0.00    -0.004 A 
ATOM      5  C6  UNL d   1       0.479   0.318  -1.170  0.00  0.00    -0.075 A 
ATOM      6  C7  UNL d   1       0.222   1.502  -2.055  0.00  0.00     0.076 C 
ATOM      7  C8  UNL d   1      -0.199   0.198   0.050  0.00  0.00     0.001 A 
ENDROOT
BRANCH   1   8
ATOM      8  C1  UNL d   1      -0.713  -1.018   2.204  0.00  0.00     0.053 C 
ATOM      9  C   UNL d   1      -1.571   0.206   2.487  0.00  0.00     0.018 C 
ENDBRANCH   1   8
TORSDOF 1
ENDMDL
