MODEL 1
REMARK minimizedAffinity -3.46803498
REMARK minimizedRMSD -1
REMARK  1 active torsions:
REMARK  status: ('A' for Active; 'I' for Inactive)
REMARK    1  A    between atoms: C1_2  and  C2_3 
ROOT
ATOM      1  C2  UNL d   1       0.089   0.000  -0.613  0.00  0.00    -0.073 A 
ATOM      2  C3  UNL d   1       0.946   0.847  -1.325  0.00  0.00    -0.002 A 
ATOM      3  C4  UNL d   1       2.189   0.387  -1.762  0.00  0.00     0.004 A 
ATOM      4  C5  UNL d   1       2.585  -0.924  -1.498  0.00  0.00    -0.004 A 
ATOM      5  C6  UNL d   1       1.737  -1.789  -0.798  0.00  0.00    -0.075 A 
ATOM      6  C7  UNL d   1       2.149  -3.202  -0.505  0.00  0.00     0.076 C 
ATOM      7  C8  UNL d   1       0.492  -1.319  -0.361  0.00  0.00     0.001 A 
ENDROOT
BRANCH   1   8
ATOM      8  C1  UNL d   1      -1.256   0.491  -0.145  0.00  0.00     0.053 C 
ATOM      9  C   UNL d   1      -1.322   0.617   1.369  0.00  0.00     0.018 C 
ENDBRANCH   1   8
TORSDOF 1
ENDMDL
