MODEL 1
REMARK minimizedAffinity -4.32822514
REMARK minimizedRMSD -1
REMARK  1 active torsions:
REMARK  status: ('A' for Active; 'I' for Inactive)
REMARK    1  A    between atoms: C1_2  and  C2_3 
ROOT
ATOM      1  C2  UNL d   1      -2.537  -0.386   2.494  0.00  0.00    -0.073 A 
ATOM      2  C3  UNL d   1      -2.739   0.792   3.223  0.00  0.00    -0.002 A 
ATOM      3  C4  UNL d   1      -2.213   2.002   2.766  0.00  0.00     0.004 A 
ATOM      4  C5  UNL d   1      -1.488   2.047   1.575  0.00  0.00    -0.004 A 
ATOM      5  C6  UNL d   1      -1.286   0.882   0.827  0.00  0.00    -0.075 A 
ATOM      6  C7  UNL d   1      -0.506   0.914  -0.454  0.00  0.00     0.076 C 
ATOM      7  C8  UNL d   1      -1.815  -0.329   1.294  0.00  0.00     0.001 A 
ENDROOT
BRANCH   1   8
ATOM      8  C1  UNL d   1      -3.109  -1.693   2.980  0.00  0.00     0.053 C 
ATOM      9  C   UNL d   1      -2.758  -1.963   4.435  0.00  0.00     0.018 C 
ENDBRANCH   1   8
TORSDOF 1
ENDMDL
