MODEL 1
REMARK minimizedAffinity 6.24208784
REMARK minimizedRMSD -1
REMARK  1 active torsions:
REMARK  status: ('A' for Active; 'I' for Inactive)
REMARK    1  A    between atoms: C1_2  and  C2_3 
ROOT
ATOM      1  C2  UNL d   1      -1.722  -0.186   1.932  0.00  0.00    -0.073 A 
ATOM      2  C3  UNL d   1      -1.748  -1.011   3.062  0.00  0.00    -0.002 A 
ATOM      3  C4  UNL d   1      -1.602  -0.463   4.337  0.00  0.00     0.004 A 
ATOM      4  C5  UNL d   1      -1.436   0.912   4.496  0.00  0.00    -0.004 A 
ATOM      5  C6  UNL d   1      -1.420   1.754   3.379  0.00  0.00    -0.075 A 
ATOM      6  C7  UNL d   1      -1.240   3.236   3.533  0.00  0.00     0.076 C 
ATOM      7  C8  UNL d   1      -1.564   1.197   2.102  0.00  0.00     0.001 A 
ENDROOT
BRANCH   1   8
ATOM      8  C1  UNL d   1      -1.886  -0.772   0.553  0.00  0.00     0.053 C 
ATOM      9  C   UNL d   1      -1.832   0.295  -0.530  0.00  0.00     0.018 C 
ENDBRANCH   1   8
TORSDOF 1
ENDMDL
