MODEL 1
REMARK minimizedAffinity -6.37614346
REMARK minimizedRMSD -1
REMARK  1 active torsions:
REMARK  status: ('A' for Active; 'I' for Inactive)
REMARK    1  A    between atoms: C1_2  and  C2_3 
ROOT
ATOM      1  C2  UNL d   1      -3.208  -0.739   3.227  0.00  0.00    -0.073 A 
ATOM      2  C3  UNL d   1      -3.576   0.490   3.786  0.00  0.00    -0.002 A 
ATOM      3  C4  UNL d   1      -3.124   1.684   3.221  0.00  0.00     0.004 A 
ATOM      4  C5  UNL d   1      -2.307   1.662   2.091  0.00  0.00    -0.004 A 
ATOM      5  C6  UNL d   1      -1.939   0.443   1.512  0.00  0.00    -0.075 A 
ATOM      6  C7  UNL d   1      -1.059   0.402   0.297  0.00  0.00     0.076 C 
ATOM      7  C8  UNL d   1      -2.394  -0.751   2.086  0.00  0.00     0.001 A 
ENDROOT
BRANCH   1   8
ATOM      8  C1  UNL d   1      -3.698  -2.030   3.829  0.00  0.00     0.053 C 
ATOM      9  C   UNL d   1      -5.147  -1.935   4.280  0.00  0.00     0.018 C 
ENDBRANCH   1   8
TORSDOF 1
ENDMDL
