MODEL 1
REMARK minimizedAffinity -1.8661772
REMARK minimizedRMSD -1
REMARK  1 active torsions:
REMARK  status: ('A' for Active; 'I' for Inactive)
REMARK    1  A    between atoms: C1_2  and  C2_3 
ROOT
ATOM      1  C2  UNL d   1      -2.621  -1.025   3.586  0.00  0.00    -0.073 A 
ATOM      2  C3  UNL d   1      -2.757   0.153   4.328  0.00  0.00    -0.002 A 
ATOM      3  C4  UNL d   1      -2.312   1.369   3.808  0.00  0.00     0.004 A 
ATOM      4  C5  UNL d   1      -1.735   1.421   2.539  0.00  0.00    -0.004 A 
ATOM      5  C6  UNL d   1      -1.602   0.256   1.777  0.00  0.00    -0.075 A 
ATOM      6  C7  UNL d   1      -0.981   0.295   0.411  0.00  0.00     0.076 C 
ATOM      7  C8  UNL d   1      -2.048  -0.962   2.307  0.00  0.00     0.001 A 
ENDROOT
BRANCH   1   8
ATOM      8  C1  UNL d   1      -3.105  -2.340   4.141  0.00  0.00     0.053 C 
ATOM      9  C   UNL d   1      -4.444  -2.202   4.847  0.00  0.00     0.018 C 
ENDBRANCH   1   8
TORSDOF 1
ENDMDL
