MODEL 1
REMARK minimizedAffinity 1.15809321
REMARK minimizedRMSD -1
REMARK  1 active torsions:
REMARK  status: ('A' for Active; 'I' for Inactive)
REMARK    1  A    between atoms: C1_2  and  C2_3 
ROOT
ATOM      1  C2  UNL d   1      -0.537  -0.479  -0.560  0.00  0.00    -0.073 A 
ATOM      2  C3  UNL d   1       0.231  -1.589  -0.189  0.00  0.00    -0.002 A 
ATOM      3  C4  UNL d   1       1.339  -1.965  -0.948  0.00  0.00     0.004 A 
ATOM      4  C5  UNL d   1       1.695  -1.233  -2.081  0.00  0.00    -0.004 A 
ATOM      5  C6  UNL d   1       0.948  -0.114  -2.461  0.00  0.00    -0.075 A 
ATOM      6  C7  UNL d   1       1.317   0.683  -3.678  0.00  0.00     0.076 C 
ATOM      7  C8  UNL d   1      -0.165   0.256  -1.695  0.00  0.00     0.001 A 
ENDROOT
BRANCH   1   8
ATOM      8  C1  UNL d   1      -1.731  -0.065   0.261  0.00  0.00     0.053 C 
ATOM      9  C   UNL d   1      -1.735  -0.722   1.632  0.00  0.00     0.018 C 
ENDBRANCH   1   8
TORSDOF 1
ENDMDL
