MODEL 1
REMARK minimizedAffinity -6.12925148
REMARK minimizedRMSD -1
REMARK  1 active torsions:
REMARK  status: ('A' for Active; 'I' for Inactive)
REMARK    1  A    between atoms: C1_2  and  C2_3 
ROOT
ATOM      1  C2  UNL d   1      -2.402  -0.642   3.018  0.00  0.00    -0.073 A 
ATOM      2  C3  UNL d   1      -2.459   0.463   3.874  0.00  0.00    -0.002 A 
ATOM      3  C4  UNL d   1      -2.068   1.725   3.423  0.00  0.00     0.004 A 
ATOM      4  C5  UNL d   1      -1.624   1.895   2.112  0.00  0.00    -0.004 A 
ATOM      5  C6  UNL d   1      -1.571   0.805   1.238  0.00  0.00    -0.075 A 
ATOM      6  C7  UNL d   1      -1.093   0.971  -0.175  0.00  0.00     0.076 C 
ATOM      7  C8  UNL d   1      -1.963  -0.459   1.699  0.00  0.00     0.001 A 
ENDROOT
BRANCH   1   8
ATOM      8  C1  UNL d   1      -2.829  -2.005   3.498  0.00  0.00     0.053 C 
ATOM      9  C   UNL d   1      -4.044  -1.934   4.410  0.00  0.00     0.018 C 
ENDBRANCH   1   8
TORSDOF 1
ENDMDL
