MODEL 1
REMARK minimizedAffinity -5.9492197
REMARK minimizedRMSD -1
REMARK  2 active torsions:
REMARK  status: ('A' for Active; 'I' for Inactive)
REMARK    1  A    between atoms: C2'_3  and  C1'_4 
REMARK    2  A    between atoms: C1'_4  and  C1_5 
ROOT
ATOM      1  C1  I4B d   1      -1.478  -0.697   0.078  0.00  0.00    -0.075 A 
ATOM      2  C2  I4B d   1      -2.571  -1.365  -0.415  0.00  0.00     0.003 A 
ATOM      3  C3  I4B d   1      -2.898  -2.654   0.072  0.00  0.00     0.002 A 
ATOM      4  C4  I4B d   1      -2.081  -3.254   1.008  0.00  0.00    -0.004 A 
ATOM      5  C5  I4B d   1      -0.986  -2.565   1.523  0.00  0.00     0.002 A 
ATOM      6  C6  I4B d   1      -0.689  -1.274   1.064  0.00  0.00     0.003 A 
ENDROOT
BRANCH   1   7
ATOM      7  C1' I4B d   1      -1.143   0.649  -0.482  0.00  0.00     0.060 C 
BRANCH   7   8
ATOM      8  C2' I4B d   1       0.123   0.511  -1.304  0.00  0.00    -0.013 C 
ATOM      9  C4' I4B d   1       0.018   1.273  -2.599  0.00  0.00     0.013 C 
ATOM     10  C3' I4B d   1       1.269   1.008  -0.475  0.00  0.00     0.013 C 
ENDBRANCH   7   8
ENDBRANCH   1   7
TORSDOF 2
ENDMDL
