MODEL 1
REMARK minimizedAffinity 0.166885361
REMARK minimizedRMSD -1
REMARK  2 active torsions:
REMARK  status: ('A' for Active; 'I' for Inactive)
REMARK    1  A    between atoms: C2'_3  and  C1'_4 
REMARK    2  A    between atoms: C1'_4  and  C1_5 
ROOT
ATOM      1  C1  I4B d   1       2.562   2.452   0.883  0.00  0.00    -0.075 A 
ATOM      2  C2  I4B d   1       2.432   1.142   0.491  0.00  0.00     0.003 A 
ATOM      3  C3  I4B d   1       1.157   0.527   0.478  0.00  0.00     0.002 A 
ATOM      4  C4  I4B d   1       0.054   1.236   0.909  0.00  0.00    -0.004 A 
ATOM      5  C5  I4B d   1       0.186   2.570   1.283  0.00  0.00     0.002 A 
ATOM      6  C6  I4B d   1       1.445   3.186   1.259  0.00  0.00     0.003 A 
ENDROOT
BRANCH   1   7
ATOM      7  C1' I4B d   1       3.928   3.061   0.916  0.00  0.00     0.060 C 
BRANCH   7   8
ATOM      8  C2' I4B d   1       4.244   3.575  -0.473  0.00  0.00    -0.013 C 
ATOM      9  C4' I4B d   1       5.098   4.814  -0.415  0.00  0.00     0.013 C 
ATOM     10  C3' I4B d   1       4.935   2.478  -1.227  0.00  0.00     0.013 C 
ENDBRANCH   7   8
ENDBRANCH   1   7
TORSDOF 2
ENDMDL
