MODEL 1
REMARK minimizedAffinity -5.87578869
REMARK minimizedRMSD -1
REMARK  2 active torsions:
REMARK  status: ('A' for Active; 'I' for Inactive)
REMARK    1  A    between atoms: C2'_3  and  C1'_4 
REMARK    2  A    between atoms: C1'_4  and  C1_5 
ROOT
ATOM      1  C1  I4B d   1      -1.512  -0.580   0.001  0.00  0.00    -0.075 A 
ATOM      2  C2  I4B d   1      -2.802  -0.515  -0.464  0.00  0.00     0.003 A 
ATOM      3  C3  I4B d   1      -3.741  -1.510  -0.099  0.00  0.00     0.002 A 
ATOM      4  C4  I4B d   1      -3.337  -2.571   0.686  0.00  0.00    -0.004 A 
ATOM      5  C5  I4B d   1      -2.035  -2.622   1.175  0.00  0.00     0.002 A 
ATOM      6  C6  I4B d   1      -1.119  -1.614   0.841  0.00  0.00     0.003 A 
ENDROOT
BRANCH   1   7
ATOM      7  C1' I4B d   1      -0.537   0.470  -0.431  0.00  0.00     0.060 C 
BRANCH   7   8
ATOM      8  C2' I4B d   1       0.691   0.357   0.450  0.00  0.00    -0.013 C 
ATOM      9  C4' I4B d   1       1.738  -0.521  -0.184  0.00  0.00     0.013 C 
ATOM     10  C3' I4B d   1       1.218   1.740   0.689  0.00  0.00     0.013 C 
ENDBRANCH   7   8
ENDBRANCH   1   7
TORSDOF 2
ENDMDL
