MODEL 1
REMARK minimizedAffinity -5.38249016
REMARK minimizedRMSD -1
REMARK  2 active torsions:
REMARK  status: ('A' for Active; 'I' for Inactive)
REMARK    1  A    between atoms: C2'_3  and  C1'_4 
REMARK    2  A    between atoms: C1'_4  and  C1_5 
ROOT
ATOM      1  C1  I4B d   1      -1.088  -0.636   0.405  0.00  0.00    -0.075 A 
ATOM      2  C2  I4B d   1      -1.415  -1.670   1.247  0.00  0.00     0.003 A 
ATOM      3  C3  I4B d   1      -2.357  -2.647   0.843  0.00  0.00     0.002 A 
ATOM      4  C4  I4B d   1      -2.982  -2.524  -0.381  0.00  0.00    -0.004 A 
ATOM      5  C5  I4B d   1      -2.633  -1.488  -1.242  0.00  0.00     0.002 A 
ATOM      6  C6  I4B d   1      -1.671  -0.544  -0.852  0.00  0.00     0.003 A 
ENDROOT
BRANCH   1   7
ATOM      7  C1' I4B d   1      -0.114   0.396   0.876  0.00  0.00     0.060 C 
BRANCH   7   8
ATOM      8  C2' I4B d   1       1.209   0.140   0.183  0.00  0.00    -0.013 C 
ATOM      9  C4' I4B d   1       2.119   1.336   0.286  0.00  0.00     0.013 C 
ATOM     10  C3' I4B d   1       1.833  -1.071   0.811  0.00  0.00     0.013 C 
ENDBRANCH   7   8
ENDBRANCH   1   7
TORSDOF 2
ENDMDL
