MODEL 1
REMARK minimizedAffinity -3.78283334
REMARK minimizedRMSD -1
REMARK  2 active torsions:
REMARK  status: ('A' for Active; 'I' for Inactive)
REMARK    1  A    between atoms: C2'_3  and  C1'_4 
REMARK    2  A    between atoms: C1'_4  and  C1_5 
ROOT
ATOM      1  C1  I4B d   1       1.595   0.854   0.500  0.00  0.00    -0.075 A 
ATOM      2  C2  I4B d   1       0.435   1.538   0.236  0.00  0.00     0.003 A 
ATOM      3  C3  I4B d   1      -0.739   0.835  -0.129  0.00  0.00     0.002 A 
ATOM      4  C4  I4B d   1      -0.694  -0.538  -0.266  0.00  0.00    -0.004 A 
ATOM      5  C5  I4B d   1       0.477  -1.231   0.024  0.00  0.00     0.002 A 
ATOM      6  C6  I4B d   1       1.626  -0.532   0.422  0.00  0.00     0.003 A 
ENDROOT
BRANCH   1   7
ATOM      7  C1' I4B d   1       2.825   1.631   0.851  0.00  0.00     0.060 C 
BRANCH   7   8
ATOM      8  C2' I4B d   1       2.503   3.105   0.707  0.00  0.00    -0.013 C 
ATOM      9  C4' I4B d   1       2.890   3.870   1.945  0.00  0.00     0.013 C 
ATOM     10  C3' I4B d   1       3.230   3.622  -0.498  0.00  0.00     0.013 C 
ENDBRANCH   7   8
ENDBRANCH   1   7
TORSDOF 2
ENDMDL
