MODEL 1
REMARK minimizedAffinity -2.95026016
REMARK minimizedRMSD -1
REMARK  2 active torsions:
REMARK  status: ('A' for Active; 'I' for Inactive)
REMARK    1  A    between atoms: C2'_3  and  C1'_4 
REMARK    2  A    between atoms: C1'_4  and  C1_5 
ROOT
ATOM      1  C1  I4B d   1       1.759   0.725   0.389  0.00  0.00    -0.075 A 
ATOM      2  C2  I4B d   1       2.773   1.374  -0.270  0.00  0.00     0.003 A 
ATOM      3  C3  I4B d   1       3.375   2.521   0.301  0.00  0.00     0.002 A 
ATOM      4  C4  I4B d   1       2.901   3.011   1.501  0.00  0.00    -0.004 A 
ATOM      5  C5  I4B d   1       1.888   2.339   2.179  0.00  0.00     0.002 A 
ATOM      6  C6  I4B d   1       1.322   1.181   1.626  0.00  0.00     0.003 A 
ENDROOT
BRANCH   1   7
ATOM      7  C1' I4B d   1       1.124  -0.465  -0.259  0.00  0.00     0.060 C 
BRANCH   7   8
ATOM      8  C2' I4B d   1      -0.261  -0.633   0.331  0.00  0.00    -0.013 C 
ATOM      9  C4' I4B d   1      -1.304  -0.742  -0.750  0.00  0.00     0.013 C 
ATOM     10  C3' I4B d   1      -0.250  -1.857   1.198  0.00  0.00     0.013 C 
ENDBRANCH   7   8
ENDBRANCH   1   7
TORSDOF 2
ENDMDL
