MODEL 1
REMARK minimizedAffinity 7.25570631
REMARK minimizedRMSD -1
REMARK  2 active torsions:
REMARK  status: ('A' for Active; 'I' for Inactive)
REMARK    1  A    between atoms: C2'_3  and  C1'_4 
REMARK    2  A    between atoms: C1'_4  and  C1_5 
ROOT
ATOM      1  C1  I4B d   1      -0.753  -1.333   1.328  0.00  0.00    -0.075 A 
ATOM      2  C2  I4B d   1       0.369  -2.102   1.509  0.00  0.00     0.003 A 
ATOM      3  C3  I4B d   1       1.375  -1.693   2.418  0.00  0.00     0.002 A 
ATOM      4  C4  I4B d   1       1.243  -0.491   3.082  0.00  0.00    -0.004 A 
ATOM      5  C5  I4B d   1       0.094   0.277   2.914  0.00  0.00     0.002 A 
ATOM      6  C6  I4B d   1      -0.916  -0.152   2.041  0.00  0.00     0.003 A 
ENDROOT
BRANCH   1   7
ATOM      7  C1' I4B d   1      -1.780  -1.778   0.336  0.00  0.00     0.060 C 
BRANCH   7   8
ATOM      8  C2' I4B d   1      -1.572  -0.986  -0.939  0.00  0.00    -0.013 C 
ATOM      9  C4' I4B d   1      -1.303  -1.895  -2.109  0.00  0.00     0.013 C 
ATOM     10  C3' I4B d   1      -2.797  -0.153  -1.171  0.00  0.00     0.013 C 
ENDBRANCH   7   8
ENDBRANCH   1   7
TORSDOF 2
ENDMDL
