MODEL 1
REMARK minimizedAffinity -2.97386384
REMARK minimizedRMSD -1
REMARK  2 active torsions:
REMARK  status: ('A' for Active; 'I' for Inactive)
REMARK    1  A    between atoms: C2'_3  and  C1'_4 
REMARK    2  A    between atoms: C1'_4  and  C1_5 
ROOT
ATOM      1  C1  I4B d   1      -0.657   0.102  -0.411  0.00  0.00    -0.075 A 
ATOM      2  C2  I4B d   1      -1.174  -0.495   0.712  0.00  0.00     0.003 A 
ATOM      3  C3  I4B d   1      -2.206  -1.457   0.598  0.00  0.00     0.002 A 
ATOM      4  C4  I4B d   1      -2.723  -1.754  -0.647  0.00  0.00    -0.004 A 
ATOM      5  C5  I4B d   1      -2.183  -1.164  -1.786  0.00  0.00     0.002 A 
ATOM      6  C6  I4B d   1      -1.135  -0.240  -1.669  0.00  0.00     0.003 A 
ENDROOT
BRANCH   1   7
ATOM      7  C1' I4B d   1       0.409   1.139  -0.251  0.00  0.00     0.060 C 
BRANCH   7   8
ATOM      8  C2' I4B d   1       1.629   0.465   0.345  0.00  0.00    -0.013 C 
ATOM      9  C4' I4B d   1       2.456  -0.205  -0.719  0.00  0.00     0.013 C 
ATOM     10  C3' I4B d   1       2.424   1.508   1.073  0.00  0.00     0.013 C 
ENDBRANCH   7   8
ENDBRANCH   1   7
TORSDOF 2
ENDMDL
