MODEL 1
REMARK minimizedAffinity -3.56895566
REMARK minimizedRMSD -1
REMARK  2 active torsions:
REMARK  status: ('A' for Active; 'I' for Inactive)
REMARK    1  A    between atoms: C2'_3  and  C1'_4 
REMARK    2  A    between atoms: C1'_4  and  C1_5 
ROOT
ATOM      1  C1  I4B d   1       1.112   0.848   0.414  0.00  0.00    -0.075 A 
ATOM      2  C2  I4B d   1       0.738   2.145   0.664  0.00  0.00     0.003 A 
ATOM      3  C3  I4B d   1       1.719   3.134   0.915  0.00  0.00     0.002 A 
ATOM      4  C4  I4B d   1       3.051   2.775   0.957  0.00  0.00    -0.004 A 
ATOM      5  C5  I4B d   1       3.430   1.465   0.681  0.00  0.00     0.002 A 
ATOM      6  C6  I4B d   1       2.456   0.497   0.395  0.00  0.00     0.003 A 
ENDROOT
BRANCH   1   7
ATOM      7  C1' I4B d   1       0.048  -0.178   0.184  0.00  0.00     0.060 C 
BRANCH   7   8
ATOM      8  C2' I4B d   1      -0.714   0.212  -1.066  0.00  0.00    -0.013 C 
ATOM      9  C4' I4B d   1       0.142   0.061  -2.296  0.00  0.00     0.013 C 
ATOM     10  C3' I4B d   1      -1.938  -0.651  -1.149  0.00  0.00     0.013 C 
ENDBRANCH   7   8
ENDBRANCH   1   7
TORSDOF 2
ENDMDL
