MODEL 1
REMARK minimizedAffinity -0.394630194
REMARK minimizedRMSD -1
REMARK  2 active torsions:
REMARK  status: ('A' for Active; 'I' for Inactive)
REMARK    1  A    between atoms: C2'_3  and  C1'_4 
REMARK    2  A    between atoms: C1'_4  and  C1_5 
ROOT
ATOM      1  C1  I4B d   1       0.809   0.832   0.227  0.00  0.00    -0.075 A 
ATOM      2  C2  I4B d   1      -0.041   1.879   0.482  0.00  0.00     0.003 A 
ATOM      3  C3  I4B d   1      -1.340   1.895  -0.082  0.00  0.00     0.002 A 
ATOM      4  C4  I4B d   1      -1.726   0.877  -0.929  0.00  0.00    -0.004 A 
ATOM      5  C5  I4B d   1      -0.871  -0.195  -1.168  0.00  0.00     0.002 A 
ATOM      6  C6  I4B d   1       0.400  -0.224  -0.577  0.00  0.00     0.003 A 
ENDROOT
BRANCH   1   7
ATOM      7  C1' I4B d   1       2.186   0.863   0.811  0.00  0.00     0.060 C 
BRANCH   7   8
ATOM      8  C2' I4B d   1       2.480   2.287   1.237  0.00  0.00    -0.013 C 
ATOM      9  C4' I4B d   1       3.176   2.324   2.572  0.00  0.00     0.013 C 
ATOM     10  C3' I4B d   1       3.320   2.925   0.171  0.00  0.00     0.013 C 
ENDBRANCH   7   8
ENDBRANCH   1   7
TORSDOF 2
ENDMDL
