MODEL 1
REMARK minimizedAffinity -2.52064896
REMARK minimizedRMSD -1
REMARK  2 active torsions:
REMARK  status: ('A' for Active; 'I' for Inactive)
REMARK    1  A    between atoms: C2'_3  and  C1'_4 
REMARK    2  A    between atoms: C1'_4  and  C1_5 
ROOT
ATOM      1  C1  I4B d   1       1.971   1.180   0.507  0.00  0.00    -0.075 A 
ATOM      2  C2  I4B d   1       2.813   1.864  -0.334  0.00  0.00     0.003 A 
ATOM      3  C3  I4B d   1       3.457   3.045   0.107  0.00  0.00     0.002 A 
ATOM      4  C4  I4B d   1       3.192   3.532   1.371  0.00  0.00    -0.004 A 
ATOM      5  C5  I4B d   1       2.356   2.826   2.230  0.00  0.00     0.002 A 
ATOM      6  C6  I4B d   1       1.751   1.636   1.801  0.00  0.00     0.003 A 
ENDROOT
BRANCH   1   7
ATOM      7  C1' I4B d   1       1.282  -0.046  -0.002  0.00  0.00     0.060 C 
BRANCH   7   8
ATOM      8  C2' I4B d   1      -0.182   0.051   0.375  0.00  0.00    -0.013 C 
ATOM      9  C4' I4B d   1      -0.976   0.752  -0.696  0.00  0.00     0.013 C 
ATOM     10  C3' I4B d   1      -0.694  -1.340   0.605  0.00  0.00     0.013 C 
ENDBRANCH   7   8
ENDBRANCH   1   7
TORSDOF 2
ENDMDL
