MODEL 1
REMARK minimizedAffinity -1.91167665
REMARK minimizedRMSD -1
REMARK  0 active torsions:
REMARK  status: ('A' for Active; 'I' for Inactive)
ROOT
ATOM      1  C   UNL d   1      -0.854   1.836  -2.732  0.00  0.00     0.077 C 
ATOM      2  C1  UNL d   1      -0.476   1.871  -1.281  0.00  0.00    -0.074 A 
ATOM      3  C2  UNL d   1      -0.625   3.040  -0.528  0.00  0.00    -0.005 A 
ATOM      4  C3  UNL d   1      -0.278   3.056   0.823  0.00  0.00     0.006 A 
ATOM      5  C4  UNL d   1       0.220   1.904   1.433  0.00  0.00    -0.005 A 
ATOM      6  C5  UNL d   1       0.375   0.725   0.697  0.00  0.00    -0.074 A 
ATOM      7  C6  UNL d   1       0.899  -0.524   1.340  0.00  0.00     0.077 C 
ATOM      8  C7  UNL d   1       0.018   0.716  -0.659  0.00  0.00    -0.001 A 
ENDROOT
TORSDOF 0
ENDMDL
