MODEL 1
REMARK minimizedAffinity 1.17576742
REMARK minimizedRMSD -1
REMARK  0 active torsions:
REMARK  status: ('A' for Active; 'I' for Inactive)
ROOT
ATOM      1  C   UNL d   1      -0.032   0.595  -2.088  0.00  0.00     0.077 C 
ATOM      2  C1  UNL d   1       0.281   0.331  -0.646  0.00  0.00    -0.074 A 
ATOM      3  C2  UNL d   1       0.280  -0.972  -0.137  0.00  0.00    -0.005 A 
ATOM      4  C3  UNL d   1       0.582  -1.203   1.205  0.00  0.00     0.006 A 
ATOM      5  C4  UNL d   1       0.886  -0.136   2.051  0.00  0.00    -0.005 A 
ATOM      6  C5  UNL d   1       0.892   1.174   1.560  0.00  0.00    -0.074 A 
ATOM      7  C6  UNL d   1       1.227   2.332   2.453  0.00  0.00     0.077 C 
ATOM      8  C7  UNL d   1       0.595   1.397   0.209  0.00  0.00    -0.001 A 
ENDROOT
TORSDOF 0
ENDMDL
