MODEL 1
REMARK minimizedAffinity 6.0528779
REMARK minimizedRMSD -1
REMARK  0 active torsions:
REMARK  status: ('A' for Active; 'I' for Inactive)
ROOT
ATOM      1  C   UNL d   1      -1.758   1.305   0.321  0.00  0.00     0.077 C 
ATOM      2  C1  UNL d   1      -0.502   0.495   0.192  0.00  0.00    -0.074 A 
ATOM      3  C2  UNL d   1       0.039   0.202  -1.064  0.00  0.00    -0.005 A 
ATOM      4  C3  UNL d   1       1.212  -0.545  -1.168  0.00  0.00     0.006 A 
ATOM      5  C4  UNL d   1       1.856  -1.005  -0.019  0.00  0.00    -0.005 A 
ATOM      6  C5  UNL d   1       1.331  -0.721   1.246  0.00  0.00    -0.074 A 
ATOM      7  C6  UNL d   1       2.015  -1.200   2.491  0.00  0.00     0.077 C 
ATOM      8  C7  UNL d   1       0.155   0.035   1.342  0.00  0.00    -0.001 A 
ENDROOT
TORSDOF 0
ENDMDL
