MODEL 1
REMARK minimizedAffinity 4.53127956
REMARK minimizedRMSD -1
REMARK  0 active torsions:
REMARK  status: ('A' for Active; 'I' for Inactive)
ROOT
ATOM      1  C   UNL d   1      -2.348   5.252  -1.856  0.00  0.00     0.077 C 
ATOM      2  C1  UNL d   1      -3.627   4.476  -1.965  0.00  0.00    -0.074 A 
ATOM      3  C2  UNL d   1      -4.647   4.889  -2.829  0.00  0.00    -0.005 A 
ATOM      4  C3  UNL d   1      -5.827   4.152  -2.927  0.00  0.00     0.006 A 
ATOM      5  C4  UNL d   1      -5.999   2.997  -2.164  0.00  0.00    -0.005 A 
ATOM      6  C5  UNL d   1      -4.990   2.567  -1.296  0.00  0.00    -0.074 A 
ATOM      7  C6  UNL d   1      -5.155   1.322  -0.477  0.00  0.00     0.077 C 
ATOM      8  C7  UNL d   1      -3.804   3.309  -1.208  0.00  0.00    -0.001 A 
ENDROOT
TORSDOF 0
ENDMDL
