MODEL 1
REMARK minimizedAffinity 12.9960032
REMARK minimizedRMSD -1
REMARK  0 active torsions:
REMARK  status: ('A' for Active; 'I' for Inactive)
ROOT
ATOM      1  C   UNL d   1       1.116  -1.742   0.378  0.00  0.00     0.077 C 
ATOM      2  C1  UNL d   1       1.196  -3.193   0.006  0.00  0.00    -0.074 A 
ATOM      3  C2  UNL d   1       0.104  -3.849  -0.570  0.00  0.00    -0.005 A 
ATOM      4  C3  UNL d   1       0.197  -5.196  -0.919  0.00  0.00     0.006 A 
ATOM      5  C4  UNL d   1       1.381  -5.900  -0.695  0.00  0.00    -0.005 A 
ATOM      6  C5  UNL d   1       2.484  -5.260  -0.121  0.00  0.00    -0.074 A 
ATOM      7  C6  UNL d   1       3.767  -5.999   0.118  0.00  0.00     0.077 C 
ATOM      8  C7  UNL d   1       2.385  -3.905   0.221  0.00  0.00    -0.001 A 
ENDROOT
TORSDOF 0
ENDMDL
