MODEL 1
REMARK minimizedAffinity 7.34713554
REMARK minimizedRMSD -1
REMARK  0 active torsions:
REMARK  status: ('A' for Active; 'I' for Inactive)
ROOT
ATOM      1  C   UNL d   1       2.086  -1.307   2.603  0.00  0.00     0.077 C 
ATOM      2  C1  UNL d   1       1.140  -0.374   1.908  0.00  0.00    -0.074 A 
ATOM      3  C2  UNL d   1       0.459   0.619   2.619  0.00  0.00    -0.005 A 
ATOM      4  C3  UNL d   1      -0.411   1.486   1.957  0.00  0.00     0.006 A 
ATOM      5  C4  UNL d   1      -0.607   1.369   0.581  0.00  0.00    -0.005 A 
ATOM      6  C5  UNL d   1       0.066   0.383  -0.147  0.00  0.00    -0.074 A 
ATOM      7  C6  UNL d   1      -0.126   0.250  -1.628  0.00  0.00     0.077 C 
ATOM      8  C7  UNL d   1       0.944  -0.480   0.524  0.00  0.00    -0.001 A 
ENDROOT
TORSDOF 0
ENDMDL
