MODEL 1
REMARK minimizedAffinity 7.15868092
REMARK minimizedRMSD -1
REMARK  0 active torsions:
REMARK  status: ('A' for Active; 'I' for Inactive)
ROOT
ATOM      1  C   UNL d   1      -0.287   0.400   2.582  0.00  0.00     0.077 C 
ATOM      2  C1  UNL d   1       0.475   1.690   2.537  0.00  0.00    -0.074 A 
ATOM      3  C2  UNL d   1       1.550   1.921   3.402  0.00  0.00    -0.005 A 
ATOM      4  C3  UNL d   1       2.256   3.123   3.342  0.00  0.00     0.006 A 
ATOM      5  C4  UNL d   1       1.894   4.104   2.418  0.00  0.00    -0.005 A 
ATOM      6  C5  UNL d   1       0.823   3.891   1.545  0.00  0.00    -0.074 A 
ATOM      7  C6  UNL d   1       0.427   4.932   0.540  0.00  0.00     0.077 C 
ATOM      8  C7  UNL d   1       0.123   2.678   1.607  0.00  0.00    -0.001 A 
ENDROOT
TORSDOF 0
ENDMDL
