MODEL 1
REMARK minimizedAffinity 6.00460529
REMARK minimizedRMSD -1
REMARK  0 active torsions:
REMARK  status: ('A' for Active; 'I' for Inactive)
ROOT
ATOM      1  C   UNL d   1      -5.948  -1.024   0.905  0.00  0.00     0.077 C 
ATOM      2  C1  UNL d   1      -5.970  -1.709   2.239  0.00  0.00    -0.074 A 
ATOM      3  C2  UNL d   1      -5.967  -3.104   2.330  0.00  0.00    -0.005 A 
ATOM      4  C3  UNL d   1      -5.978  -3.727   3.578  0.00  0.00     0.006 A 
ATOM      5  C4  UNL d   1      -5.992  -2.962   4.745  0.00  0.00    -0.005 A 
ATOM      6  C5  UNL d   1      -5.994  -1.566   4.673  0.00  0.00    -0.074 A 
ATOM      7  C6  UNL d   1      -5.998  -0.729   5.918  0.00  0.00     0.077 C 
ATOM      8  C7  UNL d   1      -5.975  -0.947   3.416  0.00  0.00    -0.001 A 
ENDROOT
TORSDOF 0
ENDMDL
