MODEL 1
REMARK minimizedAffinity 7.55108976
REMARK minimizedRMSD -1
REMARK  0 active torsions:
REMARK  status: ('A' for Active; 'I' for Inactive)
ROOT
ATOM      1  C   UNL d   1      -0.453   3.470  -1.059  0.00  0.00     0.077 C 
ATOM      2  C1  UNL d   1      -0.000   3.004   0.293  0.00  0.00    -0.074 A 
ATOM      3  C2  UNL d   1       0.600   3.889   1.195  0.00  0.00    -0.005 A 
ATOM      4  C3  UNL d   1       1.008   3.443   2.452  0.00  0.00     0.006 A 
ATOM      5  C4  UNL d   1       0.819   2.110   2.820  0.00  0.00    -0.005 A 
ATOM      6  C5  UNL d   1       0.219   1.211   1.932  0.00  0.00    -0.074 A 
ATOM      7  C6  UNL d   1       0.000  -0.222   2.315  0.00  0.00     0.077 C 
ATOM      8  C7  UNL d   1      -0.194   1.669   0.673  0.00  0.00    -0.001 A 
ENDROOT
TORSDOF 0
ENDMDL
