MODEL 1
REMARK minimizedAffinity 3.8419807
REMARK minimizedRMSD -1
REMARK  0 active torsions:
REMARK  status: ('A' for Active; 'I' for Inactive)
ROOT
ATOM      1  C   UNL d   1       0.060  -0.078   2.821  0.00  0.00     0.077 C 
ATOM      2  C1  UNL d   1       0.487   1.298   2.405  0.00  0.00    -0.074 A 
ATOM      3  C2  UNL d   1       1.283   2.087   3.241  0.00  0.00    -0.005 A 
ATOM      4  C3  UNL d   1       1.680   3.362   2.837  0.00  0.00     0.006 A 
ATOM      5  C4  UNL d   1       1.286   3.859   1.594  0.00  0.00    -0.005 A 
ATOM      6  C5  UNL d   1       0.491   3.084   0.744  0.00  0.00    -0.074 A 
ATOM      7  C6  UNL d   1       0.067   3.599  -0.600  0.00  0.00     0.077 C 
ATOM      8  C7  UNL d   1       0.102   1.801   1.155  0.00  0.00    -0.001 A 
ENDROOT
TORSDOF 0
ENDMDL
