MODEL 1
REMARK minimizedAffinity 5.52728415
REMARK minimizedRMSD -1
REMARK  0 active torsions:
REMARK  status: ('A' for Active; 'I' for Inactive)
ROOT
ATOM      1  C   UNL d   1       2.411  -5.523   0.171  0.00  0.00     0.077 C 
ATOM      2  C1  UNL d   1       1.306  -4.562  -0.152  0.00  0.00    -0.074 A 
ATOM      3  C2  UNL d   1       0.148  -4.992  -0.809  0.00  0.00    -0.005 A 
ATOM      4  C3  UNL d   1      -0.876  -4.089  -1.094  0.00  0.00     0.006 A 
ATOM      5  C4  UNL d   1      -0.753  -2.748  -0.725  0.00  0.00    -0.005 A 
ATOM      6  C5  UNL d   1       0.397  -2.300  -0.067  0.00  0.00    -0.074 A 
ATOM      7  C6  UNL d   1       0.541  -0.865   0.344  0.00  0.00     0.077 C 
ATOM      8  C7  UNL d   1       1.418  -3.215   0.222  0.00  0.00    -0.001 A 
ENDROOT
TORSDOF 0
ENDMDL
