MODEL 1
REMARK minimizedAffinity -2.40500975
REMARK minimizedRMSD -1
REMARK  0 active torsions:
REMARK  status: ('A' for Active; 'I' for Inactive)
ROOT
ATOM      1  C   UNL d   1       0.492  -0.139   0.907  0.00  0.00     0.077 C 
ATOM      2  C1  UNL d   1      -0.501   0.331  -0.114  0.00  0.00    -0.074 A 
ATOM      3  C2  UNL d   1      -0.432   1.624  -0.643  0.00  0.00    -0.005 A 
ATOM      4  C3  UNL d   1      -1.357   2.043  -1.599  0.00  0.00     0.006 A 
ATOM      5  C4  UNL d   1      -2.359   1.175  -2.035  0.00  0.00    -0.005 A 
ATOM      6  C5  UNL d   1      -2.443  -0.122  -1.519  0.00  0.00    -0.074 A 
ATOM      7  C6  UNL d   1      -3.507  -1.071  -1.984  0.00  0.00     0.077 C 
ATOM      8  C7  UNL d   1      -1.506  -0.538  -0.563  0.00  0.00    -0.001 A 
ENDROOT
TORSDOF 0
ENDMDL
