MODEL 1
REMARK minimizedAffinity -1.54043794
REMARK minimizedRMSD -1
REMARK  0 active torsions:
REMARK  status: ('A' for Active; 'I' for Inactive)
ROOT
ATOM      1  C   UNL d   1      -2.675   0.359  -2.038  0.00  0.00     0.077 C 
ATOM      2  C1  UNL d   1      -1.311   0.171  -1.442  0.00  0.00    -0.074 A 
ATOM      3  C2  UNL d   1      -0.172   0.128  -2.253  0.00  0.00    -0.005 A 
ATOM      4  C3  UNL d   1       1.090  -0.037  -1.684  0.00  0.00     0.006 A 
ATOM      5  C4  UNL d   1       1.227  -0.161  -0.300  0.00  0.00    -0.005 A 
ATOM      6  C5  UNL d   1       0.099  -0.119   0.526  0.00  0.00    -0.074 A 
ATOM      7  C6  UNL d   1       0.229  -0.241   2.015  0.00  0.00     0.077 C 
ATOM      8  C7  UNL d   1      -1.165   0.054  -0.053  0.00  0.00    -0.001 A 
ENDROOT
TORSDOF 0
ENDMDL
