MODEL 1
REMARK minimizedAffinity -2.26753235
REMARK minimizedRMSD -1
REMARK  0 active torsions:
REMARK  status: ('A' for Active; 'I' for Inactive)
ROOT
ATOM      1  C   UNL d   1       0.228   3.891  -0.984  0.00  0.00     0.077 C 
ATOM      2  C1  UNL d   1       0.309   2.874   0.116  0.00  0.00    -0.074 A 
ATOM      3  C2  UNL d   1       0.209   3.257   1.458  0.00  0.00    -0.005 A 
ATOM      4  C3  UNL d   1       0.277   2.299   2.469  0.00  0.00     0.006 A 
ATOM      5  C4  UNL d   1       0.446   0.952   2.150  0.00  0.00    -0.005 A 
ATOM      6  C5  UNL d   1       0.548   0.550   0.815  0.00  0.00    -0.074 A 
ATOM      7  C6  UNL d   1       0.720  -0.896   0.454  0.00  0.00     0.077 C 
ATOM      8  C7  UNL d   1       0.471   1.517  -0.196  0.00  0.00    -0.001 A 
ENDROOT
TORSDOF 0
ENDMDL
