MODEL 1
REMARK minimizedAffinity 3.38214922
REMARK minimizedRMSD -1
REMARK  1 active torsions:
REMARK  status: ('A' for Active; 'I' for Inactive)
REMARK    1  A    between atoms: C3_4  and  O_7 
ROOT
ATOM      1  C   UNL d   1       3.614  -0.427   2.610  0.00  0.00    -0.033 A 
ATOM      2  C1  UNL d   1       4.942  -0.268   2.208  0.00  0.00     0.039 A 
ATOM      3  C2  UNL d   1       5.275  -0.327   0.854  0.00  0.00    -0.080 A 
ATOM      4  C3  UNL d   1       4.273  -0.544  -0.087  0.00  0.00     0.150 A 
ATOM      5  C4  UNL d   1       2.948  -0.700   0.305  0.00  0.00    -0.007 A 
ATOM      6  C5  UNL d   1       2.617  -0.642   1.658  0.00  0.00     0.039 A 
ENDROOT
BRANCH   4   7
ATOM      7  O   UNL d   1       4.550  -0.615  -1.420  0.00  0.00    -0.526 OA
ATOM      8  H5  UNL d   1       5.510  -0.518  -1.541  0.00  0.00     0.418 HD
ENDBRANCH   4   7
TORSDOF 1
ENDMDL
