MODEL 1
REMARK minimizedAffinity -4.85855246
REMARK minimizedRMSD -1
REMARK  1 active torsions:
REMARK  status: ('A' for Active; 'I' for Inactive)
REMARK    1  A    between atoms: C3_4  and  O_7 
ROOT
ATOM      1  C   UNL d   1      -1.459   2.375   1.754  0.00  0.00    -0.033 A 
ATOM      2  C1  UNL d   1      -0.408   1.565   2.190  0.00  0.00     0.039 A 
ATOM      3  C2  UNL d   1       0.168   0.637   1.320  0.00  0.00    -0.080 A 
ATOM      4  C3  UNL d   1      -0.314   0.531   0.019  0.00  0.00     0.150 A 
ATOM      5  C4  UNL d   1      -1.358   1.337  -0.424  0.00  0.00    -0.007 A 
ATOM      6  C5  UNL d   1      -1.932   2.262   0.447  0.00  0.00     0.039 A 
ENDROOT
BRANCH   4   7
ATOM      7  O   UNL d   1       0.213  -0.363  -0.865  0.00  0.00    -0.526 OA
ATOM      8  H5  UNL d   1       0.906  -0.872  -0.412  0.00  0.00     0.418 HD
ENDBRANCH   4   7
TORSDOF 1
ENDMDL
