MODEL 1
REMARK minimizedAffinity -3.40675354
REMARK minimizedRMSD -1
REMARK  1 active torsions:
REMARK  status: ('A' for Active; 'I' for Inactive)
REMARK    1  A    between atoms: C3_4  and  O_7 
ROOT
ATOM      1  C   UNL d   1       1.582  -5.251  -0.213  0.00  0.00    -0.033 A 
ATOM      2  C1  UNL d   1       0.520  -6.000  -0.724  0.00  0.00     0.039 A 
ATOM      3  C2  UNL d   1      -0.594  -5.356  -1.267  0.00  0.00    -0.080 A 
ATOM      4  C3  UNL d   1      -0.632  -3.964  -1.293  0.00  0.00     0.150 A 
ATOM      5  C4  UNL d   1       0.424  -3.212  -0.789  0.00  0.00    -0.007 A 
ATOM      6  C5  UNL d   1       1.535  -3.857  -0.247  0.00  0.00     0.039 A 
ENDROOT
BRANCH   4   7
ATOM      7  O   UNL d   1      -1.700  -3.291  -1.808  0.00  0.00    -0.526 OA
ATOM      8  H5  UNL d   1      -2.365  -3.940  -2.092  0.00  0.00     0.418 HD
ENDBRANCH   4   7
TORSDOF 1
ENDMDL
