MODEL 1
REMARK minimizedAffinity -4.21627712
REMARK minimizedRMSD -1
REMARK  1 active torsions:
REMARK  status: ('A' for Active; 'I' for Inactive)
REMARK    1  A    between atoms: C3_4  and  O_7 
ROOT
ATOM      1  C   UNL d   1      -0.466   0.253  -0.724  0.00  0.00    -0.033 A 
ATOM      2  C1  UNL d   1      -0.026   0.080   0.589  0.00  0.00     0.039 A 
ATOM      3  C2  UNL d   1      -0.365   1.013   1.570  0.00  0.00    -0.080 A 
ATOM      4  C3  UNL d   1      -1.145   2.113   1.226  0.00  0.00     0.150 A 
ATOM      5  C4  UNL d   1      -1.591   2.291  -0.080  0.00  0.00    -0.007 A 
ATOM      6  C5  UNL d   1      -1.250   1.358  -1.058  0.00  0.00     0.039 A 
ENDROOT
BRANCH   4   7
ATOM      7  O   UNL d   1      -1.498   3.053   2.148  0.00  0.00    -0.526 OA
ATOM      8  H5  UNL d   1      -1.095   2.815   3.000  0.00  0.00     0.418 HD
ENDBRANCH   4   7
TORSDOF 1
ENDMDL
