MODEL 1
REMARK minimizedAffinity -5.41645098
REMARK minimizedRMSD -1
REMARK  1 active torsions:
REMARK  status: ('A' for Active; 'I' for Inactive)
REMARK    1  A    between atoms: C3_4  and  O_7 
ROOT
ATOM      1  C   UNL d   1       0.817   0.406   0.425  0.00  0.00    -0.033 A 
ATOM      2  C1  UNL d   1      -0.028   1.116  -0.430  0.00  0.00     0.039 A 
ATOM      3  C2  UNL d   1      -0.915   2.061   0.089  0.00  0.00    -0.080 A 
ATOM      4  C3  UNL d   1      -0.946   2.288   1.463  0.00  0.00     0.150 A 
ATOM      5  C4  UNL d   1      -0.104   1.587   2.320  0.00  0.00    -0.007 A 
ATOM      6  C5  UNL d   1       0.780   0.643   1.800  0.00  0.00     0.039 A 
ENDROOT
BRANCH   4   7
ATOM      7  O   UNL d   1      -1.798   3.197   2.016  0.00  0.00    -0.526 OA
ATOM      8  H5  UNL d   1      -2.339   3.583   1.307  0.00  0.00     0.418 HD
ENDBRANCH   4   7
TORSDOF 1
ENDMDL
