MODEL 1
REMARK minimizedAffinity -3.37736225
REMARK minimizedRMSD -1
REMARK  1 active torsions:
REMARK  status: ('A' for Active; 'I' for Inactive)
REMARK    1  A    between atoms: C3_4  and  O_7 
ROOT
ATOM      1  C   UNL d   1       0.540   0.325  -0.826  0.00  0.00    -0.033 A 
ATOM      2  C1  UNL d   1       0.892   0.230   0.522  0.00  0.00     0.039 A 
ATOM      3  C2  UNL d   1       0.273   1.052   1.467  0.00  0.00    -0.080 A 
ATOM      4  C3  UNL d   1      -0.695   1.962   1.051  0.00  0.00     0.150 A 
ATOM      5  C4  UNL d   1      -1.053   2.059  -0.290  0.00  0.00    -0.007 A 
ATOM      6  C5  UNL d   1      -0.433   1.239  -1.231  0.00  0.00     0.039 A 
ENDROOT
BRANCH   4   7
ATOM      7  O   UNL d   1      -1.323   2.788   1.935  0.00  0.00    -0.526 OA
ATOM      8  H5  UNL d   1      -0.954   2.629   2.820  0.00  0.00     0.418 HD
ENDBRANCH   4   7
TORSDOF 1
ENDMDL
