MODEL 1
REMARK minimizedAffinity -0.689072132
REMARK minimizedRMSD -1
REMARK  0 active torsions:
REMARK  status: ('A' for Active; 'I' for Inactive)
ROOT
ATOM      1  C1  BNZ d   1      -4.049   5.957   4.914  0.00  0.00     0.000 A 
ATOM      2  C2  BNZ d   1      -4.215   5.130   3.835  0.00  0.00     0.000 A 
ATOM      3  C3  BNZ d   1      -5.204   4.187   3.821  0.00  0.00     0.000 A 
ATOM      4  C4  BNZ d   1      -6.000   4.045   4.901  0.00  0.00     0.000 A 
ATOM      5  C5  BNZ d   1      -5.840   4.865   6.000  0.00  0.00     0.000 A 
ATOM      6  C6  BNZ d   1      -4.868   5.839   5.995  0.00  0.00     0.000 A 
ENDROOT
TORSDOF 0
ENDMDL
