MODEL 1
REMARK minimizedAffinity 3.01441526
REMARK minimizedRMSD -1
REMARK  0 active torsions:
REMARK  status: ('A' for Active; 'I' for Inactive)
ROOT
ATOM      1  C1  BNZ d   1      -5.998   3.667   3.742  0.00  0.00     0.000 A 
ATOM      2  C2  BNZ d   1      -6.000   3.682   5.112  0.00  0.00     0.000 A 
ATOM      3  C3  BNZ d   1      -5.841   4.853   5.799  0.00  0.00     0.000 A 
ATOM      4  C4  BNZ d   1      -5.640   6.000   5.117  0.00  0.00     0.000 A 
ATOM      5  C5  BNZ d   1      -5.627   5.999   3.737  0.00  0.00     0.000 A 
ATOM      6  C6  BNZ d   1      -5.826   4.825   3.048  0.00  0.00     0.000 A 
ENDROOT
TORSDOF 0
ENDMDL
