MODEL 1
REMARK minimizedAffinity -3.09289813
REMARK minimizedRMSD -1
REMARK  0 active torsions:
REMARK  status: ('A' for Active; 'I' for Inactive)
ROOT
ATOM      1  C1  BNZ d   1       1.826  -4.044  -0.759  0.00  0.00     0.000 A 
ATOM      2  C2  BNZ d   1       2.489  -2.848  -0.688  0.00  0.00     0.000 A 
ATOM      3  C3  BNZ d   1       1.850  -1.675  -0.977  0.00  0.00     0.000 A 
ATOM      4  C4  BNZ d   1       0.561  -1.703  -1.375  0.00  0.00     0.000 A 
ATOM      5  C5  BNZ d   1      -0.118  -2.901  -1.460  0.00  0.00     0.000 A 
ATOM      6  C6  BNZ d   1       0.518  -4.077  -1.131  0.00  0.00     0.000 A 
ENDROOT
TORSDOF 0
ENDMDL
