MODEL 1
REMARK minimizedAffinity -2.8437686
REMARK minimizedRMSD -1
REMARK  0 active torsions:
REMARK  status: ('A' for Active; 'I' for Inactive)
ROOT
ATOM      1  C1  BNZ d   1      -4.051  -0.376  -0.193  0.00  0.00     0.000 A 
ATOM      2  C2  BNZ d   1      -4.078   0.975   0.028  0.00  0.00     0.000 A 
ATOM      3  C3  BNZ d   1      -5.041   1.536   0.820  0.00  0.00     0.000 A 
ATOM      4  C4  BNZ d   1      -5.999   0.752   1.355  0.00  0.00     0.000 A 
ATOM      5  C5  BNZ d   1      -5.991  -0.610   1.133  0.00  0.00     0.000 A 
ATOM      6  C6  BNZ d   1      -4.998  -1.177   0.368  0.00  0.00     0.000 A 
ENDROOT
TORSDOF 0
ENDMDL
