MODEL 1
REMARK minimizedAffinity 1.9701798
REMARK minimizedRMSD -1
REMARK  2 active torsions:
REMARK  status: ('A' for Active; 'I' for Inactive)
REMARK    1  A    between atoms: C1_2  and  C2_3 
REMARK    2  A    between atoms: C2_3  and  C3_4 
ROOT
ATOM      1  C3  UNL d   1      -5.924  -4.708  -1.042  0.00  0.00    -0.075 A 
ATOM      2  C4  UNL d   1      -5.778  -4.721  -2.437  0.00  0.00     0.002 A 
ATOM      3  C5  UNL d   1      -5.685  -3.525  -3.150  0.00  0.00     0.002 A 
ATOM      4  C6  UNL d   1      -5.747  -2.305  -2.481  0.00  0.00    -0.004 A 
ATOM      5  C7  UNL d   1      -5.908  -2.281  -1.098  0.00  0.00     0.002 A 
ATOM      6  C8  UNL d   1      -5.997  -3.475  -0.381  0.00  0.00     0.002 A 
ENDROOT
BRANCH   1   7
ATOM      7  C2  UNL d   1      -5.996  -5.999  -0.262  0.00  0.00     0.056 C 
BRANCH   7   8
ATOM      8  C1  UNL d   1      -5.157  -6.000   1.021  0.00  0.00     0.007 C 
ATOM      9  C   UNL d   1      -6.000  -5.984   2.289  0.00  0.00     0.009 C 
ENDBRANCH   7   8
ENDBRANCH   1   7
TORSDOF 2
ENDMDL
