MODEL 1
REMARK minimizedAffinity 9.49668884
REMARK minimizedRMSD -1
REMARK  2 active torsions:
REMARK  status: ('A' for Active; 'I' for Inactive)
REMARK    1  A    between atoms: C1_2  and  C2_3 
REMARK    2  A    between atoms: C2_3  and  C3_4 
ROOT
ATOM      1  C3  UNL d   1       3.753   4.310  -4.726  0.00  0.00    -0.075 A 
ATOM      2  C4  UNL d   1       3.240   3.201  -5.415  0.00  0.00     0.002 A 
ATOM      3  C5  UNL d   1       4.100   2.270  -5.999  0.00  0.00     0.002 A 
ATOM      4  C6  UNL d   1       5.480   2.441  -5.910  0.00  0.00    -0.004 A 
ATOM      5  C7  UNL d   1       6.000   3.547  -5.242  0.00  0.00     0.002 A 
ATOM      6  C8  UNL d   1       5.142   4.478  -4.654  0.00  0.00     0.002 A 
ENDROOT
BRANCH   1   7
ATOM      7  C2  UNL d   1       2.827   5.305  -4.067  0.00  0.00     0.056 C 
BRANCH   7   8
ATOM      8  C1  UNL d   1       2.638   5.080  -2.564  0.00  0.00     0.007 C 
ATOM      9  C   UNL d   1       2.253   3.649  -2.215  0.00  0.00     0.009 C 
ENDBRANCH   7   8
ENDBRANCH   1   7
TORSDOF 2
ENDMDL
