MODEL 1
REMARK minimizedAffinity 2.93747044
REMARK minimizedRMSD -1
REMARK  2 active torsions:
REMARK  status: ('A' for Active; 'I' for Inactive)
REMARK    1  A    between atoms: C1_2  and  C2_3 
REMARK    2  A    between atoms: C2_3  and  C3_4 
ROOT
ATOM      1  C3  UNL d   1       1.275  -0.388   3.254  0.00  0.00    -0.075 A 
ATOM      2  C4  UNL d   1       0.515  -1.371   3.904  0.00  0.00     0.002 A 
ATOM      3  C5  UNL d   1      -0.871  -1.414   3.747  0.00  0.00     0.002 A 
ATOM      4  C6  UNL d   1      -1.514  -0.470   2.949  0.00  0.00    -0.004 A 
ATOM      5  C7  UNL d   1      -0.771   0.522   2.313  0.00  0.00     0.002 A 
ATOM      6  C8  UNL d   1       0.616   0.564   2.464  0.00  0.00     0.002 A 
ENDROOT
BRANCH   1   7
ATOM      7  C2  UNL d   1       2.778  -0.354   3.396  0.00  0.00     0.056 C 
BRANCH   7   8
ATOM      8  C1  UNL d   1       3.526  -0.176   2.070  0.00  0.00     0.007 C 
ATOM      9  C   UNL d   1       5.036  -0.312   2.210  0.00  0.00     0.009 C 
ENDBRANCH   7   8
ENDBRANCH   1   7
TORSDOF 2
ENDMDL
