MODEL 1
REMARK minimizedAffinity 5.70375967
REMARK minimizedRMSD -1
REMARK  2 active torsions:
REMARK  status: ('A' for Active; 'I' for Inactive)
REMARK    1  A    between atoms: C1_2  and  C2_3 
REMARK    2  A    between atoms: C2_3  and  C3_4 
ROOT
ATOM      1  C3  UNL d   1      -1.113   1.006   3.098  0.00  0.00    -0.075 A 
ATOM      2  C4  UNL d   1      -1.996   0.489   2.139  0.00  0.00     0.002 A 
ATOM      3  C5  UNL d   1      -2.199  -0.887   2.032  0.00  0.00     0.002 A 
ATOM      4  C6  UNL d   1      -1.515  -1.763   2.872  0.00  0.00    -0.004 A 
ATOM      5  C7  UNL d   1      -0.622  -1.261   3.817  0.00  0.00     0.002 A 
ATOM      6  C8  UNL d   1      -0.421   0.115   3.930  0.00  0.00     0.002 A 
ENDROOT
BRANCH   1   7
ATOM      7  C2  UNL d   1      -0.912   2.496   3.239  0.00  0.00     0.056 C 
BRANCH   7   8
ATOM      8  C1  UNL d   1      -2.134   3.331   2.843  0.00  0.00     0.007 C 
ATOM      9  C   UNL d   1      -2.391   4.502   3.782  0.00  0.00     0.009 C 
ENDBRANCH   7   8
ENDBRANCH   1   7
TORSDOF 2
ENDMDL
