MODEL 1
REMARK minimizedAffinity 8.79600334
REMARK minimizedRMSD -1
REMARK  2 active torsions:
REMARK  status: ('A' for Active; 'I' for Inactive)
REMARK    1  A    between atoms: C1_2  and  C2_3 
REMARK    2  A    between atoms: C2_3  and  C3_4 
ROOT
ATOM      1  C3  UNL d   1       2.216   3.543  -2.304  0.00  0.00    -0.075 A 
ATOM      2  C4  UNL d   1       3.160   2.759  -2.983  0.00  0.00     0.002 A 
ATOM      3  C5  UNL d   1       3.929   3.307  -4.010  0.00  0.00     0.002 A 
ATOM      4  C6  UNL d   1       3.758   4.640  -4.377  0.00  0.00    -0.004 A 
ATOM      5  C7  UNL d   1       2.813   5.424  -3.719  0.00  0.00     0.002 A 
ATOM      6  C8  UNL d   1       2.045   4.879  -2.689  0.00  0.00     0.002 A 
ENDROOT
BRANCH   1   7
ATOM      7  C2  UNL d   1       1.402   2.964  -1.172  0.00  0.00     0.056 C 
BRANCH   7   8
ATOM      8  C1  UNL d   1       2.226   2.601   0.068  0.00  0.00     0.007 C 
ATOM      9  C   UNL d   1       1.395   2.532   1.342  0.00  0.00     0.009 C 
ENDBRANCH   7   8
ENDBRANCH   1   7
TORSDOF 2
ENDMDL
