MODEL 1
REMARK minimizedAffinity 11.1256495
REMARK minimizedRMSD -1
REMARK  2 active torsions:
REMARK  status: ('A' for Active; 'I' for Inactive)
REMARK    1  A    between atoms: C1_2  and  C2_3 
REMARK    2  A    between atoms: C2_3  and  C3_4 
ROOT
ATOM      1  C3  UNL d   1       2.822   2.493  -5.240  0.00  0.00    -0.075 A 
ATOM      2  C4  UNL d   1       3.823   3.144  -4.505  0.00  0.00     0.002 A 
ATOM      3  C5  UNL d   1       3.912   4.537  -4.508  0.00  0.00     0.002 A 
ATOM      4  C6  UNL d   1       3.010   5.294  -5.252  0.00  0.00    -0.004 A 
ATOM      5  C7  UNL d   1       2.021   4.657  -5.999  0.00  0.00     0.002 A 
ATOM      6  C8  UNL d   1       1.927   3.264  -5.994  0.00  0.00     0.002 A 
ENDROOT
BRANCH   1   7
ATOM      7  C2  UNL d   1       2.701   0.988  -5.217  0.00  0.00     0.056 C 
BRANCH   7   8
ATOM      8  C1  UNL d   1       1.490   0.471  -4.435  0.00  0.00     0.007 C 
ATOM      9  C   UNL d   1       1.871  -0.361  -3.217  0.00  0.00     0.009 C 
ENDBRANCH   7   8
ENDBRANCH   1   7
TORSDOF 2
ENDMDL
