MODEL 1
REMARK minimizedAffinity 1.83588171
REMARK minimizedRMSD -1
REMARK  2 active torsions:
REMARK  status: ('A' for Active; 'I' for Inactive)
REMARK    1  A    between atoms: C1_2  and  C2_3 
REMARK    2  A    between atoms: C2_3  and  C3_4 
ROOT
ATOM      1  C3  UNL d   1       1.643   0.817  -2.326  0.00  0.00    -0.075 A 
ATOM      2  C4  UNL d   1       2.629   1.809  -2.443  0.00  0.00     0.002 A 
ATOM      3  C5  UNL d   1       2.632   2.909  -1.586  0.00  0.00     0.002 A 
ATOM      4  C6  UNL d   1       1.647   3.038  -0.609  0.00  0.00    -0.004 A 
ATOM      5  C7  UNL d   1       0.654   2.068  -0.494  0.00  0.00     0.002 A 
ATOM      6  C8  UNL d   1       0.650   0.963  -1.348  0.00  0.00     0.002 A 
ENDROOT
BRANCH   1   7
ATOM      7  C2  UNL d   1       1.651  -0.391  -3.232  0.00  0.00     0.056 C 
BRANCH   7   8
ATOM      8  C1  UNL d   1       0.815  -1.565  -2.712  0.00  0.00     0.007 C 
ATOM      9  C   UNL d   1       0.750  -2.733  -3.687  0.00  0.00     0.009 C 
ENDBRANCH   7   8
ENDBRANCH   1   7
TORSDOF 2
ENDMDL
