MODEL 1
REMARK minimizedAffinity 0.469186544
REMARK minimizedRMSD -1
REMARK  2 active torsions:
REMARK  status: ('A' for Active; 'I' for Inactive)
REMARK    1  A    between atoms: C1_2  and  C2_3 
REMARK    2  A    between atoms: C2_3  and  C3_4 
ROOT
ATOM      1  C3  UNL d   1      -5.895  -4.125  -1.963  0.00  0.00    -0.075 A 
ATOM      2  C4  UNL d   1      -5.937  -3.881  -3.343  0.00  0.00     0.002 A 
ATOM      3  C5  UNL d   1      -5.983  -2.574  -3.829  0.00  0.00     0.002 A 
ATOM      4  C6  UNL d   1      -5.998  -1.498  -2.945  0.00  0.00    -0.004 A 
ATOM      5  C7  UNL d   1      -5.973  -1.730  -1.571  0.00  0.00     0.002 A 
ATOM      6  C8  UNL d   1      -5.923  -3.036  -1.082  0.00  0.00     0.002 A 
ENDROOT
BRANCH   1   7
ATOM      7  C2  UNL d   1      -5.815  -5.536  -1.430  0.00  0.00     0.056 C 
BRANCH   7   8
ATOM      8  C1  UNL d   1      -4.392  -5.999  -1.102  0.00  0.00     0.007 C 
ATOM      9  C   UNL d   1      -4.070  -5.940   0.386  0.00  0.00     0.009 C 
ENDBRANCH   7   8
ENDBRANCH   1   7
TORSDOF 2
ENDMDL
