MODEL 1
REMARK minimizedAffinity 8.87265968
REMARK minimizedRMSD -1
REMARK  2 active torsions:
REMARK  status: ('A' for Active; 'I' for Inactive)
REMARK    1  A    between atoms: C1_2  and  C2_3 
REMARK    2  A    between atoms: C2_3  and  C3_4 
ROOT
ATOM      1  C3  UNL d   1       2.405   3.024  -2.485  0.00  0.00    -0.075 A 
ATOM      2  C4  UNL d   1       3.464   2.574  -3.288  0.00  0.00     0.002 A 
ATOM      3  C5  UNL d   1       4.074   3.434  -4.202  0.00  0.00     0.002 A 
ATOM      4  C6  UNL d   1       3.630   4.748  -4.332  0.00  0.00    -0.004 A 
ATOM      5  C7  UNL d   1       2.568   5.200  -3.551  0.00  0.00     0.002 A 
ATOM      6  C8  UNL d   1       1.958   4.344  -2.633  0.00  0.00     0.002 A 
ENDROOT
BRANCH   1   7
ATOM      7  C2  UNL d   1       1.759   2.108  -1.474  0.00  0.00     0.056 C 
BRANCH   7   8
ATOM      8  C1  UNL d   1       0.645   1.229  -2.051  0.00  0.00     0.007 C 
ATOM      9  C   UNL d   1       1.156  -0.079  -2.640  0.00  0.00     0.009 C 
ENDBRANCH   7   8
ENDBRANCH   1   7
TORSDOF 2
ENDMDL
