MODEL 1
REMARK minimizedAffinity -2.0637331
REMARK minimizedRMSD -1
REMARK  0 active torsions:
REMARK  status: ('A' for Active; 'I' for Inactive)
ROOT
ATOM      1  C2' OXE d   1       1.483   0.777   0.363  0.00  0.00     0.078 C 
ATOM      2  C1' OXE d   1       0.101  -1.480   1.301  0.00  0.00     0.078 C 
ATOM      3  C1  OXE d   1      -0.398  -0.824   0.038  0.00  0.00    -0.078 A 
ATOM      4  C2  OXE d   1       0.256   0.307  -0.388  0.00  0.00    -0.078 A 
ATOM      5  C3  OXE d   1      -0.130   0.919  -1.577  0.00  0.00     0.003 A 
ATOM      6  C4  OXE d   1      -1.272   0.484  -2.261  0.00  0.00    -0.002 A 
ATOM      7  C5  OXE d   1      -1.976  -0.643  -1.822  0.00  0.00    -0.002 A 
ATOM      8  C6  OXE d   1      -1.528  -1.332  -0.701  0.00  0.00     0.003 A 
ENDROOT
TORSDOF 0
ENDMDL
