MODEL 1
REMARK minimizedAffinity -1.16704929
REMARK minimizedRMSD -1
REMARK  0 active torsions:
REMARK  status: ('A' for Active; 'I' for Inactive)
ROOT
ATOM      1  C2' OXE d   1       1.471  -1.103   0.723  0.00  0.00     0.078 C 
ATOM      2  C1' OXE d   1       1.831   1.666   0.430  0.00  0.00     0.078 C 
ATOM      3  C1  OXE d   1       0.611   1.044  -0.202  0.00  0.00    -0.078 A 
ATOM      4  C2  OXE d   1       0.467  -0.318  -0.094  0.00  0.00    -0.078 A 
ATOM      5  C3  OXE d   1      -0.668  -0.935  -0.612  0.00  0.00     0.003 A 
ATOM      6  C4  OXE d   1      -1.586  -0.204  -1.375  0.00  0.00    -0.002 A 
ATOM      7  C5  OXE d   1      -1.438   1.178  -1.532  0.00  0.00    -0.002 A 
ATOM      8  C6  OXE d   1      -0.370   1.823  -0.917  0.00  0.00     0.003 A 
ENDROOT
TORSDOF 0
ENDMDL
