MODEL 1
REMARK minimizedAffinity -2.04093456
REMARK minimizedRMSD -1
REMARK  0 active torsions:
REMARK  status: ('A' for Active; 'I' for Inactive)
ROOT
ATOM      1  C2' OXE d   1       1.547  -0.648   0.478  0.00  0.00     0.078 C 
ATOM      2  C1' OXE d   1      -0.567  -2.270   1.360  0.00  0.00     0.078 C 
ATOM      3  C1  OXE d   1      -0.804  -1.403   0.149  0.00  0.00    -0.078 A 
ATOM      4  C2  OXE d   1       0.221  -0.578  -0.248  0.00  0.00    -0.078 A 
ATOM      5  C3  OXE d   1       0.075   0.201  -1.392  0.00  0.00     0.003 A 
ATOM      6  C4  OXE d   1      -1.158   0.268  -2.052  0.00  0.00    -0.002 A 
ATOM      7  C5  OXE d   1      -2.228  -0.535  -1.640  0.00  0.00    -0.002 A 
ATOM      8  C6  OXE d   1      -2.054  -1.405  -0.570  0.00  0.00     0.003 A 
ENDROOT
TORSDOF 0
ENDMDL
