MODEL 1
REMARK minimizedAffinity -4.57583523
REMARK minimizedRMSD -1
REMARK  0 active torsions:
REMARK  status: ('A' for Active; 'I' for Inactive)
ROOT
ATOM      1  C2' OXE d   1       1.083   0.239   0.141  0.00  0.00     0.078 C 
ATOM      2  C1' OXE d   1      -0.461  -1.689   1.474  0.00  0.00     0.078 C 
ATOM      3  C1  OXE d   1      -1.088  -0.972   0.305  0.00  0.00    -0.078 A 
ATOM      4  C2  OXE d   1      -0.342   0.003  -0.312  0.00  0.00    -0.078 A 
ATOM      5  C3  OXE d   1      -0.852   0.657  -1.430  0.00  0.00     0.003 A 
ATOM      6  C4  OXE d   1      -2.174   0.440  -1.836  0.00  0.00    -0.002 A 
ATOM      7  C5  OXE d   1      -2.965  -0.520  -1.197  0.00  0.00    -0.002 A 
ATOM      8  C6  OXE d   1      -2.424  -1.264  -0.154  0.00  0.00     0.003 A 
ENDROOT
TORSDOF 0
ENDMDL
