MODEL 1
REMARK minimizedAffinity -3.41434145
REMARK minimizedRMSD -1
REMARK  0 active torsions:
REMARK  status: ('A' for Active; 'I' for Inactive)
ROOT
ATOM      1  C2' OXE d   1      -0.997   0.298  -2.063  0.00  0.00     0.078 C 
ATOM      2  C1' OXE d   1       0.743   0.276   0.139  0.00  0.00     0.078 C 
ATOM      3  C1  OXE d   1      -0.447  -0.650   0.173  0.00  0.00    -0.078 A 
ATOM      4  C2  OXE d   1      -1.319  -0.599  -0.888  0.00  0.00    -0.078 A 
ATOM      5  C3  OXE d   1      -2.403  -1.471  -0.932  0.00  0.00     0.003 A 
ATOM      6  C4  OXE d   1      -2.699  -2.290   0.165  0.00  0.00    -0.002 A 
ATOM      7  C5  OXE d   1      -1.846  -2.329   1.273  0.00  0.00    -0.002 A 
ATOM      8  C6  OXE d   1      -0.695  -1.548   1.274  0.00  0.00     0.003 A 
ENDROOT
TORSDOF 0
ENDMDL
