MODEL 1
REMARK minimizedAffinity -3.39601564
REMARK minimizedRMSD -1
REMARK  0 active torsions:
REMARK  status: ('A' for Active; 'I' for Inactive)
ROOT
ATOM      1  C2' OXE d   1      -1.387   0.292  -1.676  0.00  0.00     0.078 C 
ATOM      2  C1' OXE d   1       0.703  -0.149   0.146  0.00  0.00     0.078 C 
ATOM      3  C1  OXE d   1      -0.430  -1.145   0.120  0.00  0.00    -0.078 A 
ATOM      4  C2  OXE d   1      -1.471  -0.896  -0.742  0.00  0.00    -0.078 A 
ATOM      5  C3  OXE d   1      -2.514  -1.811  -0.845  0.00  0.00     0.003 A 
ATOM      6  C4  OXE d   1      -2.589  -2.902   0.030  0.00  0.00    -0.002 A 
ATOM      7  C5  OXE d   1      -1.559  -3.152   0.943  0.00  0.00    -0.002 A 
ATOM      8  C6  OXE d   1      -0.454  -2.309   0.971  0.00  0.00     0.003 A 
ENDROOT
TORSDOF 0
ENDMDL
