MODEL 1
REMARK minimizedAffinity -0.0741359964
REMARK minimizedRMSD -1
REMARK  0 active torsions:
REMARK  status: ('A' for Active; 'I' for Inactive)
ROOT
ATOM      1  C2' OXE d   1       1.192   0.856   0.529  0.00  0.00     0.078 C 
ATOM      2  C1' OXE d   1       0.224  -1.665   1.297  0.00  0.00     0.078 C 
ATOM      3  C1  OXE d   1      -0.464  -0.967   0.151  0.00  0.00    -0.078 A 
ATOM      4  C2  OXE d   1      -0.014   0.287  -0.188  0.00  0.00    -0.078 A 
ATOM      5  C3  OXE d   1      -0.577   0.951  -1.274  0.00  0.00     0.003 A 
ATOM      6  C4  OXE d   1      -1.698   0.422  -1.925  0.00  0.00    -0.002 A 
ATOM      7  C5  OXE d   1      -2.197  -0.835  -1.569  0.00  0.00    -0.002 A 
ATOM      8  C6  OXE d   1      -1.567  -1.560  -0.564  0.00  0.00     0.003 A 
ENDROOT
TORSDOF 0
ENDMDL
