MODEL 1
REMARK minimizedAffinity -2.63670588
REMARK minimizedRMSD -1
REMARK  0 active torsions:
REMARK  status: ('A' for Active; 'I' for Inactive)
ROOT
ATOM      1  C2' OXE d   1       1.207   0.042   0.348  0.00  0.00     0.078 C 
ATOM      2  C1' OXE d   1       0.170  -2.187   1.703  0.00  0.00     0.078 C 
ATOM      3  C1  OXE d   1      -0.602  -1.662   0.519  0.00  0.00    -0.078 A 
ATOM      4  C2  OXE d   1      -0.112  -0.543  -0.110  0.00  0.00    -0.078 A 
ATOM      5  C3  OXE d   1      -0.756  -0.050  -1.241  0.00  0.00     0.003 A 
ATOM      6  C4  OXE d   1      -1.980  -0.591  -1.652  0.00  0.00    -0.002 A 
ATOM      7  C5  OXE d   1      -2.518  -1.706  -1.001  0.00  0.00    -0.002 A 
ATOM      8  C6  OXE d   1      -1.821  -2.279   0.057  0.00  0.00     0.003 A 
ENDROOT
TORSDOF 0
ENDMDL
