MODEL 1
REMARK minimizedAffinity -4.19467592
REMARK minimizedRMSD -1
REMARK  0 active torsions:
REMARK  status: ('A' for Active; 'I' for Inactive)
ROOT
ATOM      1  C2' OXE d   1       0.854  -0.042  -0.007  0.00  0.00     0.078 C 
ATOM      2  C1' OXE d   1      -1.196   0.036  -1.923  0.00  0.00     0.078 C 
ATOM      3  C1  OXE d   1      -1.225  -1.078  -0.906  0.00  0.00    -0.078 A 
ATOM      4  C2  OXE d   1      -0.193  -1.135  -0.002  0.00  0.00    -0.078 A 
ATOM      5  C3  OXE d   1      -0.200  -2.110   0.992  0.00  0.00     0.003 A 
ATOM      6  C4  OXE d   1      -1.167  -3.123   0.984  0.00  0.00    -0.002 A 
ATOM      7  C5  OXE d   1      -2.205  -3.107   0.046  0.00  0.00    -0.002 A 
ATOM      8  C6  OXE d   1      -2.273  -2.069  -0.877  0.00  0.00     0.003 A 
ENDROOT
TORSDOF 0
ENDMDL
