MODEL 1
REMARK minimizedAffinity -4.90477419
REMARK minimizedRMSD -1
REMARK  0 active torsions:
REMARK  status: ('A' for Active; 'I' for Inactive)
ROOT
ATOM      1  C2' OXE d   1      -1.503   0.748  -1.606  0.00  0.00     0.078 C 
ATOM      2  C1' OXE d   1       0.725   0.336   0.053  0.00  0.00     0.078 C 
ATOM      3  C1  OXE d   1      -0.424  -0.635   0.164  0.00  0.00    -0.078 A 
ATOM      4  C2  OXE d   1      -1.530  -0.399  -0.618  0.00  0.00    -0.078 A 
ATOM      5  C3  OXE d   1      -2.595  -1.294  -0.594  0.00  0.00     0.003 A 
ATOM      6  C4  OXE d   1      -2.616  -2.346   0.330  0.00  0.00    -0.002 A 
ATOM      7  C5  OXE d   1      -1.518  -2.581   1.163  0.00  0.00    -0.002 A 
ATOM      8  C6  OXE d   1      -0.399  -1.762   1.063  0.00  0.00     0.003 A 
ENDROOT
TORSDOF 0
ENDMDL
