MODEL 1
REMARK minimizedAffinity -2.65586352
REMARK minimizedRMSD -1
REMARK  0 active torsions:
REMARK  status: ('A' for Active; 'I' for Inactive)
ROOT
ATOM      1  C2' OXE d   1      -2.302  -0.288   1.124  0.00  0.00     0.078 C 
ATOM      2  C1' OXE d   1      -0.433  -2.208   1.962  0.00  0.00     0.078 C 
ATOM      3  C1  OXE d   1       0.086  -0.989   1.241  0.00  0.00    -0.078 A 
ATOM      4  C2  OXE d   1      -0.840  -0.077   0.793  0.00  0.00    -0.078 A 
ATOM      5  C3  OXE d   1      -0.411   1.092   0.171  0.00  0.00     0.003 A 
ATOM      6  C4  OXE d   1       0.942   1.274  -0.140  0.00  0.00    -0.002 A 
ATOM      7  C5  OXE d   1       1.897   0.339   0.272  0.00  0.00    -0.002 A 
ATOM      8  C6  OXE d   1       1.491  -0.775   1.000  0.00  0.00     0.003 A 
ENDROOT
TORSDOF 0
ENDMDL
