MODEL 1
REMARK minimizedAffinity -3.63566208
REMARK minimizedRMSD -1
REMARK  0 active torsions:
REMARK  status: ('A' for Active; 'I' for Inactive)
ROOT
ATOM      1  C2' OXE d   1       1.464   0.007  -0.014  0.00  0.00     0.078 C 
ATOM      2  C1' OXE d   1       0.265  -1.949   1.604  0.00  0.00     0.078 C 
ATOM      3  C1  OXE d   1      -0.554  -1.368   0.478  0.00  0.00    -0.078 A 
ATOM      4  C2  OXE d   1       0.024  -0.378  -0.279  0.00  0.00    -0.078 A 
ATOM      5  C3  OXE d   1      -0.668   0.153  -1.364  0.00  0.00     0.003 A 
ATOM      6  C4  OXE d   1      -2.002  -0.201  -1.596  0.00  0.00    -0.002 A 
ATOM      7  C5  OXE d   1      -2.624  -1.178  -0.812  0.00  0.00    -0.002 A 
ATOM      8  C6  OXE d   1      -1.901  -1.801   0.201  0.00  0.00     0.003 A 
ENDROOT
TORSDOF 0
ENDMDL
