MODEL 1
REMARK minimizedAffinity -4.64745188
REMARK minimizedRMSD -1
REMARK  0 active torsions:
REMARK  status: ('A' for Active; 'I' for Inactive)
ROOT
ATOM      1  C2' OXE d   1       3.139   1.979   1.222  0.00  0.00     0.078 C 
ATOM      2  C1' OXE d   1       0.757   3.363   1.759  0.00  0.00     0.078 C 
ATOM      3  C1  OXE d   1       0.665   2.088   0.958  0.00  0.00    -0.078 A 
ATOM      4  C2  OXE d   1       1.840   1.442   0.661  0.00  0.00    -0.078 A 
ATOM      5  C3  OXE d   1       1.807   0.233  -0.028  0.00  0.00     0.003 A 
ATOM      6  C4  OXE d   1       0.603  -0.252  -0.552  0.00  0.00    -0.002 A 
ATOM      7  C5  OXE d   1      -0.601   0.412  -0.294  0.00  0.00    -0.002 A 
ATOM      8  C6  OXE d   1      -0.593   1.558   0.494  0.00  0.00     0.003 A 
ENDROOT
TORSDOF 0
ENDMDL
