MODEL 1
REMARK minimizedAffinity -2.27659011
REMARK minimizedRMSD -1
REMARK  0 active torsions:
REMARK  status: ('A' for Active; 'I' for Inactive)
ROOT
ATOM      1  C2' OXE d   1      -0.825   2.916  -1.027  0.00  0.00     0.078 C 
ATOM      2  C1' OXE d   1       1.483   1.767   0.085  0.00  0.00     0.078 C 
ATOM      3  C1  OXE d   1       0.328   0.852  -0.242  0.00  0.00    -0.078 A 
ATOM      4  C2  OXE d   1      -0.814   1.430  -0.742  0.00  0.00    -0.078 A 
ATOM      5  C3  OXE d   1      -1.888   0.625  -1.111  0.00  0.00     0.003 A 
ATOM      6  C4  OXE d   1      -1.874  -0.747  -0.835  0.00  0.00    -0.002 A 
ATOM      7  C5  OXE d   1      -0.735  -1.350  -0.289  0.00  0.00    -0.002 A 
ATOM      8  C6  OXE d   1       0.388  -0.572  -0.027  0.00  0.00     0.003 A 
ENDROOT
TORSDOF 0
ENDMDL
