MODEL 1
REMARK minimizedAffinity -5.49051285
REMARK minimizedRMSD -1
REMARK  0 active torsions:
REMARK  status: ('A' for Active; 'I' for Inactive)
ROOT
ATOM      1  C2' OXE d   1       1.141  -1.502   1.091  0.00  0.00     0.078 C 
ATOM      2  C1' OXE d   1       1.471   1.260   0.715  0.00  0.00     0.078 C 
ATOM      3  C1  OXE d   1       0.075   0.698   0.612  0.00  0.00    -0.078 A 
ATOM      4  C2  OXE d   1      -0.071  -0.661   0.751  0.00  0.00    -0.078 A 
ATOM      5  C3  OXE d   1      -1.343  -1.225   0.720  0.00  0.00     0.003 A 
ATOM      6  C4  OXE d   1      -2.457  -0.441   0.395  0.00  0.00    -0.002 A 
ATOM      7  C5  OXE d   1      -2.325   0.939   0.210  0.00  0.00    -0.002 A 
ATOM      8  C6  OXE d   1      -1.075   1.529   0.357  0.00  0.00     0.003 A 
ENDROOT
TORSDOF 0
ENDMDL
