MODEL 1
REMARK minimizedAffinity -5.0881443
REMARK minimizedRMSD -1
REMARK  0 active torsions:
REMARK  status: ('A' for Active; 'I' for Inactive)
ROOT
ATOM      1  C2' OXE d   1      -2.175  -1.096  -1.938  0.00  0.00     0.078 C 
ATOM      2  C1' OXE d   1      -3.190  -0.298   0.555  0.00  0.00     0.078 C 
ATOM      3  C1  OXE d   1      -1.716  -0.105   0.301  0.00  0.00    -0.078 A 
ATOM      4  C2  OXE d   1      -1.219  -0.541  -0.904  0.00  0.00    -0.078 A 
ATOM      5  C3  OXE d   1       0.123  -0.337  -1.211  0.00  0.00     0.003 A 
ATOM      6  C4  OXE d   1       1.002   0.168  -0.245  0.00  0.00    -0.002 A 
ATOM      7  C5  OXE d   1       0.525   0.582   1.003  0.00  0.00    -0.002 A 
ATOM      8  C6  OXE d   1      -0.836   0.492   1.275  0.00  0.00     0.003 A 
ENDROOT
TORSDOF 0
ENDMDL
