MODEL 1
REMARK minimizedAffinity -0.441637516
REMARK minimizedRMSD -1
REMARK  0 active torsions:
REMARK  status: ('A' for Active; 'I' for Inactive)
ROOT
ATOM      1  C2' OXE d   1       1.432   1.155  -0.777  0.00  0.00     0.078 C 
ATOM      2  C1' OXE d   1      -0.131   1.051  -3.106  0.00  0.00     0.078 C 
ATOM      3  C1  OXE d   1      -0.618   0.291  -1.898  0.00  0.00    -0.078 A 
ATOM      4  C2  OXE d   1       0.177   0.310  -0.777  0.00  0.00    -0.078 A 
ATOM      5  C3  OXE d   1      -0.252  -0.329   0.383  0.00  0.00     0.003 A 
ATOM      6  C4  OXE d   1      -1.409  -1.117   0.372  0.00  0.00    -0.002 A 
ATOM      7  C5  OXE d   1      -2.213  -1.182  -0.771  0.00  0.00    -0.002 A 
ATOM      8  C6  OXE d   1      -1.854  -0.451  -1.899  0.00  0.00     0.003 A 
ENDROOT
TORSDOF 0
ENDMDL
