MODEL 1
REMARK minimizedAffinity 10.5334835
REMARK minimizedRMSD -1
REMARK  0 active torsions:
REMARK  status: ('A' for Active; 'I' for Inactive)
ROOT
ATOM      1  C   UNL d   1       1.652  -2.110   4.544  0.00  0.00     0.078 C 
ATOM      2  C1  UNL d   1       0.540  -1.480   3.760  0.00  0.00    -0.077 A 
ATOM      3  C2  UNL d   1      -0.744  -2.040   3.752  0.00  0.00    -0.001 A 
ATOM      4  C3  UNL d   1      -1.767  -1.448   3.009  0.00  0.00     0.003 A 
ATOM      5  C4  UNL d   1      -1.517  -0.295   2.268  0.00  0.00    -0.005 A 
ATOM      6  C5  UNL d   1      -0.243   0.268   2.268  0.00  0.00     0.003 A 
ATOM      7  C6  UNL d   1       0.782  -0.322   3.010  0.00  0.00    -0.001 A 
ENDROOT
TORSDOF 0
ENDMDL
