MODEL 1
REMARK minimizedAffinity 5.65611029
REMARK minimizedRMSD -1
REMARK  0 active torsions:
REMARK  status: ('A' for Active; 'I' for Inactive)
ROOT
ATOM      1  C   UNL d   1       1.989  -1.622   4.863  0.00  0.00     0.078 C 
ATOM      2  C1  UNL d   1       1.244  -0.684   3.960  0.00  0.00    -0.077 A 
ATOM      3  C2  UNL d   1       0.909   0.608   4.382  0.00  0.00    -0.001 A 
ATOM      4  C3  UNL d   1       0.206   1.467   3.535  0.00  0.00     0.003 A 
ATOM      5  C4  UNL d   1      -0.168   1.042   2.262  0.00  0.00    -0.005 A 
ATOM      6  C5  UNL d   1       0.159  -0.243   1.834  0.00  0.00     0.003 A 
ATOM      7  C6  UNL d   1       0.861  -1.103   2.680  0.00  0.00    -0.001 A 
ENDROOT
TORSDOF 0
ENDMDL
