MODEL 1
REMARK minimizedAffinity 10.6904955
REMARK minimizedRMSD -1
REMARK  0 active torsions:
REMARK  status: ('A' for Active; 'I' for Inactive)
ROOT
ATOM      1  C   UNL d   1       5.289   1.844   4.408  0.00  0.00     0.078 C 
ATOM      2  C1  UNL d   1       5.326   3.291   4.017  0.00  0.00    -0.077 A 
ATOM      3  C2  UNL d   1       5.980   4.238   4.816  0.00  0.00    -0.001 A 
ATOM      4  C3  UNL d   1       5.998   5.583   4.444  0.00  0.00     0.003 A 
ATOM      5  C4  UNL d   1       5.363   5.994   3.274  0.00  0.00    -0.005 A 
ATOM      6  C5  UNL d   1       4.708   5.060   2.474  0.00  0.00     0.003 A 
ATOM      7  C6  UNL d   1       4.689   3.715   2.844  0.00  0.00    -0.001 A 
ENDROOT
TORSDOF 0
ENDMDL
