MODEL 1
REMARK minimizedAffinity 6.39996004
REMARK minimizedRMSD -1
REMARK  0 active torsions:
REMARK  status: ('A' for Active; 'I' for Inactive)
ROOT
ATOM      1  C   UNL d   1       0.425   0.414   3.250  0.00  0.00     0.078 C 
ATOM      2  C1  UNL d   1      -1.043   0.171   3.063  0.00  0.00    -0.077 A 
ATOM      3  C2  UNL d   1      -1.636  -1.022   3.493  0.00  0.00    -0.001 A 
ATOM      4  C3  UNL d   1      -3.002  -1.239   3.304  0.00  0.00     0.003 A 
ATOM      5  C4  UNL d   1      -3.786  -0.267   2.684  0.00  0.00    -0.005 A 
ATOM      6  C5  UNL d   1      -3.203   0.922   2.251  0.00  0.00     0.003 A 
ATOM      7  C6  UNL d   1      -1.838   1.141   2.439  0.00  0.00    -0.001 A 
ENDROOT
TORSDOF 0
ENDMDL
