MODEL 1
REMARK minimizedAffinity 7.0308671
REMARK minimizedRMSD -1
REMARK  0 active torsions:
REMARK  status: ('A' for Active; 'I' for Inactive)
ROOT
ATOM      1  C   UNL d   1       3.791   0.382  -5.439  0.00  0.00     0.078 C 
ATOM      2  C1  UNL d   1       2.478  -0.341  -5.437  0.00  0.00    -0.077 A 
ATOM      3  C2  UNL d   1       2.355  -1.617  -6.000  0.00  0.00    -0.001 A 
ATOM      4  C3  UNL d   1       1.124  -2.274  -5.999  0.00  0.00     0.003 A 
ATOM      5  C4  UNL d   1       0.005  -1.662  -5.438  0.00  0.00    -0.005 A 
ATOM      6  C5  UNL d   1       0.116  -0.391  -4.877  0.00  0.00     0.003 A 
ATOM      7  C6  UNL d   1       1.347   0.267  -4.877  0.00  0.00    -0.001 A 
ENDROOT
TORSDOF 0
ENDMDL
