MODEL 1
REMARK minimizedAffinity 12.2069893
REMARK minimizedRMSD -1
REMARK  0 active torsions:
REMARK  status: ('A' for Active; 'I' for Inactive)
ROOT
ATOM      1  C   UNL d   1      -1.630   0.888   2.485  0.00  0.00     0.078 C 
ATOM      2  C1  UNL d   1      -0.362   0.159   2.816  0.00  0.00    -0.077 A 
ATOM      3  C2  UNL d   1      -0.389  -1.067   3.491  0.00  0.00    -0.001 A 
ATOM      4  C3  UNL d   1       0.800  -1.729   3.801  0.00  0.00     0.003 A 
ATOM      5  C4  UNL d   1       2.025  -1.172   3.441  0.00  0.00    -0.005 A 
ATOM      6  C5  UNL d   1       2.063   0.049   2.771  0.00  0.00     0.003 A 
ATOM      7  C6  UNL d   1       0.875   0.713   2.460  0.00  0.00    -0.001 A 
ENDROOT
TORSDOF 0
ENDMDL
