MODEL 1
REMARK minimizedAffinity 5.55292082
REMARK minimizedRMSD -1
REMARK  0 active torsions:
REMARK  status: ('A' for Active; 'I' for Inactive)
ROOT
ATOM      1  C   UNL d   1      -1.961  -1.461  -3.374  0.00  0.00     0.078 C 
ATOM      2  C1  UNL d   1      -0.692  -1.338  -4.164  0.00  0.00    -0.077 A 
ATOM      3  C2  UNL d   1      -0.456  -2.150  -5.280  0.00  0.00    -0.001 A 
ATOM      4  C3  UNL d   1       0.734  -2.032  -6.000  0.00  0.00     0.003 A 
ATOM      5  C4  UNL d   1       1.698  -1.103  -5.611  0.00  0.00    -0.005 A 
ATOM      6  C5  UNL d   1       1.472  -0.293  -4.500  0.00  0.00     0.003 A 
ATOM      7  C6  UNL d   1       0.283  -0.410  -3.779  0.00  0.00    -0.001 A 
ENDROOT
TORSDOF 0
ENDMDL
