MODEL 1
REMARK minimizedAffinity 5.81461048
REMARK minimizedRMSD -1
REMARK  0 active torsions:
REMARK  status: ('A' for Active; 'I' for Inactive)
ROOT
ATOM      1  C1  BNZ d   1       2.626  -2.342  -0.328  0.00  0.00     0.000 A 
ATOM      2  C2  BNZ d   1       2.630  -1.162   0.367  0.00  0.00     0.000 A 
ATOM      3  C3  BNZ d   1       2.035  -0.044  -0.147  0.00  0.00     0.000 A 
ATOM      4  C4  BNZ d   1       1.473  -0.096  -1.372  0.00  0.00     0.000 A 
ATOM      5  C5  BNZ d   1       1.468  -1.276  -2.089  0.00  0.00     0.000 A 
ATOM      6  C6  BNZ d   1       2.034  -2.409  -1.551  0.00  0.00     0.000 A 
ENDROOT
TORSDOF 0
ENDMDL
