MODEL 1
REMARK minimizedAffinity 11.7337141
REMARK minimizedRMSD -1
REMARK  0 active torsions:
REMARK  status: ('A' for Active; 'I' for Inactive)
ROOT
ATOM      1  C1  BNZ d   1       3.539   2.016  -1.039  0.00  0.00     0.000 A 
ATOM      2  C2  BNZ d   1       2.512   1.394  -1.697  0.00  0.00     0.000 A 
ATOM      3  C3  BNZ d   1       2.226   0.078  -1.465  0.00  0.00     0.000 A 
ATOM      4  C4  BNZ d   1       2.992  -0.625  -0.605  0.00  0.00     0.000 A 
ATOM      5  C5  BNZ d   1       4.037  -0.015   0.060  0.00  0.00     0.000 A 
ATOM      6  C6  BNZ d   1       4.297   1.321  -0.148  0.00  0.00     0.000 A 
ENDROOT
TORSDOF 0
ENDMDL
