MODEL 1
REMARK minimizedAffinity 4.11839819
REMARK minimizedRMSD -1
REMARK  0 active torsions:
REMARK  status: ('A' for Active; 'I' for Inactive)
ROOT
ATOM      1  C1  BNZ d   1       0.680   5.984  -0.000  0.00  0.00     0.000 A 
ATOM      2  C2  BNZ d   1       0.892   5.995  -1.353  0.00  0.00     0.000 A 
ATOM      3  C3  BNZ d   1       2.160   5.982  -1.863  0.00  0.00     0.000 A 
ATOM      4  C4  BNZ d   1       3.213   5.999  -1.021  0.00  0.00     0.000 A 
ATOM      5  C5  BNZ d   1       3.016   5.997   0.345  0.00  0.00     0.000 A 
ATOM      6  C6  BNZ d   1       1.738   5.970   0.855  0.00  0.00     0.000 A 
ENDROOT
TORSDOF 0
ENDMDL
