MODEL 1
REMARK minimizedAffinity -0.949181855
REMARK minimizedRMSD -1
REMARK  0 active torsions:
REMARK  status: ('A' for Active; 'I' for Inactive)
ROOT
ATOM      1  C1  BNZ d   1       5.999  -4.533   0.358  0.00  0.00     0.000 A 
ATOM      2  C2  BNZ d   1       4.846  -5.121  -0.092  0.00  0.00     0.000 A 
ATOM      3  C3  BNZ d   1       3.678  -4.415  -0.154  0.00  0.00     0.000 A 
ATOM      4  C4  BNZ d   1       3.654  -3.134   0.269  0.00  0.00     0.000 A 
ATOM      5  C5  BNZ d   1       4.805  -2.530   0.733  0.00  0.00     0.000 A 
ATOM      6  C6  BNZ d   1       5.988  -3.233   0.759  0.00  0.00     0.000 A 
ENDROOT
TORSDOF 0
ENDMDL
