MODEL 1
REMARK minimizedAffinity 14.0097485
REMARK minimizedRMSD -1
REMARK  0 active torsions:
REMARK  status: ('A' for Active; 'I' for Inactive)
ROOT
ATOM      1  C1  BNZ d   1      -4.951  -4.113  -5.331  0.00  0.00     0.000 A 
ATOM      2  C2  BNZ d   1      -3.767  -4.065  -4.645  0.00  0.00     0.000 A 
ATOM      3  C3  BNZ d   1      -3.023  -2.919  -4.610  0.00  0.00     0.000 A 
ATOM      4  C4  BNZ d   1      -3.443  -1.835  -5.295  0.00  0.00     0.000 A 
ATOM      5  C5  BNZ d   1      -4.630  -1.871  -6.000  0.00  0.00     0.000 A 
ATOM      6  C6  BNZ d   1      -5.395  -3.014  -6.000  0.00  0.00     0.000 A 
ENDROOT
TORSDOF 0
ENDMDL
