MODEL 1
REMARK minimizedAffinity 11.4911547
REMARK minimizedRMSD -1
REMARK  0 active torsions:
REMARK  status: ('A' for Active; 'I' for Inactive)
ROOT
ATOM      1  C1  BNZ d   1       2.969   4.327  -1.723  0.00  0.00     0.000 A 
ATOM      2  C2  BNZ d   1       3.470   3.067  -1.914  0.00  0.00     0.000 A 
ATOM      3  C3  BNZ d   1       2.805   2.160  -2.691  0.00  0.00     0.000 A 
ATOM      4  C4  BNZ d   1       1.621   2.500  -3.241  0.00  0.00     0.000 A 
ATOM      5  C5  BNZ d   1       1.098   3.763  -3.049  0.00  0.00     0.000 A 
ATOM      6  C6  BNZ d   1       1.789   4.686  -2.299  0.00  0.00     0.000 A 
ENDROOT
TORSDOF 0
ENDMDL
