MODEL 1
REMARK minimizedAffinity 10.1511745
REMARK minimizedRMSD -1
REMARK  0 active torsions:
REMARK  status: ('A' for Active; 'I' for Inactive)
ROOT
ATOM      1  C1  BNZ d   1       2.425   4.164  -0.204  0.00  0.00     0.000 A 
ATOM      2  C2  BNZ d   1       2.698   3.237   0.766  0.00  0.00     0.000 A 
ATOM      3  C3  BNZ d   1       3.104   1.975   0.433  0.00  0.00     0.000 A 
ATOM      4  C4  BNZ d   1       3.196   1.629  -0.867  0.00  0.00     0.000 A 
ATOM      5  C5  BNZ d   1       2.915   2.550  -1.857  0.00  0.00     0.000 A 
ATOM      6  C6  BNZ d   1       2.545   3.831  -1.518  0.00  0.00     0.000 A 
ENDROOT
TORSDOF 0
ENDMDL
