MODEL 1
REMARK minimizedAffinity 13.8036661
REMARK minimizedRMSD -1
REMARK  0 active torsions:
REMARK  status: ('A' for Active; 'I' for Inactive)
ROOT
ATOM      1  C1  BNZ d   1       3.221  -2.735  -0.198  0.00  0.00     0.000 A 
ATOM      2  C2  BNZ d   1       2.142  -2.074  -0.721  0.00  0.00     0.000 A 
ATOM      3  C3  BNZ d   1       2.104  -0.708  -0.751  0.00  0.00     0.000 A 
ATOM      4  C4  BNZ d   1       3.127  -0.005  -0.222  0.00  0.00     0.000 A 
ATOM      5  C5  BNZ d   1       4.218  -0.657   0.318  0.00  0.00     0.000 A 
ATOM      6  C6  BNZ d   1       4.269  -2.032   0.311  0.00  0.00     0.000 A 
ENDROOT
TORSDOF 0
ENDMDL
