MODEL 1
REMARK minimizedAffinity 7.03676033
REMARK minimizedRMSD -1
REMARK  0 active torsions:
REMARK  status: ('A' for Active; 'I' for Inactive)
ROOT
ATOM      1  C1  BNZ d   1      -1.855   1.030   1.550  0.00  0.00     0.000 A 
ATOM      2  C2  BNZ d   1      -0.625   0.604   1.126  0.00  0.00     0.000 A 
ATOM      3  C3  BNZ d   1       0.514   1.011   1.763  0.00  0.00     0.000 A 
ATOM      4  C4  BNZ d   1       0.424   1.873   2.796  0.00  0.00     0.000 A 
ATOM      5  C5  BNZ d   1      -0.809   2.319   3.229  0.00  0.00     0.000 A 
ATOM      6  C6  BNZ d   1      -1.956   1.876   2.610  0.00  0.00     0.000 A 
ENDROOT
TORSDOF 0
ENDMDL
