MODEL 1
REMARK minimizedAffinity -3.36479044
REMARK minimizedRMSD -1
REMARK  0 active torsions:
REMARK  status: ('A' for Active; 'I' for Inactive)
ROOT
ATOM      1  C1  BNZ d   1       1.888  -2.876  -2.194  0.00  0.00     0.000 A 
ATOM      2  C2  BNZ d   1       1.779  -4.027  -2.928  0.00  0.00     0.000 A 
ATOM      3  C3  BNZ d   1       2.418  -5.170  -2.537  0.00  0.00     0.000 A 
ATOM      4  C4  BNZ d   1       3.197  -5.151  -1.435  0.00  0.00     0.000 A 
ATOM      5  C5  BNZ d   1       3.324  -3.996  -0.690  0.00  0.00     0.000 A 
ATOM      6  C6  BNZ d   1       2.648  -2.858  -1.065  0.00  0.00     0.000 A 
ENDROOT
TORSDOF 0
ENDMDL
