MODEL 1
REMARK minimizedAffinity 10.9397726
REMARK minimizedRMSD -1
REMARK  0 active torsions:
REMARK  status: ('A' for Active; 'I' for Inactive)
ROOT
ATOM      1  C1  BNZ d   1      -0.825   1.109   3.193  0.00  0.00     0.000 A 
ATOM      2  C2  BNZ d   1       0.431   0.595   3.377  0.00  0.00     0.000 A 
ATOM      3  C3  BNZ d   1       1.500   1.096   2.688  0.00  0.00     0.000 A 
ATOM      4  C4  BNZ d   1       1.306   2.083   1.789  0.00  0.00     0.000 A 
ATOM      5  C5  BNZ d   1       0.045   2.605   1.586  0.00  0.00     0.000 A 
ATOM      6  C6  BNZ d   1      -1.023   2.125   2.309  0.00  0.00     0.000 A 
ENDROOT
TORSDOF 0
ENDMDL
