MODEL 1
REMARK minimizedAffinity 9.13926792
REMARK minimizedRMSD -1
REMARK  0 active torsions:
REMARK  status: ('A' for Active; 'I' for Inactive)
ROOT
ATOM      1  C1  BNZ d   1      -1.740   1.021   1.020  0.00  0.00     0.000 A 
ATOM      2  C2  BNZ d   1      -3.012   0.876   1.504  0.00  0.00     0.000 A 
ATOM      3  C3  BNZ d   1      -3.241   0.752   2.846  0.00  0.00     0.000 A 
ATOM      4  C4  BNZ d   1      -2.195   0.733   3.698  0.00  0.00     0.000 A 
ATOM      5  C5  BNZ d   1      -0.905   0.869   3.224  0.00  0.00     0.000 A 
ATOM      6  C6  BNZ d   1      -0.682   1.033   1.876  0.00  0.00     0.000 A 
ENDROOT
TORSDOF 0
ENDMDL
