MODEL 1
REMARK minimizedAffinity 5.51153517
REMARK minimizedRMSD -1
REMARK  0 active torsions:
REMARK  status: ('A' for Active; 'I' for Inactive)
ROOT
ATOM      1  C1  BNZ d   1       1.646   5.997  -2.185  0.00  0.00     0.000 A 
ATOM      2  C2  BNZ d   1       2.619   6.000  -1.221  0.00  0.00     0.000 A 
ATOM      3  C3  BNZ d   1       2.289   5.977   0.105  0.00  0.00     0.000 A 
ATOM      4  C4  BNZ d   1       0.990   5.992   0.466  0.00  0.00     0.000 A 
ATOM      5  C5  BNZ d   1      -0.002   6.000  -0.494  0.00  0.00     0.000 A 
ATOM      6  C6  BNZ d   1       0.333   5.983  -1.828  0.00  0.00     0.000 A 
ENDROOT
TORSDOF 0
ENDMDL
