MODEL 1
REMARK minimizedAffinity 7.55258083
REMARK minimizedRMSD -1
REMARK  0 active torsions:
REMARK  status: ('A' for Active; 'I' for Inactive)
ROOT
ATOM      1  C1  BNZ d   1      -4.976   2.940   4.511  0.00  0.00     0.000 A 
ATOM      2  C2  BNZ d   1      -4.530   2.226   3.431  0.00  0.00     0.000 A 
ATOM      3  C3  BNZ d   1      -3.403   1.458   3.517  0.00  0.00     0.000 A 
ATOM      4  C4  BNZ d   1      -2.701   1.436   4.668  0.00  0.00     0.000 A 
ATOM      5  C5  BNZ d   1      -3.133   2.158   5.763  0.00  0.00     0.000 A 
ATOM      6  C6  BNZ d   1      -4.289   2.899   5.685  0.00  0.00     0.000 A 
ENDROOT
TORSDOF 0
ENDMDL
