MODEL 1
REMARK minimizedAffinity 5.53634977
REMARK minimizedRMSD -1
REMARK  0 active torsions:
REMARK  status: ('A' for Active; 'I' for Inactive)
ROOT
ATOM      1  C1  BNZ d   1      -0.517   0.428   1.380  0.00  0.00     0.000 A 
ATOM      2  C2  BNZ d   1       0.666   0.774   1.978  0.00  0.00     0.000 A 
ATOM      3  C3  BNZ d   1       0.712   1.765   2.918  0.00  0.00     0.000 A 
ATOM      4  C4  BNZ d   1      -0.416   2.436   3.229  0.00  0.00     0.000 A 
ATOM      5  C5  BNZ d   1      -1.615   2.104   2.629  0.00  0.00     0.000 A 
ATOM      6  C6  BNZ d   1      -1.664   1.080   1.712  0.00  0.00     0.000 A 
ENDROOT
TORSDOF 0
ENDMDL
