MODEL 1
REMARK minimizedAffinity 7.02206993
REMARK minimizedRMSD -1
REMARK  0 active torsions:
REMARK  status: ('A' for Active; 'I' for Inactive)
ROOT
ATOM      1  C1  BNZ d   1       3.006  -1.282  -0.447  0.00  0.00     0.000 A 
ATOM      2  C2  BNZ d   1       2.202  -1.691  -1.477  0.00  0.00     0.000 A 
ATOM      3  C3  BNZ d   1       1.552  -0.780  -2.262  0.00  0.00     0.000 A 
ATOM      4  C4  BNZ d   1       1.674   0.536  -1.990  0.00  0.00     0.000 A 
ATOM      5  C5  BNZ d   1       2.473   0.963  -0.949  0.00  0.00     0.000 A 
ATOM      6  C6  BNZ d   1       3.157   0.045  -0.186  0.00  0.00     0.000 A 
ENDROOT
TORSDOF 0
ENDMDL
