MODEL 1
REMARK minimizedAffinity 10.7978277
REMARK minimizedRMSD -1
REMARK  0 active torsions:
REMARK  status: ('A' for Active; 'I' for Inactive)
ROOT
ATOM      1  C1  BNZ d   1      -2.257   3.973  -3.640  0.00  0.00     0.000 A 
ATOM      2  C2  BNZ d   1      -1.517   2.821  -3.657  0.00  0.00     0.000 A 
ATOM      3  C3  BNZ d   1      -1.177   2.224  -4.839  0.00  0.00     0.000 A 
ATOM      4  C4  BNZ d   1      -1.611   2.757  -5.999  0.00  0.00     0.000 A 
ATOM      5  C5  BNZ d   1      -2.365   3.914  -5.999  0.00  0.00     0.000 A 
ATOM      6  C6  BNZ d   1      -2.673   4.533  -4.809  0.00  0.00     0.000 A 
ENDROOT
TORSDOF 0
ENDMDL
