MODEL 1
REMARK minimizedAffinity 4.31145906
REMARK minimizedRMSD -1
REMARK  0 active torsions:
REMARK  status: ('A' for Active; 'I' for Inactive)
ROOT
ATOM      1  C1  BNZ d   1      -3.762   1.572   3.488  0.00  0.00     0.000 A 
ATOM      2  C2  BNZ d   1      -4.634   2.611   3.675  0.00  0.00     0.000 A 
ATOM      3  C3  BNZ d   1      -4.849   3.128   4.923  0.00  0.00     0.000 A 
ATOM      4  C4  BNZ d   1      -4.225   2.579   5.984  0.00  0.00     0.000 A 
ATOM      5  C5  BNZ d   1      -3.350   1.525   5.813  0.00  0.00     0.000 A 
ATOM      6  C6  BNZ d   1      -3.106   1.033   4.551  0.00  0.00     0.000 A 
ENDROOT
TORSDOF 0
ENDMDL
