MODEL 1
REMARK minimizedAffinity 7.9809041
REMARK minimizedRMSD -1
REMARK  0 active torsions:
REMARK  status: ('A' for Active; 'I' for Inactive)
ROOT
ATOM      1  C1  BNZ d   1       1.633   0.422  -2.919  0.00  0.00     0.000 A 
ATOM      2  C2  BNZ d   1       2.394   1.368  -2.287  0.00  0.00     0.000 A 
ATOM      3  C3  BNZ d   1       2.747   1.220  -0.974  0.00  0.00     0.000 A 
ATOM      4  C4  BNZ d   1       2.304   0.148  -0.286  0.00  0.00     0.000 A 
ATOM      5  C5  BNZ d   1       1.528  -0.809  -0.907  0.00  0.00     0.000 A 
ATOM      6  C6  BNZ d   1       1.208  -0.677  -2.239  0.00  0.00     0.000 A 
ENDROOT
TORSDOF 0
ENDMDL
