MODEL 1
REMARK minimizedAffinity 7.85545301
REMARK minimizedRMSD -1
REMARK  2 active torsions:
REMARK  status: ('A' for Active; 'I' for Inactive)
REMARK    1  A    between atoms: C1_2  and  C2_3 
REMARK    2  A    between atoms: C2_3  and  C3_4 
ROOT
ATOM      1  C3  UNL d   1      -4.489  -3.613  -3.881  0.00  0.00    -0.075 A 
ATOM      2  C4  UNL d   1      -4.092  -4.864  -3.386  0.00  0.00     0.002 A 
ATOM      3  C5  UNL d   1      -4.160  -6.000  -4.193  0.00  0.00     0.002 A 
ATOM      4  C6  UNL d   1      -4.634  -5.902  -5.499  0.00  0.00    -0.004 A 
ATOM      5  C7  UNL d   1      -5.047  -4.668  -5.997  0.00  0.00     0.002 A 
ATOM      6  C8  UNL d   1      -4.975  -3.529  -5.193  0.00  0.00     0.002 A 
ENDROOT
BRANCH   1   7
ATOM      7  C2  UNL d   1      -4.389  -2.375  -3.023  0.00  0.00     0.056 C 
BRANCH   7   8
ATOM      8  C1  UNL d   1      -3.522  -1.265  -3.626  0.00  0.00     0.007 C 
ATOM      9  C   UNL d   1      -3.671   0.070  -2.909  0.00  0.00     0.009 C 
ENDBRANCH   7   8
ENDBRANCH   1   7
TORSDOF 2
ENDMDL
