MODEL 1
REMARK minimizedAffinity 14.7680788
REMARK minimizedRMSD -1
REMARK  2 active torsions:
REMARK  status: ('A' for Active; 'I' for Inactive)
REMARK    1  A    between atoms: C1_2  and  C2_3 
REMARK    2  A    between atoms: C2_3  and  C3_4 
ROOT
ATOM      1  C3  UNL d   1       3.340  -2.861   2.540  0.00  0.00    -0.075 A 
ATOM      2  C4  UNL d   1       3.068  -1.708   1.790  0.00  0.00     0.002 A 
ATOM      3  C5  UNL d   1       1.837  -1.062   1.906  0.00  0.00     0.002 A 
ATOM      4  C6  UNL d   1       0.861  -1.565   2.764  0.00  0.00    -0.004 A 
ATOM      5  C7  UNL d   1       1.115  -2.719   3.501  0.00  0.00     0.002 A 
ATOM      6  C8  UNL d   1       2.347  -3.366   3.390  0.00  0.00     0.002 A 
ENDROOT
BRANCH   1   7
ATOM      7  C2  UNL d   1       4.681  -3.549   2.440  0.00  0.00     0.056 C 
BRANCH   7   8
ATOM      8  C1  UNL d   1       5.870  -2.650   2.794  0.00  0.00     0.007 C 
ATOM      9  C   UNL d   1       5.995  -2.379   4.287  0.00  0.00     0.009 C 
ENDBRANCH   7   8
ENDBRANCH   1   7
TORSDOF 2
ENDMDL
