MODEL 1
REMARK minimizedAffinity -3.19555545
REMARK minimizedRMSD -1
REMARK  0 active torsions:
REMARK  status: ('A' for Active; 'I' for Inactive)
ROOT
ATOM      1  C1  BNZ d   1       0.245  -0.070  -0.351  0.00  0.00     0.000 A 
ATOM      2  C2  BNZ d   1       0.388  -1.377  -0.736  0.00  0.00     0.000 A 
ATOM      3  C3  BNZ d   1      -0.256  -2.379  -0.065  0.00  0.00     0.000 A 
ATOM      4  C4  BNZ d   1      -1.007  -2.078   1.014  0.00  0.00     0.000 A 
ATOM      5  C5  BNZ d   1      -1.153  -0.766   1.420  0.00  0.00     0.000 A 
ATOM      6  C6  BNZ d   1      -0.536   0.243   0.718  0.00  0.00     0.000 A 
ENDROOT
TORSDOF 0
ENDMDL
