MODEL 1
REMARK minimizedAffinity -4.71191597
REMARK minimizedRMSD -1
REMARK  0 active torsions:
REMARK  status: ('A' for Active; 'I' for Inactive)
ROOT
ATOM      1  C1  BNZ d   1       0.159  -1.775  -1.190  0.00  0.00     0.000 A 
ATOM      2  C2  BNZ d   1      -0.015  -0.450  -0.893  0.00  0.00     0.000 A 
ATOM      3  C3  BNZ d   1      -0.629  -0.066   0.266  0.00  0.00     0.000 A 
ATOM      4  C4  BNZ d   1      -1.103  -1.007   1.108  0.00  0.00     0.000 A 
ATOM      5  C5  BNZ d   1      -0.944  -2.348   0.818  0.00  0.00     0.000 A 
ATOM      6  C6  BNZ d   1      -0.291  -2.730  -0.331  0.00  0.00     0.000 A 
ENDROOT
TORSDOF 0
ENDMDL
