MODEL 1
REMARK minimizedAffinity -3.82046103
REMARK minimizedRMSD -1
REMARK  0 active torsions:
REMARK  status: ('A' for Active; 'I' for Inactive)
ROOT
ATOM      1  C1  BNZ d   1       0.576  -0.981  -1.764  0.00  0.00     0.000 A 
ATOM      2  C2  BNZ d   1       0.341   0.361  -1.617  0.00  0.00     0.000 A 
ATOM      3  C3  BNZ d   1       0.030   0.887  -0.395  0.00  0.00     0.000 A 
ATOM      4  C4  BNZ d   1      -0.086   0.068   0.670  0.00  0.00     0.000 A 
ATOM      5  C5  BNZ d   1       0.138  -1.288   0.537  0.00  0.00     0.000 A 
ATOM      6  C6  BNZ d   1       0.489  -1.809  -0.687  0.00  0.00     0.000 A 
ENDROOT
TORSDOF 0
ENDMDL
