MODEL 1
REMARK minimizedAffinity -2.38611007
REMARK minimizedRMSD -1
REMARK  0 active torsions:
REMARK  status: ('A' for Active; 'I' for Inactive)
ROOT
ATOM      1  C1  BNZ d   1       0.550  -2.945   0.044  0.00  0.00     0.000 A 
ATOM      2  C2  BNZ d   1       0.734  -1.590  -0.021  0.00  0.00     0.000 A 
ATOM      3  C3  BNZ d   1      -0.292  -0.731   0.258  0.00  0.00     0.000 A 
ATOM      4  C4  BNZ d   1      -1.509  -1.227   0.561  0.00  0.00     0.000 A 
ATOM      5  C5  BNZ d   1      -1.712  -2.592   0.622  0.00  0.00     0.000 A 
ATOM      6  C6  BNZ d   1      -0.667  -3.453   0.379  0.00  0.00     0.000 A 
ENDROOT
TORSDOF 0
ENDMDL
