MODEL 1
REMARK minimizedAffinity -4.04199266
REMARK minimizedRMSD -1
REMARK  0 active torsions:
REMARK  status: ('A' for Active; 'I' for Inactive)
ROOT
ATOM      1  C1  BNZ d   1       0.383  -3.061  -0.392  0.00  0.00     0.000 A 
ATOM      2  C2  BNZ d   1      -0.297  -3.179   0.791  0.00  0.00     0.000 A 
ATOM      3  C3  BNZ d   1      -0.769  -2.074   1.441  0.00  0.00     0.000 A 
ATOM      4  C4  BNZ d   1      -0.527  -0.850   0.929  0.00  0.00     0.000 A 
ATOM      5  C5  BNZ d   1       0.165  -0.713  -0.258  0.00  0.00     0.000 A 
ATOM      6  C6  BNZ d   1       0.605  -1.830  -0.929  0.00  0.00     0.000 A 
ENDROOT
TORSDOF 0
ENDMDL
