MODEL 1
REMARK minimizedAffinity -3.47600126
REMARK minimizedRMSD -1
REMARK  0 active torsions:
REMARK  status: ('A' for Active; 'I' for Inactive)
ROOT
ATOM      1  C1  BNZ d   1      -0.889  -2.163   1.160  0.00  0.00     0.000 A 
ATOM      2  C2  BNZ d   1       0.047  -3.052   0.704  0.00  0.00     0.000 A 
ATOM      3  C3  BNZ d   1       0.981  -2.673  -0.219  0.00  0.00     0.000 A 
ATOM      4  C4  BNZ d   1       0.953  -1.419  -0.714  0.00  0.00     0.000 A 
ATOM      5  C5  BNZ d   1       0.010  -0.513  -0.271  0.00  0.00     0.000 A 
ATOM      6  C6  BNZ d   1      -0.904  -0.887   0.687  0.00  0.00     0.000 A 
ENDROOT
TORSDOF 0
ENDMDL
