MODEL 1
REMARK minimizedAffinity -4.93507671
REMARK minimizedRMSD -1
REMARK  0 active torsions:
REMARK  status: ('A' for Active; 'I' for Inactive)
ROOT
ATOM      1  C1  BNZ d   1       0.181  -2.458  -0.090  0.00  0.00     0.000 A 
ATOM      2  C2  BNZ d   1       0.530  -1.509  -1.014  0.00  0.00     0.000 A 
ATOM      3  C3  BNZ d   1       0.371  -0.178  -0.745  0.00  0.00     0.000 A 
ATOM      4  C4  BNZ d   1      -0.172   0.200   0.430  0.00  0.00     0.000 A 
ATOM      5  C5  BNZ d   1      -0.537  -0.744   1.368  0.00  0.00     0.000 A 
ATOM      6  C6  BNZ d   1      -0.340  -2.081   1.110  0.00  0.00     0.000 A 
ENDROOT
TORSDOF 0
ENDMDL
