MODEL 1
REMARK minimizedAffinity -4.72698498
REMARK minimizedRMSD -1
REMARK  0 active torsions:
REMARK  status: ('A' for Active; 'I' for Inactive)
ROOT
ATOM      1  C1  BNZ d   1       0.473  -0.930  -0.429  0.00  0.00     0.000 A 
ATOM      2  C2  BNZ d   1       0.872  -2.204  -0.123  0.00  0.00     0.000 A 
ATOM      3  C3  BNZ d   1       0.294  -2.889   0.910  0.00  0.00     0.000 A 
ATOM      4  C4  BNZ d   1      -0.652  -2.286   1.658  0.00  0.00     0.000 A 
ATOM      5  C5  BNZ d   1      -1.058  -0.999   1.368  0.00  0.00     0.000 A 
ATOM      6  C6  BNZ d   1      -0.502  -0.326   0.304  0.00  0.00     0.000 A 
ENDROOT
TORSDOF 0
ENDMDL
