MODEL 1
REMARK minimizedAffinity -1.93629205
REMARK minimizedRMSD -1
REMARK  0 active torsions:
REMARK  status: ('A' for Active; 'I' for Inactive)
ROOT
ATOM      1  C1  BNZ d   1       0.334  -1.101  -1.736  0.00  0.00     0.000 A 
ATOM      2  C2  BNZ d   1      -0.152  -2.043  -0.868  0.00  0.00     0.000 A 
ATOM      3  C3  BNZ d   1      -0.492  -1.706   0.412  0.00  0.00     0.000 A 
ATOM      4  C4  BNZ d   1      -0.309  -0.439   0.835  0.00  0.00     0.000 A 
ATOM      5  C5  BNZ d   1       0.188   0.521  -0.024  0.00  0.00     0.000 A 
ATOM      6  C6  BNZ d   1       0.493   0.187  -1.324  0.00  0.00     0.000 A 
ENDROOT
TORSDOF 0
ENDMDL
