MODEL 1
REMARK minimizedAffinity -3.40009046
REMARK minimizedRMSD -1
REMARK  0 active torsions:
REMARK  status: ('A' for Active; 'I' for Inactive)
ROOT
ATOM      1  C1  BNZ d   1       0.187  -3.287  -0.085  0.00  0.00     0.000 A 
ATOM      2  C2  BNZ d   1       0.040  -2.767   1.173  0.00  0.00     0.000 A 
ATOM      3  C3  BNZ d   1      -0.102  -1.421   1.363  0.00  0.00     0.000 A 
ATOM      4  C4  BNZ d   1      -0.058  -0.593   0.299  0.00  0.00     0.000 A 
ATOM      5  C5  BNZ d   1       0.099  -1.101  -0.975  0.00  0.00     0.000 A 
ATOM      6  C6  BNZ d   1       0.203  -2.460  -1.166  0.00  0.00     0.000 A 
ENDROOT
TORSDOF 0
ENDMDL
