MODEL 1
REMARK minimizedAffinity -4.65142155
REMARK minimizedRMSD -1
REMARK  0 active torsions:
REMARK  status: ('A' for Active; 'I' for Inactive)
ROOT
ATOM      1  C1  BNZ d   1      -0.161  -0.948  -0.074  0.00  0.00     0.000 A 
ATOM      2  C2  BNZ d   1       0.108  -1.591  -1.253  0.00  0.00     0.000 A 
ATOM      3  C3  BNZ d   1       0.310  -2.942  -1.283  0.00  0.00     0.000 A 
ATOM      4  C4  BNZ d   1       0.282  -3.643  -0.131  0.00  0.00     0.000 A 
ATOM      5  C5  BNZ d   1       0.021  -3.008   1.067  0.00  0.00     0.000 A 
ATOM      6  C6  BNZ d   1      -0.220  -1.653   1.089  0.00  0.00     0.000 A 
ENDROOT
TORSDOF 0
ENDMDL
