MODEL 1
REMARK minimizedAffinity -4.91362143
REMARK minimizedRMSD -1
REMARK  0 active torsions:
REMARK  status: ('A' for Active; 'I' for Inactive)
ROOT
ATOM      1  C1  BNZ d   1       0.358  -2.557  -0.942  0.00  0.00     0.000 A 
ATOM      2  C2  BNZ d   1       0.550  -1.203  -0.865  0.00  0.00     0.000 A 
ATOM      3  C3  BNZ d   1      -0.109  -0.455   0.071  0.00  0.00     0.000 A 
ATOM      4  C4  BNZ d   1      -0.987  -1.054   0.900  0.00  0.00     0.000 A 
ATOM      5  C5  BNZ d   1      -1.199  -2.417   0.829  0.00  0.00     0.000 A 
ATOM      6  C6  BNZ d   1      -0.505  -3.172  -0.088  0.00  0.00     0.000 A 
ENDROOT
TORSDOF 0
ENDMDL
