MODEL 1
REMARK minimizedAffinity -4.81966591
REMARK minimizedRMSD -1
REMARK  0 active torsions:
REMARK  status: ('A' for Active; 'I' for Inactive)
ROOT
ATOM      1  C1  BNZ d   1      -1.237  -0.558   0.922  0.00  0.00     0.000 A 
ATOM      2  C2  BNZ d   1      -0.390   0.146   0.107  0.00  0.00     0.000 A 
ATOM      3  C3  BNZ d   1       0.720  -0.447  -0.428  0.00  0.00     0.000 A 
ATOM      4  C4  BNZ d   1       1.003  -1.728  -0.115  0.00  0.00     0.000 A 
ATOM      5  C5  BNZ d   1       0.165  -2.447   0.712  0.00  0.00     0.000 A 
ATOM      6  C6  BNZ d   1      -0.972  -1.860   1.217  0.00  0.00     0.000 A 
ENDROOT
TORSDOF 0
ENDMDL
