MODEL 1
REMARK minimizedAffinity -3.69890881
REMARK minimizedRMSD -1
REMARK  0 active torsions:
REMARK  status: ('A' for Active; 'I' for Inactive)
ROOT
ATOM      1  C1  BNZ d   1      -0.127  -0.924  -1.285  0.00  0.00     0.000 A 
ATOM      2  C2  BNZ d   1      -0.090   0.388  -0.894  0.00  0.00     0.000 A 
ATOM      3  C3  BNZ d   1      -0.595   0.772   0.316  0.00  0.00     0.000 A 
ATOM      4  C4  BNZ d   1      -1.172  -0.148   1.116  0.00  0.00     0.000 A 
ATOM      5  C5  BNZ d   1      -1.225  -1.473   0.732  0.00  0.00     0.000 A 
ATOM      6  C6  BNZ d   1      -0.681  -1.863  -0.470  0.00  0.00     0.000 A 
ENDROOT
TORSDOF 0
ENDMDL
