MODEL 1
REMARK minimizedAffinity -4.28562021
REMARK minimizedRMSD -1
REMARK  0 active torsions:
REMARK  status: ('A' for Active; 'I' for Inactive)
ROOT
ATOM      1  C1  BNZ d   1      -0.694  -3.220  -1.137  0.00  0.00     0.000 A 
ATOM      2  C2  BNZ d   1      -0.173  -2.489  -2.171  0.00  0.00     0.000 A 
ATOM      3  C3  BNZ d   1       0.034  -1.144  -2.043  0.00  0.00     0.000 A 
ATOM      4  C4  BNZ d   1      -0.316  -0.525  -0.897  0.00  0.00     0.000 A 
ATOM      5  C5  BNZ d   1      -0.851  -1.247   0.152  0.00  0.00     0.000 A 
ATOM      6  C6  BNZ d   1      -1.022  -2.607   0.033  0.00  0.00     0.000 A 
ENDROOT
TORSDOF 0
ENDMDL
