MODEL 1
REMARK minimizedAffinity -6.17989206
REMARK minimizedRMSD -1
REMARK  0 active torsions:
REMARK  status: ('A' for Active; 'I' for Inactive)
ROOT
ATOM      1  O1  BZF d   1      -0.710  -0.434   1.145  0.00  0.00    -0.204 OA
ATOM      2  C2  BZF d   1       0.238  -0.843   0.227  0.00  0.00     0.174 A 
ATOM      3  C3  BZF d   1       0.521   0.149  -0.642  0.00  0.00    -0.012 A 
ATOM      4  C3A BZF d   1      -0.234   1.276  -0.186  0.00  0.00    -0.107 A 
ATOM      5  C4  BZF d   1      -0.360   2.563  -0.626  0.00  0.00     0.055 A 
ATOM      6  C5  BZF d   1      -1.235   3.392   0.000  0.00  0.00    -0.016 A 
ATOM      7  C6  BZF d   1      -2.003   2.968   1.065  0.00  0.00     0.022 A 
ATOM      8  C7  BZF d   1      -1.910   1.702   1.540  0.00  0.00     0.029 A 
ATOM      9  C7A BZF d   1      -1.002   0.871   0.931  0.00  0.00     0.058 A 
ENDROOT
TORSDOF 0
ENDMDL
