MODEL 1
REMARK minimizedAffinity -4.78505611
REMARK minimizedRMSD -1
REMARK  0 active torsions:
REMARK  status: ('A' for Active; 'I' for Inactive)
ROOT
ATOM      1  O1  BZF d   1       0.808  -1.470   0.052  0.00  0.00    -0.204 OA
ATOM      2  C2  BZF d   1       1.094  -1.088  -1.244  0.00  0.00     0.174 A 
ATOM      3  C3  BZF d   1       0.508   0.092  -1.536  0.00  0.00    -0.012 A 
ATOM      4  C3A BZF d   1      -0.111   0.515  -0.318  0.00  0.00    -0.107 A 
ATOM      5  C4  BZF d   1      -0.835   1.619   0.033  0.00  0.00     0.055 A 
ATOM      6  C5  BZF d   1      -1.360   1.695   1.284  0.00  0.00    -0.016 A 
ATOM      7  C6  BZF d   1      -1.185   0.684   2.207  0.00  0.00     0.022 A 
ATOM      8  C7  BZF d   1      -0.471  -0.428   1.907  0.00  0.00     0.029 A 
ATOM      9  C7A BZF d   1       0.088  -0.492   0.654  0.00  0.00     0.058 A 
ENDROOT
TORSDOF 0
ENDMDL
