MODEL 1
REMARK minimizedAffinity -3.48069429
REMARK minimizedRMSD -1
REMARK  0 active torsions:
REMARK  status: ('A' for Active; 'I' for Inactive)
ROOT
ATOM      1  O1  BZF d   1       0.651   1.107  -0.936  0.00  0.00    -0.204 OA
ATOM      2  C2  BZF d   1       1.517   0.036  -1.051  0.00  0.00     0.174 A 
ATOM      3  C3  BZF d   1       1.275  -0.880  -0.091  0.00  0.00    -0.012 A 
ATOM      4  C3A BZF d   1       0.129  -0.393   0.614  0.00  0.00    -0.107 A 
ATOM      5  C4  BZF d   1      -0.599  -0.871   1.665  0.00  0.00     0.055 A 
ATOM      6  C5  BZF d   1      -1.615  -0.117   2.162  0.00  0.00    -0.016 A 
ATOM      7  C6  BZF d   1      -1.925   1.120   1.636  0.00  0.00     0.022 A 
ATOM      8  C7  BZF d   1      -1.234   1.634   0.590  0.00  0.00     0.029 A 
ATOM      9  C7A BZF d   1      -0.229   0.860   0.065  0.00  0.00     0.058 A 
ENDROOT
TORSDOF 0
ENDMDL
