MODEL 1
REMARK minimizedAffinity -5.2123785
REMARK minimizedRMSD -1
REMARK  0 active torsions:
REMARK  status: ('A' for Active; 'I' for Inactive)
ROOT
ATOM      1  O1  BZF d   1      -2.350   1.506   1.483  0.00  0.00    -0.204 OA
ATOM      2  C2  BZF d   1      -2.994   1.843   0.309  0.00  0.00     0.174 A 
ATOM      3  C3  BZF d   1      -2.292   1.415  -0.761  0.00  0.00    -0.012 A 
ATOM      4  C3A BZF d   1      -1.184   0.690  -0.219  0.00  0.00    -0.107 A 
ATOM      5  C4  BZF d   1      -0.140   0.013  -0.782  0.00  0.00     0.055 A 
ATOM      6  C5  BZF d   1       0.811  -0.523   0.027  0.00  0.00    -0.016 A 
ATOM      7  C6  BZF d   1       0.753  -0.396   1.399  0.00  0.00     0.022 A 
ATOM      8  C7  BZF d   1      -0.266   0.262   2.003  0.00  0.00     0.029 A 
ATOM      9  C7A BZF d   1      -1.246   0.776   1.191  0.00  0.00     0.058 A 
ENDROOT
TORSDOF 0
ENDMDL
