MODEL 1
REMARK minimizedAffinity -4.62033272
REMARK minimizedRMSD -1
REMARK  0 active torsions:
REMARK  status: ('A' for Active; 'I' for Inactive)
ROOT
ATOM      1  O1  BZF d   1       0.674   0.527  -1.060  0.00  0.00    -0.204 OA
ATOM      2  C2  BZF d   1       1.311  -0.641  -0.687  0.00  0.00     0.174 A 
ATOM      3  C3  BZF d   1       0.845  -1.083   0.498  0.00  0.00    -0.012 A 
ATOM      4  C3A BZF d   1      -0.211  -0.183   0.847  0.00  0.00    -0.107 A 
ATOM      5  C4  BZF d   1      -1.070  -0.109   1.906  0.00  0.00     0.055 A 
ATOM      6  C5  BZF d   1      -1.936   0.936   1.982  0.00  0.00    -0.016 A 
ATOM      7  C6  BZF d   1      -1.966   1.925   1.021  0.00  0.00     0.022 A 
ATOM      8  C7  BZF d   1      -1.137   1.891  -0.050  0.00  0.00     0.029 A 
ATOM      9  C7A BZF d   1      -0.284   0.820  -0.147  0.00  0.00     0.058 A 
ENDROOT
TORSDOF 0
ENDMDL
