MODEL 1
REMARK minimizedAffinity -4.01348305
REMARK minimizedRMSD -1
REMARK  0 active torsions:
REMARK  status: ('A' for Active; 'I' for Inactive)
ROOT
ATOM      1  O1  BZF d   1      -0.720  -0.328  -2.000  0.00  0.00    -0.204 OA
ATOM      2  C2  BZF d   1      -0.424   0.161  -0.742  0.00  0.00     0.174 A 
ATOM      3  C3  BZF d   1       0.312  -0.728  -0.044  0.00  0.00    -0.012 A 
ATOM      4  C3A BZF d   1       0.565  -1.803  -0.954  0.00  0.00    -0.107 A 
ATOM      5  C4  BZF d   1       1.255  -2.977  -0.851  0.00  0.00     0.055 A 
ATOM      6  C5  BZF d   1       1.248  -3.841  -1.899  0.00  0.00    -0.016 A 
ATOM      7  C6  BZF d   1       0.557  -3.567  -3.062  0.00  0.00     0.022 A 
ATOM      8  C7  BZF d   1      -0.138  -2.414  -3.212  0.00  0.00     0.029 A 
ATOM      9  C7A BZF d   1      -0.106  -1.524  -2.167  0.00  0.00     0.058 A 
ENDROOT
TORSDOF 0
ENDMDL
