MODEL 1
REMARK minimizedAffinity -0.168162122
REMARK minimizedRMSD -1
REMARK  0 active torsions:
REMARK  status: ('A' for Active; 'I' for Inactive)
ROOT
ATOM      1  O1  BZF d   1       1.259   0.791  -1.866  0.00  0.00    -0.204 OA
ATOM      2  C2  BZF d   1       0.682   1.999  -2.207  0.00  0.00     0.174 A 
ATOM      3  C3  BZF d   1      -0.253   2.356  -1.303  0.00  0.00    -0.012 A 
ATOM      4  C3A BZF d   1      -0.196   1.350  -0.287  0.00  0.00    -0.107 A 
ATOM      5  C4  BZF d   1      -0.871   1.159   0.885  0.00  0.00     0.055 A 
ATOM      6  C5  BZF d   1      -0.630   0.037   1.612  0.00  0.00    -0.016 A 
ATOM      7  C6  BZF d   1       0.276  -0.917   1.195  0.00  0.00     0.022 A 
ATOM      8  C7  BZF d   1       0.974  -0.770   0.043  0.00  0.00     0.029 A 
ATOM      9  C7A BZF d   1       0.756   0.380  -0.678  0.00  0.00     0.058 A 
ENDROOT
TORSDOF 0
ENDMDL
