MODEL 1
REMARK minimizedAffinity -0.43030116
REMARK minimizedRMSD -1
REMARK  0 active torsions:
REMARK  status: ('A' for Active; 'I' for Inactive)
ROOT
ATOM      1  O1  BZF d   1       0.765  -1.737  -2.954  0.00  0.00    -0.204 OA
ATOM      2  C2  BZF d   1       1.136  -2.984  -2.490  0.00  0.00     0.174 A 
ATOM      3  C3  BZF d   1       1.251  -2.980  -1.146  0.00  0.00    -0.012 A 
ATOM      4  C3A BZF d   1       0.841  -1.671  -0.738  0.00  0.00    -0.107 A 
ATOM      5  C4  BZF d   1       0.724  -1.061   0.478  0.00  0.00     0.055 A 
ATOM      6  C5  BZF d   1       0.367   0.249   0.528  0.00  0.00    -0.016 A 
ATOM      7  C6  BZF d   1       0.126   0.980  -0.617  0.00  0.00     0.022 A 
ATOM      8  C7  BZF d   1       0.225   0.417  -1.846  0.00  0.00     0.029 A 
ATOM      9  C7A BZF d   1       0.553  -0.916  -1.898  0.00  0.00     0.058 A 
ENDROOT
TORSDOF 0
ENDMDL
