MODEL 1
REMARK minimizedAffinity -2.77713299
REMARK minimizedRMSD -1
REMARK  0 active torsions:
REMARK  status: ('A' for Active; 'I' for Inactive)
ROOT
ATOM      1  O1  BZF d   1      -1.631   1.226   2.007  0.00  0.00    -0.204 OA
ATOM      2  C2  BZF d   1      -2.288   2.095   1.157  0.00  0.00     0.174 A 
ATOM      3  C3  BZF d   1      -1.865   1.933  -0.113  0.00  0.00    -0.012 A 
ATOM      4  C3A BZF d   1      -0.950   0.834  -0.068  0.00  0.00    -0.107 A 
ATOM      5  C4  BZF d   1      -0.212   0.187  -1.018  0.00  0.00     0.055 A 
ATOM      6  C5  BZF d   1       0.639  -0.800  -0.634  0.00  0.00    -0.016 A 
ATOM      7  C6  BZF d   1       0.781  -1.163   0.689  0.00  0.00     0.022 A 
ATOM      8  C7  BZF d   1       0.066  -0.554   1.667  0.00  0.00     0.029 A 
ATOM      9  C7A BZF d   1      -0.819   0.422   1.278  0.00  0.00     0.058 A 
ENDROOT
TORSDOF 0
ENDMDL
