MODEL 1
REMARK minimizedAffinity -5.04560471
REMARK minimizedRMSD -1
REMARK  0 active torsions:
REMARK  status: ('A' for Active; 'I' for Inactive)
ROOT
ATOM      1  O1  BZF d   1       0.774   0.710  -1.124  0.00  0.00    -0.204 OA
ATOM      2  C2  BZF d   1       1.286  -0.466  -0.611  0.00  0.00     0.174 A 
ATOM      3  C3  BZF d   1       0.707  -0.765   0.570  0.00  0.00    -0.012 A 
ATOM      4  C3A BZF d   1      -0.291   0.242   0.765  0.00  0.00    -0.107 A 
ATOM      5  C4  BZF d   1      -1.208   0.475   1.750  0.00  0.00     0.055 A 
ATOM      6  C5  BZF d   1      -1.987   1.586   1.676  0.00  0.00    -0.016 A 
ATOM      7  C6  BZF d   1      -1.872   2.486   0.637  0.00  0.00     0.022 A 
ATOM      8  C7  BZF d   1      -0.980   2.295  -0.365  0.00  0.00     0.029 A 
ATOM      9  C7A BZF d   1      -0.214   1.156  -0.311  0.00  0.00     0.058 A 
ENDROOT
TORSDOF 0
ENDMDL
