MODEL 1
REMARK minimizedAffinity -3.4542737
REMARK minimizedRMSD -1
REMARK  0 active torsions:
REMARK  status: ('A' for Active; 'I' for Inactive)
ROOT
ATOM      1  O1  BZF d   1      -1.683   0.977   2.177  0.00  0.00    -0.204 OA
ATOM      2  C2  BZF d   1      -2.286   1.942   1.393  0.00  0.00     0.174 A 
ATOM      3  C3  BZF d   1      -1.772   1.936   0.146  0.00  0.00    -0.012 A 
ATOM      4  C3A BZF d   1      -0.851   0.841   0.125  0.00  0.00    -0.107 A 
ATOM      5  C4  BZF d   1      -0.040   0.316  -0.840  0.00  0.00     0.055 A 
ATOM      6  C5  BZF d   1       0.792  -0.709  -0.518  0.00  0.00    -0.016 A 
ATOM      7  C6  BZF d   1       0.842  -1.230   0.759  0.00  0.00     0.022 A 
ATOM      8  C7  BZF d   1       0.052  -0.745   1.748  0.00  0.00     0.029 A 
ATOM      9  C7A BZF d   1      -0.813   0.269   1.417  0.00  0.00     0.058 A 
ENDROOT
TORSDOF 0
ENDMDL
