MODEL 1
REMARK minimizedAffinity -4.02365017
REMARK minimizedRMSD -1
REMARK  0 active torsions:
REMARK  status: ('A' for Active; 'I' for Inactive)
ROOT
ATOM      1  O1  BZF d   1       0.803   1.479  -1.049  0.00  0.00    -0.204 OA
ATOM      2  C2  BZF d   1       1.544   0.314  -1.008  0.00  0.00     0.174 A 
ATOM      3  C3  BZF d   1       1.092  -0.506  -0.037  0.00  0.00    -0.012 A 
ATOM      4  C3A BZF d   1      -0.058   0.151   0.505  0.00  0.00    -0.107 A 
ATOM      5  C4  BZF d   1      -0.948  -0.174   1.489  0.00  0.00     0.055 A 
ATOM      6  C5  BZF d   1      -1.916   0.720   1.825  0.00  0.00    -0.016 A 
ATOM      7  C6  BZF d   1      -2.018   1.947   1.203  0.00  0.00     0.022 A 
ATOM      8  C7  BZF d   1      -1.161   2.312   0.218  0.00  0.00     0.029 A 
ATOM      9  C7A BZF d   1      -0.203   1.398  -0.146  0.00  0.00     0.058 A 
ENDROOT
TORSDOF 0
ENDMDL
