MODEL 1
REMARK minimizedAffinity -6.43750858
REMARK minimizedRMSD -1
REMARK  0 active torsions:
REMARK  status: ('A' for Active; 'I' for Inactive)
ROOT
ATOM      1  O1  BZF d   1       1.370   1.374  -0.839  0.00  0.00    -0.204 OA
ATOM      2  C2  BZF d   1       1.616   0.064  -0.472  0.00  0.00     0.174 A 
ATOM      3  C3  BZF d   1       0.688  -0.369   0.404  0.00  0.00    -0.012 A 
ATOM      4  C3A BZF d   1      -0.246   0.708   0.527  0.00  0.00    -0.107 A 
ATOM      5  C4  BZF d   1      -1.398   0.875   1.242  0.00  0.00     0.055 A 
ATOM      6  C5  BZF d   1      -2.034   2.075   1.198  0.00  0.00    -0.016 A 
ATOM      7  C6  BZF d   1      -1.545   3.129   0.455  0.00  0.00     0.022 A 
ATOM      8  C7  BZF d   1      -0.409   3.010  -0.275  0.00  0.00     0.029 A 
ATOM      9  C7A BZF d   1       0.219   1.788  -0.258  0.00  0.00     0.058 A 
ENDROOT
TORSDOF 0
ENDMDL
