MODEL 1
REMARK minimizedAffinity -4.82033968
REMARK minimizedRMSD -1
REMARK  0 active torsions:
REMARK  status: ('A' for Active; 'I' for Inactive)
ROOT
ATOM      1  O1  BZF d   1      -1.560   1.374   2.015  0.00  0.00    -0.204 OA
ATOM      2  C2  BZF d   1      -1.950   2.319   1.086  0.00  0.00     0.174 A 
ATOM      3  C3  BZF d   1      -1.377   2.079  -0.110  0.00  0.00    -0.012 A 
ATOM      4  C3A BZF d   1      -0.651   0.857   0.059  0.00  0.00    -0.107 A 
ATOM      5  C4  BZF d   1       0.113   0.096  -0.778  0.00  0.00     0.055 A 
ATOM      6  C5  BZF d   1       0.744  -1.002  -0.283  0.00  0.00    -0.016 A 
ATOM      7  C6  BZF d   1       0.636  -1.363   1.044  0.00  0.00     0.022 A 
ATOM      8  C7  BZF d   1      -0.115  -0.642   1.912  0.00  0.00     0.029 A 
ATOM      9  C7A BZF d   1      -0.780   0.449   1.406  0.00  0.00     0.058 A 
ENDROOT
TORSDOF 0
ENDMDL
