MODEL 1
REMARK minimizedAffinity -6.40350771
REMARK minimizedRMSD -1
REMARK  0 active torsions:
REMARK  status: ('A' for Active; 'I' for Inactive)
ROOT
ATOM      1  O1  BZF d   1       1.104   0.720  -0.530  0.00  0.00    -0.204 OA
ATOM      2  C2  BZF d   1       0.692  -0.363   0.223  0.00  0.00     0.174 A 
ATOM      3  C3  BZF d   1      -0.308  -0.013   1.057  0.00  0.00    -0.012 A 
ATOM      4  C3A BZF d   1      -0.598   1.353   0.745  0.00  0.00    -0.107 A 
ATOM      5  C4  BZF d   1      -1.506   2.254   1.224  0.00  0.00     0.055 A 
ATOM      6  C5  BZF d   1      -1.481   3.529   0.756  0.00  0.00    -0.016 A 
ATOM      7  C6  BZF d   1      -0.560   3.940  -0.185  0.00  0.00     0.022 A 
ATOM      8  C7  BZF d   1       0.357   3.081  -0.694  0.00  0.00     0.029 A 
ATOM      9  C7A BZF d   1       0.313   1.783  -0.248  0.00  0.00     0.058 A 
ENDROOT
TORSDOF 0
ENDMDL
