MODEL 1
REMARK minimizedAffinity -5.05442429
REMARK minimizedRMSD -1
REMARK  0 active torsions:
REMARK  status: ('A' for Active; 'I' for Inactive)
ROOT
ATOM      1  O1  BZF d   1      -1.942   2.163   0.380  0.00  0.00    -0.204 OA
ATOM      2  C2  BZF d   1      -2.475   1.912   1.630  0.00  0.00     0.174 A 
ATOM      3  C3  BZF d   1      -1.915   0.814   2.177  0.00  0.00    -0.012 A 
ATOM      4  C3A BZF d   1      -0.908   0.402   1.248  0.00  0.00    -0.107 A 
ATOM      5  C4  BZF d   1      -0.001  -0.619   1.237  0.00  0.00     0.055 A 
ATOM      6  C5  BZF d   1       0.791  -0.787   0.146  0.00  0.00    -0.016 A 
ATOM      7  C6  BZF d   1       0.701   0.043  -0.952  0.00  0.00     0.022 A 
ATOM      8  C7  BZF d   1      -0.180   1.072  -0.986  0.00  0.00     0.029 A 
ATOM      9  C7A BZF d   1      -0.960   1.265   0.128  0.00  0.00     0.058 A 
ENDROOT
TORSDOF 0
ENDMDL
