MODEL 1
REMARK minimizedAffinity -6.02215099
REMARK minimizedRMSD -1
REMARK  0 active torsions:
REMARK  status: ('A' for Active; 'I' for Inactive)
ROOT
ATOM      1  O1  BZF d   1      -1.038   0.261  -1.514  0.00  0.00    -0.204 OA
ATOM      2  C2  BZF d   1       0.270  -0.183  -1.544  0.00  0.00     0.174 A 
ATOM      3  C3  BZF d   1       1.123   0.851  -1.688  0.00  0.00    -0.012 A 
ATOM      4  C3A BZF d   1       0.303   2.023  -1.658  0.00  0.00    -0.107 A 
ATOM      5  C4  BZF d   1       0.571   3.360  -1.738  0.00  0.00     0.055 A 
ATOM      6  C5  BZF d   1      -0.463   4.241  -1.751  0.00  0.00    -0.016 A 
ATOM      7  C6  BZF d   1      -1.776   3.822  -1.690  0.00  0.00     0.022 A 
ATOM      8  C7  BZF d   1      -2.091   2.507  -1.604  0.00  0.00     0.029 A 
ATOM      9  C7A BZF d   1      -1.048   1.615  -1.558  0.00  0.00     0.058 A 
ENDROOT
TORSDOF 0
ENDMDL
