MODEL 1
REMARK minimizedAffinity -5.04883909
REMARK minimizedRMSD -1
REMARK  1 active torsions:
REMARK  status: ('A' for Active; 'I' for Inactive)
REMARK    1  A    between atoms: C3_4  and  O_7 
ROOT
ATOM      1  C   UNL d   1       0.354   0.473  -0.051  0.00  0.00    -0.033 A 
ATOM      2  C1  UNL d   1      -0.642  -0.503   0.009  0.00  0.00     0.039 A 
ATOM      3  C2  UNL d   1      -1.033  -1.030   1.242  0.00  0.00    -0.080 A 
ATOM      4  C3  UNL d   1      -0.421  -0.571   2.406  0.00  0.00     0.150 A 
ATOM      5  C4  UNL d   1       0.569   0.405   2.353  0.00  0.00    -0.007 A 
ATOM      6  C5  UNL d   1       0.959   0.928   1.121  0.00  0.00     0.039 A 
ENDROOT
BRANCH   4   7
ATOM      7  O   UNL d   1      -0.766  -1.058   3.631  0.00  0.00    -0.526 OA
ATOM      8  H5  UNL d   1      -1.441  -1.746   3.510  0.00  0.00     0.418 HD
ENDBRANCH   4   7
TORSDOF 1
ENDMDL
