MODEL 1
REMARK minimizedAffinity -4.60740662
REMARK minimizedRMSD -1
REMARK  1 active torsions:
REMARK  status: ('A' for Active; 'I' for Inactive)
REMARK    1  A    between atoms: C3_4  and  O_7 
ROOT
ATOM      1  C   UNL d   1      -1.083  -1.083   1.921  0.00  0.00    -0.033 A 
ATOM      2  C1  UNL d   1      -0.680  -0.232   2.952  0.00  0.00     0.039 A 
ATOM      3  C2  UNL d   1       0.317   0.719   2.726  0.00  0.00    -0.080 A 
ATOM      4  C3  UNL d   1       0.902   0.809   1.465  0.00  0.00     0.150 A 
ATOM      5  C4  UNL d   1       0.503  -0.033   0.433  0.00  0.00    -0.007 A 
ATOM      6  C5  UNL d   1      -0.493  -0.983   0.661  0.00  0.00     0.039 A 
ENDROOT
BRANCH   4   7
ATOM      7  O   UNL d   1       1.882   1.717   1.198  0.00  0.00    -0.526 OA
ATOM      8  H5  UNL d   1       2.075   2.211   2.013  0.00  0.00     0.418 HD
ENDBRANCH   4   7
TORSDOF 1
ENDMDL
