MODEL 1
REMARK minimizedAffinity -4.44352102
REMARK minimizedRMSD -1
REMARK  1 active torsions:
REMARK  status: ('A' for Active; 'I' for Inactive)
REMARK    1  A    between atoms: C3_4  and  O_7 
ROOT
ATOM      1  C   UNL d   1       0.483   0.478  -0.052  0.00  0.00    -0.033 A 
ATOM      2  C1  UNL d   1      -0.772  -0.124   0.054  0.00  0.00     0.039 A 
ATOM      3  C2  UNL d   1      -1.275  -0.478   1.308  0.00  0.00    -0.080 A 
ATOM      4  C3  UNL d   1      -0.514  -0.224   2.445  0.00  0.00     0.150 A 
ATOM      5  C4  UNL d   1       0.736   0.379   2.347  0.00  0.00    -0.007 A 
ATOM      6  C5  UNL d   1       1.236   0.731   1.095  0.00  0.00     0.039 A 
ENDROOT
BRANCH   4   7
ATOM      7  O   UNL d   1      -0.960  -0.557   3.690  0.00  0.00    -0.526 OA
ATOM      8  H5  UNL d   1      -1.825  -0.991   3.601  0.00  0.00     0.418 HD
ENDBRANCH   4   7
TORSDOF 1
ENDMDL
