MODEL 1
REMARK minimizedAffinity -4.51941347
REMARK minimizedRMSD -1
REMARK  1 active torsions:
REMARK  status: ('A' for Active; 'I' for Inactive)
REMARK    1  A    between atoms: C3_4  and  O_7 
ROOT
ATOM      1  C   UNL d   1      -0.456  -0.798   3.012  0.00  0.00    -0.033 A 
ATOM      2  C1  UNL d   1       0.859  -0.356   2.851  0.00  0.00     0.039 A 
ATOM      3  C2  UNL d   1       1.308   0.061   1.596  0.00  0.00    -0.080 A 
ATOM      4  C3  UNL d   1       0.434   0.032   0.513  0.00  0.00     0.150 A 
ATOM      5  C4  UNL d   1      -0.878  -0.404   0.667  0.00  0.00    -0.007 A 
ATOM      6  C5  UNL d   1      -1.325  -0.821   1.921  0.00  0.00     0.039 A 
ENDROOT
BRANCH   4   7
ATOM      7  O   UNL d   1       0.828   0.424  -0.731  0.00  0.00    -0.526 OA
ATOM      8  H5  UNL d   1       1.767   0.672  -0.693  0.00  0.00     0.418 HD
ENDBRANCH   4   7
TORSDOF 1
ENDMDL
