MODEL 1
REMARK minimizedAffinity -4.60891867
REMARK minimizedRMSD -1
REMARK  1 active torsions:
REMARK  status: ('A' for Active; 'I' for Inactive)
REMARK    1  A    between atoms: C3_4  and  O_7 
ROOT
ATOM      1  C   UNL d   1      -0.440   0.066   2.414  0.00  0.00    -0.033 A 
ATOM      2  C1  UNL d   1       0.880   0.399   2.104  0.00  0.00     0.039 A 
ATOM      3  C2  UNL d   1       1.311   0.393   0.776  0.00  0.00    -0.080 A 
ATOM      4  C3  UNL d   1       0.412   0.053  -0.232  0.00  0.00     0.150 A 
ATOM      5  C4  UNL d   1      -0.906  -0.276   0.069  0.00  0.00    -0.007 A 
ATOM      6  C5  UNL d   1      -1.333  -0.270   1.396  0.00  0.00     0.039 A 
ENDROOT
BRANCH   4   7
ATOM      7  O   UNL d   1       0.787   0.028  -1.542  0.00  0.00    -0.526 OA
ATOM      8  H5  UNL d   1       1.731   0.249  -1.596  0.00  0.00     0.418 HD
ENDBRANCH   4   7
TORSDOF 1
ENDMDL
