MODEL 1
REMARK minimizedAffinity -4.49237013
REMARK minimizedRMSD -1
REMARK  1 active torsions:
REMARK  status: ('A' for Active; 'I' for Inactive)
REMARK    1  A    between atoms: C3_4  and  O_7 
ROOT
ATOM      1  C   UNL d   1       0.509   0.343  -0.253  0.00  0.00    -0.033 A 
ATOM      2  C1  UNL d   1       1.297   0.719   0.837  0.00  0.00     0.039 A 
ATOM      3  C2  UNL d   1       0.923   0.351   2.131  0.00  0.00    -0.080 A 
ATOM      4  C3  UNL d   1      -0.239  -0.393   2.321  0.00  0.00     0.150 A 
ATOM      5  C4  UNL d   1      -1.026  -0.774   1.239  0.00  0.00    -0.007 A 
ATOM      6  C5  UNL d   1      -0.651  -0.405  -0.052  0.00  0.00     0.039 A 
ENDROOT
BRANCH   4   7
ATOM      7  O   UNL d   1      -0.647  -0.772   3.565  0.00  0.00    -0.526 OA
ATOM      8  H5  UNL d   1      -0.021  -0.413   4.217  0.00  0.00     0.418 HD
ENDBRANCH   4   7
TORSDOF 1
ENDMDL
