MODEL 1
REMARK minimizedAffinity -5.04089451
REMARK minimizedRMSD -1
REMARK  1 active torsions:
REMARK  status: ('A' for Active; 'I' for Inactive)
REMARK    1  A    between atoms: C3_4  and  O_7 
ROOT
ATOM      1  C   UNL d   1       0.662   0.433   0.444  0.00  0.00    -0.033 A 
ATOM      2  C1  UNL d   1       1.518   0.650   1.526  0.00  0.00     0.039 A 
ATOM      3  C2  UNL d   1       1.146   0.236   2.806  0.00  0.00    -0.080 A 
ATOM      4  C3  UNL d   1      -0.081  -0.394   2.991  0.00  0.00     0.150 A 
ATOM      5  C4  UNL d   1      -0.937  -0.617   1.918  0.00  0.00    -0.007 A 
ATOM      6  C5  UNL d   1      -0.565  -0.202   0.640  0.00  0.00     0.039 A 
ENDROOT
BRANCH   4   7
ATOM      7  O   UNL d   1      -0.490  -0.811   4.223  0.00  0.00    -0.526 OA
ATOM      8  H5  UNL d   1       0.190  -0.565   4.872  0.00  0.00     0.418 HD
ENDBRANCH   4   7
TORSDOF 1
ENDMDL
