MODEL 1
REMARK minimizedAffinity -4.99848461
REMARK minimizedRMSD -1
REMARK  1 active torsions:
REMARK  status: ('A' for Active; 'I' for Inactive)
REMARK    1  A    between atoms: C3_4  and  O_7 
ROOT
ATOM      1  C   UNL d   1       0.114   0.133  -0.453  0.00  0.00    -0.033 A 
ATOM      2  C1  UNL d   1      -1.151  -0.177   0.049  0.00  0.00     0.039 A 
ATOM      3  C2  UNL d   1      -1.311  -0.487   1.401  0.00  0.00    -0.080 A 
ATOM      4  C3  UNL d   1      -0.199  -0.483   2.239  0.00  0.00     0.150 A 
ATOM      5  C4  UNL d   1       1.064  -0.172   1.746  0.00  0.00    -0.007 A 
ATOM      6  C5  UNL d   1       1.221   0.136   0.395  0.00  0.00     0.039 A 
ENDROOT
BRANCH   4   7
ATOM      7  O   UNL d   1      -0.305  -0.784   3.564  0.00  0.00    -0.526 OA
ATOM      8  H5  UNL d   1      -1.231  -1.007   3.756  0.00  0.00     0.418 HD
ENDBRANCH   4   7
TORSDOF 1
ENDMDL
