MODEL 1
REMARK minimizedAffinity -4.1140399
REMARK minimizedRMSD -1
REMARK  1 active torsions:
REMARK  status: ('A' for Active; 'I' for Inactive)
REMARK    1  A    between atoms: C3_4  and  O_7 
ROOT
ATOM      1  C   UNL d   1      -0.139  -0.146   3.018  0.00  0.00    -0.033 A 
ATOM      2  C1  UNL d   1       1.170   0.072   2.584  0.00  0.00     0.039 A 
ATOM      3  C2  UNL d   1       1.447   0.169   1.219  0.00  0.00    -0.080 A 
ATOM      4  C3  UNL d   1       0.407   0.049   0.300  0.00  0.00     0.150 A 
ATOM      5  C4  UNL d   1      -0.899  -0.165   0.726  0.00  0.00    -0.007 A 
ATOM      6  C5  UNL d   1      -1.174  -0.263   2.090  0.00  0.00     0.039 A 
ENDROOT
BRANCH   4   7
ATOM      7  O   UNL d   1       0.630   0.132  -1.042  0.00  0.00    -0.526 OA
ATOM      8  H5  UNL d   1       1.583   0.252  -1.190  0.00  0.00     0.418 HD
ENDBRANCH   4   7
TORSDOF 1
ENDMDL
