MODEL 1
REMARK minimizedAffinity -4.79762793
REMARK minimizedRMSD -1
REMARK  1 active torsions:
REMARK  status: ('A' for Active; 'I' for Inactive)
REMARK    1  A    between atoms: C3_4  and  O_7 
ROOT
ATOM      1  C   UNL d   1       0.845   0.280  -0.047  0.00  0.00    -0.033 A 
ATOM      2  C1  UNL d   1       1.408   0.697   1.161  0.00  0.00     0.039 A 
ATOM      3  C2  UNL d   1       0.840   0.298   2.373  0.00  0.00    -0.080 A 
ATOM      4  C3  UNL d   1      -0.288  -0.516   2.363  0.00  0.00     0.150 A 
ATOM      5  C4  UNL d   1      -0.853  -0.938   1.163  0.00  0.00    -0.007 A 
ATOM      6  C5  UNL d   1      -0.285  -0.538  -0.046  0.00  0.00     0.039 A 
ENDROOT
BRANCH   4   7
ATOM      7  O   UNL d   1      -0.881  -0.927   3.520  0.00  0.00    -0.526 OA
ATOM      8  H5  UNL d   1      -0.400  -0.535   4.268  0.00  0.00     0.418 HD
ENDBRANCH   4   7
TORSDOF 1
ENDMDL
