MODEL 1
REMARK minimizedAffinity -5.48664713
REMARK minimizedRMSD -1
REMARK  1 active torsions:
REMARK  status: ('A' for Active; 'I' for Inactive)
REMARK    1  A    between atoms: C3_4  and  O_7 
ROOT
ATOM      1  C   UNL d   1      -2.103   0.415   0.452  0.00  0.00    -0.033 A 
ATOM      2  C1  UNL d   1      -2.682   0.413   1.723  0.00  0.00     0.039 A 
ATOM      3  C2  UNL d   1      -1.934   0.010   2.832  0.00  0.00    -0.080 A 
ATOM      4  C3  UNL d   1      -0.611  -0.386   2.656  0.00  0.00     0.150 A 
ATOM      5  C4  UNL d   1      -0.027  -0.383   1.394  0.00  0.00    -0.007 A 
ATOM      6  C5  UNL d   1      -0.776   0.018   0.288  0.00  0.00     0.039 A 
ENDROOT
BRANCH   4   7
ATOM      7  O   UNL d   1       0.157  -0.791   3.707  0.00  0.00    -0.526 OA
ATOM      8  H5  UNL d   1      -0.387  -0.769   4.512  0.00  0.00     0.418 HD
ENDBRANCH   4   7
TORSDOF 1
ENDMDL
