MODEL 1
REMARK minimizedAffinity -4.02893019
REMARK minimizedRMSD -1
REMARK  1 active torsions:
REMARK  status: ('A' for Active; 'I' for Inactive)
REMARK    1  A    between atoms: C3_4  and  O_7 
ROOT
ATOM      1  C   UNL d   1      -0.442  -0.231   3.150  0.00  0.00    -0.033 A 
ATOM      2  C1  UNL d   1       0.878  -0.045   2.734  0.00  0.00     0.039 A 
ATOM      3  C2  UNL d   1       1.176   0.049   1.374  0.00  0.00    -0.080 A 
ATOM      4  C3  UNL d   1       0.147  -0.043   0.440  0.00  0.00     0.150 A 
ATOM      5  C4  UNL d   1      -1.170  -0.224   0.848  0.00  0.00    -0.007 A 
ATOM      6  C5  UNL d   1      -1.466  -0.319   2.207  0.00  0.00     0.039 A 
ENDROOT
BRANCH   4   7
ATOM      7  O   UNL d   1       0.390   0.039  -0.899  0.00  0.00    -0.526 OA
ATOM      8  H5  UNL d   1       1.348   0.135  -1.032  0.00  0.00     0.418 HD
ENDBRANCH   4   7
TORSDOF 1
ENDMDL
