MODEL 1
REMARK minimizedAffinity -4.33268547
REMARK minimizedRMSD -1
REMARK  1 active torsions:
REMARK  status: ('A' for Active; 'I' for Inactive)
REMARK    1  A    between atoms: C3_4  and  O_7 
ROOT
ATOM      1  C   UNL d   1       0.686  -0.009  -0.015  0.00  0.00    -0.033 A 
ATOM      2  C1  UNL d   1      -0.562  -0.627   0.082  0.00  0.00     0.039 A 
ATOM      3  C2  UNL d   1      -1.064  -0.998   1.331  0.00  0.00    -0.080 A 
ATOM      4  C3  UNL d   1      -0.310  -0.743   2.474  0.00  0.00     0.150 A 
ATOM      5  C4  UNL d   1       0.932  -0.123   2.385  0.00  0.00    -0.007 A 
ATOM      6  C5  UNL d   1       1.432   0.245   1.137  0.00  0.00     0.039 A 
ENDROOT
BRANCH   4   7
ATOM      7  O   UNL d   1      -0.757  -1.090   3.714  0.00  0.00    -0.526 OA
ATOM      8  H5  UNL d   1      -1.616  -1.535   3.619  0.00  0.00     0.418 HD
ENDBRANCH   4   7
TORSDOF 1
ENDMDL
