MODEL 1
REMARK minimizedAffinity -4.08937454
REMARK minimizedRMSD -1
REMARK  1 active torsions:
REMARK  status: ('A' for Active; 'I' for Inactive)
REMARK    1  A    between atoms: C3_4  and  O_7 
ROOT
ATOM      1  C   UNL d   1       0.293   0.138   0.119  0.00  0.00    -0.033 A 
ATOM      2  C1  UNL d   1       1.073   0.512   1.215  0.00  0.00     0.039 A 
ATOM      3  C2  UNL d   1       0.583   0.349   2.512  0.00  0.00    -0.080 A 
ATOM      4  C3  UNL d   1      -0.687  -0.189   2.700  0.00  0.00     0.150 A 
ATOM      5  C4  UNL d   1      -1.469  -0.567   1.613  0.00  0.00    -0.007 A 
ATOM      6  C5  UNL d   1      -0.978  -0.403   0.318  0.00  0.00     0.039 A 
ENDROOT
BRANCH   4   7
ATOM      7  O   UNL d   1      -1.210  -0.363   3.946  0.00  0.00    -0.526 OA
ATOM      8  H5  UNL d   1      -0.570  -0.031   4.598  0.00  0.00     0.418 HD
ENDBRANCH   4   7
TORSDOF 1
ENDMDL
