MODEL 1
REMARK minimizedAffinity -5.17111254
REMARK minimizedRMSD -1
REMARK  1 active torsions:
REMARK  status: ('A' for Active; 'I' for Inactive)
REMARK    1  A    between atoms: C3_4  and  O_7 
ROOT
ATOM      1  C   UNL d   1       1.191   0.254   0.394  0.00  0.00    -0.033 A 
ATOM      2  C1  UNL d   1      -0.177  -0.008   0.299  0.00  0.00     0.039 A 
ATOM      3  C2  UNL d   1      -0.903  -0.360   1.439  0.00  0.00    -0.080 A 
ATOM      4  C3  UNL d   1      -0.251  -0.444   2.666  0.00  0.00     0.150 A 
ATOM      5  C4  UNL d   1       1.111  -0.180   2.768  0.00  0.00    -0.007 A 
ATOM      6  C5  UNL d   1       1.835   0.170   1.629  0.00  0.00     0.039 A 
ENDROOT
BRANCH   4   7
ATOM      7  O   UNL d   1      -0.916  -0.788   3.805  0.00  0.00    -0.526 OA
ATOM      8  H5  UNL d   1      -1.843  -0.969   3.577  0.00  0.00     0.418 HD
ENDBRANCH   4   7
TORSDOF 1
ENDMDL
