MODEL 1
REMARK minimizedAffinity -4.76788092
REMARK minimizedRMSD -1
REMARK  1 active torsions:
REMARK  status: ('A' for Active; 'I' for Inactive)
REMARK    1  A    between atoms: C1_2  and  C2_3 
ROOT
ATOM      1  C2  UNL d   1       0.001  -0.157  -0.535  0.00  0.00    -0.077 A 
ATOM      2  C3  UNL d   1      -0.842  -1.150  -0.019  0.00  0.00     0.002 A 
ATOM      3  C4  UNL d   1      -1.140  -1.186   1.345  0.00  0.00     0.002 A 
ATOM      4  C5  UNL d   1      -0.602  -0.229   2.202  0.00  0.00    -0.004 A 
ATOM      5  C6  UNL d   1       0.240   0.762   1.699  0.00  0.00     0.002 A 
ATOM      6  C7  UNL d   1       0.540   0.799   0.336  0.00  0.00     0.002 A 
ENDROOT
BRANCH   1   7
ATOM      7  C1  UNL d   1       0.284  -0.087  -2.013  0.00  0.00     0.055 C 
ATOM      8  C   UNL d   1       0.281  -1.473  -2.643  0.00  0.00     0.019 C 
ENDBRANCH   1   7
TORSDOF 1
ENDMDL
