MODEL 1
REMARK minimizedAffinity -5.77571821
REMARK minimizedRMSD -1
REMARK  1 active torsions:
REMARK  status: ('A' for Active; 'I' for Inactive)
REMARK    1  A    between atoms: C1_2  and  C2_3 
ROOT
ATOM      1  C2  UNL d   1      -0.579  -0.189   1.107  0.00  0.00    -0.077 A 
ATOM      2  C3  UNL d   1      -1.866   0.215   0.726  0.00  0.00     0.002 A 
ATOM      3  C4  UNL d   1      -2.893   0.285   1.670  0.00  0.00     0.002 A 
ATOM      4  C5  UNL d   1      -2.642  -0.043   3.000  0.00  0.00    -0.004 A 
ATOM      5  C6  UNL d   1      -1.366  -0.448   3.389  0.00  0.00     0.002 A 
ATOM      6  C7  UNL d   1      -0.339  -0.520   2.447  0.00  0.00     0.002 A 
ENDROOT
BRANCH   1   7
ATOM      7  C1  UNL d   1       0.542  -0.218   0.101  0.00  0.00     0.055 C 
ATOM      8  C   UNL d   1       0.222   0.648  -1.109  0.00  0.00     0.019 C 
ENDBRANCH   1   7
TORSDOF 1
ENDMDL
