MODEL 1
REMARK minimizedAffinity -5.21886396
REMARK minimizedRMSD -1
REMARK  1 active torsions:
REMARK  status: ('A' for Active; 'I' for Inactive)
REMARK    1  A    between atoms: C1_2  and  C2_3 
ROOT
ATOM      1  C2  UNL d   1       0.124   0.133   0.989  0.00  0.00    -0.077 A 
ATOM      2  C3  UNL d   1      -1.265   0.315   0.947  0.00  0.00     0.002 A 
ATOM      3  C4  UNL d   1      -2.069  -0.140   1.994  0.00  0.00     0.002 A 
ATOM      4  C5  UNL d   1      -1.493  -0.775   3.092  0.00  0.00    -0.004 A 
ATOM      5  C6  UNL d   1      -0.112  -0.963   3.142  0.00  0.00     0.002 A 
ATOM      6  C7  UNL d   1       0.693  -0.510   2.096  0.00  0.00     0.002 A 
ENDROOT
BRANCH   1   7
ATOM      7  C1  UNL d   1       0.998   0.666  -0.116  0.00  0.00     0.055 C 
ATOM      8  C   UNL d   1       0.487   0.235  -1.483  0.00  0.00     0.019 C 
ENDBRANCH   1   7
TORSDOF 1
ENDMDL
