MODEL 1
REMARK minimizedAffinity -4.46944284
REMARK minimizedRMSD -1
REMARK  1 active torsions:
REMARK  status: ('A' for Active; 'I' for Inactive)
REMARK    1  A    between atoms: C1_2  and  C2_3 
ROOT
ATOM      1  C2  UNL d   1      -0.585  -0.555   1.222  0.00  0.00    -0.077 A 
ATOM      2  C3  UNL d   1      -1.752  -0.175   0.546  0.00  0.00     0.002 A 
ATOM      3  C4  UNL d   1      -1.674   0.495  -0.676  0.00  0.00     0.002 A 
ATOM      4  C5  UNL d   1      -0.432   0.787  -1.234  0.00  0.00    -0.004 A 
ATOM      5  C6  UNL d   1       0.736   0.415  -0.569  0.00  0.00     0.002 A 
ATOM      6  C7  UNL d   1       0.660  -0.254   0.654  0.00  0.00     0.002 A 
ENDROOT
BRANCH   1   7
ATOM      7  C1  UNL d   1      -0.667  -1.322   2.517  0.00  0.00     0.055 C 
ATOM      8  C   UNL d   1      -0.551  -0.394   3.718  0.00  0.00     0.019 C 
ENDBRANCH   1   7
TORSDOF 1
ENDMDL
