MODEL 1
REMARK minimizedAffinity -2.80178714
REMARK minimizedRMSD -1
REMARK  1 active torsions:
REMARK  status: ('A' for Active; 'I' for Inactive)
REMARK    1  A    between atoms: C1_2  and  C2_3 
ROOT
ATOM      1  C2  UNL d   1      -1.341  -0.556   1.179  0.00  0.00    -0.077 A 
ATOM      2  C3  UNL d   1      -0.994  -0.365   2.524  0.00  0.00     0.002 A 
ATOM      3  C4  UNL d   1       0.344  -0.212   2.893  0.00  0.00     0.002 A 
ATOM      4  C5  UNL d   1       1.344  -0.245   1.924  0.00  0.00    -0.004 A 
ATOM      5  C6  UNL d   1       1.009  -0.437   0.584  0.00  0.00     0.002 A 
ATOM      6  C7  UNL d   1      -0.327  -0.590   0.213  0.00  0.00     0.002 A 
ENDROOT
BRANCH   1   7
ATOM      7  C1  UNL d   1      -2.787  -0.671   0.773  0.00  0.00     0.055 C 
ATOM      8  C   UNL d   1      -3.188   0.453  -0.171  0.00  0.00     0.019 C 
ENDBRANCH   1   7
TORSDOF 1
ENDMDL
