MODEL 1
REMARK minimizedAffinity -5.31267929
REMARK minimizedRMSD -1
REMARK  1 active torsions:
REMARK  status: ('A' for Active; 'I' for Inactive)
REMARK    1  A    between atoms: C1_2  and  C2_3 
ROOT
ATOM      1  C2  UNL d   1      -0.137   0.006   0.137  0.00  0.00    -0.077 A 
ATOM      2  C3  UNL d   1      -1.194  -0.619   0.813  0.00  0.00     0.002 A 
ATOM      3  C4  UNL d   1      -1.120  -0.842   2.189  0.00  0.00     0.002 A 
ATOM      4  C5  UNL d   1       0.008  -0.440   2.902  0.00  0.00    -0.004 A 
ATOM      5  C6  UNL d   1       1.066   0.180   2.239  0.00  0.00     0.002 A 
ATOM      6  C7  UNL d   1       0.994   0.403   0.863  0.00  0.00     0.002 A 
ENDROOT
BRANCH   1   7
ATOM      7  C1  UNL d   1      -0.236   0.292  -1.338  0.00  0.00     0.055 C 
ATOM      8  C   UNL d   1       0.870  -0.410  -2.114  0.00  0.00     0.019 C 
ENDBRANCH   1   7
TORSDOF 1
ENDMDL
