MODEL 1
REMARK minimizedAffinity -1.28609574
REMARK minimizedRMSD -1
REMARK  1 active torsions:
REMARK  status: ('A' for Active; 'I' for Inactive)
REMARK    1  A    between atoms: C1_2  and  C2_3 
ROOT
ATOM      1  C2  UNL d   1       0.224  -0.297  -1.720  0.00  0.00    -0.077 A 
ATOM      2  C3  UNL d   1      -0.501  -1.258  -2.440  0.00  0.00     0.002 A 
ATOM      3  C4  UNL d   1       0.001  -1.771  -3.638  0.00  0.00     0.002 A 
ATOM      4  C5  UNL d   1       1.231  -1.332  -4.124  0.00  0.00    -0.004 A 
ATOM      5  C6  UNL d   1       1.958  -0.375  -3.417  0.00  0.00     0.002 A 
ATOM      6  C7  UNL d   1       1.457   0.139  -2.220  0.00  0.00     0.002 A 
ENDROOT
BRANCH   1   7
ATOM      7  C1  UNL d   1      -0.293   0.220  -0.403  0.00  0.00     0.055 C 
ATOM      8  C   UNL d   1       0.772   0.137   0.680  0.00  0.00     0.019 C 
ENDBRANCH   1   7
TORSDOF 1
ENDMDL
