MODEL 1
REMARK minimizedAffinity -5.23102999
REMARK minimizedRMSD -1
REMARK  0 active torsions:
REMARK  status: ('A' for Active; 'I' for Inactive)
ROOT
ATOM      1  C   UNL d   1      -1.209   0.924   0.099  0.00  0.00     0.020 A 
ATOM      2  C1  UNL d   1      -0.189   1.873   0.065  0.00  0.00     0.020 A 
ATOM      3  C2  UNL d   1       1.139   1.478   0.234  0.00  0.00     0.034 A 
ATOM      4  C3  UNL d   1       1.451   0.129   0.438  0.00  0.00     0.017 A 
ATOM      5  C4  UNL d   1       0.427  -0.824   0.472  0.00  0.00     0.017 A 
ATOM      6  C5  UNL d   1      -0.902  -0.422   0.302  0.00  0.00     0.034 A 
ATOM      7 Cl   UNL d   1       0.734  -2.507   0.719  0.00  0.00    -0.070 Cl
ATOM      8 Cl1  UNL d   1       3.116  -0.290   0.640  0.00  0.00    -0.070 Cl
ENDROOT
TORSDOF 0
ENDMDL
