MODEL 1
REMARK minimizedAffinity -3.94423342
REMARK minimizedRMSD -1
REMARK  0 active torsions:
REMARK  status: ('A' for Active; 'I' for Inactive)
ROOT
ATOM      1  C   UNL d   1       2.255   1.466   0.043  0.00  0.00     0.020 A 
ATOM      2  C1  UNL d   1       2.995   0.401   0.556  0.00  0.00     0.020 A 
ATOM      3  C2  UNL d   1       2.342  -0.741   1.023  0.00  0.00     0.034 A 
ATOM      4  C3  UNL d   1       0.946  -0.822   0.978  0.00  0.00     0.017 A 
ATOM      5  C4  UNL d   1       0.204   0.247   0.463  0.00  0.00     0.017 A 
ATOM      6  C5  UNL d   1       0.863   1.389  -0.003  0.00  0.00     0.034 A 
ATOM      7 Cl   UNL d   1      -1.522   0.221   0.376  0.00  0.00    -0.070 Cl
ATOM      8 Cl1  UNL d   1       0.205  -2.265   1.573  0.00  0.00    -0.070 Cl
ENDROOT
TORSDOF 0
ENDMDL
