MODEL 1
REMARK minimizedAffinity -2.06171513
REMARK minimizedRMSD -1
REMARK  0 active torsions:
REMARK  status: ('A' for Active; 'I' for Inactive)
ROOT
ATOM      1  C   UNL d   1      -0.975   0.726   0.031  0.00  0.00     0.020 A 
ATOM      2  C1  UNL d   1       0.086   1.629  -0.037  0.00  0.00     0.020 A 
ATOM      3  C2  UNL d   1       1.369   1.228   0.339  0.00  0.00     0.034 A 
ATOM      4  C3  UNL d   1       1.596  -0.079   0.786  0.00  0.00     0.017 A 
ATOM      5  C4  UNL d   1       0.531  -0.984   0.854  0.00  0.00     0.017 A 
ATOM      6  C5  UNL d   1      -0.753  -0.578   0.476  0.00  0.00     0.034 A 
ATOM      7 Cl   UNL d   1       0.732  -2.614   1.394  0.00  0.00    -0.070 Cl
ATOM      8 Cl1  UNL d   1       3.208  -0.506   1.235  0.00  0.00    -0.070 Cl
ENDROOT
TORSDOF 0
ENDMDL
