MODEL 1
REMARK minimizedAffinity -4.89451265
REMARK minimizedRMSD -1
REMARK  0 active torsions:
REMARK  status: ('A' for Active; 'I' for Inactive)
ROOT
ATOM      1  C   UNL d   1       1.013   0.950  -0.808  0.00  0.00     0.020 A 
ATOM      2  C1  UNL d   1       1.577  -0.264  -1.200  0.00  0.00     0.020 A 
ATOM      3  C2  UNL d   1       2.501  -0.904  -0.372  0.00  0.00     0.034 A 
ATOM      4  C3  UNL d   1       2.863  -0.332   0.853  0.00  0.00     0.017 A 
ATOM      5  C4  UNL d   1       2.296   0.886   1.246  0.00  0.00     0.017 A 
ATOM      6  C5  UNL d   1       1.371   1.523   0.413  0.00  0.00     0.034 A 
ATOM      7 Cl   UNL d   1       2.693   1.653   2.743  0.00  0.00    -0.070 Cl
ATOM      8 Cl1  UNL d   1       4.011  -1.180   1.828  0.00  0.00    -0.070 Cl
ENDROOT
TORSDOF 0
ENDMDL
