MODEL 1
REMARK minimizedAffinity -3.77616382
REMARK minimizedRMSD -1
REMARK  0 active torsions:
REMARK  status: ('A' for Active; 'I' for Inactive)
ROOT
ATOM      1  C   UNL d   1       2.543   1.088   0.533  0.00  0.00     0.020 A 
ATOM      2  C1  UNL d   1       1.675   1.995  -0.074  0.00  0.00     0.020 A 
ATOM      3  C2  UNL d   1       0.350   1.633  -0.323  0.00  0.00     0.034 A 
ATOM      4  C3  UNL d   1      -0.112   0.361   0.035  0.00  0.00     0.017 A 
ATOM      5  C4  UNL d   1       0.761  -0.549   0.645  0.00  0.00     0.017 A 
ATOM      6  C5  UNL d   1       2.087  -0.181   0.892  0.00  0.00     0.034 A 
ATOM      7 Cl   UNL d   1       0.264  -2.136   1.115  0.00  0.00    -0.070 Cl
ATOM      8 Cl1  UNL d   1      -1.763  -0.019  -0.302  0.00  0.00    -0.070 Cl
ENDROOT
TORSDOF 0
ENDMDL
