MODEL 1
REMARK minimizedAffinity -3.75317502
REMARK minimizedRMSD -1
REMARK  0 active torsions:
REMARK  status: ('A' for Active; 'I' for Inactive)
ROOT
ATOM      1  C2' OXE d   1      -1.258   1.315  -3.368  0.00  0.00     0.078 C 
ATOM      2  C1' OXE d   1      -3.592   2.650  -4.174  0.00  0.00     0.078 C 
ATOM      3  C1  OXE d   1      -3.626   1.902  -2.865  0.00  0.00    -0.078 A 
ATOM      4  C2  OXE d   1      -2.494   1.213  -2.501  0.00  0.00    -0.078 A 
ATOM      5  C3  OXE d   1      -2.453   0.551  -1.277  0.00  0.00     0.003 A 
ATOM      6  C4  OXE d   1      -3.604   0.453  -0.486  0.00  0.00    -0.002 A 
ATOM      7  C5  OXE d   1      -4.780   1.115  -0.857  0.00  0.00    -0.002 A 
ATOM      8  C6  OXE d   1      -4.794   1.877  -2.020  0.00  0.00     0.003 A 
ENDROOT
TORSDOF 0
ENDMDL
