MODEL 1
REMARK minimizedAffinity -2.40205503
REMARK minimizedRMSD -1
REMARK  0 active torsions:
REMARK  status: ('A' for Active; 'I' for Inactive)
ROOT
ATOM      1  C2' OXE d   1       0.773  -2.195   3.754  0.00  0.00     0.078 C 
ATOM      2  C1' OXE d   1       1.016  -0.916   1.267  0.00  0.00     0.078 C 
ATOM      3  C1  OXE d   1       2.226  -0.940   2.168  0.00  0.00    -0.078 A 
ATOM      4  C2  OXE d   1       2.084  -1.527   3.402  0.00  0.00    -0.078 A 
ATOM      5  C3  OXE d   1       3.184  -1.624   4.250  0.00  0.00     0.003 A 
ATOM      6  C4  OXE d   1       4.390  -0.995   3.921  0.00  0.00    -0.002 A 
ATOM      7  C5  OXE d   1       4.544  -0.357   2.685  0.00  0.00    -0.002 A 
ATOM      8  C6  OXE d   1       3.487  -0.357   1.782  0.00  0.00     0.003 A 
ENDROOT
TORSDOF 0
ENDMDL
