MODEL 1
REMARK minimizedAffinity -0.341090322
REMARK minimizedRMSD -1
REMARK  0 active torsions:
REMARK  status: ('A' for Active; 'I' for Inactive)
ROOT
ATOM      1  C2' OXE d   1       0.292  -1.304   1.469  0.00  0.00     0.078 C 
ATOM      2  C1' OXE d   1       2.074   0.278  -0.014  0.00  0.00     0.078 C 
ATOM      3  C1  OXE d   1       2.576  -0.330   1.272  0.00  0.00    -0.078 A 
ATOM      4  C2  OXE d   1       1.683  -1.064   2.015  0.00  0.00    -0.078 A 
ATOM      5  C3  OXE d   1       2.110  -1.692   3.181  0.00  0.00     0.003 A 
ATOM      6  C4  OXE d   1       3.395  -1.457   3.684  0.00  0.00    -0.002 A 
ATOM      7  C5  OXE d   1       4.308  -0.680   2.963  0.00  0.00    -0.002 A 
ATOM      8  C6  OXE d   1       3.929  -0.145   1.737  0.00  0.00     0.003 A 
ENDROOT
TORSDOF 0
ENDMDL
