MODEL 1
REMARK minimizedAffinity -1.2266885
REMARK minimizedRMSD -1
REMARK  0 active torsions:
REMARK  status: ('A' for Active; 'I' for Inactive)
ROOT
ATOM      1  C2' OXE d   1       3.191  -1.040   3.023  0.00  0.00     0.078 C 
ATOM      2  C1' OXE d   1       1.896  -3.486   2.557  0.00  0.00     0.078 C 
ATOM      3  C1  OXE d   1       1.485  -2.302   1.718  0.00  0.00    -0.078 A 
ATOM      4  C2  OXE d   1       2.091  -1.098   1.985  0.00  0.00    -0.078 A 
ATOM      5  C3  OXE d   1       1.789   0.014   1.204  0.00  0.00     0.003 A 
ATOM      6  C4  OXE d   1       0.763  -0.046   0.252  0.00  0.00    -0.002 A 
ATOM      7  C5  OXE d   1       0.106  -1.254  -0.008  0.00  0.00    -0.002 A 
ATOM      8  C6  OXE d   1       0.484  -2.398   0.685  0.00  0.00     0.003 A 
ENDROOT
TORSDOF 0
ENDMDL
