MODEL 1
REMARK minimizedAffinity 2.23808551
REMARK minimizedRMSD -1
REMARK  0 active torsions:
REMARK  status: ('A' for Active; 'I' for Inactive)
ROOT
ATOM      1  C2' OXE d   1       2.061   0.748  -0.408  0.00  0.00     0.078 C 
ATOM      2  C1' OXE d   1      -0.374  -0.144   0.665  0.00  0.00     0.078 C 
ATOM      3  C1  OXE d   1       0.899  -0.621   1.318  0.00  0.00    -0.078 A 
ATOM      4  C2  OXE d   1       2.087  -0.217   0.758  0.00  0.00    -0.078 A 
ATOM      5  C3  OXE d   1       3.290  -0.583   1.353  0.00  0.00     0.003 A 
ATOM      6  C4  OXE d   1       3.305  -1.484   2.425  0.00  0.00    -0.002 A 
ATOM      7  C5  OXE d   1       2.107  -1.939   2.987  0.00  0.00    -0.002 A 
ATOM      8  C6  OXE d   1       0.898  -1.485   2.473  0.00  0.00     0.003 A 
ENDROOT
TORSDOF 0
ENDMDL
