MODEL 1
REMARK minimizedAffinity 3.2944665
REMARK minimizedRMSD -1
REMARK  0 active torsions:
REMARK  status: ('A' for Active; 'I' for Inactive)
ROOT
ATOM      1  C2' OXE d   1       4.484   3.775   0.176  0.00  0.00     0.078 C 
ATOM      2  C1' OXE d   1       4.053   5.968   1.875  0.00  0.00     0.078 C 
ATOM      3  C1  OXE d   1       2.845   5.299   1.270  0.00  0.00    -0.078 A 
ATOM      4  C2  OXE d   1       3.067   4.256   0.403  0.00  0.00    -0.078 A 
ATOM      5  C3  OXE d   1       1.985   3.569  -0.140  0.00  0.00     0.003 A 
ATOM      6  C4  OXE d   1       0.678   4.026   0.067  0.00  0.00    -0.002 A 
ATOM      7  C5  OXE d   1       0.432   5.112   0.915  0.00  0.00    -0.002 A 
ATOM      8  C6  OXE d   1       1.499   5.731   1.556  0.00  0.00     0.003 A 
ENDROOT
TORSDOF 0
ENDMDL
