MODEL 1
REMARK minimizedAffinity 2.69327831
REMARK minimizedRMSD -1
REMARK  0 active torsions:
REMARK  status: ('A' for Active; 'I' for Inactive)
ROOT
ATOM      1  C2' OXE d   1       2.253  -1.365   3.729  0.00  0.00     0.078 C 
ATOM      2  C1' OXE d   1       4.509  -0.784   2.163  0.00  0.00     0.078 C 
ATOM      3  C1  OXE d   1       3.150  -0.571   1.545  0.00  0.00    -0.078 A 
ATOM      4  C2  OXE d   1       2.052  -0.902   2.302  0.00  0.00    -0.078 A 
ATOM      5  C3  OXE d   1       0.774  -0.674   1.800  0.00  0.00     0.003 A 
ATOM      6  C4  OXE d   1       0.597  -0.255   0.476  0.00  0.00    -0.002 A 
ATOM      7  C5  OXE d   1       1.703   0.050  -0.326  0.00  0.00    -0.002 A 
ATOM      8  C6  OXE d   1       2.982  -0.062   0.206  0.00  0.00     0.003 A 
ENDROOT
TORSDOF 0
ENDMDL
