MODEL 1
REMARK minimizedAffinity -3.14258242
REMARK minimizedRMSD -1
REMARK  0 active torsions:
REMARK  status: ('A' for Active; 'I' for Inactive)
ROOT
ATOM      1  C2' OXE d   1      -3.692  -2.022  -0.217  0.00  0.00     0.078 C 
ATOM      2  C1' OXE d   1      -5.740  -0.571   1.040  0.00  0.00     0.078 C 
ATOM      3  C1  OXE d   1      -5.253  -0.083  -0.301  0.00  0.00    -0.078 A 
ATOM      4  C2  OXE d   1      -4.219  -0.772  -0.888  0.00  0.00    -0.078 A 
ATOM      5  C3  OXE d   1      -3.768  -0.396  -2.150  0.00  0.00     0.003 A 
ATOM      6  C4  OXE d   1      -4.254   0.768  -2.759  0.00  0.00    -0.002 A 
ATOM      7  C5  OXE d   1      -5.280   1.507  -2.160  0.00  0.00    -0.002 A 
ATOM      8  C6  OXE d   1      -5.819   1.072  -0.954  0.00  0.00     0.003 A 
ENDROOT
TORSDOF 0
ENDMDL
