MODEL 1
REMARK minimizedAffinity 9.16788387
REMARK minimizedRMSD -1
REMARK  0 active torsions:
REMARK  status: ('A' for Active; 'I' for Inactive)
ROOT
ATOM      1  C2' OXE d   1       1.711  -0.906   0.888  0.00  0.00     0.078 C 
ATOM      2  C1' OXE d   1       1.009  -1.458   3.549  0.00  0.00     0.078 C 
ATOM      3  C1  OXE d   1       2.470  -1.255   3.235  0.00  0.00    -0.078 A 
ATOM      4  C2  OXE d   1       2.809  -1.032   1.922  0.00  0.00    -0.078 A 
ATOM      5  C3  OXE d   1       4.137  -0.784   1.585  0.00  0.00     0.003 A 
ATOM      6  C4  OXE d   1       5.147  -0.912   2.546  0.00  0.00    -0.002 A 
ATOM      7  C5  OXE d   1       4.827  -1.178   3.882  0.00  0.00    -0.002 A 
ATOM      8  C6  OXE d   1       3.493  -1.310   4.250  0.00  0.00     0.003 A 
ENDROOT
TORSDOF 0
ENDMDL
