MODEL 1
REMARK minimizedAffinity -1.36634171
REMARK minimizedRMSD -1
REMARK  0 active torsions:
REMARK  status: ('A' for Active; 'I' for Inactive)
ROOT
ATOM      1  C2' OXE d   1       4.226   3.420  -0.359  0.00  0.00     0.078 C 
ATOM      2  C1' OXE d   1       1.601   3.912   0.505  0.00  0.00     0.078 C 
ATOM      3  C1  OXE d   1       1.963   2.498   0.125  0.00  0.00    -0.078 A 
ATOM      4  C2  OXE d   1       3.237   2.275  -0.341  0.00  0.00    -0.078 A 
ATOM      5  C3  OXE d   1       3.640   0.980  -0.653  0.00  0.00     0.003 A 
ATOM      6  C4  OXE d   1       2.715  -0.072  -0.643  0.00  0.00    -0.002 A 
ATOM      7  C5  OXE d   1       1.402   0.141  -0.210  0.00  0.00    -0.002 A 
ATOM      8  C6  OXE d   1       1.023   1.408   0.217  0.00  0.00     0.003 A 
ENDROOT
TORSDOF 0
ENDMDL
