MODEL 1
REMARK minimizedAffinity 5.75429249
REMARK minimizedRMSD -1
REMARK  0 active torsions:
REMARK  status: ('A' for Active; 'I' for Inactive)
ROOT
ATOM      1  C2' OXE d   1      -1.223  -3.098   0.636  0.00  0.00     0.078 C 
ATOM      2  C1' OXE d   1       0.930  -3.495  -1.122  0.00  0.00     0.078 C 
ATOM      3  C1  OXE d   1       0.769  -2.129  -0.504  0.00  0.00    -0.078 A 
ATOM      4  C2  OXE d   1      -0.314  -1.930   0.319  0.00  0.00    -0.078 A 
ATOM      5  C3  OXE d   1      -0.479  -0.705   0.958  0.00  0.00     0.003 A 
ATOM      6  C4  OXE d   1       0.360   0.373   0.650  0.00  0.00    -0.002 A 
ATOM      7  C5  OXE d   1       1.446   0.204  -0.215  0.00  0.00    -0.002 A 
ATOM      8  C6  OXE d   1       1.689  -1.050  -0.767  0.00  0.00     0.003 A 
ENDROOT
TORSDOF 0
ENDMDL
