MODEL 1
REMARK minimizedAffinity 8.33062363
REMARK minimizedRMSD -1
REMARK  0 active torsions:
REMARK  status: ('A' for Active; 'I' for Inactive)
ROOT
ATOM      1  C2' OXE d   1       2.971  -1.707   3.497  0.00  0.00     0.078 C 
ATOM      2  C1' OXE d   1       4.750  -0.564   1.651  0.00  0.00     0.078 C 
ATOM      3  C1  OXE d   1       3.284  -0.583   1.296  0.00  0.00    -0.078 A 
ATOM      4  C2  OXE d   1       2.426  -1.186   2.185  0.00  0.00    -0.078 A 
ATOM      5  C3  OXE d   1       1.058  -1.184   1.931  0.00  0.00     0.003 A 
ATOM      6  C4  OXE d   1       0.564  -0.709   0.710  0.00  0.00    -0.002 A 
ATOM      7  C5  OXE d   1       1.425  -0.127  -0.226  0.00  0.00    -0.002 A 
ATOM      8  C6  OXE d   1       2.779  -0.018   0.070  0.00  0.00     0.003 A 
ENDROOT
TORSDOF 0
ENDMDL
