MODEL 1
REMARK minimizedAffinity 8.95109844
REMARK minimizedRMSD -1
REMARK  0 active torsions:
REMARK  status: ('A' for Active; 'I' for Inactive)
ROOT
ATOM      1  C2' OXE d   1      -1.555  -3.361   0.722  0.00  0.00     0.078 C 
ATOM      2  C1' OXE d   1      -2.576  -0.746   0.701  0.00  0.00     0.078 C 
ATOM      3  C1  OXE d   1      -1.078  -0.916   0.686  0.00  0.00    -0.078 A 
ATOM      4  C2  OXE d   1      -0.586  -2.198   0.744  0.00  0.00    -0.078 A 
ATOM      5  C3  OXE d   1       0.787  -2.414   0.677  0.00  0.00     0.003 A 
ATOM      6  C4  OXE d   1       1.677  -1.333   0.708  0.00  0.00    -0.002 A 
ATOM      7  C5  OXE d   1       1.197  -0.019   0.689  0.00  0.00    -0.002 A 
ATOM      8  C6  OXE d   1      -0.174   0.206   0.636  0.00  0.00     0.003 A 
ENDROOT
TORSDOF 0
ENDMDL
