MODEL 1
REMARK minimizedAffinity 6.74841595
REMARK minimizedRMSD -1
REMARK  0 active torsions:
REMARK  status: ('A' for Active; 'I' for Inactive)
ROOT
ATOM      1  C2' OXE d   1       3.824   3.395  -0.457  0.00  0.00     0.078 C 
ATOM      2  C1' OXE d   1       1.183   3.902   0.348  0.00  0.00     0.078 C 
ATOM      3  C1  OXE d   1       1.581   2.468   0.106  0.00  0.00    -0.078 A 
ATOM      4  C2  OXE d   1       2.862   2.233  -0.333  0.00  0.00    -0.078 A 
ATOM      5  C3  OXE d   1       3.298   0.924  -0.520  0.00  0.00     0.003 A 
ATOM      6  C4  OXE d   1       2.399  -0.144  -0.413  0.00  0.00    -0.002 A 
ATOM      7  C5  OXE d   1       1.079   0.077  -0.005  0.00  0.00    -0.002 A 
ATOM      8  C6  OXE d   1       0.667   1.369   0.298  0.00  0.00     0.003 A 
ENDROOT
TORSDOF 0
ENDMDL
