MODEL 1
REMARK minimizedAffinity 6.07368422
REMARK minimizedRMSD -1
REMARK  0 active torsions:
REMARK  status: ('A' for Active; 'I' for Inactive)
ROOT
ATOM      1  C2' OXE d   1      -4.500  -5.807  -4.109  0.00  0.00     0.078 C 
ATOM      2  C1' OXE d   1      -2.716  -4.972  -2.108  0.00  0.00     0.078 C 
ATOM      3  C1  OXE d   1      -2.148  -5.291  -3.469  0.00  0.00    -0.078 A 
ATOM      4  C2  OXE d   1      -3.022  -5.744  -4.428  0.00  0.00    -0.078 A 
ATOM      5  C3  OXE d   1      -2.559  -6.000  -5.716  0.00  0.00     0.003 A 
ATOM      6  C4  OXE d   1      -1.189  -5.948  -6.000  0.00  0.00    -0.002 A 
ATOM      7  C5  OXE d   1      -0.277  -5.527  -5.026  0.00  0.00    -0.002 A 
ATOM      8  C6  OXE d   1      -0.745  -5.155  -3.770  0.00  0.00     0.003 A 
ENDROOT
TORSDOF 0
ENDMDL
