MODEL 1
REMARK minimizedAffinity 6.02470303
REMARK minimizedRMSD -1
REMARK  0 active torsions:
REMARK  status: ('A' for Active; 'I' for Inactive)
ROOT
ATOM      1  C2' OXE d   1       3.321  -4.349  -4.684  0.00  0.00     0.078 C 
ATOM      2  C1' OXE d   1       1.504  -3.686  -2.649  0.00  0.00     0.078 C 
ATOM      3  C1  OXE d   1       0.996  -4.514  -3.803  0.00  0.00    -0.078 A 
ATOM      4  C2  OXE d   1       1.881  -4.794  -4.817  0.00  0.00    -0.078 A 
ATOM      5  C3  OXE d   1       1.479  -5.600  -5.879  0.00  0.00     0.003 A 
ATOM      6  C4  OXE d   1       0.143  -5.999  -6.000  0.00  0.00    -0.002 A 
ATOM      7  C5  OXE d   1      -0.784  -5.692  -4.998  0.00  0.00    -0.002 A 
ATOM      8  C6  OXE d   1      -0.364  -4.987  -3.875  0.00  0.00     0.003 A 
ENDROOT
TORSDOF 0
ENDMDL
