MODEL 1
REMARK minimizedAffinity 1.7317487
REMARK minimizedRMSD -1
REMARK  0 active torsions:
REMARK  status: ('A' for Active; 'I' for Inactive)
ROOT
ATOM      1  C2' OXE d   1      -0.050  -0.005   0.519  0.00  0.00     0.078 C 
ATOM      2  C1' OXE d   1       2.205   0.026  -1.153  0.00  0.00     0.078 C 
ATOM      3  C1  OXE d   1       2.395  -0.417   0.276  0.00  0.00    -0.078 A 
ATOM      4  C2  OXE d   1       1.296  -0.385   1.100  0.00  0.00    -0.078 A 
ATOM      5  C3  OXE d   1       1.404  -0.835   2.412  0.00  0.00     0.003 A 
ATOM      6  C4  OXE d   1       2.654  -1.175   2.944  0.00  0.00    -0.002 A 
ATOM      7  C5  OXE d   1       3.794  -1.177   2.133  0.00  0.00    -0.002 A 
ATOM      8  C6  OXE d   1       3.674  -0.842   0.789  0.00  0.00     0.003 A 
ENDROOT
TORSDOF 0
ENDMDL
