MODEL 1
REMARK minimizedAffinity -3.07367587
REMARK minimizedRMSD -1
REMARK  0 active torsions:
REMARK  status: ('A' for Active; 'I' for Inactive)
ROOT
ATOM      1  C1  BNZ d   1      -0.226  -0.270  -0.714  0.00  0.00     0.000 A 
ATOM      2  C2  BNZ d   1      -0.905   0.648   0.043  0.00  0.00     0.000 A 
ATOM      3  C3  BNZ d   1      -0.344   1.176   1.172  0.00  0.00     0.000 A 
ATOM      4  C4  BNZ d   1       0.876   0.757   1.565  0.00  0.00     0.000 A 
ATOM      5  C5  BNZ d   1       1.569  -0.175   0.818  0.00  0.00     0.000 A 
ATOM      6  C6  BNZ d   1       1.017  -0.675  -0.340  0.00  0.00     0.000 A 
ENDROOT
TORSDOF 0
ENDMDL
