MODEL 1
REMARK minimizedAffinity -3.94612384
REMARK minimizedRMSD -1
REMARK  0 active torsions:
REMARK  status: ('A' for Active; 'I' for Inactive)
ROOT
ATOM      1  C1  BNZ d   1       0.810   0.902   1.103  0.00  0.00     0.000 A 
ATOM      2  C2  BNZ d   1       0.054   1.485   2.085  0.00  0.00     0.000 A 
ATOM      3  C3  BNZ d   1      -1.303   1.323   2.114  0.00  0.00     0.000 A 
ATOM      4  C4  BNZ d   1      -1.906   0.611   1.140  0.00  0.00     0.000 A 
ATOM      5  C5  BNZ d   1      -1.159   0.025   0.137  0.00  0.00     0.000 A 
ATOM      6  C6  BNZ d   1       0.211   0.159   0.134  0.00  0.00     0.000 A 
ENDROOT
TORSDOF 0
ENDMDL
