MODEL 1
REMARK minimizedAffinity -3.86721635
REMARK minimizedRMSD -1
REMARK  0 active torsions:
REMARK  status: ('A' for Active; 'I' for Inactive)
ROOT
ATOM      1  C1  BNZ d   1      -0.105   1.495   2.252  0.00  0.00     0.000 A 
ATOM      2  C2  BNZ d   1      -0.009   1.103   0.944  0.00  0.00     0.000 A 
ATOM      3  C3  BNZ d   1      -0.958   0.294   0.384  0.00  0.00     0.000 A 
ATOM      4  C4  BNZ d   1      -1.980  -0.153   1.143  0.00  0.00     0.000 A 
ATOM      5  C5  BNZ d   1      -2.085   0.226   2.467  0.00  0.00     0.000 A 
ATOM      6  C6  BNZ d   1      -1.149   1.072   3.016  0.00  0.00     0.000 A 
ENDROOT
TORSDOF 0
ENDMDL
