MODEL 1
REMARK minimizedAffinity -3.47439384
REMARK minimizedRMSD -1
REMARK  0 active torsions:
REMARK  status: ('A' for Active; 'I' for Inactive)
ROOT
ATOM      1  C1  BNZ d   1      -0.588   0.045  -0.136  0.00  0.00     0.000 A 
ATOM      2  C2  BNZ d   1       0.325   0.411   0.816  0.00  0.00     0.000 A 
ATOM      3  C3  BNZ d   1      -0.078   0.986   1.989  0.00  0.00     0.000 A 
ATOM      4  C4  BNZ d   1      -1.389   1.231   2.190  0.00  0.00     0.000 A 
ATOM      5  C5  BNZ d   1      -2.321   0.877   1.236  0.00  0.00     0.000 A 
ATOM      6  C6  BNZ d   1      -1.915   0.263   0.073  0.00  0.00     0.000 A 
ENDROOT
TORSDOF 0
ENDMDL
