MODEL 1
REMARK minimizedAffinity -4.96348047
REMARK minimizedRMSD -1
REMARK  0 active torsions:
REMARK  status: ('A' for Active; 'I' for Inactive)
ROOT
ATOM      1  C1  BNZ d   1      -1.583   0.408   0.470  0.00  0.00     0.000 A 
ATOM      2  C2  BNZ d   1      -1.728   0.940   1.724  0.00  0.00     0.000 A 
ATOM      3  C3  BNZ d   1      -0.636   1.220   2.496  0.00  0.00     0.000 A 
ATOM      4  C4  BNZ d   1       0.596   0.932   2.032  0.00  0.00     0.000 A 
ATOM      5  C5  BNZ d   1       0.759   0.387   0.773  0.00  0.00     0.000 A 
ATOM      6  C6  BNZ d   1      -0.340   0.142  -0.017  0.00  0.00     0.000 A 
ENDROOT
TORSDOF 0
ENDMDL
