MODEL 1
REMARK minimizedAffinity -4.0027318
REMARK minimizedRMSD -1
REMARK  0 active torsions:
REMARK  status: ('A' for Active; 'I' for Inactive)
ROOT
ATOM      1  C1  BNZ d   1       0.546   0.960   2.025  0.00  0.00     0.000 A 
ATOM      2  C2  BNZ d   1       0.737   0.628   0.710  0.00  0.00     0.000 A 
ATOM      3  C3  BNZ d   1      -0.323   0.325  -0.097  0.00  0.00     0.000 A 
ATOM      4  C4  BNZ d   1      -1.569   0.316   0.421  0.00  0.00     0.000 A 
ATOM      5  C5  BNZ d   1      -1.777   0.640   1.746  0.00  0.00     0.000 A 
ATOM      6  C6  BNZ d   1      -0.711   0.982   2.546  0.00  0.00     0.000 A 
ENDROOT
TORSDOF 0
ENDMDL
