MODEL 1
REMARK minimizedAffinity -5.15917492
REMARK minimizedRMSD -1
REMARK  0 active torsions:
REMARK  status: ('A' for Active; 'I' for Inactive)
ROOT
ATOM      1  C1  BNZ d   1       1.555  -0.479   2.040  0.00  0.00     0.000 A 
ATOM      2  C2  BNZ d   1       0.730   0.019   1.067  0.00  0.00     0.000 A 
ATOM      3  C3  BNZ d   1      -0.233   0.940   1.370  0.00  0.00     0.000 A 
ATOM      4  C4  BNZ d   1      -0.398   1.331   2.650  0.00  0.00     0.000 A 
ATOM      5  C5  BNZ d   1       0.419   0.831   3.644  0.00  0.00     0.000 A 
ATOM      6  C6  BNZ d   1       1.414  -0.066   3.329  0.00  0.00     0.000 A 
ENDROOT
TORSDOF 0
ENDMDL
