MODEL 1
REMARK minimizedAffinity -4.8517561
REMARK minimizedRMSD -1
REMARK  0 active torsions:
REMARK  status: ('A' for Active; 'I' for Inactive)
ROOT
ATOM      1  C1  BNZ d   1       1.221  -0.494   2.627  0.00  0.00     0.000 A 
ATOM      2  C2  BNZ d   1       0.040  -0.004   3.118  0.00  0.00     0.000 A 
ATOM      3  C3  BNZ d   1      -0.966   0.374   2.274  0.00  0.00     0.000 A 
ATOM      4  C4  BNZ d   1      -0.776   0.299   0.941  0.00  0.00     0.000 A 
ATOM      5  C5  BNZ d   1       0.412  -0.184   0.430  0.00  0.00     0.000 A 
ATOM      6  C6  BNZ d   1       1.408  -0.600   1.283  0.00  0.00     0.000 A 
ENDROOT
TORSDOF 0
ENDMDL
