MODEL 1
REMARK minimizedAffinity -0.632858455
REMARK minimizedRMSD -1
REMARK  0 active torsions:
REMARK  status: ('A' for Active; 'I' for Inactive)
ROOT
ATOM      1  N1  IND d   1       2.253  -1.469  -0.708  0.00  0.00    -0.196 N 
ATOM      2  C2  IND d   1       2.833  -2.460   0.034  0.00  0.00     0.054 A 
ATOM      3  C3  IND d   1       2.292  -2.499   1.272  0.00  0.00    -0.031 A 
ATOM      4  C4  IND d   1       0.373  -1.098   2.263  0.00  0.00     0.051 A 
ATOM      5  C5  IND d   1      -0.449  -0.043   1.979  0.00  0.00    -0.031 A 
ATOM      6  C6  IND d   1      -0.413   0.602   0.760  0.00  0.00     0.015 A 
ATOM      7  C7  IND d   1       0.442   0.206  -0.230  0.00  0.00    -0.016 A 
ATOM      8  C8  IND d   1       1.282  -0.860   0.057  0.00  0.00    -0.047 A 
ATOM      9  C9  IND d   1       1.280  -1.491   1.308  0.00  0.00    -0.096 A 
ATOM     10  HN1 IND d   1       2.459  -1.261  -1.516  0.00  0.00     0.298 HD
ENDROOT
TORSDOF 0
ENDMDL
