MODEL 1
REMARK minimizedAffinity -0.632302761
REMARK minimizedRMSD -1
REMARK  0 active torsions:
REMARK  status: ('A' for Active; 'I' for Inactive)
ROOT
ATOM      1  N1  IND d   1       2.572  -1.729  -0.598  0.00  0.00    -0.196 N 
ATOM      2  C2  IND d   1       3.052  -2.697   0.239  0.00  0.00     0.054 A 
ATOM      3  C3  IND d   1       2.365  -2.694   1.404  0.00  0.00    -0.031 A 
ATOM      4  C4  IND d   1       0.350  -1.256   2.111  0.00  0.00     0.051 A 
ATOM      5  C5  IND d   1      -0.424  -0.209   1.697  0.00  0.00    -0.031 A 
ATOM      6  C6  IND d   1      -0.237   0.396   0.471  0.00  0.00     0.015 A 
ATOM      7  C7  IND d   1       0.728  -0.034  -0.396  0.00  0.00    -0.016 A 
ATOM      8  C8  IND d   1       1.520  -1.093   0.024  0.00  0.00    -0.047 A 
ATOM      9  C9  IND d   1       1.363  -1.683   1.285  0.00  0.00    -0.096 A 
ATOM     10  HN1 IND d   1       2.875  -1.548  -1.382  0.00  0.00     0.298 HD
ENDROOT
TORSDOF 0
ENDMDL
