MODEL 1
REMARK minimizedAffinity 0.73017168
REMARK minimizedRMSD -1
REMARK  0 active torsions:
REMARK  status: ('A' for Active; 'I' for Inactive)
ROOT
ATOM      1  N1  IND d   1      -0.661   2.133  -2.659  0.00  0.00    -0.196 N 
ATOM      2  C2  IND d   1      -1.677   2.997  -2.357  0.00  0.00     0.054 A 
ATOM      3  C3  IND d   1      -2.204   2.699  -1.148  0.00  0.00    -0.031 A 
ATOM      4  C4  IND d   1      -1.488   0.903   0.551  0.00  0.00     0.051 A 
ATOM      5  C5  IND d   1      -0.633  -0.152   0.708  0.00  0.00    -0.031 A 
ATOM      6  C6  IND d   1       0.277  -0.504  -0.268  0.00  0.00     0.015 A 
ATOM      7  C7  IND d   1       0.374   0.196  -1.438  0.00  0.00    -0.016 A 
ATOM      8  C8  IND d   1      -0.498   1.263  -1.603  0.00  0.00    -0.047 A 
ATOM      9  C9  IND d   1      -1.453   1.598  -0.634  0.00  0.00    -0.096 A 
ATOM     10  HN1 IND d   1      -0.202   2.133  -3.385  0.00  0.00     0.298 HD
ENDROOT
TORSDOF 0
ENDMDL
