MODEL 1
REMARK minimizedAffinity -3.15156841
REMARK minimizedRMSD -1
REMARK  0 active torsions:
REMARK  status: ('A' for Active; 'I' for Inactive)
ROOT
ATOM      1  N1  IND d   1       0.403  -0.671  -1.274  0.00  0.00    -0.196 N 
ATOM      2  C2  IND d   1      -0.767  -0.015  -1.005  0.00  0.00     0.054 A 
ATOM      3  C3  IND d   1      -1.062  -0.102   0.311  0.00  0.00    -0.031 A 
ATOM      4  C4  IND d   1       0.283  -1.183   2.222  0.00  0.00     0.051 A 
ATOM      5  C5  IND d   1       1.398  -1.935   2.462  0.00  0.00    -0.031 A 
ATOM      6  C6  IND d   1       2.258  -2.309   1.450  0.00  0.00     0.015 A 
ATOM      7  C7  IND d   1       2.039  -1.934   0.154  0.00  0.00    -0.016 A 
ATOM      8  C8  IND d   1       0.903  -1.176  -0.095  0.00  0.00    -0.047 A 
ATOM      9  C9  IND d   1       0.005  -0.829   0.923  0.00  0.00    -0.096 A 
ATOM     10  HN1 IND d   1       0.764  -0.753  -2.050  0.00  0.00     0.298 HD
ENDROOT
TORSDOF 0
ENDMDL
