MODEL 1
REMARK minimizedAffinity -5.9500227
REMARK minimizedRMSD -1
REMARK  0 active torsions:
REMARK  status: ('A' for Active; 'I' for Inactive)
ROOT
ATOM      1  N1  IND d   1       1.528  -1.022  -1.540  0.00  0.00    -0.196 N 
ATOM      2  C2  IND d   1       0.355  -0.450  -1.949  0.00  0.00     0.054 A 
ATOM      3  C3  IND d   1      -0.351  -0.012  -0.882  0.00  0.00    -0.031 A 
ATOM      4  C4  IND d   1       0.274  -0.039   1.615  0.00  0.00     0.051 A 
ATOM      5  C5  IND d   1       1.228  -0.491   2.482  0.00  0.00    -0.031 A 
ATOM      6  C6  IND d   1       2.356  -1.155   2.044  0.00  0.00     0.015 A 
ATOM      7  C7  IND d   1       2.577  -1.381   0.715  0.00  0.00    -0.016 A 
ATOM      8  C8  IND d   1       1.606  -0.930  -0.168  0.00  0.00    -0.047 A 
ATOM      9  C9  IND d   1       0.440  -0.293   0.274  0.00  0.00    -0.096 A 
ATOM     10  HN1 IND d   1       2.118  -1.380  -2.054  0.00  0.00     0.298 HD
ENDROOT
TORSDOF 0
ENDMDL
