MODEL 1
REMARK minimizedAffinity 5.05405998
REMARK minimizedRMSD -1
REMARK  0 active torsions:
REMARK  status: ('A' for Active; 'I' for Inactive)
ROOT
ATOM      1  N1  IND d   1      -1.085  -1.634   0.925  0.00  0.00    -0.196 N 
ATOM      2  C2  IND d   1      -0.712  -1.502   2.233  0.00  0.00     0.054 A 
ATOM      3  C3  IND d   1      -0.691  -0.198   2.587  0.00  0.00    -0.031 A 
ATOM      4  C4  IND d   1      -1.332   1.881   1.210  0.00  0.00     0.051 A 
ATOM      5  C5  IND d   1      -1.700   2.268  -0.048  0.00  0.00    -0.031 A 
ATOM      6  C6  IND d   1      -1.889   1.356  -1.066  0.00  0.00     0.015 A 
ATOM      7  C7  IND d   1      -1.726   0.015  -0.860  0.00  0.00    -0.016 A 
ATOM      8  C8  IND d   1      -1.345  -0.381   0.415  0.00  0.00    -0.047 A 
ATOM      9  C9  IND d   1      -1.111   0.544   1.440  0.00  0.00    -0.096 A 
ATOM     10  HN1 IND d   1      -1.146  -2.375   0.493  0.00  0.00     0.298 HD
ENDROOT
TORSDOF 0
ENDMDL
