MODEL 1
REMARK minimizedAffinity -6.5799613
REMARK minimizedRMSD -1
REMARK  0 active torsions:
REMARK  status: ('A' for Active; 'I' for Inactive)
ROOT
ATOM      1  N1  IND d   1       0.530  -0.469  -0.757  0.00  0.00    -0.196 N 
ATOM      2  C2  IND d   1      -0.637   0.162  -0.424  0.00  0.00     0.054 A 
ATOM      3  C3  IND d   1      -0.787   0.193   0.919  0.00  0.00    -0.031 A 
ATOM      4  C4  IND d   1       0.805  -0.638   2.763  0.00  0.00     0.051 A 
ATOM      5  C5  IND d   1       1.977  -1.316   2.949  0.00  0.00    -0.031 A 
ATOM      6  C6  IND d   1       2.743  -1.753   1.888  0.00  0.00     0.015 A 
ATOM      7  C7  IND d   1       2.370  -1.517   0.595  0.00  0.00    -0.016 A 
ATOM      8  C8  IND d   1       1.177  -0.835   0.402  0.00  0.00    -0.047 A 
ATOM      9  C9  IND d   1       0.374  -0.426   1.475  0.00  0.00    -0.096 A 
ATOM     10  HN1 IND d   1       0.812  -0.612  -1.557  0.00  0.00     0.298 HD
ENDROOT
TORSDOF 0
ENDMDL
