MODEL 1
REMARK minimizedAffinity -5.59109735
REMARK minimizedRMSD -1
REMARK  0 active torsions:
REMARK  status: ('A' for Active; 'I' for Inactive)
ROOT
ATOM      1  N1  IND d   1       0.938  -0.352  -0.437  0.00  0.00    -0.196 N 
ATOM      2  C2  IND d   1      -0.387  -0.137  -0.181  0.00  0.00     0.054 A 
ATOM      3  C3  IND d   1      -0.665  -0.409   1.114  0.00  0.00    -0.031 A 
ATOM      4  C4  IND d   1       0.920  -1.122   3.013  0.00  0.00     0.051 A 
ATOM      5  C5  IND d   1       2.216  -1.481   3.257  0.00  0.00    -0.031 A 
ATOM      6  C6  IND d   1       3.172  -1.480   2.262  0.00  0.00     0.015 A 
ATOM      7  C7  IND d   1       2.869  -1.107   0.983  0.00  0.00    -0.016 A 
ATOM      8  C8  IND d   1       1.552  -0.748   0.730  0.00  0.00    -0.047 A 
ATOM      9  C9  IND d   1       0.568  -0.788   1.727  0.00  0.00    -0.096 A 
ATOM     10  HN1 IND d   1       1.323  -0.257  -1.200  0.00  0.00     0.298 HD
ENDROOT
TORSDOF 0
ENDMDL
