MODEL 1
REMARK minimizedAffinity -0.189482197
REMARK minimizedRMSD -1
REMARK  0 active torsions:
REMARK  status: ('A' for Active; 'I' for Inactive)
ROOT
ATOM      1  N1  IND d   1       1.599  -1.517  -0.512  0.00  0.00    -0.196 N 
ATOM      2  C2  IND d   1       0.852  -0.789  -1.395  0.00  0.00     0.054 A 
ATOM      3  C3  IND d   1      -0.252  -0.301  -0.786  0.00  0.00    -0.031 A 
ATOM      4  C4  IND d   1      -0.981  -0.489   1.676  0.00  0.00     0.051 A 
ATOM      5  C5  IND d   1      -0.641  -1.087   2.857  0.00  0.00    -0.031 A 
ATOM      6  C6  IND d   1       0.487  -1.872   2.979  0.00  0.00     0.015 A 
ATOM      7  C7  IND d   1       1.327  -2.081   1.922  0.00  0.00    -0.016 A 
ATOM      8  C8  IND d   1       0.982  -1.481   0.719  0.00  0.00    -0.047 A 
ATOM      9  C9  IND d   1      -0.185  -0.718   0.579  0.00  0.00    -0.096 A 
ATOM     10  HN1 IND d   1       2.332  -1.928  -0.694  0.00  0.00     0.298 HD
ENDROOT
TORSDOF 0
ENDMDL
