MODEL 1
REMARK minimizedAffinity -4.99196291
REMARK minimizedRMSD -1
REMARK  0 active torsions:
REMARK  status: ('A' for Active; 'I' for Inactive)
ROOT
ATOM      1  N1  IND d   1       0.348  -0.464  -0.898  0.00  0.00    -0.196 N 
ATOM      2  C2  IND d   1      -1.008  -0.306  -0.827  0.00  0.00     0.054 A 
ATOM      3  C3  IND d   1      -1.405  -0.223   0.463  0.00  0.00    -0.031 A 
ATOM      4  C4  IND d   1       0.011  -0.221   2.612  0.00  0.00     0.051 A 
ATOM      5  C5  IND d   1       1.294  -0.377   3.057  0.00  0.00    -0.031 A 
ATOM      6  C6  IND d   1       2.349  -0.572   2.189  0.00  0.00     0.015 A 
ATOM      7  C7  IND d   1       2.160  -0.606   0.836  0.00  0.00    -0.016 A 
ATOM      8  C8  IND d   1       0.858  -0.454   0.381  0.00  0.00    -0.047 A 
ATOM      9  C9  IND d   1      -0.222  -0.299   1.260  0.00  0.00    -0.096 A 
ATOM     10  HN1 IND d   1       0.805  -0.553  -1.621  0.00  0.00     0.298 HD
ENDROOT
TORSDOF 0
ENDMDL
