MODEL 1
REMARK minimizedAffinity 4.50518322
REMARK minimizedRMSD -1
REMARK  0 active torsions:
REMARK  status: ('A' for Active; 'I' for Inactive)
ROOT
ATOM      1  C1  BNZ d   1      -0.940  -1.800  -5.675  0.00  0.00     0.000 A 
ATOM      2  C2  BNZ d   1      -0.394  -0.556  -5.840  0.00  0.00     0.000 A 
ATOM      3  C3  BNZ d   1      -0.035   0.201  -4.760  0.00  0.00     0.000 A 
ATOM      4  C4  BNZ d   1      -0.261  -0.271  -3.516  0.00  0.00     0.000 A 
ATOM      5  C5  BNZ d   1      -0.819  -1.520  -3.333  0.00  0.00     0.000 A 
ATOM      6  C6  BNZ d   1      -1.142  -2.295  -4.423  0.00  0.00     0.000 A 
ENDROOT
TORSDOF 0
ENDMDL
