MODEL 1
REMARK minimizedAffinity 4.43291903
REMARK minimizedRMSD -1
REMARK  0 active torsions:
REMARK  status: ('A' for Active; 'I' for Inactive)
ROOT
ATOM      1  C1  BNZ d   1       3.771   2.594  -5.998  0.00  0.00     0.000 A 
ATOM      2  C2  BNZ d   1       4.859   3.425  -5.977  0.00  0.00     0.000 A 
ATOM      3  C3  BNZ d   1       5.982   3.090  -5.272  0.00  0.00     0.000 A 
ATOM      4  C4  BNZ d   1       6.000   1.945  -4.559  0.00  0.00     0.000 A 
ATOM      5  C5  BNZ d   1       4.907   1.102  -4.563  0.00  0.00     0.000 A 
ATOM      6  C6  BNZ d   1       3.793   1.423  -5.304  0.00  0.00     0.000 A 
ENDROOT
TORSDOF 0
ENDMDL
