MODEL 1
REMARK minimizedAffinity 0.602779508
REMARK minimizedRMSD -1
REMARK  0 active torsions:
REMARK  status: ('A' for Active; 'I' for Inactive)
ROOT
ATOM      1  C1  BNZ d   1       0.246  -1.536   2.191  0.00  0.00     0.000 A 
ATOM      2  C2  BNZ d   1       1.231  -2.021   3.010  0.00  0.00     0.000 A 
ATOM      3  C3  BNZ d   1       1.847  -1.208   3.920  0.00  0.00     0.000 A 
ATOM      4  C4  BNZ d   1       1.506   0.096   3.982  0.00  0.00     0.000 A 
ATOM      5  C5  BNZ d   1       0.522   0.601   3.156  0.00  0.00     0.000 A 
ATOM      6  C6  BNZ d   1      -0.123  -0.229   2.269  0.00  0.00     0.000 A 
ENDROOT
TORSDOF 0
ENDMDL
