MODEL 1
REMARK minimizedAffinity 6.6437912
REMARK minimizedRMSD -1
REMARK  0 active torsions:
REMARK  status: ('A' for Active; 'I' for Inactive)
ROOT
ATOM      1  C1  BNZ d   1       2.934  -1.136   4.441  0.00  0.00     0.000 A 
ATOM      2  C2  BNZ d   1       2.353  -0.158   3.678  0.00  0.00     0.000 A 
ATOM      3  C3  BNZ d   1       1.160  -0.377   3.048  0.00  0.00     0.000 A 
ATOM      4  C4  BNZ d   1       0.570  -1.586   3.149  0.00  0.00     0.000 A 
ATOM      5  C5  BNZ d   1       1.147  -2.585   3.906  0.00  0.00     0.000 A 
ATOM      6  C6  BNZ d   1       2.328  -2.348   4.571  0.00  0.00     0.000 A 
ENDROOT
TORSDOF 0
ENDMDL
