MODEL 1
REMARK minimizedAffinity 7.87549114
REMARK minimizedRMSD -1
REMARK  0 active torsions:
REMARK  status: ('A' for Active; 'I' for Inactive)
ROOT
ATOM      1  C1  BNZ d   1       5.016  -6.000   5.263  0.00  0.00     0.000 A 
ATOM      2  C2  BNZ d   1       4.032  -5.329   5.941  0.00  0.00     0.000 A 
ATOM      3  C3  BNZ d   1       4.010  -3.963   5.971  0.00  0.00     0.000 A 
ATOM      4  C4  BNZ d   1       4.992  -3.270   5.359  0.00  0.00     0.000 A 
ATOM      5  C5  BNZ d   1       5.996  -3.932   4.680  0.00  0.00     0.000 A 
ATOM      6  C6  BNZ d   1       5.993  -5.307   4.618  0.00  0.00     0.000 A 
ENDROOT
TORSDOF 0
ENDMDL
