MODEL 1
REMARK minimizedAffinity 5.29266024
REMARK minimizedRMSD -1
REMARK  0 active torsions:
REMARK  status: ('A' for Active; 'I' for Inactive)
ROOT
ATOM      1  C1  BNZ d   1       0.430  -4.820   5.999  0.00  0.00     0.000 A 
ATOM      2  C2  BNZ d   1       1.493  -4.480   5.205  0.00  0.00     0.000 A 
ATOM      3  C3  BNZ d   1       1.307  -3.760   4.058  0.00  0.00     0.000 A 
ATOM      4  C4  BNZ d   1       0.058  -3.417   3.685  0.00  0.00     0.000 A 
ATOM      5  C5  BNZ d   1      -1.025  -3.761   4.470  0.00  0.00     0.000 A 
ATOM      6  C6  BNZ d   1      -0.831  -4.452   5.644  0.00  0.00     0.000 A 
ENDROOT
TORSDOF 0
ENDMDL
