MODEL 1
REMARK minimizedAffinity 10.3260498
REMARK minimizedRMSD -1
REMARK  0 active torsions:
REMARK  status: ('A' for Active; 'I' for Inactive)
ROOT
ATOM      1  C1  BNZ d   1      -0.492  -1.014  -2.858  0.00  0.00     0.000 A 
ATOM      2  C2  BNZ d   1      -1.274  -1.354  -3.930  0.00  0.00     0.000 A 
ATOM      3  C3  BNZ d   1      -0.762  -1.352  -5.198  0.00  0.00     0.000 A 
ATOM      4  C4  BNZ d   1       0.518  -0.974  -5.396  0.00  0.00     0.000 A 
ATOM      5  C5  BNZ d   1       1.315  -0.620  -4.326  0.00  0.00     0.000 A 
ATOM      6  C6  BNZ d   1       0.808  -0.660  -3.047  0.00  0.00     0.000 A 
ENDROOT
TORSDOF 0
ENDMDL
