MODEL 1
REMARK minimizedAffinity 6.44857979
REMARK minimizedRMSD -1
REMARK  0 active torsions:
REMARK  status: ('A' for Active; 'I' for Inactive)
ROOT
ATOM      1  C1  BNZ d   1      -0.008  -1.878  -3.667  0.00  0.00     0.000 A 
ATOM      2  C2  BNZ d   1      -0.592  -2.307  -4.829  0.00  0.00     0.000 A 
ATOM      3  C3  BNZ d   1      -0.404  -1.626  -6.000  0.00  0.00     0.000 A 
ATOM      4  C4  BNZ d   1       0.332  -0.497  -5.999  0.00  0.00     0.000 A 
ATOM      5  C5  BNZ d   1       0.919  -0.045  -4.834  0.00  0.00     0.000 A 
ATOM      6  C6  BNZ d   1       0.760  -0.755  -3.665  0.00  0.00     0.000 A 
ENDROOT
TORSDOF 0
ENDMDL
