MODEL 1
REMARK minimizedAffinity 6.86742401
REMARK minimizedRMSD -1
REMARK  1 active torsions:
REMARK  status: ('A' for Active; 'I' for Inactive)
REMARK    1  A    between atoms: C3_4  and  O_7 
ROOT
ATOM      1  C   UNL d   1      -0.729  -3.462   1.315  0.00  0.00    -0.033 A 
ATOM      2  C1  UNL d   1      -0.708  -4.801   1.709  0.00  0.00     0.039 A 
ATOM      3  C2  UNL d   1       0.496  -5.507   1.728  0.00  0.00    -0.080 A 
ATOM      4  C3  UNL d   1       1.671  -4.862   1.351  0.00  0.00     0.150 A 
ATOM      5  C4  UNL d   1       1.659  -3.527   0.961  0.00  0.00    -0.007 A 
ATOM      6  C5  UNL d   1       0.455  -2.824   0.943  0.00  0.00     0.039 A 
ENDROOT
BRANCH   4   7
ATOM      7  O   UNL d   1       2.870  -5.511   1.348  0.00  0.00    -0.526 OA
ATOM      8  H5  UNL d   1       2.721  -6.434   1.612  0.00  0.00     0.418 HD
ENDBRANCH   4   7
TORSDOF 1
ENDMDL
