MODEL 1
REMARK minimizedAffinity 13.8026218
REMARK minimizedRMSD -1
REMARK  1 active torsions:
REMARK  status: ('A' for Active; 'I' for Inactive)
REMARK    1  A    between atoms: C3_4  and  O_7 
ROOT
ATOM      1  C   UNL d   1      -0.532  -2.479   1.439  0.00  0.00    -0.033 A 
ATOM      2  C1  UNL d   1      -1.193  -3.703   1.566  0.00  0.00     0.039 A 
ATOM      3  C2  UNL d   1      -0.467  -4.866   1.827  0.00  0.00    -0.080 A 
ATOM      4  C3  UNL d   1       0.917  -4.793   1.959  0.00  0.00     0.150 A 
ATOM      5  C4  UNL d   1       1.581  -3.577   1.837  0.00  0.00    -0.007 A 
ATOM      6  C5  UNL d   1       0.855  -2.416   1.576  0.00  0.00     0.039 A 
ENDROOT
BRANCH   4   7
ATOM      7  O   UNL d   1       1.669  -5.903   2.209  0.00  0.00    -0.526 OA
ATOM      8  H5  UNL d   1       1.078  -6.674   2.239  0.00  0.00     0.418 HD
ENDBRANCH   4   7
TORSDOF 1
ENDMDL
