MODEL 1
REMARK minimizedAffinity -0.698363423
REMARK minimizedRMSD -1
REMARK  1 active torsions:
REMARK  status: ('A' for Active; 'I' for Inactive)
REMARK    1  A    between atoms: C3_4  and  O_7 
ROOT
ATOM      1  C   UNL d   1      -5.239  -4.878   2.746  0.00  0.00    -0.033 A 
ATOM      2  C1  UNL d   1      -5.628  -6.000   2.011  0.00  0.00     0.039 A 
ATOM      3  C2  UNL d   1      -5.511  -6.000   0.620  0.00  0.00    -0.080 A 
ATOM      4  C3  UNL d   1      -5.005  -4.874  -0.024  0.00  0.00     0.150 A 
ATOM      5  C4  UNL d   1      -4.612  -3.754   0.703  0.00  0.00    -0.007 A 
ATOM      6  C5  UNL d   1      -4.730  -3.756   2.092  0.00  0.00     0.039 A 
ENDROOT
BRANCH   4   7
ATOM      7  O   UNL d   1      -4.877  -4.825  -1.380  0.00  0.00    -0.526 OA
ATOM      8  H5  UNL d   1      -5.214  -5.658  -1.751  0.00  0.00     0.418 HD
ENDBRANCH   4   7
TORSDOF 1
ENDMDL
