MODEL 1
REMARK minimizedAffinity 4.31420517
REMARK minimizedRMSD -1
REMARK  1 active torsions:
REMARK  status: ('A' for Active; 'I' for Inactive)
REMARK    1  A    between atoms: C3_4  and  O_7 
ROOT
ATOM      1  C   UNL d   1      -0.706  -1.486   2.590  0.00  0.00    -0.033 A 
ATOM      2  C1  UNL d   1      -0.003  -2.683   2.740  0.00  0.00     0.039 A 
ATOM      3  C2  UNL d   1       1.249  -2.840   2.142  0.00  0.00    -0.080 A 
ATOM      4  C3  UNL d   1       1.786  -1.793   1.398  0.00  0.00     0.150 A 
ATOM      5  C4  UNL d   1       1.093  -0.596   1.248  0.00  0.00    -0.007 A 
ATOM      6  C5  UNL d   1      -0.157  -0.442   1.845  0.00  0.00     0.039 A 
ENDROOT
BRANCH   4   7
ATOM      7  O   UNL d   1       3.002  -1.901   0.792  0.00  0.00    -0.526 OA
ATOM      8  H5  UNL d   1       3.351  -2.792   0.958  0.00  0.00     0.418 HD
ENDBRANCH   4   7
TORSDOF 1
ENDMDL
