MODEL 1
REMARK minimizedAffinity 4.26556969
REMARK minimizedRMSD -1
REMARK  1 active torsions:
REMARK  status: ('A' for Active; 'I' for Inactive)
REMARK    1  A    between atoms: C3_4  and  O_7 
ROOT
ATOM      1  C   UNL d   1      -4.987  -5.633   2.184  0.00  0.00    -0.033 A 
ATOM      2  C1  UNL d   1      -4.126  -4.549   2.368  0.00  0.00     0.039 A 
ATOM      3  C2  UNL d   1      -4.202  -3.785   3.533  0.00  0.00    -0.080 A 
ATOM      4  C3  UNL d   1      -5.141  -4.114   4.506  0.00  0.00     0.150 A 
ATOM      5  C4  UNL d   1      -6.000  -5.194   4.332  0.00  0.00    -0.007 A 
ATOM      6  C5  UNL d   1      -5.923  -5.956   3.167  0.00  0.00     0.039 A 
ENDROOT
BRANCH   4   7
ATOM      7  O   UNL d   1      -5.256  -3.394   5.658  0.00  0.00    -0.526 OA
ATOM      8  H5  UNL d   1      -4.619  -2.661   5.628  0.00  0.00     0.418 HD
ENDBRANCH   4   7
TORSDOF 1
ENDMDL
