MODEL 1
REMARK minimizedAffinity 1.76284838
REMARK minimizedRMSD -1
REMARK  1 active torsions:
REMARK  status: ('A' for Active; 'I' for Inactive)
REMARK    1  A    between atoms: C3_4  and  O_7 
ROOT
ATOM      1  C   UNL d   1      -5.001  -5.845   3.004  0.00  0.00    -0.033 A 
ATOM      2  C1  UNL d   1      -4.134  -4.751   2.977  0.00  0.00     0.039 A 
ATOM      3  C2  UNL d   1      -4.200  -3.781   3.979  0.00  0.00    -0.080 A 
ATOM      4  C3  UNL d   1      -5.136  -3.917   5.001  0.00  0.00     0.150 A 
ATOM      5  C4  UNL d   1      -6.000  -5.006   5.037  0.00  0.00    -0.007 A 
ATOM      6  C5  UNL d   1      -5.933  -5.974   4.035  0.00  0.00     0.039 A 
ENDROOT
BRANCH   4   7
ATOM      7  O   UNL d   1      -5.241  -2.993   5.999  0.00  0.00    -0.526 OA
ATOM      8  H5  UNL d   1      -4.600  -2.282   5.828  0.00  0.00     0.418 HD
ENDBRANCH   4   7
TORSDOF 1
ENDMDL
