MODEL 1
REMARK minimizedAffinity 5.7150588
REMARK minimizedRMSD -1
REMARK  1 active torsions:
REMARK  status: ('A' for Active; 'I' for Inactive)
REMARK    1  A    between atoms: C3_4  and  O_7 
ROOT
ATOM      1  C   UNL d   1      -1.910   5.999  -4.435  0.00  0.00    -0.033 A 
ATOM      2  C1  UNL d   1      -2.068   5.201  -5.570  0.00  0.00     0.039 A 
ATOM      3  C2  UNL d   1      -2.184   3.816  -5.441  0.00  0.00    -0.080 A 
ATOM      4  C3  UNL d   1      -2.141   3.242  -4.173  0.00  0.00     0.150 A 
ATOM      5  C4  UNL d   1      -1.987   4.031  -3.038  0.00  0.00    -0.007 A 
ATOM      6  C5  UNL d   1      -1.871   5.414  -3.169  0.00  0.00     0.039 A 
ENDROOT
BRANCH   4   7
ATOM      7  O   UNL d   1      -2.246   1.894  -3.997  0.00  0.00    -0.526 OA
ATOM      8  H5  UNL d   1      -2.318   1.474  -4.871  0.00  0.00     0.418 HD
ENDBRANCH   4   7
TORSDOF 1
ENDMDL
