MODEL 1
REMARK minimizedAffinity 3.47020173
REMARK minimizedRMSD -1
REMARK  1 active torsions:
REMARK  status: ('A' for Active; 'I' for Inactive)
REMARK    1  A    between atoms: C3_4  and  O_7 
ROOT
ATOM      1  C   UNL d   1       1.148  -2.275   1.105  0.00  0.00    -0.033 A 
ATOM      2  C1  UNL d   1      -0.025  -2.808   1.644  0.00  0.00     0.039 A 
ATOM      3  C2  UNL d   1      -0.654  -2.173   2.716  0.00  0.00    -0.080 A 
ATOM      4  C3  UNL d   1      -0.103  -1.007   3.239  0.00  0.00     0.150 A 
ATOM      5  C4  UNL d   1       1.063  -0.468   2.705  0.00  0.00    -0.007 A 
ATOM      6  C5  UNL d   1       1.691  -1.104   1.635  0.00  0.00     0.039 A 
ENDROOT
BRANCH   4   7
ATOM      7  O   UNL d   1      -0.679  -0.355   4.289  0.00  0.00    -0.526 OA
ATOM      8  H5  UNL d   1      -1.461  -0.858   4.572  0.00  0.00     0.418 HD
ENDBRANCH   4   7
TORSDOF 1
ENDMDL
