MODEL 1
REMARK minimizedAffinity 10.8994198
REMARK minimizedRMSD -1
REMARK  1 active torsions:
REMARK  status: ('A' for Active; 'I' for Inactive)
REMARK    1  A    between atoms: C3_4  and  O_7 
ROOT
ATOM      1  C   UNL d   1       2.077  -0.653   1.151  0.00  0.00    -0.033 A 
ATOM      2  C1  UNL d   1       0.860  -1.276   1.432  0.00  0.00     0.039 A 
ATOM      3  C2  UNL d   1       0.624  -2.581   0.995  0.00  0.00    -0.080 A 
ATOM      4  C3  UNL d   1       1.613  -3.252   0.281  0.00  0.00     0.150 A 
ATOM      5  C4  UNL d   1       2.830  -2.638   0.000  0.00  0.00    -0.007 A 
ATOM      6  C5  UNL d   1       3.063  -1.335   0.436  0.00  0.00     0.039 A 
ENDROOT
BRANCH   4   7
ATOM      7  O   UNL d   1       1.427  -4.525  -0.170  0.00  0.00    -0.526 OA
ATOM      8  H5  UNL d   1       0.530  -4.809   0.072  0.00  0.00     0.418 HD
ENDBRANCH   4   7
TORSDOF 1
ENDMDL
