MODEL 1
REMARK minimizedAffinity -0.535939038
REMARK minimizedRMSD -1
REMARK  1 active torsions:
REMARK  status: ('A' for Active; 'I' for Inactive)
REMARK    1  A    between atoms: C3_4  and  O_7 
ROOT
ATOM      1  C   UNL d   1      -5.058  -5.835   2.862  0.00  0.00    -0.033 A 
ATOM      2  C1  UNL d   1      -4.222  -4.718   2.812  0.00  0.00     0.039 A 
ATOM      3  C2  UNL d   1      -4.276  -3.758   3.824  0.00  0.00    -0.080 A 
ATOM      4  C3  UNL d   1      -5.167  -3.927   4.880  0.00  0.00     0.150 A 
ATOM      5  C4  UNL d   1      -6.000  -5.040   4.939  0.00  0.00    -0.007 A 
ATOM      6  C5  UNL d   1      -5.946  -5.997   3.927  0.00  0.00     0.039 A 
ENDROOT
BRANCH   4   7
ATOM      7  O   UNL d   1      -5.259  -3.014   5.889  0.00  0.00    -0.526 OA
ATOM      8  H5  UNL d   1      -4.645  -2.285   5.701  0.00  0.00     0.418 HD
ENDBRANCH   4   7
TORSDOF 1
ENDMDL
