MODEL 1
REMARK minimizedAffinity 4.25920868
REMARK minimizedRMSD -1
REMARK  1 active torsions:
REMARK  status: ('A' for Active; 'I' for Inactive)
REMARK    1  A    between atoms: C3_4  and  O_7 
ROOT
ATOM      1  C   UNL d   1      -3.650  -5.996  -0.029  0.00  0.00    -0.033 A 
ATOM      2  C1  UNL d   1      -2.911  -4.887   0.388  0.00  0.00     0.039 A 
ATOM      3  C2  UNL d   1      -3.562  -3.778   0.932  0.00  0.00    -0.080 A 
ATOM      4  C3  UNL d   1      -4.948  -3.790   1.053  0.00  0.00     0.150 A 
ATOM      5  C4  UNL d   1      -5.690  -4.893   0.643  0.00  0.00    -0.007 A 
ATOM      6  C5  UNL d   1      -5.039  -6.000   0.099  0.00  0.00     0.039 A 
ENDROOT
BRANCH   4   7
ATOM      7  O   UNL d   1      -5.628  -2.729   1.573  0.00  0.00    -0.526 OA
ATOM      8  H5  UNL d   1      -4.988  -2.029   1.787  0.00  0.00     0.418 HD
ENDBRANCH   4   7
TORSDOF 1
ENDMDL
