MODEL 1
REMARK minimizedAffinity -0.233988613
REMARK minimizedRMSD -1
REMARK  1 active torsions:
REMARK  status: ('A' for Active; 'I' for Inactive)
REMARK    1  A    between atoms: C3_4  and  O_7 
ROOT
ATOM      1  C   UNL d   1      -4.114  -4.483   2.616  0.00  0.00    -0.033 A 
ATOM      2  C1  UNL d   1      -4.780  -5.634   2.191  0.00  0.00     0.039 A 
ATOM      3  C2  UNL d   1      -4.756  -6.000   0.844  0.00  0.00    -0.080 A 
ATOM      4  C3  UNL d   1      -4.062  -5.208  -0.066  0.00  0.00     0.150 A 
ATOM      5  C4  UNL d   1      -3.393  -4.062   0.351  0.00  0.00    -0.007 A 
ATOM      6  C5  UNL d   1      -3.420  -3.698   1.696  0.00  0.00     0.039 A 
ENDROOT
BRANCH   4   7
ATOM      7  O   UNL d   1      -4.014  -5.521  -1.392  0.00  0.00    -0.526 OA
ATOM      8  H5  UNL d   1      -4.545  -6.322  -1.538  0.00  0.00     0.418 HD
ENDBRANCH   4   7
TORSDOF 1
ENDMDL
