MODEL 1
REMARK minimizedAffinity 7.10903645
REMARK minimizedRMSD -1
REMARK  1 active torsions:
REMARK  status: ('A' for Active; 'I' for Inactive)
REMARK    1  A    between atoms: C3_4  and  O_7 
ROOT
ATOM      1  C   UNL d   1      -1.791   4.265  -3.736  0.00  0.00    -0.033 A 
ATOM      2  C1  UNL d   1      -2.206   5.340  -2.947  0.00  0.00     0.039 A 
ATOM      3  C2  UNL d   1      -3.219   5.164  -2.003  0.00  0.00    -0.080 A 
ATOM      4  C3  UNL d   1      -3.808   3.911  -1.857  0.00  0.00     0.150 A 
ATOM      5  C4  UNL d   1      -3.397   2.835  -2.637  0.00  0.00    -0.007 A 
ATOM      6  C5  UNL d   1      -2.386   3.013  -3.580  0.00  0.00     0.039 A 
ENDROOT
BRANCH   4   7
ATOM      7  O   UNL d   1      -4.804   3.693  -0.952  0.00  0.00    -0.526 OA
ATOM      8  H5  UNL d   1      -5.003   4.532  -0.505  0.00  0.00     0.418 HD
ENDBRANCH   4   7
TORSDOF 1
ENDMDL
