MODEL 1
REMARK minimizedAffinity 11.9630413
REMARK minimizedRMSD -1
REMARK  1 active torsions:
REMARK  status: ('A' for Active; 'I' for Inactive)
REMARK    1  A    between atoms: C3_4  and  O_7 
ROOT
ATOM      1  C   UNL d   1       0.788  -2.462   1.382  0.00  0.00    -0.033 A 
ATOM      2  C1  UNL d   1       1.135  -1.127   1.600  0.00  0.00     0.039 A 
ATOM      3  C2  UNL d   1       0.518  -0.401   2.621  0.00  0.00    -0.080 A 
ATOM      4  C3  UNL d   1      -0.442  -1.022   3.416  0.00  0.00     0.150 A 
ATOM      5  C4  UNL d   1      -0.789  -2.352   3.207  0.00  0.00    -0.007 A 
ATOM      6  C5  UNL d   1      -0.173  -3.075   2.186  0.00  0.00     0.039 A 
ENDROOT
BRANCH   4   7
ATOM      7  O   UNL d   1      -1.075  -0.353   4.421  0.00  0.00    -0.526 OA
ATOM      8  H5  UNL d   1      -0.754   0.565   4.430  0.00  0.00     0.418 HD
ENDBRANCH   4   7
TORSDOF 1
ENDMDL
