MODEL 1
REMARK minimizedAffinity -0.972983181
REMARK minimizedRMSD -1
REMARK  1 active torsions:
REMARK  status: ('A' for Active; 'I' for Inactive)
REMARK    1  A    between atoms: C3_4  and  O_7 
ROOT
ATOM      1  C   UNL d   1       1.244  -5.999  -5.234  0.00  0.00    -0.033 A 
ATOM      2  C1  UNL d   1       2.419  -6.000  -5.989  0.00  0.00     0.039 A 
ATOM      3  C2  UNL d   1       3.246  -4.874  -5.998  0.00  0.00    -0.080 A 
ATOM      4  C3  UNL d   1       2.887  -3.757  -5.250  0.00  0.00     0.150 A 
ATOM      5  C4  UNL d   1       1.720  -3.750  -4.493  0.00  0.00    -0.007 A 
ATOM      6  C5  UNL d   1       0.895  -4.875  -4.485  0.00  0.00     0.039 A 
ENDROOT
BRANCH   4   7
ATOM      7  O   UNL d   1       3.659  -2.634  -5.231  0.00  0.00    -0.526 OA
ATOM      8  H5  UNL d   1       4.418  -2.772  -5.823  0.00  0.00     0.418 HD
ENDBRANCH   4   7
TORSDOF 1
ENDMDL
