MODEL 1
REMARK minimizedAffinity 10.413002
REMARK minimizedRMSD -1
REMARK  1 active torsions:
REMARK  status: ('A' for Active; 'I' for Inactive)
REMARK    1  A    between atoms: C3_4  and  O_7 
ROOT
ATOM      1  C   UNL d   1       2.024  -5.996  -5.792  0.00  0.00    -0.033 A 
ATOM      2  C1  UNL d   1       1.249  -4.852  -5.590  0.00  0.00     0.039 A 
ATOM      3  C2  UNL d   1       1.848  -3.591  -5.590  0.00  0.00    -0.080 A 
ATOM      4  C3  UNL d   1       3.221  -3.488  -5.794  0.00  0.00     0.150 A 
ATOM      5  C4  UNL d   1       3.999  -4.622  -5.999  0.00  0.00    -0.007 A 
ATOM      6  C5  UNL d   1       3.399  -5.881  -5.998  0.00  0.00     0.039 A 
ENDROOT
BRANCH   4   7
ATOM      7  O   UNL d   1       3.852  -2.279  -5.797  0.00  0.00    -0.526 OA
ATOM      8  H5  UNL d   1       3.193  -1.588  -5.614  0.00  0.00     0.418 HD
ENDBRANCH   4   7
TORSDOF 1
ENDMDL
