MODEL 1
REMARK minimizedAffinity -1.17381644
REMARK minimizedRMSD -1
REMARK  1 active torsions:
REMARK  status: ('A' for Active; 'I' for Inactive)
REMARK    1  A    between atoms: C3_4  and  O_7 
ROOT
ATOM      1  C   UNL d   1      -4.476  -4.479   2.482  0.00  0.00    -0.033 A 
ATOM      2  C1  UNL d   1      -5.238  -5.575   2.072  0.00  0.00     0.039 A 
ATOM      3  C2  UNL d   1      -5.195  -6.000   0.743  0.00  0.00    -0.080 A 
ATOM      4  C3  UNL d   1      -4.387  -5.322  -0.165  0.00  0.00     0.150 A 
ATOM      5  C4  UNL d   1      -3.622  -4.231   0.237  0.00  0.00    -0.007 A 
ATOM      6  C5  UNL d   1      -3.667  -3.808   1.564  0.00  0.00     0.039 A 
ENDROOT
BRANCH   4   7
ATOM      7  O   UNL d   1      -4.316  -5.696  -1.474  0.00  0.00    -0.526 OA
ATOM      8  H5  UNL d   1      -4.919  -6.446  -1.613  0.00  0.00     0.418 HD
ENDBRANCH   4   7
TORSDOF 1
ENDMDL
