MODEL 1
REMARK minimizedAffinity 0.686349511
REMARK minimizedRMSD -1
REMARK  1 active torsions:
REMARK  status: ('A' for Active; 'I' for Inactive)
REMARK    1  A    between atoms: N_2  and  C1_3 
ROOT
ATOM      1  C1  UNL d   1      -0.280   0.338  -0.748  0.00  0.00     0.143 A 
ATOM      2  C2  UNL d   1      -0.391  -0.791  -1.568  0.00  0.00    -0.057 A 
ATOM      3  C3  UNL d   1      -1.642  -1.286  -1.955  0.00  0.00     0.033 A 
ATOM      4  C4  UNL d   1      -2.808  -0.677  -1.504  0.00  0.00    -0.042 A 
ATOM      5  C5  UNL d   1      -2.722   0.430  -0.668  0.00  0.00     0.033 A 
ATOM      6  C6  UNL d   1      -1.470   0.925  -0.290  0.00  0.00    -0.057 A 
ENDROOT
BRANCH   1   7
ATOM      7  N   UNL d   1       0.932   0.820  -0.248  0.00  0.00    -0.732 N 
ATOM      8  C   UNL d   1       1.423   0.385   1.042  0.00  0.00     0.284 C 
ATOM      9  H3  UNL d   1       1.650   0.884  -0.966  0.00  0.00     0.395 HD
ENDBRANCH   1   7
TORSDOF 1
ENDMDL
