MODEL 1
REMARK minimizedAffinity -2.70264316
REMARK minimizedRMSD -1
REMARK  1 active torsions:
REMARK  status: ('A' for Active; 'I' for Inactive)
REMARK    1  A    between atoms: N_2  and  C1_3 
ROOT
ATOM      1  C1  UNL d   1      -0.285  -0.890  -1.679  0.00  0.00     0.143 A 
ATOM      2  C2  UNL d   1      -1.512  -0.290  -1.376  0.00  0.00    -0.057 A 
ATOM      3  C3  UNL d   1      -1.657   0.542  -0.259  0.00  0.00     0.033 A 
ATOM      4  C4  UNL d   1      -0.581   0.764   0.594  0.00  0.00    -0.042 A 
ATOM      5  C5  UNL d   1       0.641   0.157   0.327  0.00  0.00     0.033 A 
ATOM      6  C6  UNL d   1       0.781  -0.666  -0.795  0.00  0.00    -0.057 A 
ENDROOT
BRANCH   1   7
ATOM      7  N   UNL d   1      -0.103  -1.805  -2.720  0.00  0.00    -0.732 N 
ATOM      8  C   UNL d   1       1.118  -1.804  -3.496  0.00  0.00     0.284 C 
ATOM      9  H3  UNL d   1      -0.446  -2.733  -2.485  0.00  0.00     0.395 HD
ENDBRANCH   1   7
TORSDOF 1
ENDMDL
