MODEL 1
REMARK minimizedAffinity -4.78385878
REMARK minimizedRMSD -1
REMARK  1 active torsions:
REMARK  status: ('A' for Active; 'I' for Inactive)
REMARK    1  A    between atoms: N_2  and  C1_3 
ROOT
ATOM      1  C1  UNL d   1      -0.165   0.224  -1.344  0.00  0.00     0.143 A 
ATOM      2  C2  UNL d   1      -1.491   0.169  -1.784  0.00  0.00    -0.057 A 
ATOM      3  C3  UNL d   1      -2.540  -0.106  -0.897  0.00  0.00     0.033 A 
ATOM      4  C4  UNL d   1      -2.275  -0.360   0.444  0.00  0.00    -0.042 A 
ATOM      5  C5  UNL d   1      -0.961  -0.335   0.899  0.00  0.00     0.033 A 
ATOM      6  C6  UNL d   1       0.080  -0.053   0.010  0.00  0.00    -0.057 A 
ENDROOT
BRANCH   1   7
ATOM      7  N   UNL d   1       0.930   0.395  -2.195  0.00  0.00    -0.732 N 
ATOM      8  C   UNL d   1       1.212  -0.569  -3.236  0.00  0.00     0.284 C 
ATOM      9  H3  UNL d   1       1.052   1.364  -2.481  0.00  0.00     0.395 HD
ENDBRANCH   1   7
TORSDOF 1
ENDMDL
