MODEL 1
REMARK minimizedAffinity -5.49122286
REMARK minimizedRMSD -1
REMARK  1 active torsions:
REMARK  status: ('A' for Active; 'I' for Inactive)
REMARK    1  A    between atoms: N_2  and  C1_3 
ROOT
ATOM      1  C1  UNL d   1      -1.608  -0.100   0.487  0.00  0.00     0.143 A 
ATOM      2  C2  UNL d   1      -0.242  -0.317   0.280  0.00  0.00    -0.057 A 
ATOM      3  C3  UNL d   1       0.636  -0.493   1.356  0.00  0.00     0.033 A 
ATOM      4  C4  UNL d   1       0.166  -0.428   2.664  0.00  0.00    -0.042 A 
ATOM      5  C5  UNL d   1      -1.185  -0.189   2.893  0.00  0.00     0.033 A 
ATOM      6  C6  UNL d   1      -2.058  -0.020   1.814  0.00  0.00    -0.057 A 
ENDROOT
BRANCH   1   7
ATOM      7  N   UNL d   1      -2.515   0.181  -0.539  0.00  0.00    -0.732 N 
ATOM      8  C   UNL d   1      -2.055   0.707  -1.806  0.00  0.00     0.284 C 
ATOM      9  H3  UNL d   1      -3.240  -0.529  -0.621  0.00  0.00     0.395 HD
ENDBRANCH   1   7
TORSDOF 1
ENDMDL
