MODEL 1
REMARK minimizedAffinity -4.00674343
REMARK minimizedRMSD -1
REMARK  1 active torsions:
REMARK  status: ('A' for Active; 'I' for Inactive)
REMARK    1  A    between atoms: N_2  and  C1_3 
ROOT
ATOM      1  C1  UNL d   1      -0.516  -0.021   0.702  0.00  0.00     0.143 A 
ATOM      2  C2  UNL d   1       0.160  -0.096   1.924  0.00  0.00    -0.057 A 
ATOM      3  C3  UNL d   1      -0.537  -0.213   3.133  0.00  0.00     0.033 A 
ATOM      4  C4  UNL d   1      -1.928  -0.227   3.143  0.00  0.00    -0.042 A 
ATOM      5  C5  UNL d   1      -2.621  -0.128   1.942  0.00  0.00     0.033 A 
ATOM      6  C6  UNL d   1      -1.919  -0.019   0.737  0.00  0.00    -0.057 A 
ENDROOT
BRANCH   1   7
ATOM      7  N   UNL d   1       0.117   0.195  -0.525  0.00  0.00    -0.732 N 
ATOM      8  C   UNL d   1       0.052   1.488  -1.170  0.00  0.00     0.284 C 
ATOM      9  H3  UNL d   1       1.031  -0.249  -0.573  0.00  0.00     0.395 HD
ENDBRANCH   1   7
TORSDOF 1
ENDMDL
