MODEL 1
REMARK minimizedAffinity -5.27281284
REMARK minimizedRMSD -1
REMARK  1 active torsions:
REMARK  status: ('A' for Active; 'I' for Inactive)
REMARK    1  A    between atoms: N_2  and  C1_3 
ROOT
ATOM      1  C1  UNL d   1      -1.932  -0.140   1.229  0.00  0.00     0.143 A 
ATOM      2  C2  UNL d   1      -0.558  -0.115   0.970  0.00  0.00    -0.057 A 
ATOM      3  C3  UNL d   1       0.378  -0.266   2.000  0.00  0.00     0.033 A 
ATOM      4  C4  UNL d   1      -0.046  -0.415   3.317  0.00  0.00    -0.042 A 
ATOM      5  C5  UNL d   1      -1.407  -0.418   3.601  0.00  0.00     0.033 A 
ATOM      6  C6  UNL d   1      -2.337  -0.274   2.566  0.00  0.00    -0.057 A 
ENDROOT
BRANCH   1   7
ATOM      7  N   UNL d   1      -2.911   0.103   0.262  0.00  0.00    -0.732 N 
ATOM      8  C   UNL d   1      -2.545   0.594  -1.049  0.00  0.00     0.284 C 
ATOM      9  H3  UNL d   1      -3.632  -0.615   0.250  0.00  0.00     0.395 HD
ENDBRANCH   1   7
TORSDOF 1
ENDMDL
