MODEL 1
REMARK minimizedAffinity -5.68688488
REMARK minimizedRMSD -1
REMARK  1 active torsions:
REMARK  status: ('A' for Active; 'I' for Inactive)
REMARK    1  A    between atoms: N_2  and  C1_3 
ROOT
ATOM      1  C1  UNL d   1      -1.149  -0.158   0.235  0.00  0.00     0.143 A 
ATOM      2  C2  UNL d   1      -2.481   0.116   0.564  0.00  0.00    -0.057 A 
ATOM      3  C3  UNL d   1      -2.884   0.264   1.897  0.00  0.00     0.033 A 
ATOM      4  C4  UNL d   1      -1.964   0.109   2.929  0.00  0.00    -0.042 A 
ATOM      5  C5  UNL d   1      -0.640  -0.189   2.626  0.00  0.00     0.033 A 
ATOM      6  C6  UNL d   1      -0.242  -0.328   1.293  0.00  0.00    -0.057 A 
ENDROOT
BRANCH   1   7
ATOM      7  N   UNL d   1      -0.706  -0.413  -1.065  0.00  0.00    -0.732 N 
ATOM      8  C   UNL d   1      -0.724   0.630  -2.068  0.00  0.00     0.284 C 
ATOM      9  H3  UNL d   1       0.130  -0.993  -1.084  0.00  0.00     0.395 HD
ENDBRANCH   1   7
TORSDOF 1
ENDMDL
