MODEL 1
REMARK minimizedAffinity -5.52528811
REMARK minimizedRMSD -1
REMARK  1 active torsions:
REMARK  status: ('A' for Active; 'I' for Inactive)
REMARK    1  A    between atoms: N_2  and  C1_3 
ROOT
ATOM      1  C1  UNL d   1      -1.314  -0.018  -0.232  0.00  0.00     0.143 A 
ATOM      2  C2  UNL d   1      -0.247  -0.267   0.639  0.00  0.00    -0.057 A 
ATOM      3  C3  UNL d   1      -0.448  -0.378   2.020  0.00  0.00     0.033 A 
ATOM      4  C4  UNL d   1      -1.719  -0.214   2.560  0.00  0.00    -0.042 A 
ATOM      5  C5  UNL d   1      -2.790   0.059   1.716  0.00  0.00     0.033 A 
ATOM      6  C6  UNL d   1      -2.584   0.162   0.337  0.00  0.00    -0.057 A 
ENDROOT
BRANCH   1   7
ATOM      7  N   UNL d   1      -1.163   0.201  -1.603  0.00  0.00    -0.732 N 
ATOM      8  C   UNL d   1       0.070  -0.147  -2.274  0.00  0.00     0.284 C 
ATOM      9  H3  UNL d   1      -2.003  -0.033  -2.128  0.00  0.00     0.395 HD
ENDBRANCH   1   7
TORSDOF 1
ENDMDL
