MODEL 1
REMARK minimizedAffinity -4.0637126
REMARK minimizedRMSD -1
REMARK  1 active torsions:
REMARK  status: ('A' for Active; 'I' for Inactive)
REMARK    1  A    between atoms: N_2  and  C1_3 
ROOT
ATOM      1  C1  UNL d   1      -0.873  -0.026  -1.773  0.00  0.00     0.143 A 
ATOM      2  C2  UNL d   1      -1.178  -1.293  -2.282  0.00  0.00    -0.057 A 
ATOM      3  C3  UNL d   1      -0.249  -2.014  -3.042  0.00  0.00     0.033 A 
ATOM      4  C4  UNL d   1       0.996  -1.466  -3.331  0.00  0.00    -0.042 A 
ATOM      5  C5  UNL d   1       1.312  -0.198  -2.857  0.00  0.00     0.033 A 
ATOM      6  C6  UNL d   1       0.383   0.514  -2.094  0.00  0.00    -0.057 A 
ENDROOT
BRANCH   1   7
ATOM      7  N   UNL d   1      -1.789   0.781  -1.095  0.00  0.00    -0.732 N 
ATOM      8  C   UNL d   1      -2.592   0.242  -0.019  0.00  0.00     0.284 C 
ATOM      9  H3  UNL d   1      -1.425   1.715  -0.915  0.00  0.00     0.395 HD
ENDBRANCH   1   7
TORSDOF 1
ENDMDL
