MODEL 1
REMARK minimizedAffinity -4.30417967
REMARK minimizedRMSD -1
REMARK  1 active torsions:
REMARK  status: ('A' for Active; 'I' for Inactive)
REMARK    1  A    between atoms: N_2  and  C1_3 
ROOT
ATOM      1  C1  UNL d   1       0.057  -0.437  -1.284  0.00  0.00     0.143 A 
ATOM      2  C2  UNL d   1       0.134  -1.391  -0.263  0.00  0.00    -0.057 A 
ATOM      3  C3  UNL d   1       0.647  -1.065   0.998  0.00  0.00     0.033 A 
ATOM      4  C4  UNL d   1       1.120   0.219   1.252  0.00  0.00    -0.042 A 
ATOM      5  C5  UNL d   1       1.076   1.176   0.245  0.00  0.00     0.033 A 
ATOM      6  C6  UNL d   1       0.556   0.845  -1.011  0.00  0.00    -0.057 A 
ENDROOT
BRANCH   1   7
ATOM      7  N   UNL d   1      -0.352  -0.726  -2.589  0.00  0.00    -0.732 N 
ATOM      8  C   UNL d   1       0.607  -1.164  -3.581  0.00  0.00     0.284 C 
ATOM      9  H3  UNL d   1      -1.237  -1.226  -2.617  0.00  0.00     0.395 HD
ENDBRANCH   1   7
TORSDOF 1
ENDMDL
