MODEL 1
REMARK minimizedAffinity -5.1552496
REMARK minimizedRMSD -1
REMARK  1 active torsions:
REMARK  status: ('A' for Active; 'I' for Inactive)
REMARK    1  A    between atoms: N_2  and  C1_3 
ROOT
ATOM      1  C1  UNL d   1      -1.142  -0.763  -0.233  0.00  0.00     0.143 A 
ATOM      2  C2  UNL d   1      -1.576  -1.346   0.962  0.00  0.00    -0.057 A 
ATOM      3  C3  UNL d   1      -0.908  -1.111   2.170  0.00  0.00     0.033 A 
ATOM      4  C4  UNL d   1       0.228  -0.309   2.198  0.00  0.00    -0.042 A 
ATOM      5  C5  UNL d   1       0.693   0.261   1.017  0.00  0.00     0.033 A 
ATOM      6  C6  UNL d   1       0.017   0.028  -0.184  0.00  0.00    -0.057 A 
ENDROOT
BRANCH   1   7
ATOM      7  N   UNL d   1      -1.705  -1.037  -1.482  0.00  0.00    -0.732 N 
ATOM      8  C   UNL d   1      -1.039  -1.922  -2.413  0.00  0.00     0.284 C 
ATOM      9  H3  UNL d   1      -2.713  -1.168  -1.433  0.00  0.00     0.395 HD
ENDBRANCH   1   7
TORSDOF 1
ENDMDL
