MODEL 1
REMARK minimizedAffinity 0.549584389
REMARK minimizedRMSD -1
REMARK  1 active torsions:
REMARK  status: ('A' for Active; 'I' for Inactive)
REMARK    1  A    between atoms: N_2  and  C1_3 
ROOT
ATOM      1  C1  UNL d   1      -1.834   0.409  -0.020  0.00  0.00     0.143 A 
ATOM      2  C2  UNL d   1      -3.127  -0.042  -0.307  0.00  0.00    -0.057 A 
ATOM      3  C3  UNL d   1      -4.196   0.222   0.557  0.00  0.00     0.033 A 
ATOM      4  C4  UNL d   1      -3.985   0.919   1.742  0.00  0.00    -0.042 A 
ATOM      5  C5  UNL d   1      -2.704   1.355   2.060  0.00  0.00     0.033 A 
ATOM      6  C6  UNL d   1      -1.641   1.095   1.189  0.00  0.00    -0.057 A 
ENDROOT
BRANCH   1   7
ATOM      7  N   UNL d   1      -0.712   0.094  -0.790  0.00  0.00    -0.732 N 
ATOM      8  C   UNL d   1      -0.322  -1.284  -0.996  0.00  0.00     0.284 C 
ATOM      9  H3  UNL d   1      -0.635   0.676  -1.621  0.00  0.00     0.395 HD
ENDBRANCH   1   7
TORSDOF 1
ENDMDL
