MODEL 1
REMARK minimizedAffinity 7.21788168
REMARK minimizedRMSD -1
REMARK  1 active torsions:
REMARK  status: ('A' for Active; 'I' for Inactive)
REMARK    1  A    between atoms: N_2  and  C1_3 
ROOT
ATOM      1  C1  UNL d   1      -1.713   1.940   2.871  0.00  0.00     0.143 A 
ATOM      2  C2  UNL d   1      -0.609   1.497   3.607  0.00  0.00    -0.057 A 
ATOM      3  C3  UNL d   1       0.673   2.007   3.369  0.00  0.00     0.033 A 
ATOM      4  C4  UNL d   1       0.878   2.951   2.367  0.00  0.00    -0.042 A 
ATOM      5  C5  UNL d   1      -0.201   3.386   1.607  0.00  0.00     0.033 A 
ATOM      6  C6  UNL d   1      -1.480   2.878   1.854  0.00  0.00    -0.057 A 
ENDROOT
BRANCH   1   7
ATOM      7  N   UNL d   1      -2.996   1.400   2.993  0.00  0.00    -0.732 N 
ATOM      8  C   UNL d   1      -4.148   2.112   2.484  0.00  0.00     0.284 C 
ATOM      9  H3  UNL d   1      -3.014   0.398   2.815  0.00  0.00     0.395 HD
ENDBRANCH   1   7
TORSDOF 1
ENDMDL
