MODEL 1
REMARK minimizedAffinity 1.46021438
REMARK minimizedRMSD -1
REMARK  1 active torsions:
REMARK  status: ('A' for Active; 'I' for Inactive)
REMARK    1  A    between atoms: N_2  and  C1_3 
ROOT
ATOM      1  C1  UNL d   1       0.901  -1.967  -0.775  0.00  0.00     0.143 A 
ATOM      2  C2  UNL d   1       1.882  -2.774  -0.188  0.00  0.00    -0.057 A 
ATOM      3  C3  UNL d   1       2.993  -2.215   0.455  0.00  0.00     0.033 A 
ATOM      4  C4  UNL d   1       3.158  -0.834   0.498  0.00  0.00    -0.042 A 
ATOM      5  C5  UNL d   1       2.208  -0.013  -0.100  0.00  0.00     0.033 A 
ATOM      6  C6  UNL d   1       1.098  -0.577  -0.735  0.00  0.00    -0.057 A 
ENDROOT
BRANCH   1   7
ATOM      7  N   UNL d   1      -0.175  -2.463  -1.514  0.00  0.00    -0.732 N 
ATOM      8  C   UNL d   1      -0.747  -3.756  -1.205  0.00  0.00     0.284 C 
ATOM      9  H3  UNL d   1      -0.863  -1.745  -1.730  0.00  0.00     0.395 HD
ENDBRANCH   1   7
TORSDOF 1
ENDMDL
