MODEL 1
REMARK minimizedAffinity 3.68653178
REMARK minimizedRMSD -1
REMARK  1 active torsions:
REMARK  status: ('A' for Active; 'I' for Inactive)
REMARK    1  A    between atoms: N_2  and  C1_3 
ROOT
ATOM      1  C1  UNL d   1       1.821   0.536   0.148  0.00  0.00     0.143 A 
ATOM      2  C2  UNL d   1       2.975  -0.249   0.256  0.00  0.00    -0.057 A 
ATOM      3  C3  UNL d   1       2.970  -1.601  -0.109  0.00  0.00     0.033 A 
ATOM      4  C4  UNL d   1       1.800  -2.201  -0.563  0.00  0.00    -0.042 A 
ATOM      5  C5  UNL d   1       0.636  -1.447  -0.655  0.00  0.00     0.033 A 
ATOM      6  C6  UNL d   1       0.648  -0.096  -0.295  0.00  0.00    -0.057 A 
ENDROOT
BRANCH   1   7
ATOM      7  N   UNL d   1       1.737   1.859   0.588  0.00  0.00    -0.732 N 
ATOM      8  C   UNL d   1       0.693   2.733   0.098  0.00  0.00     0.284 C 
ATOM      9  H3  UNL d   1       1.922   1.950   1.584  0.00  0.00     0.395 HD
ENDBRANCH   1   7
TORSDOF 1
ENDMDL
