MODEL 1
REMARK minimizedAffinity -1.61981606
REMARK minimizedRMSD -1
REMARK  1 active torsions:
REMARK  status: ('A' for Active; 'I' for Inactive)
REMARK    1  A    between atoms: N_2  and  C1_3 
ROOT
ATOM      1  C1  UNL d   1      -0.073  -3.300  -0.355  0.00  0.00     0.143 A 
ATOM      2  C2  UNL d   1       1.004  -3.451   0.525  0.00  0.00    -0.057 A 
ATOM      3  C3  UNL d   1       1.947  -2.431   0.699  0.00  0.00     0.033 A 
ATOM      4  C4  UNL d   1       1.845  -1.249  -0.027  0.00  0.00    -0.042 A 
ATOM      5  C5  UNL d   1       0.796  -1.087  -0.925  0.00  0.00     0.033 A 
ATOM      6  C6  UNL d   1      -0.146  -2.106  -1.090  0.00  0.00    -0.057 A 
ENDROOT
BRANCH   1   7
ATOM      7  N   UNL d   1      -0.988  -4.315  -0.646  0.00  0.00    -0.732 N 
ATOM      8  C   UNL d   1      -1.835  -4.230  -1.816  0.00  0.00     0.284 C 
ATOM      9  H3  UNL d   1      -0.607  -5.242  -0.475  0.00  0.00     0.395 HD
ENDBRANCH   1   7
TORSDOF 1
ENDMDL
