MODEL 1
REMARK minimizedAffinity 3.15186739
REMARK minimizedRMSD -1
REMARK  1 active torsions:
REMARK  status: ('A' for Active; 'I' for Inactive)
REMARK    1  A    between atoms: N_2  and  C1_3 
ROOT
ATOM      1  C1  UNL d   1       2.037   0.292   0.219  0.00  0.00     0.143 A 
ATOM      2  C2  UNL d   1       1.964  -0.738  -0.724  0.00  0.00    -0.057 A 
ATOM      3  C3  UNL d   1       2.534  -1.992  -0.475  0.00  0.00     0.033 A 
ATOM      4  C4  UNL d   1       3.217  -2.229   0.713  0.00  0.00    -0.042 A 
ATOM      5  C5  UNL d   1       3.324  -1.212   1.654  0.00  0.00     0.033 A 
ATOM      6  C6  UNL d   1       2.746   0.036   1.403  0.00  0.00    -0.057 A 
ENDROOT
BRANCH   1   7
ATOM      7  N   UNL d   1       1.576   1.591  -0.010  0.00  0.00    -0.732 N 
ATOM      8  C   UNL d   1       0.159   1.858  -0.138  0.00  0.00     0.284 C 
ATOM      9  H3  UNL d   1       2.082   2.285   0.535  0.00  0.00     0.395 HD
ENDBRANCH   1   7
TORSDOF 1
ENDMDL
