MODEL 1
REMARK minimizedAffinity -1.17547107
REMARK minimizedRMSD -1
REMARK  1 active torsions:
REMARK  status: ('A' for Active; 'I' for Inactive)
REMARK    1  A    between atoms: N_2  and  C1_3 
ROOT
ATOM      1  C1  UNL d   1       0.946   0.527  -0.091  0.00  0.00     0.143 A 
ATOM      2  C2  UNL d   1       2.304   0.387  -0.397  0.00  0.00    -0.057 A 
ATOM      3  C3  UNL d   1       2.845  -0.857  -0.745  0.00  0.00     0.033 A 
ATOM      4  C4  UNL d   1       2.040  -1.991  -0.765  0.00  0.00    -0.042 A 
ATOM      5  C5  UNL d   1       0.693  -1.880  -0.440  0.00  0.00     0.033 A 
ATOM      6  C6  UNL d   1       0.157  -0.634  -0.100  0.00  0.00    -0.057 A 
ENDROOT
BRANCH   1   7
ATOM      7  N   UNL d   1       0.369   1.717   0.358  0.00  0.00    -0.732 N 
ATOM      8  C   UNL d   1       0.640   2.212   1.691  0.00  0.00     0.284 C 
ATOM      9  H3  UNL d   1       0.360   2.439  -0.359  0.00  0.00     0.395 HD
ENDBRANCH   1   7
TORSDOF 1
ENDMDL
