MODEL 1
REMARK minimizedAffinity -3.44817042
REMARK minimizedRMSD -1
REMARK  1 active torsions:
REMARK  status: ('A' for Active; 'I' for Inactive)
REMARK    1  A    between atoms: N_2  and  C1_3 
ROOT
ATOM      1  C1  UNL d   1       3.482  -0.475  -1.502  0.00  0.00     0.143 A 
ATOM      2  C2  UNL d   1       3.507  -1.197  -2.700  0.00  0.00    -0.057 A 
ATOM      3  C3  UNL d   1       2.717  -2.339  -2.876  0.00  0.00     0.033 A 
ATOM      4  C4  UNL d   1       1.907  -2.798  -1.843  0.00  0.00    -0.042 A 
ATOM      5  C5  UNL d   1       1.885  -2.112  -0.634  0.00  0.00     0.033 A 
ATOM      6  C6  UNL d   1       2.671  -0.967  -0.467  0.00  0.00    -0.057 A 
ENDROOT
BRANCH   1   7
ATOM      7  N   UNL d   1       4.317   0.611  -1.230  0.00  0.00    -0.732 N 
ATOM      8  C   UNL d   1       3.913   1.635  -0.291  0.00  0.00     0.284 C 
ATOM      9  H3  UNL d   1       5.295   0.340  -1.154  0.00  0.00     0.395 HD
ENDBRANCH   1   7
TORSDOF 1
ENDMDL
