MODEL 1
REMARK minimizedAffinity -4.19978094
REMARK minimizedRMSD -1
REMARK  0 active torsions:
REMARK  status: ('A' for Active; 'I' for Inactive)
ROOT
ATOM      1  C   UNL d   1       0.206   1.178  -0.860  0.00  0.00     0.023 A 
ATOM      2  C1  UNL d   1      -0.893   0.635  -0.194  0.00  0.00     0.003 A 
ATOM      3  C2  UNL d   1      -0.746  -0.527   0.566  0.00  0.00     0.048 A 
ATOM      4  C3  UNL d   1       0.503  -1.141   0.656  0.00  0.00     0.023 A 
ATOM      5  C4  UNL d   1       1.605  -0.601  -0.008  0.00  0.00     0.048 A 
ATOM      6  C5  UNL d   1       1.454   0.560  -0.767  0.00  0.00     0.003 A 
ATOM      7  I   UNL d   1       0.723  -2.871   1.787  0.00  0.00    -0.146 I 
ENDROOT
TORSDOF 0
ENDMDL
