MODEL 1
REMARK minimizedAffinity -3.7522161
REMARK minimizedRMSD -1
REMARK  0 active torsions:
REMARK  status: ('A' for Active; 'I' for Inactive)
ROOT
ATOM      1  C   UNL d   1      -1.686   1.466  -3.013  0.00  0.00     0.023 A 
ATOM      2  C1  UNL d   1      -0.899   0.353  -3.306  0.00  0.00     0.003 A 
ATOM      3  C2  UNL d   1      -0.122  -0.237  -2.307  0.00  0.00     0.048 A 
ATOM      4  C3  UNL d   1      -0.138   0.290  -1.017  0.00  0.00     0.023 A 
ATOM      5  C4  UNL d   1      -0.925   1.403  -0.718  0.00  0.00     0.048 A 
ATOM      6  C5  UNL d   1      -1.700   1.991  -1.720  0.00  0.00     0.003 A 
ATOM      7  I   UNL d   1       1.017  -0.587   0.472  0.00  0.00    -0.146 I 
ENDROOT
TORSDOF 0
ENDMDL
