MODEL 1
REMARK minimizedAffinity -4.45427465
REMARK minimizedRMSD -1
REMARK  0 active torsions:
REMARK  status: ('A' for Active; 'I' for Inactive)
ROOT
ATOM      1  C   UNL d   1      -2.022   1.654  -1.675  0.00  0.00     0.023 A 
ATOM      2  C1  UNL d   1      -1.548   1.953  -0.398  0.00  0.00     0.003 A 
ATOM      3  C2  UNL d   1      -0.566   1.151   0.189  0.00  0.00     0.048 A 
ATOM      4  C3  UNL d   1      -0.062   0.054  -0.508  0.00  0.00     0.023 A 
ATOM      5  C4  UNL d   1      -0.533  -0.249  -1.787  0.00  0.00     0.048 A 
ATOM      6  C5  UNL d   1      -1.515   0.555  -2.369  0.00  0.00     0.003 A 
ATOM      7  I   UNL d   1       1.399  -1.140   0.363  0.00  0.00    -0.146 I 
ENDROOT
TORSDOF 0
ENDMDL
