MODEL 1
REMARK minimizedAffinity -5.20103168
REMARK minimizedRMSD -1
REMARK  0 active torsions:
REMARK  status: ('A' for Active; 'I' for Inactive)
ROOT
ATOM      1  C   UNL d   1       0.739  -3.475   1.679  0.00  0.00     0.023 A 
ATOM      2  C1  UNL d   1       0.025  -2.640   2.540  0.00  0.00     0.003 A 
ATOM      3  C2  UNL d   1      -0.392  -1.380   2.106  0.00  0.00     0.048 A 
ATOM      4  C3  UNL d   1      -0.094  -0.962   0.810  0.00  0.00     0.023 A 
ATOM      5  C4  UNL d   1       0.619  -1.793  -0.055  0.00  0.00     0.048 A 
ATOM      6  C5  UNL d   1       1.035  -3.052   0.383  0.00  0.00     0.003 A 
ATOM      7  I   UNL d   1      -0.715   0.913   0.162  0.00  0.00    -0.146 I 
ENDROOT
TORSDOF 0
ENDMDL
