MODEL 1
REMARK minimizedAffinity -0.687507331
REMARK minimizedRMSD -1
REMARK  0 active torsions:
REMARK  status: ('A' for Active; 'I' for Inactive)
ROOT
ATOM      1  C   UNL d   1      -0.646   1.275  -1.050  0.00  0.00     0.023 A 
ATOM      2  C1  UNL d   1      -0.979   0.917   0.257  0.00  0.00     0.003 A 
ATOM      3  C2  UNL d   1      -0.263  -0.089   0.910  0.00  0.00     0.048 A 
ATOM      4  C3  UNL d   1       0.784  -0.731   0.251  0.00  0.00     0.023 A 
ATOM      5  C4  UNL d   1       1.121  -0.375  -1.056  0.00  0.00     0.048 A 
ATOM      6  C5  UNL d   1       0.403   0.630  -1.705  0.00  0.00     0.003 A 
ATOM      7  I   UNL d   1       1.851  -2.228   1.221  0.00  0.00    -0.146 I 
ENDROOT
TORSDOF 0
ENDMDL
