MODEL 1
REMARK minimizedAffinity 1.23712647
REMARK minimizedRMSD -1
REMARK  0 active torsions:
REMARK  status: ('A' for Active; 'I' for Inactive)
ROOT
ATOM      1  C   UNL d   1      -2.238   2.269  -0.635  0.00  0.00     0.023 A 
ATOM      2  C1  UNL d   1      -1.763   1.461  -1.668  0.00  0.00     0.003 A 
ATOM      3  C2  UNL d   1      -0.799   0.485  -1.406  0.00  0.00     0.048 A 
ATOM      4  C3  UNL d   1      -0.315   0.322  -0.109  0.00  0.00     0.023 A 
ATOM      5  C4  UNL d   1      -0.788   1.128   0.928  0.00  0.00     0.048 A 
ATOM      6  C5  UNL d   1      -1.751   2.103   0.661  0.00  0.00     0.003 A 
ATOM      7  I   UNL d   1       1.120  -1.129   0.284  0.00  0.00    -0.146 I 
ENDROOT
TORSDOF 0
ENDMDL
