MODEL 1
REMARK minimizedAffinity -4.21841288
REMARK minimizedRMSD -1
REMARK  0 active torsions:
REMARK  status: ('A' for Active; 'I' for Inactive)
ROOT
ATOM      1  C   UNL d   1       1.504  -2.790   1.256  0.00  0.00     0.023 A 
ATOM      2  C1  UNL d   1       2.018  -1.494   1.286  0.00  0.00     0.003 A 
ATOM      3  C2  UNL d   1       1.399  -0.479   0.554  0.00  0.00     0.048 A 
ATOM      4  C3  UNL d   1       0.267  -0.767  -0.207  0.00  0.00     0.023 A 
ATOM      5  C4  UNL d   1      -0.251  -2.062  -0.240  0.00  0.00     0.048 A 
ATOM      6  C5  UNL d   1       0.371  -3.074   0.494  0.00  0.00     0.003 A 
ATOM      7  I   UNL d   1      -0.656   0.742  -1.298  0.00  0.00    -0.146 I 
ENDROOT
TORSDOF 0
ENDMDL
