MODEL 1
REMARK minimizedAffinity -3.81402636
REMARK minimizedRMSD -1
REMARK  0 active torsions:
REMARK  status: ('A' for Active; 'I' for Inactive)
ROOT
ATOM      1  C   UNL d   1       1.844  -1.649   1.110  0.00  0.00     0.023 A 
ATOM      2  C1  UNL d   1       0.483  -1.592   1.409  0.00  0.00     0.003 A 
ATOM      3  C2  UNL d   1      -0.359  -0.752   0.677  0.00  0.00     0.048 A 
ATOM      4  C3  UNL d   1       0.166   0.027  -0.353  0.00  0.00     0.023 A 
ATOM      5  C4  UNL d   1       1.528  -0.027  -0.656  0.00  0.00     0.048 A 
ATOM      6  C5  UNL d   1       2.366  -0.868   0.079  0.00  0.00     0.003 A 
ATOM      7  I   UNL d   1      -1.085   1.278  -1.443  0.00  0.00    -0.146 I 
ENDROOT
TORSDOF 0
ENDMDL
