MODEL 1
REMARK minimizedAffinity -1.67912745
REMARK minimizedRMSD -1
REMARK  0 active torsions:
REMARK  status: ('A' for Active; 'I' for Inactive)
ROOT
ATOM      1  C   UNL d   1       2.494  -1.936   0.670  0.00  0.00     0.023 A 
ATOM      2  C1  UNL d   1       2.724  -0.638   0.215  0.00  0.00     0.003 A 
ATOM      3  C2  UNL d   1       1.709   0.066  -0.436  0.00  0.00     0.048 A 
ATOM      4  C3  UNL d   1       0.465  -0.534  -0.628  0.00  0.00     0.023 A 
ATOM      5  C4  UNL d   1       0.229  -1.833  -0.174  0.00  0.00     0.048 A 
ATOM      6  C5  UNL d   1       1.248  -2.533   0.476  0.00  0.00     0.003 A 
ATOM      7  I   UNL d   1      -1.047   0.511  -1.597  0.00  0.00    -0.146 I 
ENDROOT
TORSDOF 0
ENDMDL
