MODEL 1
REMARK minimizedAffinity -3.50286841
REMARK minimizedRMSD -1
REMARK  0 active torsions:
REMARK  status: ('A' for Active; 'I' for Inactive)
ROOT
ATOM      1  C   UNL d   1       1.586  -2.002   0.902  0.00  0.00     0.023 A 
ATOM      2  C1  UNL d   1       2.093  -1.023   0.049  0.00  0.00     0.003 A 
ATOM      3  C2  UNL d   1       1.231  -0.105  -0.555  0.00  0.00     0.048 A 
ATOM      4  C3  UNL d   1      -0.138  -0.172  -0.299  0.00  0.00     0.023 A 
ATOM      5  C4  UNL d   1      -0.651  -1.150   0.555  0.00  0.00     0.048 A 
ATOM      6  C5  UNL d   1       0.215  -2.066   1.155  0.00  0.00     0.003 A 
ATOM      7  I   UNL d   1      -1.424   1.193  -1.195  0.00  0.00    -0.146 I 
ENDROOT
TORSDOF 0
ENDMDL
