MODEL 1
REMARK minimizedAffinity -0.837655723
REMARK minimizedRMSD -1
REMARK  0 active torsions:
REMARK  status: ('A' for Active; 'I' for Inactive)
ROOT
ATOM      1  C   UNL d   1       0.748  -0.605   0.458  0.00  0.00     0.023 A 
ATOM      2  C1  UNL d   1      -0.360  -1.279  -0.057  0.00  0.00     0.003 A 
ATOM      3  C2  UNL d   1      -1.171  -0.663  -1.012  0.00  0.00     0.048 A 
ATOM      4  C3  UNL d   1      -0.868   0.626  -1.449  0.00  0.00     0.023 A 
ATOM      5  C4  UNL d   1       0.239   1.304  -0.938  0.00  0.00     0.048 A 
ATOM      6  C5  UNL d   1       1.047   0.685   0.018  0.00  0.00     0.003 A 
ATOM      7  I   UNL d   1      -2.074   1.544  -2.872  0.00  0.00    -0.146 I 
ENDROOT
TORSDOF 0
ENDMDL
