MODEL 1
REMARK minimizedAffinity -2.19793344
REMARK minimizedRMSD -1
REMARK  0 active torsions:
REMARK  status: ('A' for Active; 'I' for Inactive)
ROOT
ATOM      1  C   UNL d   1       0.969  -0.609   0.301  0.00  0.00     0.023 A 
ATOM      2  C1  UNL d   1       0.945  -1.014  -1.034  0.00  0.00     0.003 A 
ATOM      3  C2  UNL d   1      -0.050  -0.540  -1.891  0.00  0.00     0.048 A 
ATOM      4  C3  UNL d   1      -1.019   0.338  -1.407  0.00  0.00     0.023 A 
ATOM      5  C4  UNL d   1      -0.999   0.746  -0.072  0.00  0.00     0.048 A 
ATOM      6  C5  UNL d   1      -0.002   0.269   0.781  0.00  0.00     0.003 A 
ATOM      7  I   UNL d   1      -2.502   1.044  -2.681  0.00  0.00    -0.146 I 
ENDROOT
TORSDOF 0
ENDMDL
