MODEL 1
REMARK minimizedAffinity 0.959452629
REMARK minimizedRMSD -1
REMARK  0 active torsions:
REMARK  status: ('A' for Active; 'I' for Inactive)
ROOT
ATOM      1  C   UNL d   1       0.933  -1.466   1.063  0.00  0.00     0.023 A 
ATOM      2  C1  UNL d   1       1.614  -0.696   0.120  0.00  0.00     0.003 A 
ATOM      3  C2  UNL d   1       0.937   0.293  -0.595  0.00  0.00     0.048 A 
ATOM      4  C3  UNL d   1      -0.421   0.508  -0.362  0.00  0.00     0.023 A 
ATOM      5  C4  UNL d   1      -1.107  -0.259   0.581  0.00  0.00     0.048 A 
ATOM      6  C5  UNL d   1      -0.426  -1.248   1.293  0.00  0.00     0.003 A 
ATOM      7  I   UNL d   1      -1.431   1.981  -1.426  0.00  0.00    -0.146 I 
ENDROOT
TORSDOF 0
ENDMDL
