MODEL 1
REMARK minimizedAffinity -2.57431698
REMARK minimizedRMSD -1
REMARK  0 active torsions:
REMARK  status: ('A' for Active; 'I' for Inactive)
ROOT
ATOM      1  C   UNL d   1       0.236  -0.655   0.751  0.00  0.00     0.023 A 
ATOM      2  C1  UNL d   1       0.809  -0.466  -0.507  0.00  0.00     0.003 A 
ATOM      3  C2  UNL d   1       0.194   0.375  -1.436  0.00  0.00     0.048 A 
ATOM      4  C3  UNL d   1      -0.993   1.026  -1.101  0.00  0.00     0.023 A 
ATOM      5  C4  UNL d   1      -1.569   0.840   0.157  0.00  0.00     0.048 A 
ATOM      6  C5  UNL d   1      -0.952  -0.003   1.082  0.00  0.00     0.003 A 
ATOM      7  I   UNL d   1      -1.909   2.279  -2.482  0.00  0.00    -0.146 I 
ENDROOT
TORSDOF 0
ENDMDL
