MODEL 1
REMARK minimizedAffinity -2.00403762
REMARK minimizedRMSD -1
REMARK  0 active torsions:
REMARK  status: ('A' for Active; 'I' for Inactive)
ROOT
ATOM      1  C   UNL d   1       0.155  -0.504   0.416  0.00  0.00     0.023 A 
ATOM      2  C1  UNL d   1      -0.008  -0.995  -0.880  0.00  0.00     0.003 A 
ATOM      3  C2  UNL d   1      -0.718  -0.252  -1.825  0.00  0.00     0.048 A 
ATOM      4  C3  UNL d   1      -1.262   0.981  -1.468  0.00  0.00     0.023 A 
ATOM      5  C4  UNL d   1      -1.101   1.477  -0.173  0.00  0.00     0.048 A 
ATOM      6  C5  UNL d   1      -0.391   0.730   0.769  0.00  0.00     0.003 A 
ATOM      7  I   UNL d   1      -2.320   2.089  -2.873  0.00  0.00    -0.146 I 
ENDROOT
TORSDOF 0
ENDMDL
