MODEL 1
REMARK minimizedAffinity 7.38507462
REMARK minimizedRMSD -1
REMARK  1 active torsions:
REMARK  status: ('A' for Active; 'I' for Inactive)
REMARK    1  A    between atoms: C1_2  and  C2_3 
ROOT
ATOM      1  C2  UNL d   1       3.038  -5.437  -0.567  0.00  0.00    -0.077 A 
ATOM      2  C3  UNL d   1       3.051  -4.315  -1.407  0.00  0.00     0.002 A 
ATOM      3  C4  UNL d   1       1.853  -3.767  -1.871  0.00  0.00     0.002 A 
ATOM      4  C5  UNL d   1       0.636  -4.333  -1.499  0.00  0.00    -0.004 A 
ATOM      5  C6  UNL d   1       0.613  -5.451  -0.666  0.00  0.00     0.002 A 
ATOM      6  C7  UNL d   1       1.809  -6.000  -0.201  0.00  0.00     0.002 A 
ENDROOT
BRANCH   1   7
ATOM      7  C1  UNL d   1       4.326  -5.999  -0.025  0.00  0.00     0.055 C 
ATOM      8  C   UNL d   1       4.334  -5.997   1.497  0.00  0.00     0.019 C 
ENDBRANCH   1   7
TORSDOF 1
ENDMDL
