MODEL 1
REMARK minimizedAffinity 2.26112962
REMARK minimizedRMSD -1
REMARK  1 active torsions:
REMARK  status: ('A' for Active; 'I' for Inactive)
REMARK    1  A    between atoms: C1_2  and  C2_3 
ROOT
ATOM      1  C2  UNL d   1      -0.021  -0.962   0.449  0.00  0.00    -0.077 A 
ATOM      2  C3  UNL d   1       0.053  -0.397   1.730  0.00  0.00     0.002 A 
ATOM      3  C4  UNL d   1       0.161   0.986   1.886  0.00  0.00     0.002 A 
ATOM      4  C5  UNL d   1       0.190   1.816   0.767  0.00  0.00    -0.004 A 
ATOM      5  C6  UNL d   1       0.119   1.263  -0.511  0.00  0.00     0.002 A 
ATOM      6  C7  UNL d   1       0.013  -0.119  -0.670  0.00  0.00     0.002 A 
ENDROOT
BRANCH   1   7
ATOM      7  C1  UNL d   1      -0.186  -2.450   0.279  0.00  0.00     0.055 C 
ATOM      8  C   UNL d   1      -1.102  -2.775  -0.892  0.00  0.00     0.019 C 
ENDBRANCH   1   7
TORSDOF 1
ENDMDL
