MODEL 1
REMARK minimizedAffinity -3.29624748
REMARK minimizedRMSD -1
REMARK  1 active torsions:
REMARK  status: ('A' for Active; 'I' for Inactive)
REMARK    1  A    between atoms: C1_2  and  C2_3 
ROOT
ATOM      1  C2  UNL d   1       0.192   0.573  -0.647  0.00  0.00    -0.077 A 
ATOM      2  C3  UNL d   1       0.796  -0.498   0.026  0.00  0.00     0.002 A 
ATOM      3  C4  UNL d   1       1.077  -0.406   1.391  0.00  0.00     0.002 A 
ATOM      4  C5  UNL d   1       0.753   0.753   2.094  0.00  0.00    -0.004 A 
ATOM      5  C6  UNL d   1       0.154   1.824   1.432  0.00  0.00     0.002 A 
ATOM      6  C7  UNL d   1      -0.126   1.734   0.068  0.00  0.00     0.002 A 
ENDROOT
BRANCH   1   7
ATOM      7  C1  UNL d   1      -0.156   0.457  -2.108  0.00  0.00     0.055 C 
ATOM      8  C   UNL d   1      -1.581  -0.041  -2.300  0.00  0.00     0.019 C 
ENDBRANCH   1   7
TORSDOF 1
ENDMDL
