MODEL 1
REMARK minimizedAffinity -1.48595262
REMARK minimizedRMSD -1
REMARK  1 active torsions:
REMARK  status: ('A' for Active; 'I' for Inactive)
REMARK    1  A    between atoms: C1_2  and  C2_3 
ROOT
ATOM      1  C2  UNL d   1       0.122   3.502   0.006  0.00  0.00    -0.077 A 
ATOM      2  C3  UNL d   1       0.148   3.652   1.399  0.00  0.00     0.002 A 
ATOM      3  C4  UNL d   1      -0.026   2.544   2.232  0.00  0.00     0.002 A 
ATOM      4  C5  UNL d   1      -0.222   1.280   1.680  0.00  0.00    -0.004 A 
ATOM      5  C6  UNL d   1      -0.251   1.121   0.295  0.00  0.00     0.002 A 
ATOM      6  C7  UNL d   1      -0.079   2.227  -0.538  0.00  0.00     0.002 A 
ENDROOT
BRANCH   1   7
ATOM      7  C1  UNL d   1       0.358   4.688  -0.894  0.00  0.00     0.055 C 
ATOM      8  C   UNL d   1      -0.264   4.473  -2.266  0.00  0.00     0.019 C 
ENDBRANCH   1   7
TORSDOF 1
ENDMDL
