MODEL 1
REMARK minimizedAffinity 2.56950402
REMARK minimizedRMSD -1
REMARK  1 active torsions:
REMARK  status: ('A' for Active; 'I' for Inactive)
REMARK    1  A    between atoms: C1_2  and  C2_3 
ROOT
ATOM      1  C2  UNL d   1       0.355   0.467   0.351  0.00  0.00    -0.077 A 
ATOM      2  C3  UNL d   1       1.413  -0.441   0.204  0.00  0.00     0.002 A 
ATOM      3  C4  UNL d   1       2.087  -0.927   1.326  0.00  0.00     0.002 A 
ATOM      4  C5  UNL d   1       1.707  -0.515   2.602  0.00  0.00    -0.004 A 
ATOM      5  C6  UNL d   1       0.658   0.389   2.758  0.00  0.00     0.002 A 
ATOM      6  C7  UNL d   1      -0.016   0.877   1.638  0.00  0.00     0.002 A 
ENDROOT
BRANCH   1   7
ATOM      7  C1  UNL d   1      -0.405   0.955  -0.855  0.00  0.00     0.055 C 
ATOM      8  C   UNL d   1      -0.127   2.427  -1.126  0.00  0.00     0.019 C 
ENDBRANCH   1   7
TORSDOF 1
ENDMDL
