MODEL 1
REMARK minimizedAffinity -1.342816
REMARK minimizedRMSD -1
REMARK  0 active torsions:
REMARK  status: ('A' for Active; 'I' for Inactive)
ROOT
ATOM      1  C   UNL d   1       2.965  -0.371   1.587  0.00  0.00     0.023 A 
ATOM      2  C1  UNL d   1       2.652   0.747   0.814  0.00  0.00     0.003 A 
ATOM      3  C2  UNL d   1       1.431   0.812   0.140  0.00  0.00     0.048 A 
ATOM      4  C3  UNL d   1       0.526  -0.244   0.246  0.00  0.00     0.023 A 
ATOM      5  C4  UNL d   1       0.835  -1.365   1.019  0.00  0.00     0.048 A 
ATOM      6  C5  UNL d   1       2.058  -1.426   1.689  0.00  0.00     0.003 A 
ATOM      7  I   UNL d   1      -1.293  -0.150  -0.755  0.00  0.00    -0.146 I 
ENDROOT
TORSDOF 0
ENDMDL
