MODEL 1
REMARK minimizedAffinity -2.60683227
REMARK minimizedRMSD -1
REMARK  0 active torsions:
REMARK  status: ('A' for Active; 'I' for Inactive)
ROOT
ATOM      1  C   UNL d   1       2.975   0.201   1.075  0.00  0.00     0.023 A 
ATOM      2  C1  UNL d   1       2.507  -1.032   0.619  0.00  0.00     0.003 A 
ATOM      3  C2  UNL d   1       1.191  -1.158   0.170  0.00  0.00     0.048 A 
ATOM      4  C3  UNL d   1       0.348  -0.048   0.179  0.00  0.00     0.023 A 
ATOM      5  C4  UNL d   1       0.812   1.188   0.634  0.00  0.00     0.048 A 
ATOM      6  C5  UNL d   1       2.128   1.309   1.082  0.00  0.00     0.003 A 
ATOM      7  I   UNL d   1      -1.611  -0.233  -0.489  0.00  0.00    -0.146 I 
ENDROOT
TORSDOF 0
ENDMDL
