MODEL 1
REMARK minimizedAffinity -5.30221176
REMARK minimizedRMSD -1
REMARK  0 active torsions:
REMARK  status: ('A' for Active; 'I' for Inactive)
ROOT
ATOM      1  C   UNL d   1       2.948  -1.449   2.037  0.00  0.00     0.023 A 
ATOM      2  C1  UNL d   1       2.890  -0.256   1.317  0.00  0.00     0.003 A 
ATOM      3  C2  UNL d   1       1.708   0.116   0.673  0.00  0.00     0.048 A 
ATOM      4  C3  UNL d   1       0.588  -0.710   0.754  0.00  0.00     0.023 A 
ATOM      5  C4  UNL d   1       0.641  -1.905   1.474  0.00  0.00     0.048 A 
ATOM      6  C5  UNL d   1       1.825  -2.273   2.116  0.00  0.00     0.003 A 
ATOM      7  I   UNL d   1      -1.173  -0.160  -0.203  0.00  0.00    -0.146 I 
ENDROOT
TORSDOF 0
ENDMDL
