MODEL 1
REMARK minimizedAffinity -0.873831868
REMARK minimizedRMSD -1
REMARK  0 active torsions:
REMARK  status: ('A' for Active; 'I' for Inactive)
ROOT
ATOM      1  C   UNL d   1      -1.071   0.393   0.021  0.00  0.00     0.023 A 
ATOM      2  C1  UNL d   1      -0.540  -0.882   0.220  0.00  0.00     0.003 A 
ATOM      3  C2  UNL d   1       0.818  -1.037   0.505  0.00  0.00     0.048 A 
ATOM      4  C3  UNL d   1       1.639   0.087   0.592  0.00  0.00     0.023 A 
ATOM      5  C4  UNL d   1       1.112   1.364   0.396  0.00  0.00     0.048 A 
ATOM      6  C5  UNL d   1      -0.247   1.514   0.109  0.00  0.00     0.003 A 
ATOM      7  I   UNL d   1       3.660  -0.141   1.018  0.00  0.00    -0.146 I 
ENDROOT
TORSDOF 0
ENDMDL
