MODEL 1
REMARK minimizedAffinity -4.97158718
REMARK minimizedRMSD -1
REMARK  0 active torsions:
REMARK  status: ('A' for Active; 'I' for Inactive)
ROOT
ATOM      1  C   UNL d   1       2.643  -0.111   1.037  0.00  0.00     0.023 A 
ATOM      2  C1  UNL d   1       1.824  -1.239   1.011  0.00  0.00     0.003 A 
ATOM      3  C2  UNL d   1       0.534  -1.155   0.483  0.00  0.00     0.048 A 
ATOM      4  C3  UNL d   1       0.070   0.060  -0.018  0.00  0.00     0.023 A 
ATOM      5  C4  UNL d   1       0.887   1.192   0.005  0.00  0.00     0.048 A 
ATOM      6  C5  UNL d   1       2.175   1.104   0.535  0.00  0.00     0.003 A 
ATOM      7  I   UNL d   1      -1.849   0.188  -0.805  0.00  0.00    -0.146 I 
ENDROOT
TORSDOF 0
ENDMDL
