MODEL 1
REMARK minimizedAffinity -2.62670422
REMARK minimizedRMSD -1
REMARK  0 active torsions:
REMARK  status: ('A' for Active; 'I' for Inactive)
ROOT
ATOM      1  C   UNL d   1      -1.504   0.004   0.283  0.00  0.00     0.023 A 
ATOM      2  C1  UNL d   1      -0.931  -1.180   0.747  0.00  0.00     0.003 A 
ATOM      3  C2  UNL d   1       0.445  -1.250   0.972  0.00  0.00     0.048 A 
ATOM      4  C3  UNL d   1       1.243  -0.132   0.733  0.00  0.00     0.023 A 
ATOM      5  C4  UNL d   1       0.674   1.056   0.270  0.00  0.00     0.048 A 
ATOM      6  C5  UNL d   1      -0.702   1.121   0.045  0.00  0.00     0.003 A 
ATOM      7  I   UNL d   1       3.291  -0.234   1.068  0.00  0.00    -0.146 I 
ENDROOT
TORSDOF 0
ENDMDL
