MODEL 1
REMARK minimizedAffinity -4.25079107
REMARK minimizedRMSD -1
REMARK  0 active torsions:
REMARK  status: ('A' for Active; 'I' for Inactive)
ROOT
ATOM      1  C   UNL d   1       2.480  -0.014   1.652  0.00  0.00     0.023 A 
ATOM      2  C1  UNL d   1       1.745  -1.197   1.566  0.00  0.00     0.003 A 
ATOM      3  C2  UNL d   1       0.523  -1.213   0.892  0.00  0.00     0.048 A 
ATOM      4  C3  UNL d   1       0.040  -0.043   0.305  0.00  0.00     0.023 A 
ATOM      5  C4  UNL d   1       0.772   1.142   0.389  0.00  0.00     0.048 A 
ATOM      6  C5  UNL d   1       1.994   1.154   1.065  0.00  0.00     0.003 A 
ATOM      7  I   UNL d   1      -1.779  -0.065  -0.699  0.00  0.00    -0.146 I 
ENDROOT
TORSDOF 0
ENDMDL
