MODEL 1
REMARK minimizedAffinity -2.72417283
REMARK minimizedRMSD -1
REMARK  0 active torsions:
REMARK  status: ('A' for Active; 'I' for Inactive)
ROOT
ATOM      1  C   UNL d   1      -1.137  -0.048  -0.414  0.00  0.00     0.023 A 
ATOM      2  C1  UNL d   1      -0.358   1.109  -0.426  0.00  0.00     0.003 A 
ATOM      3  C2  UNL d   1       0.957   1.072   0.041  0.00  0.00     0.048 A 
ATOM      4  C3  UNL d   1       1.488  -0.125   0.519  0.00  0.00     0.023 A 
ATOM      5  C4  UNL d   1       0.713  -1.286   0.533  0.00  0.00     0.048 A 
ATOM      6  C5  UNL d   1      -0.602  -1.244   0.065  0.00  0.00     0.003 A 
ATOM      7  I   UNL d   1       3.445  -0.183   1.216  0.00  0.00    -0.146 I 
ENDROOT
TORSDOF 0
ENDMDL
