MODEL 1
REMARK minimizedAffinity -2.34500909
REMARK minimizedRMSD -1
REMARK  0 active torsions:
REMARK  status: ('A' for Active; 'I' for Inactive)
ROOT
ATOM      1  C1  DEN d   1       3.422   1.909  -4.032  0.00  0.00     0.130 A 
ATOM      2  C2  DEN d   1       4.120   2.081  -2.761  0.00  0.00    -0.031 A 
ATOM      3  C3  DEN d   1       3.130   2.508  -1.751  0.00  0.00     0.027 A 
ATOM      4  C4  DEN d   1       0.598   2.912  -2.031  0.00  0.00     0.027 A 
ATOM      5  C5  DEN d   1      -0.448   2.906  -2.927  0.00  0.00    -0.003 A 
ATOM      6  C6  DEN d   1      -0.272   2.602  -4.252  0.00  0.00     0.001 A 
ATOM      7  C7  DEN d   1       0.970   2.248  -4.708  0.00  0.00     0.017 A 
ATOM      8  C8  DEN d   1       2.031   2.260  -3.811  0.00  0.00    -0.094 A 
ATOM      9  C9  DEN d   1       1.830   2.557  -2.474  0.00  0.00    -0.072 A 
ENDROOT
TORSDOF 0
ENDMDL
