MODEL 1
REMARK minimizedAffinity -3.506634
REMARK minimizedRMSD -1
REMARK  0 active torsions:
REMARK  status: ('A' for Active; 'I' for Inactive)
ROOT
ATOM      1  C1  DEN d   1       3.045   2.838  -3.262  0.00  0.00     0.130 A 
ATOM      2  C2  DEN d   1       1.889   2.757  -4.150  0.00  0.00    -0.031 A 
ATOM      3  C3  DEN d   1       0.735   2.291  -3.355  0.00  0.00     0.027 A 
ATOM      4  C4  DEN d   1       0.627   1.694  -0.847  0.00  0.00     0.027 A 
ATOM      5  C5  DEN d   1       1.358   1.596   0.316  0.00  0.00    -0.003 A 
ATOM      6  C6  DEN d   1       2.699   1.870   0.360  0.00  0.00     0.001 A 
ATOM      7  C7  DEN d   1       3.342   2.299  -0.771  0.00  0.00     0.017 A 
ATOM      8  C8  DEN d   1       2.613   2.394  -1.949  0.00  0.00    -0.094 A 
ATOM      9  C9  DEN d   1       1.255   2.124  -1.971  0.00  0.00    -0.072 A 
ENDROOT
TORSDOF 0
ENDMDL
