MODEL 1
REMARK minimizedAffinity -1.44184613
REMARK minimizedRMSD -1
REMARK  0 active torsions:
REMARK  status: ('A' for Active; 'I' for Inactive)
ROOT
ATOM      1  C1  DEN d   1      -2.191  -1.791   0.846  0.00  0.00     0.130 A 
ATOM      2  C2  DEN d   1      -1.382  -2.949   1.220  0.00  0.00    -0.031 A 
ATOM      3  C3  DEN d   1       0.036  -2.610   0.984  0.00  0.00     0.027 A 
ATOM      4  C4  DEN d   1       1.052  -0.416   0.087  0.00  0.00     0.027 A 
ATOM      5  C5  DEN d   1       0.762   0.848  -0.379  0.00  0.00    -0.003 A 
ATOM      6  C6  DEN d   1      -0.523   1.304  -0.499  0.00  0.00     0.001 A 
ATOM      7  C7  DEN d   1      -1.566   0.507  -0.108  0.00  0.00     0.017 A 
ATOM      8  C8  DEN d   1      -1.282  -0.771   0.355  0.00  0.00    -0.094 A 
ATOM      9  C9  DEN d   1       0.025  -1.210   0.481  0.00  0.00    -0.072 A 
ENDROOT
TORSDOF 0
ENDMDL
