MODEL 1
REMARK minimizedAffinity 5.77318621
REMARK minimizedRMSD -1
REMARK  0 active torsions:
REMARK  status: ('A' for Active; 'I' for Inactive)
ROOT
ATOM      1  C1  DEN d   1      -0.320  -0.828  -2.497  0.00  0.00     0.130 A 
ATOM      2  C2  DEN d   1       0.436   0.358  -2.890  0.00  0.00    -0.031 A 
ATOM      3  C3  DEN d   1       0.304   1.360  -1.813  0.00  0.00     0.027 A 
ATOM      4  C4  DEN d   1      -0.986   1.189   0.414  0.00  0.00     0.027 A 
ATOM      5  C5  DEN d   1      -1.790   0.380   1.186  0.00  0.00    -0.003 A 
ATOM      6  C6  DEN d   1      -2.186  -0.864   0.773  0.00  0.00     0.001 A 
ATOM      7  C7  DEN d   1      -1.740  -1.355  -0.426  0.00  0.00     0.017 A 
ATOM      8  C8  DEN d   1      -0.935  -0.542  -1.213  0.00  0.00    -0.094 A 
ATOM      9  C9  DEN d   1      -0.536   0.708  -0.772  0.00  0.00    -0.072 A 
ENDROOT
TORSDOF 0
ENDMDL
