MODEL 1
REMARK minimizedAffinity -0.448777884
REMARK minimizedRMSD -1
REMARK  0 active torsions:
REMARK  status: ('A' for Active; 'I' for Inactive)
ROOT
ATOM      1  C1  DEN d   1       0.796  -0.444   0.546  0.00  0.00     0.130 A 
ATOM      2  C2  DEN d   1       0.099   0.730   0.028  0.00  0.00    -0.031 A 
ATOM      3  C3  DEN d   1       0.941   1.914   0.291  0.00  0.00     0.027 A 
ATOM      4  C4  DEN d   1       3.247   2.043   1.439  0.00  0.00     0.027 A 
ATOM      5  C5  DEN d   1       4.236   1.309   2.056  0.00  0.00    -0.003 A 
ATOM      6  C6  DEN d   1       4.134  -0.044   2.242  0.00  0.00     0.001 A 
ATOM      7  C7  DEN d   1       3.037  -0.713   1.765  0.00  0.00     0.017 A 
ATOM      8  C8  DEN d   1       2.033   0.021   1.149  0.00  0.00    -0.094 A 
ATOM      9  C9  DEN d   1       2.161   1.386   0.959  0.00  0.00    -0.072 A 
ENDROOT
TORSDOF 0
ENDMDL
