MODEL 1
REMARK minimizedAffinity -2.85539317
REMARK minimizedRMSD -1
REMARK  0 active torsions:
REMARK  status: ('A' for Active; 'I' for Inactive)
ROOT
ATOM      1  C1  DEN d   1      -1.448  -1.973   0.708  0.00  0.00     0.130 A 
ATOM      2  C2  DEN d   1      -2.712  -1.241   0.729  0.00  0.00    -0.031 A 
ATOM      3  C3  DEN d   1      -2.407   0.199   0.610  0.00  0.00     0.027 A 
ATOM      4  C4  DEN d   1      -0.114   1.359   0.391  0.00  0.00     0.027 A 
ATOM      5  C5  DEN d   1       1.247   1.155   0.338  0.00  0.00    -0.003 A 
ATOM      6  C6  DEN d   1       1.802  -0.093   0.438  0.00  0.00     0.001 A 
ATOM      7  C7  DEN d   1       0.990  -1.190   0.550  0.00  0.00     0.017 A 
ATOM      8  C8  DEN d   1      -0.383  -0.992   0.612  0.00  0.00    -0.094 A 
ATOM      9  C9  DEN d   1      -0.926   0.277   0.498  0.00  0.00    -0.072 A 
ENDROOT
TORSDOF 0
ENDMDL
