MODEL 1
REMARK minimizedAffinity 0.289700687
REMARK minimizedRMSD -1
REMARK  0 active torsions:
REMARK  status: ('A' for Active; 'I' for Inactive)
ROOT
ATOM      1  C1  DEN d   1       0.487  -0.530  -0.113  0.00  0.00     0.130 A 
ATOM      2  C2  DEN d   1      -0.545   0.500  -0.198  0.00  0.00    -0.031 A 
ATOM      3  C3  DEN d   1       0.006   1.747   0.369  0.00  0.00     0.027 A 
ATOM      4  C4  DEN d   1       2.348   2.183   1.359  0.00  0.00     0.027 A 
ATOM      5  C5  DEN d   1       3.565   1.611   1.657  0.00  0.00    -0.003 A 
ATOM      6  C6  DEN d   1       3.828   0.288   1.419  0.00  0.00     0.001 A 
ATOM      7  C7  DEN d   1       2.875  -0.497   0.825  0.00  0.00     0.017 A 
ATOM      8  C8  DEN d   1       1.643   0.071   0.528  0.00  0.00    -0.094 A 
ATOM      9  C9  DEN d   1       1.401   1.413   0.765  0.00  0.00    -0.072 A 
ENDROOT
TORSDOF 0
ENDMDL
