MODEL 1
REMARK minimizedAffinity -3.05447888
REMARK minimizedRMSD -1
REMARK  0 active torsions:
REMARK  status: ('A' for Active; 'I' for Inactive)
ROOT
ATOM      1  C1  DEN d   1      -2.219  -1.527   0.691  0.00  0.00     0.130 A 
ATOM      2  C2  DEN d   1      -1.634  -2.652   1.416  0.00  0.00    -0.031 A 
ATOM      3  C3  DEN d   1      -0.183  -2.405   1.546  0.00  0.00     0.027 A 
ATOM      4  C4  DEN d   1       1.204  -0.401   0.703  0.00  0.00     0.027 A 
ATOM      5  C5  DEN d   1       1.149   0.796   0.023  0.00  0.00    -0.003 A 
ATOM      6  C6  DEN d   1      -0.017   1.282  -0.507  0.00  0.00     0.001 A 
ATOM      7  C7  DEN d   1      -1.185   0.589  -0.327  0.00  0.00     0.017 A 
ATOM      8  C8  DEN d   1      -1.136  -0.622   0.352  0.00  0.00    -0.094 A 
ATOM      9  C9  DEN d   1       0.050  -1.090   0.891  0.00  0.00    -0.072 A 
ENDROOT
TORSDOF 0
ENDMDL
