MODEL 1
REMARK minimizedAffinity -5.00866652
REMARK minimizedRMSD -1
REMARK  0 active torsions:
REMARK  status: ('A' for Active; 'I' for Inactive)
ROOT
ATOM      1  C1  DEN d   1       0.325   0.869   0.421  0.00  0.00     0.130 A 
ATOM      2  C2  DEN d   1      -0.942   1.588   0.522  0.00  0.00    -0.031 A 
ATOM      3  C3  DEN d   1      -2.024   0.591   0.643  0.00  0.00     0.027 A 
ATOM      4  C4  DEN d   1      -1.863  -1.982   0.688  0.00  0.00     0.027 A 
ATOM      5  C5  DEN d   1      -1.001  -3.054   0.621  0.00  0.00    -0.003 A 
ATOM      6  C6  DEN d   1       0.349  -2.896   0.450  0.00  0.00     0.001 A 
ATOM      7  C7  DEN d   1       0.882  -1.636   0.385  0.00  0.00     0.017 A 
ATOM      8  C8  DEN d   1       0.018  -0.550   0.444  0.00  0.00    -0.094 A 
ATOM      9  C9  DEN d   1      -1.342  -0.730   0.630  0.00  0.00    -0.072 A 
ENDROOT
TORSDOF 0
ENDMDL
