MODEL 1
REMARK minimizedAffinity -1.00255132
REMARK minimizedRMSD -1
REMARK  0 active torsions:
REMARK  status: ('A' for Active; 'I' for Inactive)
ROOT
ATOM      1  C1  DEN d   1       2.585   0.923  -2.944  0.00  0.00     0.130 A 
ATOM      2  C2  DEN d   1       2.252   2.235  -3.491  0.00  0.00    -0.031 A 
ATOM      3  C3  DEN d   1       0.977   2.672  -2.886  0.00  0.00     0.027 A 
ATOM      4  C4  DEN d   1      -0.502   1.452  -1.161  0.00  0.00     0.027 A 
ATOM      5  C5  DEN d   1      -0.637   0.306  -0.409  0.00  0.00    -0.003 A 
ATOM      6  C6  DEN d   1       0.267  -0.721  -0.475  0.00  0.00     0.001 A 
ATOM      7  C7  DEN d   1       1.371  -0.603  -1.276  0.00  0.00     0.017 A 
ATOM      8  C8  DEN d   1       1.511   0.546  -2.043  0.00  0.00    -0.094 A 
ATOM      9  C9  DEN d   1       0.593   1.579  -1.953  0.00  0.00    -0.072 A 
ENDROOT
TORSDOF 0
ENDMDL
