MODEL 1
REMARK minimizedAffinity -4.09355497
REMARK minimizedRMSD -1
REMARK  0 active torsions:
REMARK  status: ('A' for Active; 'I' for Inactive)
ROOT
ATOM      1  C1  DEN d   1       1.347  -0.384   0.957  0.00  0.00     0.130 A 
ATOM      2  C2  DEN d   1       1.257   0.750   0.041  0.00  0.00    -0.031 A 
ATOM      3  C3  DEN d   1      -0.105   0.771  -0.527  0.00  0.00     0.027 A 
ATOM      4  C4  DEN d   1      -2.077  -0.830  -0.076  0.00  0.00     0.027 A 
ATOM      5  C5  DEN d   1      -2.476  -1.951   0.617  0.00  0.00    -0.003 A 
ATOM      6  C6  DEN d   1      -1.626  -2.642   1.440  0.00  0.00     0.001 A 
ATOM      7  C7  DEN d   1      -0.346  -2.193   1.625  0.00  0.00     0.017 A 
ATOM      8  C8  DEN d   1       0.067  -1.068   0.923  0.00  0.00    -0.094 A 
ATOM      9  C9  DEN d   1      -0.811  -0.376   0.106  0.00  0.00    -0.072 A 
ENDROOT
TORSDOF 0
ENDMDL
