MODEL 1
REMARK minimizedAffinity -5.38846254
REMARK minimizedRMSD -1
REMARK  0 active torsions:
REMARK  status: ('A' for Active; 'I' for Inactive)
ROOT
ATOM      1  C1  DEN d   1       1.514  -1.813   0.992  0.00  0.00     0.130 A 
ATOM      2  C2  DEN d   1       2.508  -0.743   0.990  0.00  0.00    -0.031 A 
ATOM      3  C3  DEN d   1       1.794   0.543   0.858  0.00  0.00     0.027 A 
ATOM      4  C4  DEN d   1      -0.741   0.979   0.662  0.00  0.00     0.027 A 
ATOM      5  C5  DEN d   1      -1.981   0.383   0.606  0.00  0.00    -0.003 A 
ATOM      6  C6  DEN d   1      -2.140  -0.977   0.639  0.00  0.00     0.001 A 
ATOM      7  C7  DEN d   1      -1.043  -1.785   0.777  0.00  0.00     0.017 A 
ATOM      8  C8  DEN d   1       0.212  -1.192   0.828  0.00  0.00    -0.094 A 
ATOM      9  C9  DEN d   1       0.351   0.185   0.805  0.00  0.00    -0.072 A 
ENDROOT
TORSDOF 0
ENDMDL
