MODEL 1
REMARK minimizedAffinity -2.00993872
REMARK minimizedRMSD -1
REMARK  0 active torsions:
REMARK  status: ('A' for Active; 'I' for Inactive)
ROOT
ATOM      1  C1  DEN d   1       3.347  -0.749   1.617  0.00  0.00     0.130 A 
ATOM      2  C2  DEN d   1       4.032   0.538   1.699  0.00  0.00    -0.031 A 
ATOM      3  C3  DEN d   1       3.165   1.557   1.076  0.00  0.00     0.027 A 
ATOM      4  C4  DEN d   1       0.837   1.270   0.002  0.00  0.00     0.027 A 
ATOM      5  C5  DEN d   1      -0.149   0.362  -0.314  0.00  0.00    -0.003 A 
ATOM      6  C6  DEN d   1      -0.025  -0.974  -0.042  0.00  0.00     0.001 A 
ATOM      7  C7  DEN d   1       1.090  -1.435   0.606  0.00  0.00     0.017 A 
ATOM      8  C8  DEN d   1       2.092  -0.526   0.921  0.00  0.00    -0.094 A 
ATOM      9  C9  DEN d   1       1.943   0.823   0.648  0.00  0.00    -0.072 A 
ENDROOT
TORSDOF 0
ENDMDL
