MODEL 1
REMARK minimizedAffinity -0.958728373
REMARK minimizedRMSD -1
REMARK  0 active torsions:
REMARK  status: ('A' for Active; 'I' for Inactive)
ROOT
ATOM      1  C1  DEN d   1       1.415  -0.348   0.597  0.00  0.00     0.130 A 
ATOM      2  C2  DEN d   1       1.288   1.051   0.198  0.00  0.00    -0.031 A 
ATOM      3  C3  DEN d   1      -0.145   1.333  -0.023  0.00  0.00     0.027 A 
ATOM      4  C4  DEN d   1      -2.167  -0.250   0.217  0.00  0.00     0.027 A 
ATOM      5  C5  DEN d   1      -2.556  -1.535   0.522  0.00  0.00    -0.003 A 
ATOM      6  C6  DEN d   1      -1.653  -2.516   0.838  0.00  0.00     0.001 A 
ATOM      7  C7  DEN d   1      -0.318  -2.215   0.900  0.00  0.00     0.017 A 
ATOM      8  C8  DEN d   1       0.082  -0.923   0.586  0.00  0.00    -0.094 A 
ATOM      9  C9  DEN d   1      -0.847   0.057   0.282  0.00  0.00    -0.072 A 
ENDROOT
TORSDOF 0
ENDMDL
