MODEL 1
REMARK minimizedAffinity 3.75777745
REMARK minimizedRMSD -1
REMARK  0 active torsions:
REMARK  status: ('A' for Active; 'I' for Inactive)
ROOT
ATOM      1  C4' PXY d   1       1.569   4.173  -0.898  0.00  0.00     0.077 C 
ATOM      2  C1' PXY d   1       2.491  -0.762   1.966  0.00  0.00     0.077 C 
ATOM      3  C1  PXY d   1       2.262   0.534   1.215  0.00  0.00    -0.082 A 
ATOM      4  C2  PXY d   1       1.088   1.140   1.298  0.00  0.00     0.003 A 
ATOM      5  C3  PXY d   1       0.854   2.296   0.599  0.00  0.00     0.003 A 
ATOM      6  C4  PXY d   1       1.848   2.867  -0.149  0.00  0.00    -0.082 A 
ATOM      7  C5  PXY d   1       3.051   2.261  -0.230  0.00  0.00     0.003 A 
ATOM      8  C6  PXY d   1       3.256   1.066   0.453  0.00  0.00     0.003 A 
ENDROOT
TORSDOF 0
ENDMDL
