MODEL 1
REMARK minimizedAffinity 1.4117676
REMARK minimizedRMSD -1
REMARK  0 active torsions:
REMARK  status: ('A' for Active; 'I' for Inactive)
ROOT
ATOM      1  C4' PXY d   1       1.539   3.874  -0.396  0.00  0.00     0.077 C 
ATOM      2  C1' PXY d   1       4.275  -0.973   1.166  0.00  0.00     0.077 C 
ATOM      3  C1  PXY d   1       3.549   0.296   0.765  0.00  0.00    -0.082 A 
ATOM      4  C2  PXY d   1       3.666   0.755  -0.470  0.00  0.00     0.003 A 
ATOM      5  C3  PXY d   1       3.042   1.919  -0.840  0.00  0.00     0.003 A 
ATOM      6  C4  PXY d   1       2.247   2.591   0.049  0.00  0.00    -0.082 A 
ATOM      7  C5  PXY d   1       2.114   2.123   1.309  0.00  0.00     0.003 A 
ATOM      8  C6  PXY d   1       2.789   0.963   1.676  0.00  0.00     0.003 A 
ENDROOT
TORSDOF 0
ENDMDL
