MODEL 1
REMARK minimizedAffinity 2.08932567
REMARK minimizedRMSD -1
REMARK  0 active torsions:
REMARK  status: ('A' for Active; 'I' for Inactive)
ROOT
ATOM      1  C4' PXY d   1      -2.805  -1.830  -3.462  0.00  0.00     0.077 C 
ATOM      2  C1' PXY d   1       0.513  -2.072   1.265  0.00  0.00     0.077 C 
ATOM      3  C1  PXY d   1      -0.347  -2.006   0.018  0.00  0.00    -0.082 A 
ATOM      4  C2  PXY d   1      -1.633  -1.716   0.125  0.00  0.00     0.003 A 
ATOM      5  C3  PXY d   1      -2.432  -1.683  -0.989  0.00  0.00     0.003 A 
ATOM      6  C4  PXY d   1      -1.897  -1.898  -2.231  0.00  0.00    -0.082 A 
ATOM      7  C5  PXY d   1      -0.583  -2.185  -2.349  0.00  0.00     0.003 A 
ATOM      8  C6  PXY d   1       0.202  -2.253  -1.202  0.00  0.00     0.003 A 
ENDROOT
TORSDOF 0
ENDMDL
