MODEL 1
REMARK minimizedAffinity 2.02206564
REMARK minimizedRMSD -1
REMARK  0 active torsions:
REMARK  status: ('A' for Active; 'I' for Inactive)
ROOT
ATOM      1  C4' PXY d   1      -3.038  -2.720  -2.034  0.00  0.00     0.077 C 
ATOM      2  C1' PXY d   1       2.339  -4.428  -0.774  0.00  0.00     0.077 C 
ATOM      3  C1  PXY d   1       0.926  -3.992  -1.108  0.00  0.00    -0.082 A 
ATOM      4  C2  PXY d   1       0.679  -2.719  -1.372  0.00  0.00     0.003 A 
ATOM      5  C3  PXY d   1      -0.598  -2.302  -1.645  0.00  0.00     0.003 A 
ATOM      6  C4  PXY d   1      -1.625  -3.207  -1.701  0.00  0.00    -0.082 A 
ATOM      7  C5  PXY d   1      -1.379  -4.509  -1.443  0.00  0.00     0.003 A 
ATOM      8  C6  PXY d   1      -0.083  -4.905  -1.128  0.00  0.00     0.003 A 
ENDROOT
TORSDOF 0
ENDMDL
