MODEL 1
REMARK minimizedAffinity 0.398229778
REMARK minimizedRMSD -1
REMARK  0 active torsions:
REMARK  status: ('A' for Active; 'I' for Inactive)
ROOT
ATOM      1  C4' PXY d   1       1.534  -0.028   1.287  0.00  0.00     0.077 C 
ATOM      2  C1' PXY d   1       0.553   5.230  -0.906  0.00  0.00     0.077 C 
ATOM      3  C1  PXY d   1       0.821   3.850  -0.338  0.00  0.00    -0.082 A 
ATOM      4  C2  PXY d   1      -0.177   3.149   0.174  0.00  0.00     0.003 A 
ATOM      5  C3  PXY d   1       0.053   1.912   0.720  0.00  0.00     0.003 A 
ATOM      6  C4  PXY d   1       1.308   1.366   0.694  0.00  0.00    -0.082 A 
ATOM      7  C5  PXY d   1       2.330   2.071   0.164  0.00  0.00     0.003 A 
ATOM      8  C6  PXY d   1       2.083   3.342  -0.348  0.00  0.00     0.003 A 
ENDROOT
TORSDOF 0
ENDMDL
