MODEL 1
REMARK minimizedAffinity 12.2977419
REMARK minimizedRMSD -1
REMARK  0 active torsions:
REMARK  status: ('A' for Active; 'I' for Inactive)
ROOT
ATOM      1  C4' PXY d   1       1.945   4.034  -0.129  0.00  0.00     0.077 C 
ATOM      2  C1' PXY d   1       3.761  -1.339   0.986  0.00  0.00     0.077 C 
ATOM      3  C1  PXY d   1       3.277   0.069   0.704  0.00  0.00    -0.082 A 
ATOM      4  C2  PXY d   1       3.352   0.553  -0.525  0.00  0.00     0.003 A 
ATOM      5  C3  PXY d   1       2.949   1.836  -0.792  0.00  0.00     0.003 A 
ATOM      6  C4  PXY d   1       2.413   2.614   0.200  0.00  0.00    -0.082 A 
ATOM      7  C5  PXY d   1       2.323   2.124   1.454  0.00  0.00     0.003 A 
ATOM      8  C6  PXY d   1       2.777   0.833   1.712  0.00  0.00     0.003 A 
ENDROOT
TORSDOF 0
ENDMDL
