MODEL 1
REMARK minimizedAffinity -3.18846321
REMARK minimizedRMSD -1
REMARK  0 active torsions:
REMARK  status: ('A' for Active; 'I' for Inactive)
ROOT
ATOM      1  C4' PXY d   1       1.105  -2.888   4.876  0.00  0.00     0.077 C 
ATOM      2  C1' PXY d   1       1.168   0.793   0.420  0.00  0.00     0.077 C 
ATOM      3  C1  PXY d   1       1.140  -0.176   1.584  0.00  0.00    -0.082 A 
ATOM      4  C2  PXY d   1       1.881   0.064   2.654  0.00  0.00     0.003 A 
ATOM      5  C3  PXY d   1       1.892  -0.819   3.703  0.00  0.00     0.003 A 
ATOM      6  C4  PXY d   1       1.095  -1.932   3.680  0.00  0.00    -0.082 A 
ATOM      7  C5  PXY d   1       0.328  -2.179   2.597  0.00  0.00     0.003 A 
ATOM      8  C6  PXY d   1       0.362  -1.291   1.525  0.00  0.00     0.003 A 
ENDROOT
TORSDOF 0
ENDMDL
