MODEL 1
REMARK minimizedAffinity 4.09248781
REMARK minimizedRMSD -1
REMARK  0 active torsions:
REMARK  status: ('A' for Active; 'I' for Inactive)
ROOT
ATOM      1  C4' PXY d   1       1.663  -5.574   5.104  0.00  0.00     0.077 C 
ATOM      2  C1' PXY d   1       0.844   0.033   3.959  0.00  0.00     0.077 C 
ATOM      3  C1  PXY d   1       1.071  -1.435   4.264  0.00  0.00    -0.082 A 
ATOM      4  C2  PXY d   1       0.346  -2.351   3.642  0.00  0.00     0.003 A 
ATOM      5  C3  PXY d   1       0.516  -3.681   3.929  0.00  0.00     0.003 A 
ATOM      6  C4  PXY d   1       1.474  -4.081   4.822  0.00  0.00    -0.082 A 
ATOM      7  C5  PXY d   1       2.225  -3.152   5.452  0.00  0.00     0.003 A 
ATOM      8  C6  PXY d   1       2.008  -1.805   5.177  0.00  0.00     0.003 A 
ENDROOT
TORSDOF 0
ENDMDL
