MODEL 1
REMARK minimizedAffinity -1.92534733
REMARK minimizedRMSD -1
REMARK  0 active torsions:
REMARK  status: ('A' for Active; 'I' for Inactive)
ROOT
ATOM      1  C4' PXY d   1       0.819   2.133  -1.688  0.00  0.00     0.077 C 
ATOM      2  C1' PXY d   1      -0.394  -2.498   1.552  0.00  0.00     0.077 C 
ATOM      3  C1  PXY d   1      -0.085  -1.277   0.709  0.00  0.00    -0.082 A 
ATOM      4  C2  PXY d   1       0.493  -1.427  -0.472  0.00  0.00     0.003 A 
ATOM      5  C3  PXY d   1       0.809  -0.331  -1.233  0.00  0.00     0.003 A 
ATOM      6  C4  PXY d   1       0.480   0.928  -0.806  0.00  0.00    -0.082 A 
ATOM      7  C5  PXY d   1      -0.120   1.088   0.392  0.00  0.00     0.003 A 
ATOM      8  C6  PXY d   1      -0.394  -0.034   1.169  0.00  0.00     0.003 A 
ENDROOT
TORSDOF 0
ENDMDL
