MODEL 1
REMARK minimizedAffinity -4.9911828
REMARK minimizedRMSD -1
REMARK  0 active torsions:
REMARK  status: ('A' for Active; 'I' for Inactive)
ROOT
ATOM      1  C4' PXY d   1       0.551   1.683  -0.388  0.00  0.00     0.077 C 
ATOM      2  C1' PXY d   1      -1.907  -3.250   1.355  0.00  0.00     0.077 C 
ATOM      3  C1  PXY d   1      -1.250  -1.961   0.901  0.00  0.00    -0.082 A 
ATOM      4  C2  PXY d   1      -1.955  -0.842   0.876  0.00  0.00     0.003 A 
ATOM      5  C3  PXY d   1      -1.387   0.327   0.438  0.00  0.00     0.003 A 
ATOM      6  C4  PXY d   1      -0.068   0.360   0.072  0.00  0.00    -0.082 A 
ATOM      7  C5  PXY d   1       0.661  -0.775   0.105  0.00  0.00     0.003 A 
ATOM      8  C6  PXY d   1       0.054  -1.959   0.513  0.00  0.00     0.003 A 
ENDROOT
TORSDOF 0
ENDMDL
