MODEL 1
REMARK minimizedAffinity -0.922981858
REMARK minimizedRMSD -1
REMARK  0 active torsions:
REMARK  status: ('A' for Active; 'I' for Inactive)
ROOT
ATOM      1  C4' PXY d   1       1.264   2.033  -1.385  0.00  0.00     0.077 C 
ATOM      2  C1' PXY d   1      -0.960  -2.411   1.568  0.00  0.00     0.077 C 
ATOM      3  C1  PXY d   1      -0.387  -1.238   0.797  0.00  0.00    -0.082 A 
ATOM      4  C2  PXY d   1       0.413  -1.460  -0.233  0.00  0.00     0.003 A 
ATOM      5  C3  PXY d   1       0.966  -0.411  -0.921  0.00  0.00     0.003 A 
ATOM      6  C4  PXY d   1       0.654   0.879  -0.584  0.00  0.00    -0.082 A 
ATOM      7  C5  PXY d   1      -0.169   1.114   0.459  0.00  0.00     0.003 A 
ATOM      8  C6  PXY d   1      -0.687   0.035   1.170  0.00  0.00     0.003 A 
ENDROOT
TORSDOF 0
ENDMDL
