MODEL 1
REMARK minimizedAffinity -4.76757002
REMARK minimizedRMSD -1
REMARK  0 active torsions:
REMARK  status: ('A' for Active; 'I' for Inactive)
ROOT
ATOM      1  C4' PXY d   1      -2.478  -0.682   2.428  0.00  0.00     0.077 C 
ATOM      2  C1' PXY d   1       1.104   1.972  -1.253  0.00  0.00     0.077 C 
ATOM      3  C1  PXY d   1       0.163   1.287  -0.281  0.00  0.00    -0.082 A 
ATOM      4  C2  PXY d   1       0.264  -0.017  -0.081  0.00  0.00     0.003 A 
ATOM      5  C3  PXY d   1      -0.599  -0.657   0.770  0.00  0.00     0.003 A 
ATOM      6  C4  PXY d   1      -1.543   0.053   1.464  0.00  0.00    -0.082 A 
ATOM      7  C5  PXY d   1      -1.646   1.385   1.273  0.00  0.00     0.003 A 
ATOM      8  C6  PXY d   1      -0.786   2.010   0.374  0.00  0.00     0.003 A 
ENDROOT
TORSDOF 0
ENDMDL
