MODEL 1
REMARK minimizedAffinity -0.783802688
REMARK minimizedRMSD -1
REMARK  0 active torsions:
REMARK  status: ('A' for Active; 'I' for Inactive)
ROOT
ATOM      1  C4' PXY d   1       0.867   1.331  -1.195  0.00  0.00     0.077 C 
ATOM      2  C1' PXY d   1      -2.321  -2.444   1.804  0.00  0.00     0.077 C 
ATOM      3  C1  PXY d   1      -1.474  -1.459   1.023  0.00  0.00    -0.082 A 
ATOM      4  C2  PXY d   1      -2.025  -0.352   0.553  0.00  0.00     0.003 A 
ATOM      5  C3  PXY d   1      -1.281   0.535  -0.183  0.00  0.00     0.003 A 
ATOM      6  C4  PXY d   1       0.053   0.312  -0.394  0.00  0.00    -0.082 A 
ATOM      7  C5  PXY d   1       0.625  -0.810   0.092  0.00  0.00     0.003 A 
ATOM      8  C6  PXY d   1      -0.157  -1.718   0.801  0.00  0.00     0.003 A 
ENDROOT
TORSDOF 0
ENDMDL
