MODEL 1
REMARK minimizedAffinity -5.21497965
REMARK minimizedRMSD -1
REMARK  0 active torsions:
REMARK  status: ('A' for Active; 'I' for Inactive)
ROOT
ATOM      1  C4' PXY d   1       1.444   1.653  -1.300  0.00  0.00     0.077 C 
ATOM      2  C1' PXY d   1      -1.897  -2.343   1.206  0.00  0.00     0.077 C 
ATOM      3  C1  PXY d   1      -1.010  -1.301   0.553  0.00  0.00    -0.082 A 
ATOM      4  C2  PXY d   1      -1.487  -0.089   0.321  0.00  0.00     0.003 A 
ATOM      5  C3  PXY d   1      -0.709   0.855  -0.298  0.00  0.00     0.003 A 
ATOM      6  C4  PXY d   1       0.588   0.573  -0.634  0.00  0.00    -0.082 A 
ATOM      7  C5  PXY d   1       1.085  -0.658  -0.391  0.00  0.00     0.003 A 
ATOM      8  C6  PXY d   1       0.266  -1.616   0.201  0.00  0.00     0.003 A 
ENDROOT
TORSDOF 0
ENDMDL
