MODEL 1
REMARK minimizedAffinity -5.56989813
REMARK minimizedRMSD -1
REMARK  0 active torsions:
REMARK  status: ('A' for Active; 'I' for Inactive)
ROOT
ATOM      1  C4' PXY d   1      -1.704  -2.591   1.080  0.00  0.00     0.077 C 
ATOM      2  C1' PXY d   1       1.539   1.897  -0.579  0.00  0.00     0.077 C 
ATOM      3  C1  PXY d   1       0.681   0.728  -0.138  0.00  0.00    -0.082 A 
ATOM      4  C2  PXY d   1       1.208  -0.484  -0.076  0.00  0.00     0.003 A 
ATOM      5  C3  PXY d   1       0.437  -1.558   0.291  0.00  0.00     0.003 A 
ATOM      6  C4  PXY d   1      -0.872  -1.380   0.649  0.00  0.00    -0.082 A 
ATOM      7  C5  PXY d   1      -1.414  -0.145   0.599  0.00  0.00     0.003 A 
ATOM      8  C6  PXY d   1      -0.626   0.925   0.185  0.00  0.00     0.003 A 
ENDROOT
TORSDOF 0
ENDMDL
