MODEL 1
REMARK minimizedAffinity -2.8402257
REMARK minimizedRMSD -1
REMARK  0 active torsions:
REMARK  status: ('A' for Active; 'I' for Inactive)
ROOT
ATOM      1  C4' PXY d   1       0.729   1.604  -1.897  0.00  0.00     0.077 C 
ATOM      2  C1' PXY d   1      -0.970  -2.987   1.178  0.00  0.00     0.077 C 
ATOM      3  C1  PXY d   1      -0.536  -1.782   0.366  0.00  0.00    -0.082 A 
ATOM      4  C2  PXY d   1       0.738  -1.635   0.044  0.00  0.00     0.003 A 
ATOM      5  C3  PXY d   1       1.152  -0.535  -0.662  0.00  0.00     0.003 A 
ATOM      6  C4  PXY d   1       0.244   0.398  -1.087  0.00  0.00    -0.082 A 
ATOM      7  C5  PXY d   1      -1.060   0.249  -0.771  0.00  0.00     0.003 A 
ATOM      8  C6  PXY d   1      -1.453  -0.854  -0.019  0.00  0.00     0.003 A 
ENDROOT
TORSDOF 0
ENDMDL
