MODEL 1
REMARK minimizedAffinity -5.80406189
REMARK minimizedRMSD -1
REMARK  0 active torsions:
REMARK  status: ('A' for Active; 'I' for Inactive)
ROOT
ATOM      1  C4' PXY d   1      -1.871  -2.992   1.325  0.00  0.00     0.077 C 
ATOM      2  C1' PXY d   1       0.445   1.961  -0.552  0.00  0.00     0.077 C 
ATOM      3  C1  PXY d   1      -0.170   0.668  -0.052  0.00  0.00    -0.082 A 
ATOM      4  C2  PXY d   1       0.532  -0.452  -0.100  0.00  0.00     0.003 A 
ATOM      5  C3  PXY d   1      -0.021  -1.635   0.318  0.00  0.00     0.003 A 
ATOM      6  C4  PXY d   1      -1.286  -1.663   0.840  0.00  0.00    -0.082 A 
ATOM      7  C5  PXY d   1      -2.005  -0.522   0.903  0.00  0.00     0.003 A 
ATOM      8  C6  PXY d   1      -1.441   0.662   0.435  0.00  0.00     0.003 A 
ENDROOT
TORSDOF 0
ENDMDL
