MODEL 1
REMARK minimizedAffinity -0.868428409
REMARK minimizedRMSD -1
REMARK  0 active torsions:
REMARK  status: ('A' for Active; 'I' for Inactive)
ROOT
ATOM      1  C4' PXY d   1       5.235   2.378  -3.040  0.00  0.00     0.077 C 
ATOM      2  C1' PXY d   1      -0.491   2.392  -3.837  0.00  0.00     0.077 C 
ATOM      3  C1  PXY d   1       1.013   2.386  -3.641  0.00  0.00    -0.082 A 
ATOM      4  C2  PXY d   1       1.516   2.091  -2.453  0.00  0.00     0.003 A 
ATOM      5  C3  PXY d   1       2.872   2.113  -2.250  0.00  0.00     0.003 A 
ATOM      6  C4  PXY d   1       3.724   2.387  -3.286  0.00  0.00    -0.082 A 
ATOM      7  C5  PXY d   1       3.218   2.678  -4.504  0.00  0.00     0.003 A 
ATOM      8  C6  PXY d   1       1.837   2.692  -4.679  0.00  0.00     0.003 A 
ENDROOT
TORSDOF 0
ENDMDL
