MODEL 1
REMARK minimizedAffinity -2.91391063
REMARK minimizedRMSD -1
REMARK  0 active torsions:
REMARK  status: ('A' for Active; 'I' for Inactive)
ROOT
ATOM      1  C4' PXY d   1       1.131   1.999  -1.034  0.00  0.00     0.077 C 
ATOM      2  C1' PXY d   1      -1.221  -2.702   1.370  0.00  0.00     0.077 C 
ATOM      3  C1  PXY d   1      -0.616  -1.465   0.737  0.00  0.00    -0.082 A 
ATOM      4  C2  PXY d   1       0.622  -1.507   0.272  0.00  0.00     0.003 A 
ATOM      5  C3  PXY d   1       1.196  -0.388  -0.275  0.00  0.00     0.003 A 
ATOM      6  C4  PXY d   1       0.477   0.771  -0.395  0.00  0.00    -0.082 A 
ATOM      7  C5  PXY d   1      -0.791   0.819   0.067  0.00  0.00     0.003 A 
ATOM      8  C6  PXY d   1      -1.341  -0.316   0.656  0.00  0.00     0.003 A 
ENDROOT
TORSDOF 0
ENDMDL
