MODEL 1
REMARK minimizedAffinity -5.52555847
REMARK minimizedRMSD -1
REMARK  0 active torsions:
REMARK  status: ('A' for Active; 'I' for Inactive)
ROOT
ATOM      1  C4' PXY d   1      -2.136  -2.516   1.668  0.00  0.00     0.077 C 
ATOM      2  C1' PXY d   1       1.609   1.149  -0.773  0.00  0.00     0.077 C 
ATOM      3  C1  PXY d   1       0.633   0.178  -0.138  0.00  0.00    -0.082 A 
ATOM      4  C2  PXY d   1      -0.567   0.600   0.225  0.00  0.00     0.003 A 
ATOM      5  C3  PXY d   1      -1.451  -0.257   0.829  0.00  0.00     0.003 A 
ATOM      6  C4  PXY d   1      -1.122  -1.573   1.015  0.00  0.00    -0.082 A 
ATOM      7  C5  PXY d   1       0.097  -2.014   0.637  0.00  0.00     0.003 A 
ATOM      8  C6  PXY d   1       0.994  -1.119   0.063  0.00  0.00     0.003 A 
ENDROOT
TORSDOF 0
ENDMDL
