MODEL 1
REMARK minimizedAffinity -4.70320034
REMARK minimizedRMSD -1
REMARK  0 active torsions:
REMARK  status: ('A' for Active; 'I' for Inactive)
ROOT
ATOM      1  C4' PXY d   1       0.912   1.564  -0.677  0.00  0.00     0.077 C 
ATOM      2  C1' PXY d   1      -2.123  -2.930   1.325  0.00  0.00     0.077 C 
ATOM      3  C1  PXY d   1      -1.316  -1.757   0.804  0.00  0.00    -0.082 A 
ATOM      4  C2  PXY d   1      -1.911  -0.592   0.603  0.00  0.00     0.003 A 
ATOM      5  C3  PXY d   1      -1.203   0.470   0.102  0.00  0.00     0.003 A 
ATOM      6  C4  PXY d   1       0.139   0.355  -0.144  0.00  0.00    -0.082 A 
ATOM      7  C5  PXY d   1       0.755  -0.827   0.070  0.00  0.00     0.003 A 
ATOM      8  C6  PXY d   1       0.010  -1.905   0.539  0.00  0.00     0.003 A 
ENDROOT
TORSDOF 0
ENDMDL
