MODEL 1
REMARK minimizedAffinity -4.36161232
REMARK minimizedRMSD -1
REMARK  0 active torsions:
REMARK  status: ('A' for Active; 'I' for Inactive)
ROOT
ATOM      1  C4' PXY d   1       1.535   1.953  -1.728  0.00  0.00     0.077 C 
ATOM      2  C1' PXY d   1      -1.173  -2.016   1.487  0.00  0.00     0.077 C 
ATOM      3  C1  PXY d   1      -0.474  -0.969   0.643  0.00  0.00    -0.082 A 
ATOM      4  C2  PXY d   1       0.654  -1.275   0.022  0.00  0.00     0.003 A 
ATOM      5  C3  PXY d   1       1.316  -0.331  -0.720  0.00  0.00     0.003 A 
ATOM      6  C4  PXY d   1       0.790   0.924  -0.872  0.00  0.00    -0.082 A 
ATOM      7  C5  PXY d   1      -0.366   1.241  -0.251  0.00  0.00     0.003 A 
ATOM      8  C6  PXY d   1      -1.001   0.281   0.532  0.00  0.00     0.003 A 
ENDROOT
TORSDOF 0
ENDMDL
