MODEL 1
REMARK minimizedAffinity -1.79101527
REMARK minimizedRMSD -1
REMARK  0 active torsions:
REMARK  status: ('A' for Active; 'I' for Inactive)
ROOT
ATOM      1  C4' PXY d   1       0.746   1.848  -1.563  0.00  0.00     0.077 C 
ATOM      2  C1' PXY d   1      -0.644  -2.324   2.189  0.00  0.00     0.077 C 
ATOM      3  C1  PXY d   1      -0.291  -1.225   1.207  0.00  0.00    -0.082 A 
ATOM      4  C2  PXY d   1       0.613  -1.452   0.268  0.00  0.00     0.003 A 
ATOM      5  C3  PXY d   1       0.967  -0.458  -0.608  0.00  0.00     0.003 A 
ATOM      6  C4  PXY d   1       0.352   0.764  -0.556  0.00  0.00    -0.082 A 
ATOM      7  C5  PXY d   1      -0.579   1.000   0.393  0.00  0.00     0.003 A 
ATOM      8  C6  PXY d   1      -0.895  -0.009   1.298  0.00  0.00     0.003 A 
ENDROOT
TORSDOF 0
ENDMDL
