MODEL 1
REMARK minimizedAffinity -2.06217122
REMARK minimizedRMSD -1
REMARK  0 active torsions:
REMARK  status: ('A' for Active; 'I' for Inactive)
ROOT
ATOM      1  C4' PXY d   1       2.409  -1.580   0.690  0.00  0.00     0.077 C 
ATOM      2  C1' PXY d   1      -2.980   0.507   0.519  0.00  0.00     0.077 C 
ATOM      3  C1  PXY d   1      -1.563  -0.032   0.554  0.00  0.00    -0.082 A 
ATOM      4  C2  PXY d   1      -1.335  -1.240   1.043  0.00  0.00     0.003 A 
ATOM      5  C3  PXY d   1      -0.057  -1.731   1.112  0.00  0.00     0.003 A 
ATOM      6  C4  PXY d   1       0.993  -0.998   0.626  0.00  0.00    -0.082 A 
ATOM      7  C5  PXY d   1       0.768   0.231   0.116  0.00  0.00     0.003 A 
ATOM      8  C6  PXY d   1      -0.532   0.727   0.093  0.00  0.00     0.003 A 
ENDROOT
TORSDOF 0
ENDMDL
