MODEL 1
REMARK minimizedAffinity -4.71150446
REMARK minimizedRMSD -1
REMARK  0 active torsions:
REMARK  status: ('A' for Active; 'I' for Inactive)
ROOT
ATOM      1  C4' PXY d   1       1.270  -2.815   0.291  0.00  0.00     0.077 C 
ATOM      2  C1' PXY d   1      -3.513  -0.015   1.934  0.00  0.00     0.077 C 
ATOM      3  C1  PXY d   1      -2.255  -0.739   1.496  0.00  0.00    -0.082 A 
ATOM      4  C2  PXY d   1      -2.241  -2.061   1.459  0.00  0.00     0.003 A 
ATOM      5  C3  PXY d   1      -1.101  -2.732   1.097  0.00  0.00     0.003 A 
ATOM      6  C4  PXY d   1       0.018  -2.042   0.717  0.00  0.00    -0.082 A 
ATOM      7  C5  PXY d   1       0.008  -0.692   0.742  0.00  0.00     0.003 A 
ATOM      8  C6  PXY d   1      -1.145  -0.030   1.153  0.00  0.00     0.003 A 
ENDROOT
TORSDOF 0
ENDMDL
