MODEL 1
REMARK minimizedAffinity -4.58036947
REMARK minimizedRMSD -1
REMARK  0 active torsions:
REMARK  status: ('A' for Active; 'I' for Inactive)
ROOT
ATOM      1  C4' PXY d   1       0.677  -0.723   0.373  0.00  0.00     0.077 C 
ATOM      2  C1' PXY d   1      -4.095  -2.653   3.002  0.00  0.00     0.077 C 
ATOM      3  C1  PXY d   1      -2.850  -2.145   2.301  0.00  0.00    -0.082 A 
ATOM      4  C2  PXY d   1      -1.657  -2.484   2.762  0.00  0.00     0.003 A 
ATOM      5  C3  PXY d   1      -0.521  -2.008   2.159  0.00  0.00     0.003 A 
ATOM      6  C4  PXY d   1      -0.607  -1.220   1.042  0.00  0.00    -0.082 A 
ATOM      7  C5  PXY d   1      -1.821  -0.879   0.561  0.00  0.00     0.003 A 
ATOM      8  C6  PXY d   1      -2.962  -1.339   1.211  0.00  0.00     0.003 A 
ENDROOT
TORSDOF 0
ENDMDL
