MODEL 1
REMARK minimizedAffinity 6.12602282
REMARK minimizedRMSD -1
REMARK  0 active torsions:
REMARK  status: ('A' for Active; 'I' for Inactive)
ROOT
ATOM      1  C4' PXY d   1      -5.002  -2.246  -5.999  0.00  0.00     0.077 C 
ATOM      2  C1' PXY d   1      -5.399  -0.764  -0.426  0.00  0.00     0.077 C 
ATOM      3  C1  PXY d   1      -5.283  -1.158  -1.885  0.00  0.00    -0.082 A 
ATOM      4  C2  PXY d   1      -6.000  -0.517  -2.795  0.00  0.00     0.003 A 
ATOM      5  C3  PXY d   1      -5.931  -0.882  -4.115  0.00  0.00     0.003 A 
ATOM      6  C4  PXY d   1      -5.080  -1.876  -4.515  0.00  0.00    -0.082 A 
ATOM      7  C5  PXY d   1      -4.338  -2.527  -3.595  0.00  0.00     0.003 A 
ATOM      8  C6  PXY d   1      -4.453  -2.170  -2.255  0.00  0.00     0.003 A 
ENDROOT
TORSDOF 0
ENDMDL
