MODEL 1
REMARK minimizedAffinity 9.74089241
REMARK minimizedRMSD -1
REMARK  1 active torsions:
REMARK  status: ('A' for Active; 'I' for Inactive)
REMARK    1  A    between atoms: C3_4  and  O_7 
ROOT
ATOM      1  C   UNL d   1      -1.219  -2.413  -1.106  0.00  0.00    -0.033 A 
ATOM      2  C1  UNL d   1      -1.755  -1.651  -0.066  0.00  0.00     0.039 A 
ATOM      3  C2  UNL d   1      -0.968  -1.327   1.041  0.00  0.00    -0.080 A 
ATOM      4  C3  UNL d   1       0.351  -1.769   1.095  0.00  0.00     0.150 A 
ATOM      5  C4  UNL d   1       0.892  -2.526   0.061  0.00  0.00    -0.007 A 
ATOM      6  C5  UNL d   1       0.105  -2.849  -1.044  0.00  0.00     0.039 A 
ENDROOT
BRANCH   4   7
ATOM      7  O   UNL d   1       1.156  -1.482   2.157  0.00  0.00    -0.526 OA
ATOM      8  H5  UNL d   1       0.639  -0.978   2.807  0.00  0.00     0.418 HD
ENDBRANCH   4   7
TORSDOF 1
ENDMDL
