MODEL 1
REMARK minimizedAffinity -1.74699795
REMARK minimizedRMSD -1
REMARK  1 active torsions:
REMARK  status: ('A' for Active; 'I' for Inactive)
REMARK    1  A    between atoms: C3_4  and  O_7 
ROOT
ATOM      1  C   UNL d   1       1.163  -0.658   1.743  0.00  0.00    -0.033 A 
ATOM      2  C1  UNL d   1       0.377  -1.795   1.539  0.00  0.00     0.039 A 
ATOM      3  C2  UNL d   1       0.464  -2.873   2.421  0.00  0.00    -0.080 A 
ATOM      4  C3  UNL d   1       1.338  -2.803   3.502  0.00  0.00     0.150 A 
ATOM      5  C4  UNL d   1       2.121  -1.673   3.714  0.00  0.00    -0.007 A 
ATOM      6  C5  UNL d   1       2.034  -0.597   2.831  0.00  0.00     0.039 A 
ENDROOT
BRANCH   4   7
ATOM      7  O   UNL d   1       1.461  -3.833   4.387  0.00  0.00    -0.526 OA
ATOM      8  H5  UNL d   1       0.881  -4.557   4.098  0.00  0.00     0.418 HD
ENDBRANCH   4   7
TORSDOF 1
ENDMDL
