MODEL 1
REMARK minimizedAffinity 0.41306895
REMARK minimizedRMSD -1
REMARK  1 active torsions:
REMARK  status: ('A' for Active; 'I' for Inactive)
REMARK    1  A    between atoms: C3_4  and  O_7 
ROOT
ATOM      1  C   UNL d   1       1.627  -0.538   2.048  0.00  0.00    -0.033 A 
ATOM      2  C1  UNL d   1       2.449   0.582   1.907  0.00  0.00     0.039 A 
ATOM      3  C2  UNL d   1       2.139   1.564   0.965  0.00  0.00    -0.080 A 
ATOM      4  C3  UNL d   1       1.005   1.414   0.170  0.00  0.00     0.150 A 
ATOM      5  C4  UNL d   1       0.180   0.303   0.308  0.00  0.00    -0.007 A 
ATOM      6  C5  UNL d   1       0.492  -0.677   1.249  0.00  0.00     0.039 A 
ENDROOT
BRANCH   4   7
ATOM      7  O   UNL d   1       0.664   2.344  -0.767  0.00  0.00    -0.526 OA
ATOM      8  H5  UNL d   1       1.341   3.041  -0.769  0.00  0.00     0.418 HD
ENDBRANCH   4   7
TORSDOF 1
ENDMDL
