MODEL 1
REMARK minimizedAffinity 2.95878267
REMARK minimizedRMSD -1
REMARK  1 active torsions:
REMARK  status: ('A' for Active; 'I' for Inactive)
REMARK    1  A    between atoms: C3_4  and  O_7 
ROOT
ATOM      1  C   UNL d   1      -0.462  -3.539  -0.205  0.00  0.00    -0.033 A 
ATOM      2  C1  UNL d   1      -0.162  -2.993   1.045  0.00  0.00     0.039 A 
ATOM      3  C2  UNL d   1      -0.331  -1.625   1.270  0.00  0.00    -0.080 A 
ATOM      4  C3  UNL d   1      -0.801  -0.816   0.239  0.00  0.00     0.150 A 
ATOM      5  C4  UNL d   1      -1.105  -1.354  -1.007  0.00  0.00    -0.007 A 
ATOM      6  C5  UNL d   1      -0.934  -2.720  -1.230  0.00  0.00     0.039 A 
ENDROOT
BRANCH   4   7
ATOM      7  O   UNL d   1      -0.978   0.525   0.409  0.00  0.00    -0.526 OA
ATOM      8  H5  UNL d   1      -0.700   0.760   1.311  0.00  0.00     0.418 HD
ENDBRANCH   4   7
TORSDOF 1
ENDMDL
