MODEL 1
REMARK minimizedAffinity 2.210639
REMARK minimizedRMSD -1
REMARK  1 active torsions:
REMARK  status: ('A' for Active; 'I' for Inactive)
REMARK    1  A    between atoms: C3_4  and  O_7 
ROOT
ATOM      1  C   UNL d   1      -0.749   2.888   0.515  0.00  0.00    -0.033 A 
ATOM      2  C1  UNL d   1      -0.685   1.670   1.195  0.00  0.00     0.039 A 
ATOM      3  C2  UNL d   1       0.509   0.947   1.227  0.00  0.00    -0.080 A 
ATOM      4  C3  UNL d   1       1.631   1.453   0.575  0.00  0.00     0.150 A 
ATOM      5  C4  UNL d   1       1.575   2.667  -0.101  0.00  0.00    -0.007 A 
ATOM      6  C5  UNL d   1       0.382   3.387  -0.132  0.00  0.00     0.039 A 
ENDROOT
BRANCH   4   7
ATOM      7  O   UNL d   1       2.817   0.781   0.574  0.00  0.00    -0.526 OA
ATOM      8  H5  UNL d   1       2.698  -0.054   1.055  0.00  0.00     0.418 HD
ENDBRANCH   4   7
TORSDOF 1
ENDMDL
