MODEL 1
REMARK minimizedAffinity 28.6990738
REMARK minimizedRMSD -1
REMARK  0 active torsions:
REMARK  status: ('A' for Active; 'I' for Inactive)
ROOT
ATOM      1  C   UNL d   1       4.117  -4.203  -1.228  0.00  0.00     0.124 A 
ATOM      2  C1  UNL d   1       4.473  -3.004  -0.627  0.00  0.00     0.062 A 
ATOM      3  C2  UNL d   1       3.606  -2.386   0.270  0.00  0.00     0.162 A 
ATOM      4  C3  UNL d   1       2.374  -2.966   0.571  0.00  0.00    -0.034 A 
ATOM      5  C4  UNL d   1       2.023  -4.172  -0.039  0.00  0.00     0.162 A 
ATOM      6  C5  UNL d   1       2.893  -4.786  -0.934  0.00  0.00     0.062 A 
ATOM      7  F   UNL d   1       2.547  -5.944  -1.514  0.00  0.00    -0.097 F 
ATOM      8  F1  UNL d   1       0.846  -4.757   0.229  0.00  0.00    -0.096 F 
ATOM      9  I   UNL d   1       1.075  -2.045   1.911  0.00  0.00    -0.060 I 
ATOM     10  F2  UNL d   1       3.977  -1.228   0.836  0.00  0.00    -0.096 F 
ATOM     11  F3  UNL d   1       5.656  -2.439  -0.910  0.00  0.00    -0.097 F 
ATOM     12  F4  UNL d   1       4.953  -4.796  -2.091  0.00  0.00    -0.092 F 
ENDROOT
TORSDOF 0
ENDMDL
