MODEL 1
REMARK minimizedAffinity 17.1660099
REMARK minimizedRMSD -1
REMARK  0 active torsions:
REMARK  status: ('A' for Active; 'I' for Inactive)
ROOT
ATOM      1  C   UNL d   1      -4.488   0.524   3.438  0.00  0.00     0.124 A 
ATOM      2  C1  UNL d   1      -3.592   0.374   4.488  0.00  0.00     0.062 A 
ATOM      3  C2  UNL d   1      -2.319  -0.138   4.255  0.00  0.00     0.162 A 
ATOM      4  C3  UNL d   1      -1.933  -0.503   2.966  0.00  0.00    -0.034 A 
ATOM      5  C4  UNL d   1      -2.839  -0.351   1.915  0.00  0.00     0.162 A 
ATOM      6  C5  UNL d   1      -4.110   0.162   2.153  0.00  0.00     0.062 A 
ATOM      7  F   UNL d   1      -4.974   0.306   1.137  0.00  0.00    -0.097 F 
ATOM      8  F1  UNL d   1      -2.500  -0.692   0.662  0.00  0.00    -0.096 F 
ATOM      9  I   UNL d   1      -0.030  -1.269   2.613  0.00  0.00    -0.060 I 
ATOM     10  F2  UNL d   1      -1.475  -0.272   5.289  0.00  0.00    -0.096 F 
ATOM     11  F3  UNL d   1      -3.955   0.722   5.731  0.00  0.00    -0.097 F 
ATOM     12  F4  UNL d   1      -5.712   1.016   3.666  0.00  0.00    -0.092 F 
ENDROOT
TORSDOF 0
ENDMDL
