MODEL 1
REMARK minimizedAffinity 11.2400951
REMARK minimizedRMSD -1
REMARK  0 active torsions:
REMARK  status: ('A' for Active; 'I' for Inactive)
ROOT
ATOM      1  C   UNL d   1      -2.414   5.356  -4.606  0.00  0.00     0.124 A 
ATOM      2  C1  UNL d   1      -3.775   5.531  -4.819  0.00  0.00     0.062 A 
ATOM      3  C2  UNL d   1      -4.686   5.230  -3.811  0.00  0.00     0.162 A 
ATOM      4  C3  UNL d   1      -4.239   4.751  -2.579  0.00  0.00    -0.034 A 
ATOM      5  C4  UNL d   1      -2.870   4.577  -2.373  0.00  0.00     0.162 A 
ATOM      6  C5  UNL d   1      -1.963   4.879  -3.384  0.00  0.00     0.062 A 
ATOM      7  F   UNL d   1      -0.649   4.709  -3.176  0.00  0.00    -0.097 F 
ATOM      8  F1  UNL d   1      -2.406   4.118  -1.200  0.00  0.00    -0.096 F 
ATOM      9  I   UNL d   1      -5.598   4.300  -1.069  0.00  0.00    -0.060 I 
ATOM     10  F2  UNL d   1      -5.994   5.409  -4.044  0.00  0.00    -0.096 F 
ATOM     11  F3  UNL d   1      -4.213   5.991  -6.000  0.00  0.00    -0.097 F 
ATOM     12  F4  UNL d   1      -1.540   5.646  -5.578  0.00  0.00    -0.092 F 
ENDROOT
TORSDOF 0
ENDMDL
