MODEL 1
REMARK minimizedAffinity 19.3794308
REMARK minimizedRMSD -1
REMARK  0 active torsions:
REMARK  status: ('A' for Active; 'I' for Inactive)
ROOT
ATOM      1  C   UNL d   1      -1.047  -1.959   1.736  0.00  0.00     0.124 A 
ATOM      2  C1  UNL d   1      -0.845  -0.592   1.859  0.00  0.00     0.062 A 
ATOM      3  C2  UNL d   1      -1.927   0.261   2.055  0.00  0.00     0.162 A 
ATOM      4  C3  UNL d   1      -3.223  -0.251   2.130  0.00  0.00    -0.034 A 
ATOM      5  C4  UNL d   1      -3.418  -1.628   2.004  0.00  0.00     0.162 A 
ATOM      6  C5  UNL d   1      -2.333  -2.476   1.808  0.00  0.00     0.062 A 
ATOM      7  F   UNL d   1      -2.531  -3.797   1.688  0.00  0.00    -0.097 F 
ATOM      8  F1  UNL d   1      -4.650  -2.154   2.070  0.00  0.00    -0.096 F 
ATOM      9  I   UNL d   1      -4.844   1.021   2.423  0.00  0.00    -0.060 I 
ATOM     10  F2  UNL d   1      -1.702   1.578   2.172  0.00  0.00    -0.096 F 
ATOM     11  F3  UNL d   1       0.397  -0.090   1.789  0.00  0.00    -0.097 F 
ATOM     12  F4  UNL d   1      -0.004  -2.777   1.546  0.00  0.00    -0.092 F 
ENDROOT
TORSDOF 0
ENDMDL
