MODEL 1
REMARK minimizedAffinity 21.534708
REMARK minimizedRMSD -1
REMARK  0 active torsions:
REMARK  status: ('A' for Active; 'I' for Inactive)
ROOT
ATOM      1  C   UNL d   1       3.320  -3.173  -0.234  0.00  0.00     0.124 A 
ATOM      2  C1  UNL d   1       4.480  -2.624  -0.763  0.00  0.00     0.062 A 
ATOM      3  C2  UNL d   1       4.875  -1.339  -0.401  0.00  0.00     0.162 A 
ATOM      4  C3  UNL d   1       4.109  -0.595   0.497  0.00  0.00    -0.034 A 
ATOM      5  C4  UNL d   1       2.944  -1.153   1.024  0.00  0.00     0.162 A 
ATOM      6  C5  UNL d   1       2.553  -2.437   0.659  0.00  0.00     0.062 A 
ATOM      7  F   UNL d   1       1.432  -2.966   1.171  0.00  0.00    -0.097 F 
ATOM      8  F1  UNL d   1       2.184  -0.465   1.889  0.00  0.00    -0.096 F 
ATOM      9  I   UNL d   1       4.696   1.326   1.041  0.00  0.00    -0.060 I 
ATOM     10  F2  UNL d   1       6.000  -0.834  -0.928  0.00  0.00    -0.096 F 
ATOM     11  F3  UNL d   1       5.222  -3.332  -1.627  0.00  0.00    -0.097 F 
ATOM     12  F4  UNL d   1       2.942  -4.409  -0.585  0.00  0.00    -0.092 F 
ENDROOT
TORSDOF 0
ENDMDL
