MODEL 1
REMARK minimizedAffinity 6.16769361
REMARK minimizedRMSD -1
REMARK  0 active torsions:
REMARK  status: ('A' for Active; 'I' for Inactive)
ROOT
ATOM      1  C   UNL d   1      -4.114  -1.477   3.071  0.00  0.00     0.124 A 
ATOM      2  C1  UNL d   1      -4.974  -1.247   4.136  0.00  0.00     0.062 A 
ATOM      3  C2  UNL d   1      -4.775  -0.154   4.974  0.00  0.00     0.162 A 
ATOM      4  C3  UNL d   1      -3.711   0.720   4.749  0.00  0.00    -0.034 A 
ATOM      5  C4  UNL d   1      -2.850   0.483   3.677  0.00  0.00     0.162 A 
ATOM      6  C5  UNL d   1      -3.053  -0.612   2.842  0.00  0.00     0.062 A 
ATOM      7  F   UNL d   1      -2.221  -0.831   1.814  0.00  0.00    -0.097 F 
ATOM      8  F1  UNL d   1      -1.817   1.303   3.432  0.00  0.00    -0.096 F 
ATOM      9  I   UNL d   1      -3.410   2.357   5.999  0.00  0.00    -0.060 I 
ATOM     10  F2  UNL d   1      -5.622   0.043   5.995  0.00  0.00    -0.096 F 
ATOM     11  F3  UNL d   1      -5.999  -2.082   4.359  0.00  0.00    -0.097 F 
ATOM     12  F4  UNL d   1      -4.307  -2.530   2.267  0.00  0.00    -0.092 F 
ENDROOT
TORSDOF 0
ENDMDL
