MODEL 1
REMARK minimizedAffinity 14.9733667
REMARK minimizedRMSD -1
REMARK  0 active torsions:
REMARK  status: ('A' for Active; 'I' for Inactive)
ROOT
ATOM      1  C   UNL d   1       4.779   4.852  -2.199  0.00  0.00     0.124 A 
ATOM      2  C1  UNL d   1       5.308   4.853  -0.915  0.00  0.00     0.062 A 
ATOM      3  C2  UNL d   1       5.121   3.755  -0.080  0.00  0.00     0.162 A 
ATOM      4  C3  UNL d   1       4.403   2.646  -0.526  0.00  0.00    -0.034 A 
ATOM      5  C4  UNL d   1       3.874   2.652  -1.818  0.00  0.00     0.162 A 
ATOM      6  C5  UNL d   1       4.063   3.752  -2.649  0.00  0.00     0.062 A 
ATOM      7  F   UNL d   1       3.551   3.749  -3.888  0.00  0.00    -0.097 F 
ATOM      8  F1  UNL d   1       3.178   1.602  -2.279  0.00  0.00    -0.096 F 
ATOM      9  I   UNL d   1       4.122   1.003   0.719  0.00  0.00    -0.060 I 
ATOM     10  F2  UNL d   1       5.643   3.784   1.155  0.00  0.00    -0.096 F 
ATOM     11  F3  UNL d   1       6.000   5.915  -0.478  0.00  0.00    -0.097 F 
ATOM     12  F4  UNL d   1       4.960   5.910  -3.000  0.00  0.00    -0.092 F 
ENDROOT
TORSDOF 0
ENDMDL
