MODEL 1
REMARK minimizedAffinity 5.55512857
REMARK minimizedRMSD -1
REMARK  0 active torsions:
REMARK  status: ('A' for Active; 'I' for Inactive)
ROOT
ATOM      1  C   UNL d   1      -3.386  -1.766   2.780  0.00  0.00     0.124 A 
ATOM      2  C1  UNL d   1      -4.481  -1.572   3.610  0.00  0.00     0.062 A 
ATOM      3  C2  UNL d   1      -4.499  -0.509   4.509  0.00  0.00     0.162 A 
ATOM      4  C3  UNL d   1      -3.418   0.369   4.582  0.00  0.00    -0.034 A 
ATOM      5  C4  UNL d   1      -2.319   0.167   3.744  0.00  0.00     0.162 A 
ATOM      6  C5  UNL d   1      -2.306  -0.897   2.848  0.00  0.00     0.062 A 
ATOM      7  F   UNL d   1      -1.247  -1.083   2.047  0.00  0.00    -0.097 F 
ATOM      8  F1  UNL d   1      -1.263   0.992   3.788  0.00  0.00    -0.096 F 
ATOM      9  I   UNL d   1      -3.440   1.959   5.924  0.00  0.00    -0.060 I 
ATOM     10  F2  UNL d   1      -5.571  -0.346   5.299  0.00  0.00    -0.096 F 
ATOM     11  F3  UNL d   1      -5.525  -2.411   3.548  0.00  0.00    -0.097 F 
ATOM     12  F4  UNL d   1      -3.371  -2.790   1.917  0.00  0.00    -0.092 F 
ENDROOT
TORSDOF 0
ENDMDL
