MODEL 1
REMARK minimizedAffinity 14.7423277
REMARK minimizedRMSD -1
REMARK  0 active torsions:
REMARK  status: ('A' for Active; 'I' for Inactive)
ROOT
ATOM      1  C   UNL d   1      -4.738   0.068   4.243  0.00  0.00     0.124 A 
ATOM      2  C1  UNL d   1      -4.471  -0.673   3.100  0.00  0.00     0.062 A 
ATOM      3  C2  UNL d   1      -3.172  -0.757   2.607  0.00  0.00     0.162 A 
ATOM      4  C3  UNL d   1      -2.128  -0.098   3.258  0.00  0.00    -0.034 A 
ATOM      5  C4  UNL d   1      -2.405   0.645   4.407  0.00  0.00     0.162 A 
ATOM      6  C5  UNL d   1      -3.705   0.726   4.895  0.00  0.00     0.062 A 
ATOM      7  F   UNL d   1      -3.961   1.442   6.000  0.00  0.00    -0.097 F 
ATOM      8  F1  UNL d   1      -1.425   1.291   5.058  0.00  0.00    -0.096 F 
ATOM      9  I   UNL d   1      -0.185  -0.221   2.525  0.00  0.00    -0.060 I 
ATOM     10  F2  UNL d   1      -2.943  -1.480   1.501  0.00  0.00    -0.096 F 
ATOM     11  F3  UNL d   1      -5.467  -1.309   2.467  0.00  0.00    -0.097 F 
ATOM     12  F4  UNL d   1      -5.989   0.147   4.714  0.00  0.00    -0.092 F 
ENDROOT
TORSDOF 0
ENDMDL
