MODEL 1
REMARK minimizedAffinity 4.76976156
REMARK minimizedRMSD -1
REMARK  0 active torsions:
REMARK  status: ('A' for Active; 'I' for Inactive)
ROOT
ATOM      1  C   UNL d   1       3.970   2.257   1.455  0.00  0.00     0.124 A 
ATOM      2  C1  UNL d   1       4.987   3.064   0.964  0.00  0.00     0.062 A 
ATOM      3  C2  UNL d   1       5.002   3.434  -0.378  0.00  0.00     0.162 A 
ATOM      4  C3  UNL d   1       3.995   2.997  -1.239  0.00  0.00    -0.034 A 
ATOM      5  C4  UNL d   1       2.976   2.184  -0.739  0.00  0.00     0.162 A 
ATOM      6  C5  UNL d   1       2.966   1.818   0.603  0.00  0.00     0.062 A 
ATOM      7  F   UNL d   1       1.983   1.038   1.075  0.00  0.00    -0.097 F 
ATOM      8  F1  UNL d   1       1.993   1.747  -1.539  0.00  0.00    -0.096 F 
ATOM      9  I   UNL d   1       4.014   3.547  -3.246  0.00  0.00    -0.060 I 
ATOM     10  F2  UNL d   1       5.997   4.214  -0.824  0.00  0.00    -0.096 F 
ATOM     11  F3  UNL d   1       5.959   3.489   1.785  0.00  0.00    -0.097 F 
ATOM     12  F4  UNL d   1       3.959   1.902   2.746  0.00  0.00    -0.092 F 
ENDROOT
TORSDOF 0
ENDMDL
