MODEL 1
REMARK minimizedAffinity 18.0276356
REMARK minimizedRMSD -1
REMARK  0 active torsions:
REMARK  status: ('A' for Active; 'I' for Inactive)
ROOT
ATOM      1  C   UNL d   1      -3.881   0.395   3.966  0.00  0.00     0.124 A 
ATOM      2  C1  UNL d   1      -3.754  -0.135   2.690  0.00  0.00     0.062 A 
ATOM      3  C2  UNL d   1      -2.504  -0.516   2.211  0.00  0.00     0.162 A 
ATOM      4  C3  UNL d   1      -1.370  -0.371   3.010  0.00  0.00    -0.034 A 
ATOM      5  C4  UNL d   1      -1.505   0.164   4.292  0.00  0.00     0.162 A 
ATOM      6  C5  UNL d   1      -2.757   0.544   4.766  0.00  0.00     0.062 A 
ATOM      7  F   UNL d   1      -2.877   1.055   6.000  0.00  0.00    -0.097 F 
ATOM      8  F1  UNL d   1      -0.436   0.317   5.087  0.00  0.00    -0.096 F 
ATOM      9  I   UNL d   1       0.500  -0.940   2.298  0.00  0.00    -0.060 I 
ATOM     10  F2  UNL d   1      -2.412  -1.025   0.973  0.00  0.00    -0.096 F 
ATOM     11  F3  UNL d   1      -4.839  -0.278   1.914  0.00  0.00    -0.097 F 
ATOM     12  F4  UNL d   1      -5.085   0.762   4.424  0.00  0.00    -0.092 F 
ENDROOT
TORSDOF 0
ENDMDL
