MODEL 1
REMARK minimizedAffinity 16.4711132
REMARK minimizedRMSD -1
REMARK  0 active torsions:
REMARK  status: ('A' for Active; 'I' for Inactive)
ROOT
ATOM      1  C   UNL d   1      -1.635  -0.469   1.318  0.00  0.00     0.124 A 
ATOM      2  C1  UNL d   1      -2.132  -1.564   2.012  0.00  0.00     0.062 A 
ATOM      3  C2  UNL d   1      -2.499  -1.437   3.349  0.00  0.00     0.162 A 
ATOM      4  C3  UNL d   1      -2.373  -0.211   4.000  0.00  0.00    -0.034 A 
ATOM      5  C4  UNL d   1      -1.872   0.886   3.296  0.00  0.00     0.162 A 
ATOM      6  C5  UNL d   1      -1.506   0.754   1.961  0.00  0.00     0.062 A 
ATOM      7  F   UNL d   1      -1.026   1.813   1.292  0.00  0.00    -0.097 F 
ATOM      8  F1  UNL d   1      -1.737   2.080   3.892  0.00  0.00    -0.096 F 
ATOM      9  I   UNL d   1      -2.922  -0.017   5.999  0.00  0.00    -0.060 I 
ATOM     10  F2  UNL d   1      -2.976  -2.512   3.995  0.00  0.00    -0.096 F 
ATOM     11  F3  UNL d   1      -2.257  -2.747   1.394  0.00  0.00    -0.097 F 
ATOM     12  F4  UNL d   1      -1.281  -0.594   0.033  0.00  0.00    -0.092 F 
ENDROOT
TORSDOF 0
ENDMDL
