MODEL 1
REMARK minimizedAffinity 19.0878735
REMARK minimizedRMSD -1
REMARK  0 active torsions:
REMARK  status: ('A' for Active; 'I' for Inactive)
ROOT
ATOM      1  C   UNL d   1       2.389   2.856  -3.755  0.00  0.00     0.124 A 
ATOM      2  C1  UNL d   1       3.579   3.394  -4.223  0.00  0.00     0.062 A 
ATOM      3  C2  UNL d   1       4.612   3.687  -3.337  0.00  0.00     0.162 A 
ATOM      4  C3  UNL d   1       4.459   3.441  -1.972  0.00  0.00    -0.034 A 
ATOM      5  C4  UNL d   1       3.258   2.901  -1.508  0.00  0.00     0.162 A 
ATOM      6  C5  UNL d   1       2.229   2.610  -2.398  0.00  0.00     0.062 A 
ATOM      7  F   UNL d   1       1.079   2.091  -1.944  0.00  0.00    -0.097 F 
ATOM      8  F1  UNL d   1       3.077   2.652  -0.203  0.00  0.00    -0.096 F 
ATOM      9  I   UNL d   1       6.000   3.877  -0.643  0.00  0.00    -0.060 I 
ATOM     10  F2  UNL d   1       5.751   4.206  -3.817  0.00  0.00    -0.096 F 
ATOM     11  F3  UNL d   1       3.736   3.633  -5.533  0.00  0.00    -0.097 F 
ATOM     12  F4  UNL d   1       1.396   2.576  -4.610  0.00  0.00    -0.092 F 
ENDROOT
TORSDOF 0
ENDMDL
