MODEL 1
REMARK minimizedAffinity 7.32837915
REMARK minimizedRMSD -1
REMARK  0 active torsions:
REMARK  status: ('A' for Active; 'I' for Inactive)
ROOT
ATOM      1  C   UNL d   1      -3.170   0.881   2.929  0.00  0.00     0.077 C 
ATOM      2  C1  UNL d   1      -1.998  -0.018   2.668  0.00  0.00    -0.074 A 
ATOM      3  C2  UNL d   1      -2.047  -0.989   1.663  0.00  0.00    -0.005 A 
ATOM      4  C3  UNL d   1      -0.946  -1.811   1.425  0.00  0.00     0.006 A 
ATOM      5  C4  UNL d   1       0.213  -1.671   2.190  0.00  0.00    -0.005 A 
ATOM      6  C5  UNL d   1       0.281  -0.705   3.199  0.00  0.00    -0.074 A 
ATOM      7  C6  UNL d   1       1.523  -0.535   4.022  0.00  0.00     0.077 C 
ATOM      8  C7  UNL d   1      -0.827   0.122   3.426  0.00  0.00    -0.001 A 
ENDROOT
TORSDOF 0
ENDMDL
