MODEL 1
REMARK minimizedAffinity -3.88234472
REMARK minimizedRMSD -1
REMARK  0 active torsions:
REMARK  status: ('A' for Active; 'I' for Inactive)
ROOT
ATOM      1  C   UNL d   1      -3.082   1.927  -5.063  0.00  0.00     0.077 C 
ATOM      2  C1  UNL d   1      -2.756   0.668  -4.317  0.00  0.00    -0.074 A 
ATOM      3  C2  UNL d   1      -3.439  -0.523  -4.583  0.00  0.00    -0.005 A 
ATOM      4  C3  UNL d   1      -3.118  -1.689  -3.887  0.00  0.00     0.006 A 
ATOM      5  C4  UNL d   1      -2.112  -1.675  -2.920  0.00  0.00    -0.005 A 
ATOM      6  C5  UNL d   1      -1.418  -0.494  -2.641  0.00  0.00    -0.074 A 
ATOM      7  C6  UNL d   1      -0.327  -0.464  -1.612  0.00  0.00     0.077 C 
ATOM      8  C7  UNL d   1      -1.741   0.672  -3.349  0.00  0.00    -0.001 A 
ENDROOT
TORSDOF 0
ENDMDL
