MODEL 1
REMARK minimizedAffinity 5.45822191
REMARK minimizedRMSD -1
REMARK  0 active torsions:
REMARK  status: ('A' for Active; 'I' for Inactive)
ROOT
ATOM      1  C   UNL d   1      -1.481  -1.997   0.880  0.00  0.00     0.077 C 
ATOM      2  C1  UNL d   1      -1.377  -0.868   1.862  0.00  0.00    -0.074 A 
ATOM      3  C2  UNL d   1      -0.151  -0.536   2.448  0.00  0.00    -0.005 A 
ATOM      4  C3  UNL d   1      -0.067   0.523   3.352  0.00  0.00     0.006 A 
ATOM      5  C4  UNL d   1      -1.206   1.259   3.679  0.00  0.00    -0.005 A 
ATOM      6  C5  UNL d   1      -2.440   0.942   3.103  0.00  0.00    -0.074 A 
ATOM      7  C6  UNL d   1      -3.673   1.730   3.437  0.00  0.00     0.077 C 
ATOM      8  C7  UNL d   1      -2.515  -0.118   2.190  0.00  0.00    -0.001 A 
ENDROOT
TORSDOF 0
ENDMDL
