MODEL 1
REMARK minimizedAffinity -0.485692114
REMARK minimizedRMSD -1
REMARK  0 active torsions:
REMARK  status: ('A' for Active; 'I' for Inactive)
ROOT
ATOM      1  C   UNL d   1      -3.474   1.519   3.649  0.00  0.00     0.077 C 
ATOM      2  C1  UNL d   1      -2.307   0.651   3.283  0.00  0.00    -0.074 A 
ATOM      3  C2  UNL d   1      -1.105   0.724   3.995  0.00  0.00    -0.005 A 
ATOM      4  C3  UNL d   1      -0.032  -0.097   3.649  0.00  0.00     0.006 A 
ATOM      5  C4  UNL d   1      -0.149  -0.998   2.590  0.00  0.00    -0.005 A 
ATOM      6  C5  UNL d   1      -1.343  -1.086   1.867  0.00  0.00    -0.074 A 
ATOM      7  C6  UNL d   1      -1.489  -2.055   0.733  0.00  0.00     0.077 C 
ATOM      8  C7  UNL d   1      -2.419  -0.262   2.225  0.00  0.00    -0.001 A 
ENDROOT
TORSDOF 0
ENDMDL
