MODEL 1
REMARK minimizedAffinity 9.93487835
REMARK minimizedRMSD -1
REMARK  0 active torsions:
REMARK  status: ('A' for Active; 'I' for Inactive)
ROOT
ATOM      1  O1  BZF d   1       4.645   2.379  -0.062  0.00  0.00    -0.204 OA
ATOM      2  C2  BZF d   1       5.861   1.726  -0.100  0.00  0.00     0.174 A 
ATOM      3  C3  BZF d   1       5.687   0.389  -0.081  0.00  0.00    -0.012 A 
ATOM      4  C3A BZF d   1       4.270   0.194  -0.120  0.00  0.00    -0.107 A 
ATOM      5  C4  BZF d   1       3.475  -0.917  -0.139  0.00  0.00     0.055 A 
ATOM      6  C5  BZF d   1       2.125  -0.764  -0.103  0.00  0.00    -0.016 A 
ATOM      7  C6  BZF d   1       1.537   0.483  -0.043  0.00  0.00     0.022 A 
ATOM      8  C7  BZF d   1       2.284   1.614  -0.028  0.00  0.00     0.029 A 
ATOM      9  C7A BZF d   1       3.648   1.463  -0.097  0.00  0.00     0.058 A 
ENDROOT
TORSDOF 0
ENDMDL
