MODEL 1
REMARK minimizedAffinity 11.2430315
REMARK minimizedRMSD -1
REMARK  0 active torsions:
REMARK  status: ('A' for Active; 'I' for Inactive)
ROOT
ATOM      1  O1  BZF d   1      -0.127   1.394   4.973  0.00  0.00    -0.204 OA
ATOM      2  C2  BZF d   1       0.595   0.301   4.533  0.00  0.00     0.174 A 
ATOM      3  C3  BZF d   1       1.452   0.657   3.554  0.00  0.00    -0.012 A 
ATOM      4  C3A BZF d   1       1.319   2.076   3.435  0.00  0.00    -0.107 A 
ATOM      5  C4  BZF d   1       1.920   3.012   2.643  0.00  0.00     0.055 A 
ATOM      6  C5  BZF d   1       1.512   4.306   2.723  0.00  0.00    -0.016 A 
ATOM      7  C6  BZF d   1       0.503   4.697   3.579  0.00  0.00     0.022 A 
ATOM      8  C7  BZF d   1      -0.120   3.806   4.387  0.00  0.00     0.029 A 
ATOM      9  C7A BZF d   1       0.313   2.503   4.332  0.00  0.00     0.058 A 
ENDROOT
TORSDOF 0
ENDMDL
