MODEL 1
REMARK minimizedAffinity 13.593153
REMARK minimizedRMSD -1
REMARK  0 active torsions:
REMARK  status: ('A' for Active; 'I' for Inactive)
ROOT
ATOM      1  O1  BZF d   1       4.128   2.301  -2.165  0.00  0.00    -0.204 OA
ATOM      2  C2  BZF d   1       5.341   2.720  -1.653  0.00  0.00     0.174 A 
ATOM      3  C3  BZF d   1       5.690   1.980  -0.581  0.00  0.00    -0.012 A 
ATOM      4  C3A BZF d   1       4.672   0.980  -0.467  0.00  0.00    -0.107 A 
ATOM      5  C4  BZF d   1       4.470  -0.060   0.394  0.00  0.00     0.055 A 
ATOM      6  C5  BZF d   1       3.339  -0.804   0.278  0.00  0.00    -0.016 A 
ATOM      7  C6  BZF d   1       2.387  -0.533  -0.684  0.00  0.00     0.022 A 
ATOM      8  C7  BZF d   1       2.546   0.485  -1.564  0.00  0.00     0.029 A 
ATOM      9  C7A BZF d   1       3.704   1.218  -1.470  0.00  0.00     0.058 A 
ENDROOT
TORSDOF 0
ENDMDL
