MODEL 1
REMARK minimizedAffinity 0.516639948
REMARK minimizedRMSD -1
REMARK  0 active torsions:
REMARK  status: ('A' for Active; 'I' for Inactive)
ROOT
ATOM      1  O1  BZF d   1      -3.774   5.998   5.140  0.00  0.00    -0.204 OA
ATOM      2  C2  BZF d   1      -5.024   5.977   5.727  0.00  0.00     0.174 A 
ATOM      3  C3  BZF d   1      -5.993   5.995   4.788  0.00  0.00    -0.012 A 
ATOM      4  C3A BZF d   1      -5.305   5.935   3.536  0.00  0.00    -0.107 A 
ATOM      5  C4  BZF d   1      -5.722   5.906   2.236  0.00  0.00     0.055 A 
ATOM      6  C5  BZF d   1      -4.793   5.923   1.243  0.00  0.00    -0.016 A 
ATOM      7  C6  BZF d   1      -3.442   5.973   1.515  0.00  0.00     0.022 A 
ATOM      8  C7  BZF d   1      -2.980   5.998   2.789  0.00  0.00     0.029 A 
ATOM      9  C7A BZF d   1      -3.914   5.948   3.794  0.00  0.00     0.058 A 
ENDROOT
TORSDOF 0
ENDMDL
