MODEL 1
REMARK minimizedAffinity 2.12001586
REMARK minimizedRMSD -1
REMARK  0 active torsions:
REMARK  status: ('A' for Active; 'I' for Inactive)
ROOT
ATOM      1  O1  BZF d   1      -3.675   6.000   5.021  0.00  0.00    -0.204 OA
ATOM      2  C2  BZF d   1      -4.971   6.000   5.500  0.00  0.00     0.174 A 
ATOM      3  C3  BZF d   1      -5.857   6.000   4.483  0.00  0.00    -0.012 A 
ATOM      4  C3A BZF d   1      -5.065   5.907   3.295  0.00  0.00    -0.107 A 
ATOM      5  C4  BZF d   1      -5.372   5.850   1.965  0.00  0.00     0.055 A 
ATOM      6  C5  BZF d   1      -4.363   5.838   1.055  0.00  0.00    -0.016 A 
ATOM      7  C6  BZF d   1      -3.038   5.888   1.439  0.00  0.00     0.022 A 
ATOM      8  C7  BZF d   1      -2.685   5.941   2.746  0.00  0.00     0.029 A 
ATOM      9  C7A BZF d   1      -3.702   5.920   3.669  0.00  0.00     0.058 A 
ENDROOT
TORSDOF 0
ENDMDL
