MODEL 1
REMARK minimizedAffinity -0.0407435521
REMARK minimizedRMSD -1
REMARK  0 active torsions:
REMARK  status: ('A' for Active; 'I' for Inactive)
ROOT
ATOM      1  O1  BZF d   1      -3.758   5.986   5.141  0.00  0.00    -0.204 OA
ATOM      2  C2  BZF d   1      -5.028   5.867   5.671  0.00  0.00     0.174 A 
ATOM      3  C3  BZF d   1      -5.950   5.774   4.691  0.00  0.00    -0.012 A 
ATOM      4  C3A BZF d   1      -5.201   5.746   3.472  0.00  0.00    -0.107 A 
ATOM      5  C4  BZF d   1      -5.552   5.647   2.156  0.00  0.00     0.055 A 
ATOM      6  C5  BZF d   1      -4.583   5.723   1.206  0.00  0.00    -0.016 A 
ATOM      7  C6  BZF d   1      -3.256   5.901   1.536  0.00  0.00     0.022 A 
ATOM      8  C7  BZF d   1      -2.858   5.999   2.828  0.00  0.00     0.029 A 
ATOM      9  C7A BZF d   1      -3.831   5.891   3.791  0.00  0.00     0.058 A 
ENDROOT
TORSDOF 0
ENDMDL
