MODEL 1
REMARK minimizedAffinity 6.26350307
REMARK minimizedRMSD -1
REMARK  0 active torsions:
REMARK  status: ('A' for Active; 'I' for Inactive)
ROOT
ATOM      1  O1  BZF d   1      -1.476  -4.645   4.443  0.00  0.00    -0.204 OA
ATOM      2  C2  BZF d   1      -1.417  -5.762   5.254  0.00  0.00     0.174 A 
ATOM      3  C3  BZF d   1      -0.252  -5.799   5.933  0.00  0.00    -0.012 A 
ATOM      4  C3A BZF d   1       0.421  -4.584   5.592  0.00  0.00    -0.107 A 
ATOM      5  C4  BZF d   1       1.617  -4.038   5.961  0.00  0.00     0.055 A 
ATOM      6  C5  BZF d   1       2.015  -2.871   5.389  0.00  0.00    -0.016 A 
ATOM      7  C6  BZF d   1       1.246  -2.227   4.442  0.00  0.00     0.022 A 
ATOM      8  C7  BZF d   1       0.050  -2.728   4.047  0.00  0.00     0.029 A 
ATOM      9  C7A BZF d   1      -0.370  -3.890   4.647  0.00  0.00     0.058 A 
ENDROOT
TORSDOF 0
ENDMDL
