MODEL 1
REMARK minimizedAffinity 5.26647186
REMARK minimizedRMSD -1
REMARK  0 active torsions:
REMARK  status: ('A' for Active; 'I' for Inactive)
ROOT
ATOM      1  O1  BZF d   1      -0.543  -0.873   4.839  0.00  0.00    -0.204 OA
ATOM      2  C2  BZF d   1       0.496   0.005   4.594  0.00  0.00     0.174 A 
ATOM      3  C3  BZF d   1       1.683  -0.565   4.886  0.00  0.00    -0.012 A 
ATOM      4  C3A BZF d   1       1.373  -1.912   5.255  0.00  0.00    -0.107 A 
ATOM      5  C4  BZF d   1       2.134  -2.980   5.637  0.00  0.00     0.055 A 
ATOM      6  C5  BZF d   1       1.516  -4.135   6.000  0.00  0.00    -0.016 A 
ATOM      7  C6  BZF d   1       0.142  -4.255   5.998  0.00  0.00     0.022 A 
ATOM      8  C7  BZF d   1      -0.655  -3.225   5.623  0.00  0.00     0.029 A 
ATOM      9  C7A BZF d   1      -0.033  -2.067   5.224  0.00  0.00     0.058 A 
ENDROOT
TORSDOF 0
ENDMDL
