MODEL 1
REMARK minimizedAffinity 3.36596799
REMARK minimizedRMSD -1
REMARK  0 active torsions:
REMARK  status: ('A' for Active; 'I' for Inactive)
ROOT
ATOM      1  O1  BZF d   1      -5.994   1.732  -1.664  0.00  0.00    -0.204 OA
ATOM      2  C2  BZF d   1      -5.780   0.768  -0.698  0.00  0.00     0.174 A 
ATOM      3  C3  BZF d   1      -4.805  -0.082  -1.079  0.00  0.00    -0.012 A 
ATOM      4  C3A BZF d   1      -4.319   0.435  -2.321  0.00  0.00    -0.107 A 
ATOM      5  C4  BZF d   1      -3.339   0.037  -3.185  0.00  0.00     0.055 A 
ATOM      6  C5  BZF d   1      -3.165   0.719  -4.347  0.00  0.00    -0.016 A 
ATOM      7  C6  BZF d   1      -3.956   1.799  -4.680  0.00  0.00     0.022 A 
ATOM      8  C7  BZF d   1      -4.938   2.234  -3.853  0.00  0.00     0.029 A 
ATOM      9  C7A BZF d   1      -5.094   1.567  -2.663  0.00  0.00     0.058 A 
ENDROOT
TORSDOF 0
ENDMDL
