MODEL 1
REMARK minimizedAffinity -4.24062109
REMARK minimizedRMSD -1
REMARK  1 active torsions:
REMARK  status: ('A' for Active; 'I' for Inactive)
REMARK    1  A    between atoms: C1_2  and  C2_3 
ROOT
ATOM      1  C2  UNL d   1      -0.146  -0.058  -3.853  0.00  0.00    -0.077 A 
ATOM      2  C3  UNL d   1       0.902   0.850  -4.059  0.00  0.00     0.002 A 
ATOM      3  C4  UNL d   1       1.927   0.971  -3.118  0.00  0.00     0.002 A 
ATOM      4  C5  UNL d   1       1.915   0.186  -1.967  0.00  0.00    -0.004 A 
ATOM      5  C6  UNL d   1       0.876  -0.718  -1.752  0.00  0.00     0.002 A 
ATOM      6  C7  UNL d   1      -0.150  -0.840  -2.691  0.00  0.00     0.002 A 
ENDROOT
BRANCH   1   7
ATOM      7  C1  UNL d   1      -1.225  -0.226  -4.890  0.00  0.00     0.055 C 
ATOM      8  C   UNL d   1      -1.377  -1.683  -5.300  0.00  0.00     0.019 C 
ENDBRANCH   1   7
TORSDOF 1
ENDMDL
