MODEL 1
REMARK minimizedAffinity -5.11525106
REMARK minimizedRMSD -1
REMARK  1 active torsions:
REMARK  status: ('A' for Active; 'I' for Inactive)
REMARK    1  A    between atoms: C1_2  and  C2_3 
ROOT
ATOM      1  C2  UNL d   1      -0.713   0.551   1.203  0.00  0.00    -0.077 A 
ATOM      2  C3  UNL d   1      -1.258   0.082  -0.001  0.00  0.00     0.002 A 
ATOM      3  C4  UNL d   1      -0.436  -0.496  -0.971  0.00  0.00     0.002 A 
ATOM      4  C5  UNL d   1       0.934  -0.613  -0.745  0.00  0.00    -0.004 A 
ATOM      5  C6  UNL d   1       1.486  -0.148   0.448  0.00  0.00     0.002 A 
ATOM      6  C7  UNL d   1       0.666   0.431   1.418  0.00  0.00     0.002 A 
ENDROOT
BRANCH   1   7
ATOM      7  C1  UNL d   1      -1.605   1.129   2.270  0.00  0.00     0.055 C 
ATOM      8  C   UNL d   1      -0.790   1.742   3.400  0.00  0.00     0.019 C 
ENDBRANCH   1   7
TORSDOF 1
ENDMDL
