MODEL 1
REMARK minimizedAffinity -3.6162467
REMARK minimizedRMSD -1
REMARK  1 active torsions:
REMARK  status: ('A' for Active; 'I' for Inactive)
REMARK    1  A    between atoms: C1_2  and  C2_3 
ROOT
ATOM      1  C2  UNL d   1       0.643  -0.396  -2.550  0.00  0.00    -0.077 A 
ATOM      2  C3  UNL d   1       0.003  -0.999  -3.642  0.00  0.00     0.002 A 
ATOM      3  C4  UNL d   1       0.399  -0.699  -4.947  0.00  0.00     0.002 A 
ATOM      4  C5  UNL d   1       1.438   0.201  -5.172  0.00  0.00    -0.004 A 
ATOM      5  C6  UNL d   1       2.080   0.807  -4.092  0.00  0.00     0.002 A 
ATOM      6  C7  UNL d   1       1.685   0.509  -2.788  0.00  0.00     0.002 A 
ENDROOT
BRANCH   1   7
ATOM      7  C1  UNL d   1       0.251  -0.756  -1.141  0.00  0.00     0.055 C 
ATOM      8  C   UNL d   1      -1.016  -0.028  -0.716  0.00  0.00     0.019 C 
ENDBRANCH   1   7
TORSDOF 1
ENDMDL
