MODEL 1
REMARK minimizedAffinity 3.82359815
REMARK minimizedRMSD -1
REMARK  0 active torsions:
REMARK  status: ('A' for Active; 'I' for Inactive)
ROOT
ATOM      1  C1  DEN d   1      -1.781   2.201   1.837  0.00  0.00     0.130 A 
ATOM      2  C2  DEN d   1      -2.251   1.090   1.014  0.00  0.00    -0.031 A 
ATOM      3  C3  DEN d   1      -1.072   0.449   0.397  0.00  0.00     0.027 A 
ATOM      4  C4  DEN d   1       1.421   1.063   0.637  0.00  0.00     0.027 A 
ATOM      5  C5  DEN d   1       2.311   1.938   1.220  0.00  0.00    -0.003 A 
ATOM      6  C6  DEN d   1       1.900   2.975   2.016  0.00  0.00     0.001 A 
ATOM      7  C7  DEN d   1       0.566   3.135   2.287  0.00  0.00     0.017 A 
ATOM      8  C8  DEN d   1      -0.337   2.261   1.697  0.00  0.00    -0.094 A 
ATOM      9  C9  DEN d   1       0.099   1.212   0.905  0.00  0.00    -0.072 A 
ENDROOT
TORSDOF 0
ENDMDL
