MODEL 1
REMARK minimizedAffinity 9.17586327
REMARK minimizedRMSD -1
REMARK  0 active torsions:
REMARK  status: ('A' for Active; 'I' for Inactive)
ROOT
ATOM      1  C1  DEN d   1      -1.610   2.626   1.458  0.00  0.00     0.130 A 
ATOM      2  C2  DEN d   1      -0.380   3.411   1.409  0.00  0.00    -0.031 A 
ATOM      3  C3  DEN d   1       0.735   2.494   1.098  0.00  0.00     0.027 A 
ATOM      4  C4  DEN d   1       0.675  -0.051   0.685  0.00  0.00     0.027 A 
ATOM      5  C5  DEN d   1      -0.139  -1.161   0.632  0.00  0.00    -0.003 A 
ATOM      6  C6  DEN d   1      -1.484  -1.092   0.882  0.00  0.00     0.001 A 
ATOM      7  C7  DEN d   1      -2.063   0.119   1.153  0.00  0.00     0.017 A 
ATOM      8  C8  DEN d   1      -1.248   1.242   1.215  0.00  0.00    -0.094 A 
ATOM      9  C9  DEN d   1       0.108   1.154   0.947  0.00  0.00    -0.072 A 
ENDROOT
TORSDOF 0
ENDMDL
