MODEL 1
REMARK minimizedAffinity 2.68521833
REMARK minimizedRMSD -1
REMARK  0 active torsions:
REMARK  status: ('A' for Active; 'I' for Inactive)
ROOT
ATOM      1  C1  DEN d   1      -1.639  -0.492   0.594  0.00  0.00     0.130 A 
ATOM      2  C2  DEN d   1      -2.973  -0.025   0.965  0.00  0.00    -0.031 A 
ATOM      3  C3  DEN d   1      -2.854   1.369   1.437  0.00  0.00     0.027 A 
ATOM      4  C4  DEN d   1      -0.746   2.844   1.626  0.00  0.00     0.027 A 
ATOM      5  C5  DEN d   1       0.618   2.881   1.441  0.00  0.00    -0.003 A 
ATOM      6  C6  DEN d   1       1.324   1.795   0.996  0.00  0.00     0.001 A 
ATOM      7  C7  DEN d   1       0.663   0.638   0.679  0.00  0.00     0.017 A 
ATOM      8  C8  DEN d   1      -0.712   0.591   0.870  0.00  0.00    -0.094 A 
ATOM      9  C9  DEN d   1      -1.410   1.703   1.309  0.00  0.00    -0.072 A 
ENDROOT
TORSDOF 0
ENDMDL
