MODEL 1
REMARK minimizedAffinity 9.66155434
REMARK minimizedRMSD -1
REMARK  0 active torsions:
REMARK  status: ('A' for Active; 'I' for Inactive)
ROOT
ATOM      1  C1  DEN d   1       2.526   3.775   3.965  0.00  0.00     0.130 A 
ATOM      2  C2  DEN d   1       3.426   3.250   2.942  0.00  0.00    -0.031 A 
ATOM      3  C3  DEN d   1       2.603   2.636   1.881  0.00  0.00     0.027 A 
ATOM      4  C4  DEN d   1       0.036   2.453   1.720  0.00  0.00     0.027 A 
ATOM      5  C5  DEN d   1      -1.152   2.742   2.355  0.00  0.00    -0.003 A 
ATOM      6  C6  DEN d   1      -1.196   3.360   3.576  0.00  0.00     0.001 A 
ATOM      7  C7  DEN d   1      -0.031   3.750   4.182  0.00  0.00     0.017 A 
ATOM      8  C8  DEN d   1       1.171   3.456   3.552  0.00  0.00    -0.094 A 
ATOM      9  C9  DEN d   1       1.194   2.841   2.311  0.00  0.00    -0.072 A 
ENDROOT
TORSDOF 0
ENDMDL
