MODEL 1
REMARK minimizedAffinity 10.7944002
REMARK minimizedRMSD -1
REMARK  0 active torsions:
REMARK  status: ('A' for Active; 'I' for Inactive)
ROOT
ATOM      1  C1  DEN d   1      -0.261   3.666   2.688  0.00  0.00     0.130 A 
ATOM      2  C2  DEN d   1       1.153   3.539   3.029  0.00  0.00    -0.031 A 
ATOM      3  C3  DEN d   1       1.706   2.400   2.270  0.00  0.00     0.027 A 
ATOM      4  C4  DEN d   1       0.517   0.830   0.604  0.00  0.00     0.027 A 
ATOM      5  C5  DEN d   1      -0.686   0.538   0.000  0.00  0.00    -0.003 A 
ATOM      6  C6  DEN d   1      -1.829   1.240   0.273  0.00  0.00     0.001 A 
ATOM      7  C7  DEN d   1      -1.785   2.300   1.140  0.00  0.00     0.017 A 
ATOM      8  C8  DEN d   1      -0.577   2.596   1.758  0.00  0.00    -0.094 A 
ATOM      9  C9  DEN d   1       0.571   1.882   1.460  0.00  0.00    -0.072 A 
ENDROOT
TORSDOF 0
ENDMDL
