MODEL 1
REMARK minimizedAffinity 6.07587147
REMARK minimizedRMSD -1
REMARK  0 active torsions:
REMARK  status: ('A' for Active; 'I' for Inactive)
ROOT
ATOM      1  C1  DEN d   1      -2.283   5.252  -3.827  0.00  0.00     0.130 A 
ATOM      2  C2  DEN d   1      -1.564   3.983  -3.888  0.00  0.00    -0.031 A 
ATOM      3  C3  DEN d   1      -2.401   3.019  -4.630  0.00  0.00     0.027 A 
ATOM      4  C4  DEN d   1      -4.726   3.368  -5.690  0.00  0.00     0.027 A 
ATOM      5  C5  DEN d   1      -5.745   4.274  -5.887  0.00  0.00    -0.003 A 
ATOM      6  C6  DEN d   1      -5.697   5.548  -5.388  0.00  0.00     0.001 A 
ATOM      7  C7  DEN d   1      -4.586   5.967  -4.703  0.00  0.00     0.017 A 
ATOM      8  C8  DEN d   1      -3.558   5.057  -4.493  0.00  0.00    -0.094 A 
ATOM      9  C9  DEN d   1      -3.621   3.777  -5.017  0.00  0.00    -0.072 A 
ENDROOT
TORSDOF 0
ENDMDL
