MODEL 1
REMARK minimizedAffinity 0.513786316
REMARK minimizedRMSD -1
REMARK  0 active torsions:
REMARK  status: ('A' for Active; 'I' for Inactive)
ROOT
ATOM      1  C1  DEN d   1      -4.620   5.952  -5.841  0.00  0.00     0.130 A 
ATOM      2  C2  DEN d   1      -5.633   4.900  -5.879  0.00  0.00    -0.031 A 
ATOM      3  C3  DEN d   1      -4.937   3.600  -5.949  0.00  0.00     0.027 A 
ATOM      4  C4  DEN d   1      -2.404   3.115  -5.999  0.00  0.00     0.027 A 
ATOM      5  C5  DEN d   1      -1.151   3.688  -5.998  0.00  0.00    -0.003 A 
ATOM      6  C6  DEN d   1      -0.969   5.045  -5.980  0.00  0.00     0.001 A 
ATOM      7  C7  DEN d   1      -2.057   5.875  -5.915  0.00  0.00     0.017 A 
ATOM      8  C8  DEN d   1      -3.323   5.305  -5.923  0.00  0.00    -0.094 A 
ATOM      9  C9  DEN d   1      -3.486   3.931  -5.930  0.00  0.00    -0.072 A 
ENDROOT
TORSDOF 0
ENDMDL
