MODEL 1
REMARK minimizedAffinity -3.03867936
REMARK minimizedRMSD -1
REMARK  0 active torsions:
REMARK  status: ('A' for Active; 'I' for Inactive)
ROOT
ATOM      1  C1  DEN d   1       0.856   0.352   0.595  0.00  0.00     0.130 A 
ATOM      2  C2  DEN d   1       1.389   1.559   1.221  0.00  0.00    -0.031 A 
ATOM      3  C3  DEN d   1       0.274   2.510   1.400  0.00  0.00     0.027 A 
ATOM      4  C4  DEN d   1      -2.213   2.231   0.778  0.00  0.00     0.027 A 
ATOM      5  C5  DEN d   1      -3.141   1.383   0.213  0.00  0.00    -0.003 A 
ATOM      6  C6  DEN d   1      -2.798   0.157  -0.291  0.00  0.00     0.001 A 
ATOM      7  C7  DEN d   1      -1.501  -0.276  -0.199  0.00  0.00     0.017 A 
ATOM      8  C8  DEN d   1      -0.559   0.575   0.363  0.00  0.00    -0.094 A 
ATOM      9  C9  DEN d   1      -0.928   1.807   0.877  0.00  0.00    -0.072 A 
ENDROOT
TORSDOF 0
ENDMDL
