MODEL 1
REMARK minimizedAffinity 3.62696958
REMARK minimizedRMSD -1
REMARK  0 active torsions:
REMARK  status: ('A' for Active; 'I' for Inactive)
ROOT
ATOM      1  C1  DEN d   1      -0.489  -3.367  -2.521  0.00  0.00     0.130 A 
ATOM      2  C2  DEN d   1      -1.606  -3.933  -1.770  0.00  0.00    -0.031 A 
ATOM      3  C3  DEN d   1      -1.664  -3.257  -0.458  0.00  0.00     0.027 A 
ATOM      4  C4  DEN d   1      -0.142  -1.396   0.476  0.00  0.00     0.027 A 
ATOM      5  C5  DEN d   1       0.951  -0.600   0.210  0.00  0.00    -0.003 A 
ATOM      6  C6  DEN d   1       1.654  -0.693  -0.962  0.00  0.00     0.001 A 
ATOM      7  C7  DEN d   1       1.246  -1.572  -1.930  0.00  0.00     0.017 A 
ATOM      8  C8  DEN d   1       0.151  -2.383  -1.666  0.00  0.00    -0.094 A 
ATOM      9  C9  DEN d   1      -0.555  -2.265  -0.481  0.00  0.00    -0.072 A 
ENDROOT
TORSDOF 0
ENDMDL
