MODEL 1
REMARK minimizedAffinity -0.258654058
REMARK minimizedRMSD -1
REMARK  0 active torsions:
REMARK  status: ('A' for Active; 'I' for Inactive)
ROOT
ATOM      1  C1  DEN d   1       1.833   3.588   2.657  0.00  0.00     0.130 A 
ATOM      2  C2  DEN d   1       3.221   3.223   2.387  0.00  0.00    -0.031 A 
ATOM      3  C3  DEN d   1       3.225   2.195   1.327  0.00  0.00     0.027 A 
ATOM      4  C4  DEN d   1       1.228   1.142   0.080  0.00  0.00     0.027 A 
ATOM      5  C5  DEN d   1      -0.145   1.124  -0.028  0.00  0.00    -0.003 A 
ATOM      6  C6  DEN d   1      -0.950   1.895   0.768  0.00  0.00     0.001 A 
ATOM      7  C7  DEN d   1      -0.386   2.751   1.677  0.00  0.00     0.017 A 
ATOM      8  C8  DEN d   1       0.997   2.769   1.797  0.00  0.00    -0.094 A 
ATOM      9  C9  DEN d   1       1.794   1.991   0.975  0.00  0.00    -0.072 A 
ENDROOT
TORSDOF 0
ENDMDL
