MODEL 1
REMARK minimizedAffinity 2.88118076
REMARK minimizedRMSD -1
REMARK  0 active torsions:
REMARK  status: ('A' for Active; 'I' for Inactive)
ROOT
ATOM      1  C1  DEN d   1      -0.708  -2.873  -2.612  0.00  0.00     0.130 A 
ATOM      2  C2  DEN d   1      -1.867  -3.391  -1.890  0.00  0.00    -0.031 A 
ATOM      3  C3  DEN d   1      -1.860  -2.805  -0.535  0.00  0.00     0.027 A 
ATOM      4  C4  DEN d   1      -0.180  -1.150   0.508  0.00  0.00     0.027 A 
ATOM      5  C5  DEN d   1       0.976  -0.434   0.286  0.00  0.00    -0.003 A 
ATOM      6  C6  DEN d   1       1.664  -0.506  -0.896  0.00  0.00     0.001 A 
ATOM      7  C7  DEN d   1       1.177  -1.277  -1.918  0.00  0.00     0.017 A 
ATOM      8  C8  DEN d   1       0.017  -2.008  -1.699  0.00  0.00    -0.094 A 
ATOM      9  C9  DEN d   1      -0.671  -1.912  -0.501  0.00  0.00    -0.072 A 
ENDROOT
TORSDOF 0
ENDMDL
