MODEL 1
REMARK minimizedAffinity -1.41241634
REMARK minimizedRMSD -1
REMARK  0 active torsions:
REMARK  status: ('A' for Active; 'I' for Inactive)
ROOT
ATOM      1  C1  DEN d   1      -5.490   3.661  -5.998  0.00  0.00     0.130 A 
ATOM      2  C2  DEN d   1      -5.966   5.041  -5.967  0.00  0.00    -0.031 A 
ATOM      3  C3  DEN d   1      -4.787   5.930  -5.954  0.00  0.00     0.027 A 
ATOM      4  C4  DEN d   1      -2.284   5.307  -5.984  0.00  0.00     0.027 A 
ATOM      5  C5  DEN d   1      -1.388   4.261  -5.999  0.00  0.00    -0.003 A 
ATOM      6  C6  DEN d   1      -1.793   2.952  -5.980  0.00  0.00     0.001 A 
ATOM      7  C7  DEN d   1      -3.130   2.655  -5.991  0.00  0.00     0.017 A 
ATOM      8  C8  DEN d   1      -4.040   3.704  -5.969  0.00  0.00    -0.094 A 
ATOM      9  C9  DEN d   1      -3.611   5.020  -6.000  0.00  0.00    -0.072 A 
ENDROOT
TORSDOF 0
ENDMDL
