MODEL 1
REMARK minimizedAffinity 6.03274584
REMARK minimizedRMSD -1
REMARK  0 active torsions:
REMARK  status: ('A' for Active; 'I' for Inactive)
ROOT
ATOM      1  C1  DEN d   1       3.523   2.917  -4.346  0.00  0.00     0.130 A 
ATOM      2  C2  DEN d   1       4.021   2.790  -2.980  0.00  0.00    -0.031 A 
ATOM      3  C3  DEN d   1       3.651   1.450  -2.481  0.00  0.00     0.027 A 
ATOM      4  C4  DEN d   1       2.365  -0.432  -3.688  0.00  0.00     0.027 A 
ATOM      5  C5  DEN d   1       1.728  -0.785  -4.857  0.00  0.00    -0.003 A 
ATOM      6  C6  DEN d   1       1.616   0.075  -5.917  0.00  0.00     0.001 A 
ATOM      7  C7  DEN d   1       2.189   1.318  -5.846  0.00  0.00     0.017 A 
ATOM      8  C8  DEN d   1       2.826   1.684  -4.667  0.00  0.00    -0.094 A 
ATOM      9  C9  DEN d   1       2.939   0.796  -3.612  0.00  0.00    -0.072 A 
ENDROOT
TORSDOF 0
ENDMDL
