MODEL 1
REMARK minimizedAffinity 4.45825148
REMARK minimizedRMSD -1
REMARK  0 active torsions:
REMARK  status: ('A' for Active; 'I' for Inactive)
ROOT
ATOM      1  C1  DEN d   1       1.733   2.944   1.214  0.00  0.00     0.130 A 
ATOM      2  C2  DEN d   1       2.628   1.905   0.713  0.00  0.00    -0.031 A 
ATOM      3  C3  DEN d   1       1.805   0.742   0.324  0.00  0.00     0.027 A 
ATOM      4  C4  DEN d   1      -0.755   0.453   0.443  0.00  0.00     0.027 A 
ATOM      5  C5  DEN d   1      -1.937   1.059   0.809  0.00  0.00    -0.003 A 
ATOM      6  C6  DEN d   1      -1.975   2.311   1.362  0.00  0.00     0.001 A 
ATOM      7  C7  DEN d   1      -0.813   3.017   1.524  0.00  0.00     0.017 A 
ATOM      8  C8  DEN d   1       0.384   2.411   1.165  0.00  0.00    -0.094 A 
ATOM      9  C9  DEN d   1       0.400   1.149   0.595  0.00  0.00    -0.072 A 
ENDROOT
TORSDOF 0
ENDMDL
