MODEL 1
REMARK minimizedAffinity -1.14083135
REMARK minimizedRMSD -1
REMARK  0 active torsions:
REMARK  status: ('A' for Active; 'I' for Inactive)
ROOT
ATOM      1  C1  DEN d   1       1.738   0.457   0.565  0.00  0.00     0.130 A 
ATOM      2  C2  DEN d   1       2.652   1.478   1.070  0.00  0.00    -0.031 A 
ATOM      3  C3  DEN d   1       1.843   2.618   1.548  0.00  0.00     0.027 A 
ATOM      4  C4  DEN d   1      -0.721   2.896   1.559  0.00  0.00     0.027 A 
ATOM      5  C5  DEN d   1      -1.916   2.301   1.221  0.00  0.00    -0.003 A 
ATOM      6  C6  DEN d   1      -1.975   1.074   0.614  0.00  0.00     0.001 A 
ATOM      7  C7  DEN d   1      -0.819   0.382   0.368  0.00  0.00     0.017 A 
ATOM      8  C8  DEN d   1       0.391   0.979   0.699  0.00  0.00    -0.094 A 
ATOM      9  C9  DEN d   1       0.429   2.215   1.323  0.00  0.00    -0.072 A 
ENDROOT
TORSDOF 0
ENDMDL
