MODEL 1
REMARK minimizedAffinity 4.66551256
REMARK minimizedRMSD -1
REMARK  0 active torsions:
REMARK  status: ('A' for Active; 'I' for Inactive)
ROOT
ATOM      1  C1  DEN d   1      -2.269   2.550   1.604  0.00  0.00     0.130 A 
ATOM      2  C2  DEN d   1      -2.669   1.438   0.746  0.00  0.00    -0.031 A 
ATOM      3  C3  DEN d   1      -1.448   0.711   0.343  0.00  0.00     0.027 A 
ATOM      4  C4  DEN d   1       1.008   1.194   0.966  0.00  0.00     0.027 A 
ATOM      5  C5  DEN d   1       1.844   2.038   1.661  0.00  0.00    -0.003 A 
ATOM      6  C6  DEN d   1       1.376   3.124   2.353  0.00  0.00     0.001 A 
ATOM      7  C7  DEN d   1       0.029   3.368   2.401  0.00  0.00     0.017 A 
ATOM      8  C8  DEN d   1      -0.821   2.525   1.697  0.00  0.00    -0.094 A 
ATOM      9  C9  DEN d   1      -0.328   1.425   1.014  0.00  0.00    -0.072 A 
ENDROOT
TORSDOF 0
ENDMDL
