MODEL 1
REMARK minimizedAffinity -1.92059147
REMARK minimizedRMSD -1
REMARK  1 active torsions:
REMARK  status: ('A' for Active; 'I' for Inactive)
REMARK    1  A    between atoms: C1_2  and  C2_3 
ROOT
ATOM      1  C2  UNL d   1      -1.588   2.936  -1.051  0.00  0.00    -0.077 A 
ATOM      2  C3  UNL d   1      -0.314   3.131  -1.602  0.00  0.00     0.002 A 
ATOM      3  C4  UNL d   1       0.801   3.269  -0.772  0.00  0.00     0.002 A 
ATOM      4  C5  UNL d   1       0.653   3.209   0.612  0.00  0.00    -0.004 A 
ATOM      5  C6  UNL d   1      -0.611   3.017   1.170  0.00  0.00     0.002 A 
ATOM      6  C7  UNL d   1      -1.726   2.880   0.342  0.00  0.00     0.002 A 
ENDROOT
BRANCH   1   7
ATOM      7  C1  UNL d   1      -2.784   2.737  -1.945  0.00  0.00     0.055 C 
ATOM      8  C   UNL d   1      -3.290   1.303  -1.882  0.00  0.00     0.019 C 
ENDBRANCH   1   7
TORSDOF 1
ENDMDL
