MODEL 1
REMARK minimizedAffinity 12.7720108
REMARK minimizedRMSD -1
REMARK  1 active torsions:
REMARK  status: ('A' for Active; 'I' for Inactive)
REMARK    1  A    between atoms: C1_2  and  C2_3 
ROOT
ATOM      1  C2  UNL d   1       4.251  -5.588  -3.036  0.00  0.00    -0.077 A 
ATOM      2  C3  UNL d   1       3.184  -5.979  -3.856  0.00  0.00     0.002 A 
ATOM      3  C4  UNL d   1       3.331  -6.000  -5.245  0.00  0.00     0.002 A 
ATOM      4  C5  UNL d   1       4.545  -5.635  -5.824  0.00  0.00    -0.004 A 
ATOM      5  C6  UNL d   1       5.612  -5.243  -5.016  0.00  0.00     0.002 A 
ATOM      6  C7  UNL d   1       5.466  -5.221  -3.629  0.00  0.00     0.002 A 
ENDROOT
BRANCH   1   7
ATOM      7  C1  UNL d   1       4.110  -5.612  -1.536  0.00  0.00     0.055 C 
ATOM      8  C   UNL d   1       5.254  -4.869  -0.861  0.00  0.00     0.019 C 
ENDBRANCH   1   7
TORSDOF 1
ENDMDL
