MODEL 1
REMARK minimizedAffinity 5.17194939
REMARK minimizedRMSD -1
REMARK  1 active torsions:
REMARK  status: ('A' for Active; 'I' for Inactive)
REMARK    1  A    between atoms: C1_2  and  C2_3 
ROOT
ATOM      1  C2  UNL d   1      -1.993   2.231  -2.160  0.00  0.00    -0.077 A 
ATOM      2  C3  UNL d   1      -2.101   1.487  -0.977  0.00  0.00     0.002 A 
ATOM      3  C4  UNL d   1      -1.153   1.632   0.038  0.00  0.00     0.002 A 
ATOM      4  C5  UNL d   1      -0.093   2.523  -0.118  0.00  0.00    -0.004 A 
ATOM      5  C6  UNL d   1       0.024   3.266  -1.292  0.00  0.00     0.002 A 
ATOM      6  C7  UNL d   1      -0.922   3.122  -2.308  0.00  0.00     0.002 A 
ENDROOT
BRANCH   1   7
ATOM      7  C1  UNL d   1      -3.042   2.113  -3.235  0.00  0.00     0.055 C 
ATOM      8  C   UNL d   1      -3.935   0.903  -3.005  0.00  0.00     0.019 C 
ENDBRANCH   1   7
TORSDOF 1
ENDMDL
