MODEL 1
REMARK minimizedAffinity 8.44064236
REMARK minimizedRMSD -1
REMARK  1 active torsions:
REMARK  status: ('A' for Active; 'I' for Inactive)
REMARK    1  A    between atoms: C1_2  and  C2_3 
ROOT
ATOM      1  C2  UNL d   1      -1.689   2.525  -1.944  0.00  0.00    -0.077 A 
ATOM      2  C3  UNL d   1      -0.318   2.250  -2.033  0.00  0.00     0.002 A 
ATOM      3  C4  UNL d   1       0.499   2.360  -0.906  0.00  0.00     0.002 A 
ATOM      4  C5  UNL d   1      -0.047   2.741   0.318  0.00  0.00    -0.004 A 
ATOM      5  C6  UNL d   1      -1.410   3.018   0.416  0.00  0.00     0.002 A 
ATOM      6  C7  UNL d   1      -2.228   2.910  -0.709  0.00  0.00     0.002 A 
ENDROOT
BRANCH   1   7
ATOM      7  C1  UNL d   1      -2.581   2.360  -3.147  0.00  0.00     0.055 C 
ATOM      8  C   UNL d   1      -3.533   1.186  -2.973  0.00  0.00     0.019 C 
ENDBRANCH   1   7
TORSDOF 1
ENDMDL
