MODEL 1
REMARK minimizedAffinity 3.63759089
REMARK minimizedRMSD -1
REMARK  1 active torsions:
REMARK  status: ('A' for Active; 'I' for Inactive)
REMARK    1  A    between atoms: C1_2  and  C2_3 
ROOT
ATOM      1  C2  UNL d   1      -0.333   1.932   0.332  0.00  0.00    -0.077 A 
ATOM      2  C3  UNL d   1      -0.338   1.284  -0.912  0.00  0.00     0.002 A 
ATOM      3  C4  UNL d   1       0.683   0.392  -1.248  0.00  0.00     0.002 A 
ATOM      4  C5  UNL d   1       1.712   0.137  -0.345  0.00  0.00    -0.004 A 
ATOM      5  C6  UNL d   1       1.727   0.778   0.894  0.00  0.00     0.002 A 
ATOM      6  C7  UNL d   1       0.709   1.670   1.231  0.00  0.00     0.002 A 
ENDROOT
BRANCH   1   7
ATOM      7  C1  UNL d   1      -1.459   2.856   0.716  0.00  0.00     0.055 C 
ATOM      8  C   UNL d   1      -2.050   2.477   2.066  0.00  0.00     0.019 C 
ENDBRANCH   1   7
TORSDOF 1
ENDMDL
