MODEL 1
REMARK minimizedAffinity -2.69138718
REMARK minimizedRMSD -1
REMARK  1 active torsions:
REMARK  status: ('A' for Active; 'I' for Inactive)
REMARK    1  A    between atoms: C1_2  and  C2_3 
ROOT
ATOM      1  C2  UNL d   1       0.782   4.324  -0.084  0.00  0.00    -0.077 A 
ATOM      2  C3  UNL d   1       2.046   4.883   0.152  0.00  0.00     0.002 A 
ATOM      3  C4  UNL d   1       2.844   4.410   1.196  0.00  0.00     0.002 A 
ATOM      4  C5  UNL d   1       2.388   3.375   2.010  0.00  0.00    -0.004 A 
ATOM      5  C6  UNL d   1       1.131   2.815   1.784  0.00  0.00     0.002 A 
ATOM      6  C7  UNL d   1       0.332   3.286   0.742  0.00  0.00     0.002 A 
ENDROOT
BRANCH   1   7
ATOM      7  C1  UNL d   1      -0.058   4.799  -1.241  0.00  0.00     0.055 C 
ATOM      8  C   UNL d   1       0.749   5.672  -2.190  0.00  0.00     0.019 C 
ENDBRANCH   1   7
TORSDOF 1
ENDMDL
