MODEL 1
REMARK minimizedAffinity 12.6326523
REMARK minimizedRMSD -1
REMARK  0 active torsions:
REMARK  status: ('A' for Active; 'I' for Inactive)
ROOT
ATOM      1  N1  IND d   1       3.426  -2.587   0.535  0.00  0.00    -0.196 N 
ATOM      2  C2  IND d   1       3.063  -3.758  -0.070  0.00  0.00     0.054 A 
ATOM      3  C3  IND d   1       2.135  -3.527  -1.026  0.00  0.00    -0.031 A 
ATOM      4  C4  IND d   1       1.143  -1.293  -1.835  0.00  0.00     0.051 A 
ATOM      5  C5  IND d   1       1.138   0.046  -1.561  0.00  0.00    -0.031 A 
ATOM      6  C6  IND d   1       1.913   0.587  -0.556  0.00  0.00     0.015 A 
ATOM      7  C7  IND d   1       2.735  -0.193   0.209  0.00  0.00    -0.016 A 
ATOM      8  C8  IND d   1       2.737  -1.554  -0.062  0.00  0.00    -0.047 A 
ATOM      9  C9  IND d   1       1.920  -2.115  -1.053  0.00  0.00    -0.096 A 
ATOM     10  HN1 IND d   1       3.989  -2.509   1.179  0.00  0.00     0.298 HD
ENDROOT
TORSDOF 0
ENDMDL
