MODEL 1
REMARK minimizedAffinity 24.3473988
REMARK minimizedRMSD -1
REMARK  0 active torsions:
REMARK  status: ('A' for Active; 'I' for Inactive)
ROOT
ATOM      1  N1  IND d   1       2.982  -3.640   0.202  0.00  0.00    -0.196 N 
ATOM      2  C2  IND d   1       2.201  -4.694  -0.186  0.00  0.00     0.054 A 
ATOM      3  C3  IND d   1       1.279  -4.289  -1.088  0.00  0.00    -0.031 A 
ATOM      4  C4  IND d   1       0.936  -1.967  -2.147  0.00  0.00     0.051 A 
ATOM      5  C5  IND d   1       1.382  -0.677  -2.081  0.00  0.00    -0.031 A 
ATOM      6  C6  IND d   1       2.406  -0.301  -1.236  0.00  0.00     0.015 A 
ATOM      7  C7  IND d   1       3.033  -1.209  -0.430  0.00  0.00    -0.016 A 
ATOM      8  C8  IND d   1       2.579  -2.519  -0.489  0.00  0.00    -0.047 A 
ATOM      9  C9  IND d   1       1.511  -2.897  -1.313  0.00  0.00    -0.096 A 
ATOM     10  HN1 IND d   1       3.617  -3.673   0.780  0.00  0.00     0.298 HD
ENDROOT
TORSDOF 0
ENDMDL
