MODEL 1
REMARK minimizedAffinity 14.835784
REMARK minimizedRMSD -1
REMARK  0 active torsions:
REMARK  status: ('A' for Active; 'I' for Inactive)
ROOT
ATOM      1  N1  IND d   1       1.969  -3.882   0.138  0.00  0.00    -0.196 N 
ATOM      2  C2  IND d   1       2.094  -2.522   0.201  0.00  0.00     0.054 A 
ATOM      3  C3  IND d   1       3.399  -2.168   0.169  0.00  0.00    -0.031 A 
ATOM      4  C4  IND d   1       5.490  -3.647  -0.086  0.00  0.00     0.051 A 
ATOM      5  C5  IND d   1       5.884  -4.954  -0.145  0.00  0.00    -0.031 A 
ATOM      6  C6  IND d   1       4.975  -5.992  -0.114  0.00  0.00     0.015 A 
ATOM      7  C7  IND d   1       3.631  -5.759  -0.035  0.00  0.00    -0.016 A 
ATOM      8  C8  IND d   1       3.228  -4.433   0.032  0.00  0.00    -0.047 A 
ATOM      9  C9  IND d   1       4.148  -3.377   0.044  0.00  0.00    -0.096 A 
ATOM     10  HN1 IND d   1       1.230  -4.320   0.160  0.00  0.00     0.298 HD
ENDROOT
TORSDOF 0
ENDMDL
