MODEL 1
REMARK minimizedAffinity 20.8721542
REMARK minimizedRMSD -1
REMARK  0 active torsions:
REMARK  status: ('A' for Active; 'I' for Inactive)
ROOT
ATOM      1  N1  IND d   1      -3.266   1.355   1.838  0.00  0.00    -0.196 N 
ATOM      2  C2  IND d   1      -3.989   1.570   2.978  0.00  0.00     0.054 A 
ATOM      3  C3  IND d   1      -3.171   1.618   4.053  0.00  0.00    -0.031 A 
ATOM      4  C4  IND d   1      -0.603   1.470   4.161  0.00  0.00     0.051 A 
ATOM      5  C5  IND d   1       0.496   1.239   3.383  0.00  0.00    -0.031 A 
ATOM      6  C6  IND d   1       0.396   1.032   2.022  0.00  0.00     0.015 A 
ATOM      7  C7  IND d   1      -0.812   1.062   1.384  0.00  0.00    -0.016 A 
ATOM      8  C8  IND d   1      -1.931   1.289   2.172  0.00  0.00    -0.047 A 
ATOM      9  C9  IND d   1      -1.840   1.457   3.560  0.00  0.00    -0.096 A 
ATOM     10  HN1 IND d   1      -3.590   1.274   1.046  0.00  0.00     0.298 HD
ENDROOT
TORSDOF 0
ENDMDL
