MODEL 1
REMARK minimizedAffinity 28.3718624
REMARK minimizedRMSD -1
REMARK  0 active torsions:
REMARK  status: ('A' for Active; 'I' for Inactive)
ROOT
ATOM      1  N1  IND d   1       0.935   1.598   3.482  0.00  0.00    -0.196 N 
ATOM      2  C2  IND d   1      -0.240   0.935   3.258  0.00  0.00     0.054 A 
ATOM      3  C3  IND d   1      -0.243   0.388   2.022  0.00  0.00    -0.031 A 
ATOM      4  C4  IND d   1       1.612   0.368   0.237  0.00  0.00     0.051 A 
ATOM      5  C5  IND d   1       2.853   0.871  -0.032  0.00  0.00    -0.031 A 
ATOM      6  C6  IND d   1       3.534   1.656   0.876  0.00  0.00     0.015 A 
ATOM      7  C7  IND d   1       3.001   1.959   2.097  0.00  0.00    -0.016 A 
ATOM      8  C8  IND d   1       1.737   1.455   2.371  0.00  0.00    -0.047 A 
ATOM      9  C9  IND d   1       1.023   0.693   1.437  0.00  0.00    -0.096 A 
ATOM     10  HN1 IND d   1       1.139   2.031   4.196  0.00  0.00     0.298 HD
ENDROOT
TORSDOF 0
ENDMDL
