MODEL 1
REMARK minimizedAffinity 19.6577225
REMARK minimizedRMSD -1
REMARK  0 active torsions:
REMARK  status: ('A' for Active; 'I' for Inactive)
ROOT
ATOM      1  N1  IND d   1       2.373   3.806  -1.810  0.00  0.00    -0.196 N 
ATOM      2  C2  IND d   1       2.772   4.092  -0.534  0.00  0.00     0.054 A 
ATOM      3  C3  IND d   1       2.975   2.951   0.162  0.00  0.00    -0.031 A 
ATOM      4  C4  IND d   1       2.813   0.505  -0.625  0.00  0.00     0.051 A 
ATOM      5  C5  IND d   1       2.450  -0.260  -1.698  0.00  0.00    -0.031 A 
ATOM      6  C6  IND d   1       2.036   0.303  -2.888  0.00  0.00     0.015 A 
ATOM      7  C7  IND d   1       1.982   1.658  -3.054  0.00  0.00    -0.016 A 
ATOM      8  C8  IND d   1       2.343   2.438  -1.964  0.00  0.00    -0.047 A 
ATOM      9  C9  IND d   1       2.723   1.872  -0.740  0.00  0.00    -0.096 A 
ATOM     10  HN1 IND d   1       2.175   4.384  -2.415  0.00  0.00     0.298 HD
ENDROOT
TORSDOF 0
ENDMDL
