MODEL 1
REMARK minimizedAffinity 20.8806705
REMARK minimizedRMSD -1
REMARK  0 active torsions:
REMARK  status: ('A' for Active; 'I' for Inactive)
ROOT
ATOM      1  N1  IND d   1       2.000   4.279  -2.944  0.00  0.00    -0.196 N 
ATOM      2  C2  IND d   1       2.563   4.893  -1.860  0.00  0.00     0.054 A 
ATOM      3  C3  IND d   1       3.118   3.976  -1.036  0.00  0.00    -0.031 A 
ATOM      4  C4  IND d   1       3.306   1.424  -1.319  0.00  0.00     0.051 A 
ATOM      5  C5  IND d   1       2.911   0.398  -2.130  0.00  0.00    -0.031 A 
ATOM      6  C6  IND d   1       2.179   0.618  -3.279  0.00  0.00     0.015 A 
ATOM      7  C7  IND d   1       1.823   1.879  -3.667  0.00  0.00    -0.016 A 
ATOM      8  C8  IND d   1       2.217   2.923  -2.842  0.00  0.00    -0.047 A 
ATOM      9  C9  IND d   1       2.924   2.702  -1.652  0.00  0.00    -0.096 A 
ATOM     10  HN1 IND d   1       1.580   4.674  -3.582  0.00  0.00     0.298 HD
ENDROOT
TORSDOF 0
ENDMDL
