MODEL 1
REMARK minimizedAffinity 26.3528824
REMARK minimizedRMSD -1
REMARK  0 active torsions:
REMARK  status: ('A' for Active; 'I' for Inactive)
ROOT
ATOM      1  N1  IND d   1       4.810  -2.516   0.340  0.00  0.00    -0.196 N 
ATOM      2  C2  IND d   1       3.992  -3.565   0.023  0.00  0.00     0.054 A 
ATOM      3  C3  IND d   1       2.755  -3.119  -0.290  0.00  0.00    -0.031 A 
ATOM      4  C4  IND d   1       1.878  -0.703  -0.447  0.00  0.00     0.051 A 
ATOM      5  C5  IND d   1       2.244   0.593  -0.214  0.00  0.00    -0.031 A 
ATOM      6  C6  IND d   1       3.511   0.926   0.221  0.00  0.00     0.015 A 
ATOM      7  C7  IND d   1       4.466  -0.028   0.430  0.00  0.00    -0.016 A 
ATOM      8  C8  IND d   1       4.096  -1.346   0.202  0.00  0.00    -0.047 A 
ATOM      9  C9  IND d   1       2.799  -1.694  -0.199  0.00  0.00    -0.096 A 
ATOM     10  HN1 IND d   1       5.632  -2.577   0.584  0.00  0.00     0.298 HD
ENDROOT
TORSDOF 0
ENDMDL
