MODEL 1
REMARK minimizedAffinity 16.1188507
REMARK minimizedRMSD -1
REMARK  0 active torsions:
REMARK  status: ('A' for Active; 'I' for Inactive)
ROOT
ATOM      1  N1  IND d   1      -3.160   2.170   2.488  0.00  0.00    -0.196 N 
ATOM      2  C2  IND d   1      -3.742   1.039   2.990  0.00  0.00     0.054 A 
ATOM      3  C3  IND d   1      -2.802   0.102   3.248  0.00  0.00    -0.031 A 
ATOM      4  C4  IND d   1      -0.242   0.247   3.020  0.00  0.00     0.051 A 
ATOM      5  C5  IND d   1       0.755   1.066   2.569  0.00  0.00    -0.031 A 
ATOM      6  C6  IND d   1       0.492   2.322   2.060  0.00  0.00     0.015 A 
ATOM      7  C7  IND d   1      -0.782   2.811   1.993  0.00  0.00    -0.016 A 
ATOM      8  C8  IND d   1      -1.797   1.979   2.444  0.00  0.00    -0.047 A 
ATOM      9  C9  IND d   1      -1.540   0.687   2.922  0.00  0.00    -0.096 A 
ATOM     10  HN1 IND d   1      -3.577   2.880   2.241  0.00  0.00     0.298 HD
ENDROOT
TORSDOF 0
ENDMDL
