MODEL 1
REMARK minimizedAffinity -1.42795575
REMARK minimizedRMSD -1
REMARK  0 active torsions:
REMARK  status: ('A' for Active; 'I' for Inactive)
ROOT
ATOM      1  N1  IND d   1       2.856  -2.504  -0.443  0.00  0.00    -0.196 N 
ATOM      2  C2  IND d   1       2.192  -1.599  -1.223  0.00  0.00     0.054 A 
ATOM      3  C3  IND d   1       1.747  -2.190  -2.354  0.00  0.00    -0.031 A 
ATOM      4  C4  IND d   1       1.906  -4.653  -3.085  0.00  0.00     0.051 A 
ATOM      5  C5  IND d   1       2.453  -5.851  -2.721  0.00  0.00    -0.031 A 
ATOM      6  C6  IND d   1       3.175  -5.999  -1.554  0.00  0.00     0.015 A 
ATOM      7  C7  IND d   1       3.367  -4.951  -0.698  0.00  0.00    -0.016 A 
ATOM      8  C8  IND d   1       2.819  -3.731  -1.068  0.00  0.00    -0.047 A 
ATOM      9  C9  IND d   1       2.122  -3.565  -2.272  0.00  0.00    -0.096 A 
ATOM     10  HN1 IND d   1       3.233  -2.336   0.311  0.00  0.00     0.298 HD
ENDROOT
TORSDOF 0
ENDMDL
