MODEL 1
REMARK minimizedAffinity 14.5057516
REMARK minimizedRMSD -1
REMARK  0 active torsions:
REMARK  status: ('A' for Active; 'I' for Inactive)
ROOT
ATOM      1  N1  IND d   1       0.012   5.991   0.841  0.00  0.00    -0.196 N 
ATOM      2  C2  IND d   1       1.062   5.973   1.717  0.00  0.00     0.054 A 
ATOM      3  C3  IND d   1       2.234   5.935   1.045  0.00  0.00    -0.031 A 
ATOM      4  C4  IND d   1       2.668   6.000  -1.492  0.00  0.00     0.051 A 
ATOM      5  C5  IND d   1       2.022   5.981  -2.696  0.00  0.00    -0.031 A 
ATOM      6  C6  IND d   1       0.645   5.968  -2.784  0.00  0.00     0.015 A 
ATOM      7  C7  IND d   1      -0.141   5.984  -1.667  0.00  0.00    -0.016 A 
ATOM      8  C8  IND d   1       0.512   5.995  -0.442  0.00  0.00    -0.047 A 
ATOM      9  C9  IND d   1       1.909   5.966  -0.346  0.00  0.00    -0.096 A 
ATOM     10  HN1 IND d   1      -0.820   5.998   1.056  0.00  0.00     0.298 HD
ENDROOT
TORSDOF 0
ENDMDL
