MODEL 1
REMARK minimizedAffinity 14.8519392
REMARK minimizedRMSD -1
REMARK  0 active torsions:
REMARK  status: ('A' for Active; 'I' for Inactive)
ROOT
ATOM      1  N1  IND d   1       0.826   1.681   2.628  0.00  0.00    -0.196 N 
ATOM      2  C2  IND d   1      -0.485   1.306   2.534  0.00  0.00     0.054 A 
ATOM      3  C3  IND d   1      -0.692   0.603   1.397  0.00  0.00    -0.031 A 
ATOM      4  C4  IND d   1       0.997  -0.135  -0.400  0.00  0.00     0.051 A 
ATOM      5  C5  IND d   1       2.306   0.000  -0.768  0.00  0.00    -0.031 A 
ATOM      6  C6  IND d   1       3.208   0.715  -0.006  0.00  0.00     0.015 A 
ATOM      7  C7  IND d   1       2.834   1.314   1.163  0.00  0.00    -0.016 A 
ATOM      8  C8  IND d   1       1.504   1.185   1.537  0.00  0.00    -0.047 A 
ATOM      9  C9  IND d   1       0.575   0.496   0.746  0.00  0.00    -0.096 A 
ATOM     10  HN1 IND d   1       1.169   2.149   3.263  0.00  0.00     0.298 HD
ENDROOT
TORSDOF 0
ENDMDL
