MODEL 1
REMARK minimizedAffinity 17.4991035
REMARK minimizedRMSD -1
REMARK  0 active torsions:
REMARK  status: ('A' for Active; 'I' for Inactive)
ROOT
ATOM      1  N1  IND d   1      -5.268   3.005   4.064  0.00  0.00    -0.196 N 
ATOM      2  C2  IND d   1      -5.241   3.488   5.343  0.00  0.00     0.054 A 
ATOM      3  C3  IND d   1      -4.157   3.018   6.000  0.00  0.00    -0.031 A 
ATOM      4  C4  IND d   1      -2.242   1.528   5.140  0.00  0.00     0.051 A 
ATOM      5  C5  IND d   1      -1.845   0.807   4.049  0.00  0.00    -0.031 A 
ATOM      6  C6  IND d   1      -2.582   0.783   2.883  0.00  0.00     0.015 A 
ATOM      7  C7  IND d   1      -3.743   1.493   2.760  0.00  0.00    -0.016 A 
ATOM      8  C8  IND d   1      -4.153   2.220   3.868  0.00  0.00    -0.047 A 
ATOM      9  C9  IND d   1      -3.431   2.214   5.068  0.00  0.00    -0.096 A 
ATOM     10  HN1 IND d   1      -5.879   3.165   3.480  0.00  0.00     0.298 HD
ENDROOT
TORSDOF 0
ENDMDL
