MODEL 1
REMARK minimizedAffinity 18.3493938
REMARK minimizedRMSD -1
REMARK  0 active torsions:
REMARK  status: ('A' for Active; 'I' for Inactive)
ROOT
ATOM      1  N1  IND d   1       0.018  -4.872  -4.311  0.00  0.00    -0.196 N 
ATOM      2  C2  IND d   1       0.134  -4.767  -2.953  0.00  0.00     0.054 A 
ATOM      3  C3  IND d   1      -0.957  -4.162  -2.433  0.00  0.00    -0.031 A 
ATOM      4  C4  IND d   1      -3.097  -3.353  -3.614  0.00  0.00     0.051 A 
ATOM      5  C5  IND d   1      -3.651  -3.200  -4.854  0.00  0.00    -0.031 A 
ATOM      6  C6  IND d   1      -2.998  -3.608  -5.999  0.00  0.00     0.015 A 
ATOM      7  C7  IND d   1      -1.766  -4.197  -5.946  0.00  0.00    -0.016 A 
ATOM      8  C8  IND d   1      -1.198  -4.347  -4.689  0.00  0.00    -0.047 A 
ATOM      9  C9  IND d   1      -1.837  -3.896  -3.527  0.00  0.00    -0.096 A 
ATOM     10  HN1 IND d   1       0.606  -5.210  -4.840  0.00  0.00     0.298 HD
ENDROOT
TORSDOF 0
ENDMDL
