MODEL 1
REMARK minimizedAffinity 12.0529327
REMARK minimizedRMSD -1
REMARK  0 active torsions:
REMARK  status: ('A' for Active; 'I' for Inactive)
ROOT
ATOM      1  N1  IND d   1      -3.745   1.267   2.570  0.00  0.00    -0.196 N 
ATOM      2  C2  IND d   1      -2.832   0.370   3.049  0.00  0.00     0.054 A 
ATOM      3  C3  IND d   1      -2.643   0.553   4.375  0.00  0.00    -0.031 A 
ATOM      4  C4  IND d   1      -3.802   2.200   5.979  0.00  0.00     0.051 A 
ATOM      5  C5  IND d   1      -4.682   3.245   5.999  0.00  0.00    -0.031 A 
ATOM      6  C6  IND d   1      -5.310   3.692   4.854  0.00  0.00     0.015 A 
ATOM      7  C7  IND d   1      -5.088   3.099   3.643  0.00  0.00    -0.016 A 
ATOM      8  C8  IND d   1      -4.189   2.042   3.618  0.00  0.00    -0.047 A 
ATOM      9  C9  IND d   1      -3.517   1.613   4.769  0.00  0.00    -0.096 A 
ATOM     10  HN1 IND d   1      -3.999   1.336   1.751  0.00  0.00     0.298 HD
ENDROOT
TORSDOF 0
ENDMDL
