MODEL 1
REMARK minimizedAffinity 19.2917938
REMARK minimizedRMSD -1
REMARK  0 active torsions:
REMARK  status: ('A' for Active; 'I' for Inactive)
ROOT
ATOM      1  N1  IND d   1       4.185   1.453  -1.486  0.00  0.00    -0.196 N 
ATOM      2  C2  IND d   1       4.797   0.859  -0.418  0.00  0.00     0.054 A 
ATOM      3  C3  IND d   1       4.034  -0.151   0.059  0.00  0.00    -0.031 A 
ATOM      4  C4  IND d   1       1.795  -1.066  -0.822  0.00  0.00     0.051 A 
ATOM      5  C5  IND d   1       0.825  -0.825  -1.754  0.00  0.00    -0.031 A 
ATOM      6  C6  IND d   1       0.929   0.206  -2.664  0.00  0.00     0.015 A 
ATOM      7  C7  IND d   1       2.017   1.032  -2.684  0.00  0.00    -0.016 A 
ATOM      8  C8  IND d   1       3.000   0.795  -1.734  0.00  0.00    -0.047 A 
ATOM      9  C9  IND d   1       2.881  -0.223  -0.780  0.00  0.00    -0.096 A 
ATOM     10  HN1 IND d   1       4.489   2.125  -1.928  0.00  0.00     0.298 HD
ENDROOT
TORSDOF 0
ENDMDL
