MODEL 1
REMARK minimizedAffinity 0.372779429
REMARK minimizedRMSD -1
REMARK  1 active torsions:
REMARK  status: ('A' for Active; 'I' for Inactive)
REMARK    1  A    between atoms: C1_2  and  C2_3 
ROOT
ATOM      1  C2  UNL d   1       1.320  -4.082   0.697  0.00  0.00    -0.076 A 
ATOM      2  C3  UNL d   1       1.029  -4.140  -0.677  0.00  0.00     0.004 A 
ATOM      3  C4  UNL d   1       0.173  -3.213  -1.269  0.00  0.00    -0.003 A 
ATOM      4  C5  UNL d   1      -0.406  -2.213  -0.496  0.00  0.00     0.000 A 
ATOM      5  C6  UNL d   1      -0.115  -2.130   0.866  0.00  0.00     0.000 A 
ATOM      6  C7  UNL d   1       0.759  -3.046   1.474  0.00  0.00    -0.073 A 
ATOM      7  C8  UNL d   1       1.033  -2.914   2.947  0.00  0.00     0.078 C 
ENDROOT
BRANCH   1   8
ATOM      8  C1  UNL d   1       2.235  -5.131   1.289  0.00  0.00     0.053 C 
ATOM      9  C   UNL d   1       3.191  -5.717   0.261  0.00  0.00     0.018 C 
ENDBRANCH   1   8
TORSDOF 1
ENDMDL
