MODEL 1
REMARK minimizedAffinity 8.13379097
REMARK minimizedRMSD -1
REMARK  1 active torsions:
REMARK  status: ('A' for Active; 'I' for Inactive)
REMARK    1  A    between atoms: C1_2  and  C2_3 
ROOT
ATOM      1  C2  UNL d   1       2.538   0.807   1.786  0.00  0.00    -0.076 A 
ATOM      2  C3  UNL d   1       2.014  -0.487   1.622  0.00  0.00     0.004 A 
ATOM      3  C4  UNL d   1       1.779  -1.310   2.722  0.00  0.00    -0.003 A 
ATOM      4  C5  UNL d   1       2.065  -0.853   4.003  0.00  0.00     0.000 A 
ATOM      5  C6  UNL d   1       2.569   0.435   4.186  0.00  0.00     0.000 A 
ATOM      6  C7  UNL d   1       2.796   1.284   3.089  0.00  0.00    -0.073 A 
ATOM      7  C8  UNL d   1       3.346   2.660   3.343  0.00  0.00     0.078 C 
ENDROOT
BRANCH   1   8
ATOM      8  C1  UNL d   1       2.798   1.645   0.554  0.00  0.00     0.053 C 
ATOM      9  C   UNL d   1       1.837   2.818   0.434  0.00  0.00     0.018 C 
ENDBRANCH   1   8
TORSDOF 1
ENDMDL
