MODEL 1
REMARK minimizedAffinity 1.30757272
REMARK minimizedRMSD -1
REMARK  1 active torsions:
REMARK  status: ('A' for Active; 'I' for Inactive)
REMARK    1  A    between atoms: C1_2  and  C2_3 
ROOT
ATOM      1  C2  UNL d   1       0.950  -0.736   1.102  0.00  0.00    -0.076 A 
ATOM      2  C3  UNL d   1       1.301  -1.357   2.313  0.00  0.00     0.004 A 
ATOM      3  C4  UNL d   1       2.322  -0.844   3.112  0.00  0.00    -0.003 A 
ATOM      4  C5  UNL d   1       3.008   0.298   2.712  0.00  0.00     0.000 A 
ATOM      5  C6  UNL d   1       2.660   0.936   1.522  0.00  0.00     0.000 A 
ATOM      6  C7  UNL d   1       1.623   0.442   0.713  0.00  0.00    -0.073 A 
ATOM      7  C8  UNL d   1       1.294   1.167  -0.563  0.00  0.00     0.078 C 
ENDROOT
BRANCH   1   8
ATOM      8  C1  UNL d   1      -0.148  -1.353   0.264  0.00  0.00     0.053 C 
ATOM      9  C   UNL d   1       0.077  -2.836   0.009  0.00  0.00     0.018 C 
ENDBRANCH   1   8
TORSDOF 1
ENDMDL
