MODEL 1
REMARK minimizedAffinity 6.76506996
REMARK minimizedRMSD -1
REMARK  1 active torsions:
REMARK  status: ('A' for Active; 'I' for Inactive)
REMARK    1  A    between atoms: C1_2  and  C2_3 
ROOT
ATOM      1  C2  UNL d   1      -1.140  -1.656  -0.074  0.00  0.00    -0.076 A 
ATOM      2  C3  UNL d   1      -1.743  -2.149  -1.244  0.00  0.00     0.004 A 
ATOM      3  C4  UNL d   1      -1.280  -3.313  -1.855  0.00  0.00    -0.003 A 
ATOM      4  C5  UNL d   1      -0.206  -4.004  -1.304  0.00  0.00     0.000 A 
ATOM      5  C6  UNL d   1       0.393  -3.539  -0.134  0.00  0.00     0.000 A 
ATOM      6  C7  UNL d   1      -0.072  -2.376   0.503  0.00  0.00    -0.073 A 
ATOM      7  C8  UNL d   1       0.615  -1.917   1.760  0.00  0.00     0.078 C 
ENDROOT
BRANCH   1   8
ATOM      8  C1  UNL d   1      -1.669  -0.374   0.528  0.00  0.00     0.053 C 
ATOM      9  C   UNL d   1      -1.121   0.864  -0.165  0.00  0.00     0.018 C 
ENDBRANCH   1   8
TORSDOF 1
ENDMDL
