MODEL 1
REMARK minimizedAffinity 1.35877609
REMARK minimizedRMSD -1
REMARK  1 active torsions:
REMARK  status: ('A' for Active; 'I' for Inactive)
REMARK    1  A    between atoms: C1_2  and  C2_3 
ROOT
ATOM      1  C2  UNL d   1       0.988   0.570   0.653  0.00  0.00    -0.076 A 
ATOM      2  C3  UNL d   1       0.804  -0.811   0.839  0.00  0.00     0.004 A 
ATOM      3  C4  UNL d   1      -0.433  -1.408   0.605  0.00  0.00    -0.003 A 
ATOM      4  C5  UNL d   1      -1.507  -0.634   0.179  0.00  0.00     0.000 A 
ATOM      5  C6  UNL d   1      -1.338   0.735  -0.028  0.00  0.00     0.000 A 
ATOM      6  C7  UNL d   1      -0.092   1.350   0.189  0.00  0.00    -0.073 A 
ATOM      7  C8  UNL d   1       0.032   2.830  -0.044  0.00  0.00     0.078 C 
ENDROOT
BRANCH   1   8
ATOM      8  C1  UNL d   1       2.346   1.166   0.950  0.00  0.00     0.053 C 
ATOM      9  C   UNL d   1       2.591   1.345   2.440  0.00  0.00     0.018 C 
ENDBRANCH   1   8
TORSDOF 1
ENDMDL
