MODEL 1
REMARK minimizedAffinity -2.41759658
REMARK minimizedRMSD -1
REMARK  1 active torsions:
REMARK  status: ('A' for Active; 'I' for Inactive)
REMARK    1  A    between atoms: C1_2  and  C2_3 
ROOT
ATOM      1  C2  UNL d   1       0.173  -1.992   0.971  0.00  0.00    -0.076 A 
ATOM      2  C3  UNL d   1       0.798  -3.166   0.513  0.00  0.00     0.004 A 
ATOM      3  C4  UNL d   1       0.242  -3.917  -0.521  0.00  0.00    -0.003 A 
ATOM      4  C5  UNL d   1      -0.946  -3.507  -1.115  0.00  0.00     0.000 A 
ATOM      5  C6  UNL d   1      -1.569  -2.335  -0.686  0.00  0.00     0.000 A 
ATOM      6  C7  UNL d   1      -1.014  -1.558   0.345  0.00  0.00    -0.073 A 
ATOM      7  C8  UNL d   1      -1.733  -0.307   0.772  0.00  0.00     0.078 C 
ENDROOT
BRANCH   1   8
ATOM      8  C1  UNL d   1       0.808  -1.233   2.115  0.00  0.00     0.053 C 
ATOM      9  C   UNL d   1       1.312  -2.153   3.216  0.00  0.00     0.018 C 
ENDBRANCH   1   8
TORSDOF 1
ENDMDL
