MODEL 1
REMARK minimizedAffinity -0.122198686
REMARK minimizedRMSD -1
REMARK  0 active torsions:
REMARK  status: ('A' for Active; 'I' for Inactive)
ROOT
ATOM      1  N1  IND d   1       0.617   1.918   0.074  0.00  0.00    -0.196 N 
ATOM      2  C2  IND d   1       0.732   2.770   1.137  0.00  0.00     0.054 A 
ATOM      3  C3  IND d   1       1.556   2.246   2.073  0.00  0.00    -0.031 A 
ATOM      4  C4  IND d   1       2.903   0.052   2.022  0.00  0.00     0.051 A 
ATOM      5  C5  IND d   1       3.095  -1.077   1.277  0.00  0.00    -0.031 A 
ATOM      6  C6  IND d   1       2.461  -1.268   0.066  0.00  0.00     0.015 A 
ATOM      7  C7  IND d   1       1.615  -0.328  -0.451  0.00  0.00    -0.016 A 
ATOM      8  C8  IND d   1       1.412   0.817   0.307  0.00  0.00    -0.047 A 
ATOM      9  C9  IND d   1       2.020   0.997   1.556  0.00  0.00    -0.096 A 
ATOM     10  HN1 IND d   1       0.130   2.048  -0.622  0.00  0.00     0.298 HD
ENDROOT
TORSDOF 0
ENDMDL
