MODEL 1
REMARK minimizedAffinity -2.40715146
REMARK minimizedRMSD -1
REMARK  0 active torsions:
REMARK  status: ('A' for Active; 'I' for Inactive)
ROOT
ATOM      1  N1  IND d   1      -0.132   2.069   0.313  0.00  0.00    -0.196 N 
ATOM      2  C2  IND d   1       0.858   2.407   1.193  0.00  0.00     0.054 A 
ATOM      3  C3  IND d   1       1.682   1.355   1.401  0.00  0.00    -0.031 A 
ATOM      4  C4  IND d   1       1.653  -0.983   0.324  0.00  0.00     0.051 A 
ATOM      5  C5  IND d   1       0.918  -1.774  -0.514  0.00  0.00    -0.031 A 
ATOM      6  C6  IND d   1      -0.227  -1.314  -1.133  0.00  0.00     0.015 A 
ATOM      7  C7  IND d   1      -0.674  -0.037  -0.946  0.00  0.00    -0.016 A 
ATOM      8  C8  IND d   1       0.066   0.767  -0.091  0.00  0.00    -0.047 A 
ATOM      9  C9  IND d   1       1.205   0.293   0.574  0.00  0.00    -0.096 A 
ATOM     10  HN1 IND d   1      -0.771   2.583   0.055  0.00  0.00     0.298 HD
ENDROOT
TORSDOF 0
ENDMDL
