MODEL 1
REMARK minimizedAffinity 2.15912557
REMARK minimizedRMSD -1
REMARK  0 active torsions:
REMARK  status: ('A' for Active; 'I' for Inactive)
ROOT
ATOM      1  N1  IND d   1      -0.366   1.514  -0.432  0.00  0.00    -0.196 N 
ATOM      2  C2  IND d   1       0.665   2.129   0.222  0.00  0.00     0.054 A 
ATOM      3  C3  IND d   1       1.641   1.236   0.505  0.00  0.00    -0.031 A 
ATOM      4  C4  IND d   1       1.799  -1.261  -0.101  0.00  0.00     0.051 A 
ATOM      5  C5  IND d   1       1.083  -2.280  -0.664  0.00  0.00    -0.031 A 
ATOM      6  C6  IND d   1      -0.176  -2.082  -1.192  0.00  0.00     0.015 A 
ATOM      7  C7  IND d   1      -0.765  -0.849  -1.186  0.00  0.00    -0.016 A 
ATOM      8  C8  IND d   1      -0.044   0.187  -0.609  0.00  0.00    -0.047 A 
ATOM      9  C9  IND d   1       1.216  -0.017  -0.034  0.00  0.00    -0.096 A 
ATOM     10  HN1 IND d   1      -1.094   1.894  -0.689  0.00  0.00     0.298 HD
ENDROOT
TORSDOF 0
ENDMDL
