MODEL 1
REMARK minimizedAffinity -2.54704332
REMARK minimizedRMSD -1
REMARK  0 active torsions:
REMARK  status: ('A' for Active; 'I' for Inactive)
ROOT
ATOM      1  N1  IND d   1       3.055   1.199  -0.031  0.00  0.00    -0.196 N 
ATOM      2  C2  IND d   1       2.100   1.131   0.945  0.00  0.00     0.054 A 
ATOM      3  C3  IND d   1       1.612  -0.126   1.038  0.00  0.00    -0.031 A 
ATOM      4  C4  IND d   1       2.306  -2.250  -0.241  0.00  0.00     0.051 A 
ATOM      5  C5  IND d   1       3.111  -2.680  -1.258  0.00  0.00    -0.031 A 
ATOM      6  C6  IND d   1       3.957  -1.823  -1.930  0.00  0.00     0.015 A 
ATOM      7  C7  IND d   1       4.039  -0.499  -1.600  0.00  0.00    -0.016 A 
ATOM      8  C8  IND d   1       3.218  -0.057  -0.573  0.00  0.00    -0.047 A 
ATOM      9  C9  IND d   1       2.326  -0.914   0.085  0.00  0.00    -0.096 A 
ATOM     10  HN1 IND d   1       3.482   1.907  -0.267  0.00  0.00     0.298 HD
ENDROOT
TORSDOF 0
ENDMDL
