MODEL 1
REMARK minimizedAffinity 6.79071331
REMARK minimizedRMSD -1
REMARK  0 active torsions:
REMARK  status: ('A' for Active; 'I' for Inactive)
ROOT
ATOM      1  N1  IND d   1       0.266   0.955  -0.028  0.00  0.00    -0.196 N 
ATOM      2  C2  IND d   1      -0.981   1.182  -0.542  0.00  0.00     0.054 A 
ATOM      3  C3  IND d   1      -1.481   0.047  -1.080  0.00  0.00    -0.031 A 
ATOM      4  C4  IND d   1      -0.471  -2.320  -1.137  0.00  0.00     0.051 A 
ATOM      5  C5  IND d   1       0.665  -3.015  -0.825  0.00  0.00    -0.031 A 
ATOM      6  C6  IND d   1       1.746  -2.410  -0.218  0.00  0.00     0.015 A 
ATOM      7  C7  IND d   1       1.727  -1.084   0.113  0.00  0.00    -0.016 A 
ATOM      8  C8  IND d   1       0.579  -0.374  -0.208  0.00  0.00    -0.047 A 
ATOM      9  C9  IND d   1      -0.505  -0.973  -0.863  0.00  0.00    -0.096 A 
ATOM     10  HN1 IND d   1       0.769   1.544   0.345  0.00  0.00     0.298 HD
ENDROOT
TORSDOF 0
ENDMDL
