MODEL 1
REMARK minimizedAffinity -2.67574167
REMARK minimizedRMSD -1
REMARK  0 active torsions:
REMARK  status: ('A' for Active; 'I' for Inactive)
ROOT
ATOM      1  N1  IND d   1       3.163   1.263  -0.042  0.00  0.00    -0.196 N 
ATOM      2  C2  IND d   1       2.193   1.500   0.891  0.00  0.00     0.054 A 
ATOM      3  C3  IND d   1       1.343   0.452   0.963  0.00  0.00    -0.031 A 
ATOM      4  C4  IND d   1       1.413  -1.799  -0.286  0.00  0.00     0.051 A 
ATOM      5  C5  IND d   1       2.092  -2.465  -1.267  0.00  0.00    -0.031 A 
ATOM      6  C6  IND d   1       3.186  -1.913  -1.901  0.00  0.00     0.015 A 
ATOM      7  C7  IND d   1       3.651  -0.673  -1.568  0.00  0.00    -0.016 A 
ATOM      8  C8  IND d   1       2.960   0.010  -0.577  0.00  0.00    -0.047 A 
ATOM      9  C9  IND d   1       1.824  -0.528   0.040  0.00  0.00    -0.096 A 
ATOM     10  HN1 IND d   1       3.794   1.806  -0.259  0.00  0.00     0.298 HD
ENDROOT
TORSDOF 0
ENDMDL
