MODEL 1
REMARK minimizedAffinity 4.95578146
REMARK minimizedRMSD -1
REMARK  0 active torsions:
REMARK  status: ('A' for Active; 'I' for Inactive)
ROOT
ATOM      1  N1  IND d   1       3.052   1.475  -0.413  0.00  0.00    -0.196 N 
ATOM      2  C2  IND d   1       4.288   1.177  -0.915  0.00  0.00     0.054 A 
ATOM      3  C3  IND d   1       4.401  -0.153  -1.129  0.00  0.00    -0.031 A 
ATOM      4  C4  IND d   1       2.650  -2.014  -0.820  0.00  0.00     0.051 A 
ATOM      5  C5  IND d   1       1.386  -2.237  -0.351  0.00  0.00    -0.031 A 
ATOM      6  C6  IND d   1       0.596  -1.213   0.130  0.00  0.00     0.015 A 
ATOM      7  C7  IND d   1       1.038   0.080   0.147  0.00  0.00    -0.016 A 
ATOM      8  C8  IND d   1       2.323   0.309  -0.322  0.00  0.00    -0.047 A 
ATOM      9  C9  IND d   1       3.146  -0.733  -0.771  0.00  0.00    -0.096 A 
ATOM     10  HN1 IND d   1       2.776   2.258  -0.191  0.00  0.00     0.298 HD
ENDROOT
TORSDOF 0
ENDMDL
