MODEL 1
REMARK minimizedAffinity 8.16894817
REMARK minimizedRMSD -1
REMARK  0 active torsions:
REMARK  status: ('A' for Active; 'I' for Inactive)
ROOT
ATOM      1  N1  IND d   1      -0.383  -0.548  -1.191  0.00  0.00    -0.196 N 
ATOM      2  C2  IND d   1      -0.879  -1.807  -0.993  0.00  0.00     0.054 A 
ATOM      3  C3  IND d   1      -0.629  -2.218   0.270  0.00  0.00    -0.031 A 
ATOM      4  C4  IND d   1       0.488  -0.949   2.212  0.00  0.00     0.051 A 
ATOM      5  C5  IND d   1       1.136   0.218   2.504  0.00  0.00    -0.031 A 
ATOM      6  C6  IND d   1       1.312   1.211   1.562  0.00  0.00     0.015 A 
ATOM      7  C7  IND d   1       0.834   1.077   0.289  0.00  0.00    -0.016 A 
ATOM      8  C8  IND d   1       0.182  -0.110  -0.014  0.00  0.00    -0.047 A 
ATOM      9  C9  IND d   1       0.038  -1.138   0.927  0.00  0.00    -0.096 A 
ATOM     10  HN1 IND d   1      -0.419  -0.105  -1.927  0.00  0.00     0.298 HD
ENDROOT
TORSDOF 0
ENDMDL
