MODEL 1
REMARK minimizedAffinity -3.77933979
REMARK minimizedRMSD -1
REMARK  0 active torsions:
REMARK  status: ('A' for Active; 'I' for Inactive)
ROOT
ATOM      1  N1  IND d   1       1.522   0.503  -0.628  0.00  0.00    -0.196 N 
ATOM      2  C2  IND d   1       1.561  -0.806  -1.019  0.00  0.00     0.054 A 
ATOM      3  C3  IND d   1       0.533  -1.492  -0.470  0.00  0.00    -0.031 A 
ATOM      4  C4  IND d   1      -1.388  -0.645   1.020  0.00  0.00     0.051 A 
ATOM      5  C5  IND d   1      -1.831   0.468   1.677  0.00  0.00    -0.031 A 
ATOM      6  C6  IND d   1      -1.167   1.676   1.595  0.00  0.00     0.015 A 
ATOM      7  C7  IND d   1      -0.037   1.817   0.841  0.00  0.00    -0.016 A 
ATOM      8  C8  IND d   1       0.420   0.687   0.179  0.00  0.00    -0.047 A 
ATOM      9  C9  IND d   1      -0.225  -0.551   0.292  0.00  0.00    -0.096 A 
ATOM     10  HN1 IND d   1       2.090   1.109  -0.848  0.00  0.00     0.298 HD
ENDROOT
TORSDOF 0
ENDMDL
