MODEL 1
REMARK minimizedAffinity -0.358008862
REMARK minimizedRMSD -1
REMARK  0 active torsions:
REMARK  status: ('A' for Active; 'I' for Inactive)
ROOT
ATOM      1  N1  IND d   1      -1.228  -2.918  -2.681  0.00  0.00    -0.196 N 
ATOM      2  C2  IND d   1      -0.464  -3.696  -3.506  0.00  0.00     0.054 A 
ATOM      3  C3  IND d   1       0.850  -3.510  -3.244  0.00  0.00    -0.031 A 
ATOM      4  C4  IND d   1       1.967  -2.055  -1.438  0.00  0.00     0.051 A 
ATOM      5  C5  IND d   1       1.683  -1.134  -0.468  0.00  0.00    -0.031 A 
ATOM      6  C6  IND d   1       0.388  -0.756  -0.179  0.00  0.00     0.015 A 
ATOM      7  C7  IND d   1      -0.677  -1.294  -0.844  0.00  0.00    -0.016 A 
ATOM      8  C8  IND d   1      -0.392  -2.224  -1.834  0.00  0.00    -0.047 A 
ATOM      9  C9  IND d   1       0.923  -2.581  -2.161  0.00  0.00    -0.096 A 
ATOM     10  HN1 IND d   1      -2.086  -2.870  -2.690  0.00  0.00     0.298 HD
ENDROOT
TORSDOF 0
ENDMDL
