MODEL 1
REMARK minimizedAffinity -3.99784517
REMARK minimizedRMSD -1
REMARK  0 active torsions:
REMARK  status: ('A' for Active; 'I' for Inactive)
ROOT
ATOM      1  N1  IND d   1      -0.452  -2.238  -2.669  0.00  0.00    -0.196 N 
ATOM      2  C2  IND d   1       0.554  -3.051  -3.111  0.00  0.00     0.054 A 
ATOM      3  C3  IND d   1       1.605  -3.004  -2.262  0.00  0.00    -0.031 A 
ATOM      4  C4  IND d   1       1.852  -1.738  -0.034  0.00  0.00     0.051 A 
ATOM      5  C5  IND d   1       1.213  -0.835   0.768  0.00  0.00    -0.031 A 
ATOM      6  C6  IND d   1      -0.040  -0.346   0.461  0.00  0.00     0.015 A 
ATOM      7  C7  IND d   1      -0.709  -0.751  -0.659  0.00  0.00    -0.016 A 
ATOM      8  C8  IND d   1      -0.060  -1.663  -1.480  0.00  0.00    -0.047 A 
ATOM      9  C9  IND d   1       1.229  -2.131  -1.196  0.00  0.00    -0.096 A 
ATOM     10  HN1 IND d   1      -1.203  -2.107  -3.067  0.00  0.00     0.298 HD
ENDROOT
TORSDOF 0
ENDMDL
