MODEL 1
REMARK minimizedAffinity 0.154423401
REMARK minimizedRMSD -1
REMARK  0 active torsions:
REMARK  status: ('A' for Active; 'I' for Inactive)
ROOT
ATOM      1  N1  IND d   1      -0.759  -3.516  -1.128  0.00  0.00    -0.196 N 
ATOM      2  C2  IND d   1       0.042  -3.746  -2.212  0.00  0.00     0.054 A 
ATOM      3  C3  IND d   1       0.806  -2.661  -2.471  0.00  0.00    -0.031 A 
ATOM      4  C4  IND d   1       0.978  -0.437  -1.185  0.00  0.00     0.051 A 
ATOM      5  C5  IND d   1       0.416   0.254  -0.148  0.00  0.00    -0.031 A 
ATOM      6  C6  IND d   1      -0.584  -0.288   0.632  0.00  0.00     0.015 A 
ATOM      7  C7  IND d   1      -1.054  -1.552   0.411  0.00  0.00    -0.016 A 
ATOM      8  C8  IND d   1      -0.491  -2.254  -0.645  0.00  0.00    -0.047 A 
ATOM      9  C9  IND d   1       0.494  -1.693  -1.467  0.00  0.00    -0.096 A 
ATOM     10  HN1 IND d   1      -1.334  -4.067  -0.803  0.00  0.00     0.298 HD
ENDROOT
TORSDOF 0
ENDMDL
