MODEL 1
REMARK minimizedAffinity -0.0242447592
REMARK minimizedRMSD -1
REMARK  0 active torsions:
REMARK  status: ('A' for Active; 'I' for Inactive)
ROOT
ATOM      1  N1  IND d   1      -0.753   2.426   0.680  0.00  0.00    -0.196 N 
ATOM      2  C2  IND d   1      -1.259   2.319   1.946  0.00  0.00     0.054 A 
ATOM      3  C3  IND d   1      -1.037   1.080   2.438  0.00  0.00    -0.031 A 
ATOM      4  C4  IND d   1       0.225  -0.898   1.381  0.00  0.00     0.051 A 
ATOM      5  C5  IND d   1       0.835  -1.292   0.223  0.00  0.00    -0.031 A 
ATOM      6  C6  IND d   1       0.951  -0.448  -0.863  0.00  0.00     0.015 A 
ATOM      7  C7  IND d   1       0.470   0.830  -0.827  0.00  0.00    -0.016 A 
ATOM      8  C8  IND d   1      -0.156   1.231   0.345  0.00  0.00    -0.047 A 
ATOM      9  C9  IND d   1      -0.314   0.365   1.435  0.00  0.00    -0.096 A 
ATOM     10  HN1 IND d   1      -0.800   3.122   0.178  0.00  0.00     0.298 HD
ENDROOT
TORSDOF 0
ENDMDL
