MODEL 1
REMARK minimizedAffinity -1.67304158
REMARK minimizedRMSD -1
REMARK  0 active torsions:
REMARK  status: ('A' for Active; 'I' for Inactive)
ROOT
ATOM      1  N1  IND d   1       1.148  -0.204  -1.071  0.00  0.00    -0.196 N 
ATOM      2  C2  IND d   1       0.802  -1.485  -1.401  0.00  0.00     0.054 A 
ATOM      3  C3  IND d   1      -0.308  -1.861  -0.729  0.00  0.00    -0.031 A 
ATOM      4  C4  IND d   1      -1.781  -0.502   0.887  0.00  0.00     0.051 A 
ATOM      5  C5  IND d   1      -1.849   0.704   1.528  0.00  0.00    -0.031 A 
ATOM      6  C6  IND d   1      -0.903   1.689   1.328  0.00  0.00     0.015 A 
ATOM      7  C7  IND d   1       0.143   1.509   0.469  0.00  0.00    -0.016 A 
ATOM      8  C8  IND d   1       0.219   0.284  -0.178  0.00  0.00    -0.047 A 
ATOM      9  C9  IND d   1      -0.714  -0.736   0.053  0.00  0.00    -0.096 A 
ATOM     10  HN1 IND d   1       1.830   0.225  -1.370  0.00  0.00     0.298 HD
ENDROOT
TORSDOF 0
ENDMDL
