MODEL 1
REMARK minimizedAffinity -3.44485021
REMARK minimizedRMSD -1
REMARK  0 active torsions:
REMARK  status: ('A' for Active; 'I' for Inactive)
ROOT
ATOM      1  N1  IND d   1       1.099   1.718  -0.779  0.00  0.00    -0.196 N 
ATOM      2  C2  IND d   1       1.816   0.637  -1.210  0.00  0.00     0.054 A 
ATOM      3  C3  IND d   1       1.470  -0.467  -0.510  0.00  0.00    -0.031 A 
ATOM      4  C4  IND d   1      -0.320  -0.749   1.319  0.00  0.00     0.051 A 
ATOM      5  C5  IND d   1      -1.207  -0.038   2.076  0.00  0.00    -0.031 A 
ATOM      6  C6  IND d   1      -1.377   1.322   1.916  0.00  0.00     0.015 A 
ATOM      7  C7  IND d   1      -0.670   2.023   0.980  0.00  0.00    -0.016 A 
ATOM      8  C8  IND d   1       0.237   1.305   0.213  0.00  0.00    -0.047 A 
ATOM      9  C9  IND d   1       0.444  -0.068   0.401  0.00  0.00    -0.096 A 
ATOM     10  HN1 IND d   1       1.174   2.521  -1.077  0.00  0.00     0.298 HD
ENDROOT
TORSDOF 0
ENDMDL
