MODEL 1
REMARK minimizedAffinity -3.03356266
REMARK minimizedRMSD -1
REMARK  0 active torsions:
REMARK  status: ('A' for Active; 'I' for Inactive)
ROOT
ATOM      1  N1  IND d   1       0.827  -1.977  -2.276  0.00  0.00    -0.196 N 
ATOM      2  C2  IND d   1      -0.043  -2.955  -2.672  0.00  0.00     0.054 A 
ATOM      3  C3  IND d   1      -1.130  -2.971  -1.869  0.00  0.00    -0.031 A 
ATOM      4  C4  IND d   1      -1.737  -1.418   0.093  0.00  0.00     0.051 A 
ATOM      5  C5  IND d   1      -1.239  -0.397   0.852  0.00  0.00    -0.031 A 
ATOM      6  C6  IND d   1      -0.003   0.163   0.601  0.00  0.00     0.015 A 
ATOM      7  C7  IND d   1       0.780  -0.272  -0.431  0.00  0.00    -0.016 A 
ATOM      8  C8  IND d   1       0.280  -1.314  -1.200  0.00  0.00    -0.047 A 
ATOM      9  C9  IND d   1      -0.955  -1.914  -0.924  0.00  0.00    -0.096 A 
ATOM     10  HN1 IND d   1       1.588  -1.806  -2.639  0.00  0.00     0.298 HD
ENDROOT
TORSDOF 0
ENDMDL
