MODEL 1
REMARK minimizedAffinity 1.82119679
REMARK minimizedRMSD -1
REMARK  0 active torsions:
REMARK  status: ('A' for Active; 'I' for Inactive)
ROOT
ATOM      1  N1  IND d   1       0.407  -0.757  -2.483  0.00  0.00    -0.196 N 
ATOM      2  C2  IND d   1       0.943  -0.101  -1.409  0.00  0.00     0.054 A 
ATOM      3  C3  IND d   1       1.435  -0.988  -0.515  0.00  0.00    -0.031 A 
ATOM      4  C4  IND d   1       1.561  -3.555  -0.656  0.00  0.00     0.051 A 
ATOM      5  C5  IND d   1       1.169  -4.612  -1.429  0.00  0.00    -0.031 A 
ATOM      6  C6  IND d   1       0.492  -4.434  -2.618  0.00  0.00     0.015 A 
ATOM      7  C7  IND d   1       0.190  -3.186  -3.086  0.00  0.00    -0.016 A 
ATOM      8  C8  IND d   1       0.580  -2.111  -2.300  0.00  0.00    -0.047 A 
ATOM      9  C9  IND d   1       1.230  -2.287  -1.072  0.00  0.00    -0.096 A 
ATOM     10  HN1 IND d   1       0.026  -0.385  -3.158  0.00  0.00     0.298 HD
ENDROOT
TORSDOF 0
ENDMDL
