MODEL 1
REMARK minimizedAffinity -4.33272123
REMARK minimizedRMSD -1
REMARK  0 active torsions:
REMARK  status: ('A' for Active; 'I' for Inactive)
ROOT
ATOM      1  N1  IND d   1      -0.419  -2.604  -1.186  0.00  0.00    -0.196 N 
ATOM      2  C2  IND d   1       0.862  -2.483  -1.649  0.00  0.00     0.054 A 
ATOM      3  C3  IND d   1       1.473  -1.426  -1.069  0.00  0.00    -0.031 A 
ATOM      4  C4  IND d   1       0.597   0.180   0.741  0.00  0.00     0.051 A 
ATOM      5  C5  IND d   1      -0.528   0.491   1.452  0.00  0.00    -0.031 A 
ATOM      6  C6  IND d   1      -1.697  -0.230   1.320  0.00  0.00     0.015 A 
ATOM      7  C7  IND d   1      -1.781  -1.301   0.476  0.00  0.00    -0.016 A 
ATOM      8  C8  IND d   1      -0.643  -1.615  -0.253  0.00  0.00    -0.047 A 
ATOM      9  C9  IND d   1       0.533  -0.861  -0.154  0.00  0.00    -0.096 A 
ATOM     10  HN1 IND d   1      -0.989  -3.198  -1.435  0.00  0.00     0.298 HD
ENDROOT
TORSDOF 0
ENDMDL
