MODEL 1
REMARK minimizedAffinity -2.32346487
REMARK minimizedRMSD -1
REMARK  0 active torsions:
REMARK  status: ('A' for Active; 'I' for Inactive)
ROOT
ATOM      1  N1  IND d   1       0.850  -0.538  -1.689  0.00  0.00    -0.196 N 
ATOM      2  C2  IND d   1       0.677  -1.888  -1.559  0.00  0.00     0.054 A 
ATOM      3  C3  IND d   1      -0.009  -2.168  -0.429  0.00  0.00    -0.031 A 
ATOM      4  C4  IND d   1      -1.035  -0.562   1.302  0.00  0.00     0.051 A 
ATOM      5  C5  IND d   1      -1.109   0.763   1.631  0.00  0.00    -0.031 A 
ATOM      6  C6  IND d   1      -0.525   1.741   0.852  0.00  0.00     0.015 A 
ATOM      7  C7  IND d   1       0.149   1.431  -0.295  0.00  0.00    -0.016 A 
ATOM      8  C8  IND d   1       0.232   0.087  -0.628  0.00  0.00    -0.047 A 
ATOM      9  C9  IND d   1      -0.322  -0.914   0.180  0.00  0.00    -0.096 A 
ATOM     10  HN1 IND d   1       1.273  -0.146  -2.327  0.00  0.00     0.298 HD
ENDROOT
TORSDOF 0
ENDMDL
