MODEL 1
REMARK minimizedAffinity -2.9367187
REMARK minimizedRMSD -1
REMARK  0 active torsions:
REMARK  status: ('A' for Active; 'I' for Inactive)
ROOT
ATOM      1  N1  IND d   1      -0.825  -3.534  -0.878  0.00  0.00    -0.196 N 
ATOM      2  C2  IND d   1       0.011  -3.778  -1.931  0.00  0.00     0.054 A 
ATOM      3  C3  IND d   1       0.715  -2.667  -2.241  0.00  0.00    -0.031 A 
ATOM      4  C4  IND d   1       0.729  -0.365  -1.087  0.00  0.00     0.051 A 
ATOM      5  C5  IND d   1       0.107   0.350  -0.103  0.00  0.00    -0.031 A 
ATOM      6  C6  IND d   1      -0.876  -0.204   0.690  0.00  0.00     0.015 A 
ATOM      7  C7  IND d   1      -1.267  -1.504   0.537  0.00  0.00    -0.016 A 
ATOM      8  C8  IND d   1      -0.642  -2.232  -0.466  0.00  0.00    -0.047 A 
ATOM      9  C9  IND d   1       0.326  -1.662  -1.303  0.00  0.00    -0.096 A 
ATOM     10  HN1 IND d   1      -1.373  -4.098  -0.531  0.00  0.00     0.298 HD
ENDROOT
TORSDOF 0
ENDMDL
