MODEL 1
REMARK minimizedAffinity -4.5608077
REMARK minimizedRMSD -1
REMARK  0 active torsions:
REMARK  status: ('A' for Active; 'I' for Inactive)
ROOT
ATOM      1  N1  IND d   1       0.609   1.466  -0.808  0.00  0.00    -0.196 N 
ATOM      2  C2  IND d   1       0.724   2.819  -0.966  0.00  0.00     0.054 A 
ATOM      3  C3  IND d   1      -0.036   3.465  -0.053  0.00  0.00    -0.031 A 
ATOM      4  C4  IND d   1      -1.468   2.504   1.858  0.00  0.00     0.051 A 
ATOM      5  C5  IND d   1      -1.915   1.322   2.380  0.00  0.00    -0.031 A 
ATOM      6  C6  IND d   1      -1.533   0.104   1.858  0.00  0.00     0.015 A 
ATOM      7  C7  IND d   1      -0.677   0.020   0.796  0.00  0.00    -0.016 A 
ATOM      8  C8  IND d   1      -0.228   1.218   0.258  0.00  0.00    -0.047 A 
ATOM      9  C9  IND d   1      -0.645   2.459   0.757  0.00  0.00    -0.096 A 
ATOM     10  HN1 IND d   1       0.994   0.869  -1.293  0.00  0.00     0.298 HD
ENDROOT
TORSDOF 0
ENDMDL
