MODEL 1
REMARK minimizedAffinity -2.81405425
REMARK minimizedRMSD -1
REMARK  0 active torsions:
REMARK  status: ('A' for Active; 'I' for Inactive)
ROOT
ATOM      1  N1  IND d   1       1.252   0.645  -0.874  0.00  0.00    -0.196 N 
ATOM      2  C2  IND d   1       1.322  -0.717  -0.973  0.00  0.00     0.054 A 
ATOM      3  C3  IND d   1       0.488  -1.297  -0.080  0.00  0.00    -0.031 A 
ATOM      4  C4  IND d   1      -1.157  -0.205   1.570  0.00  0.00     0.051 A 
ATOM      5  C5  IND d   1      -1.552   1.012   2.051  0.00  0.00    -0.031 A 
ATOM      6  C6  IND d   1      -1.023   2.193   1.570  0.00  0.00     0.015 A 
ATOM      7  C7  IND d   1      -0.085   2.201   0.578  0.00  0.00    -0.016 A 
ATOM      8  C8  IND d   1       0.324   0.967   0.092  0.00  0.00    -0.047 A 
ATOM      9  C9  IND d   1      -0.178  -0.236   0.606  0.00  0.00    -0.096 A 
ATOM     10  HN1 IND d   1       1.711   1.206  -1.336  0.00  0.00     0.298 HD
ENDROOT
TORSDOF 0
ENDMDL
