MODEL 1
REMARK minimizedAffinity -3.17548203
REMARK minimizedRMSD -1
REMARK  0 active torsions:
REMARK  status: ('A' for Active; 'I' for Inactive)
ROOT
ATOM      1  N1  IND d   1       1.855  -1.506  -0.994  0.00  0.00    -0.196 N 
ATOM      2  C2  IND d   1       1.103  -2.272  -1.841  0.00  0.00     0.054 A 
ATOM      3  C3  IND d   1      -0.190  -2.281  -1.444  0.00  0.00    -0.031 A 
ATOM      4  C4  IND d   1      -1.311  -1.026   0.504  0.00  0.00     0.051 A 
ATOM      5  C5  IND d   1      -1.027  -0.230   1.579  0.00  0.00    -0.031 A 
ATOM      6  C6  IND d   1       0.258   0.191   1.854  0.00  0.00     0.015 A 
ATOM      7  C7  IND d   1       1.310  -0.159   1.056  0.00  0.00    -0.016 A 
ATOM      8  C8  IND d   1       1.026  -0.973  -0.032  0.00  0.00    -0.047 A 
ATOM      9  C9  IND d   1      -0.269  -1.438  -0.293  0.00  0.00    -0.096 A 
ATOM     10  HN1 IND d   1       2.703  -1.379  -1.053  0.00  0.00     0.298 HD
ENDROOT
TORSDOF 0
ENDMDL
