MODEL 1
REMARK minimizedAffinity -4.4075079
REMARK minimizedRMSD -1
REMARK  0 active torsions:
REMARK  status: ('A' for Active; 'I' for Inactive)
ROOT
ATOM      1  N1  IND d   1      -0.453   2.380   0.370  0.00  0.00    -0.196 N 
ATOM      2  C2  IND d   1      -1.122   2.551   1.550  0.00  0.00     0.054 A 
ATOM      3  C3  IND d   1      -1.317   1.359   2.157  0.00  0.00    -0.031 A 
ATOM      4  C4  IND d   1      -0.534  -0.987   1.444  0.00  0.00     0.051 A 
ATOM      5  C5  IND d   1       0.081  -1.653   0.420  0.00  0.00    -0.031 A 
ATOM      6  C6  IND d   1       0.562  -0.994  -0.693  0.00  0.00     0.015 A 
ATOM      7  C7  IND d   1       0.455   0.362  -0.820  0.00  0.00    -0.016 A 
ATOM      8  C8  IND d   1      -0.175   1.040   0.214  0.00  0.00    -0.047 A 
ATOM      9  C9  IND d   1      -0.703   0.372   1.327  0.00  0.00    -0.096 A 
ATOM     10  HN1 IND d   1      -0.241   3.005  -0.181  0.00  0.00     0.298 HD
ENDROOT
TORSDOF 0
ENDMDL
