MODEL 1
REMARK minimizedAffinity -3.18611789
REMARK minimizedRMSD -1
REMARK  0 active torsions:
REMARK  status: ('A' for Active; 'I' for Inactive)
ROOT
ATOM      1  N1  IND d   1       1.314   0.208  -0.927  0.00  0.00    -0.196 N 
ATOM      2  C2  IND d   1       1.203  -1.023  -0.343  0.00  0.00     0.054 A 
ATOM      3  C3  IND d   1       0.320  -0.980   0.681  0.00  0.00    -0.031 A 
ATOM      4  C4  IND d   1      -1.133   0.977   1.506  0.00  0.00     0.051 A 
ATOM      5  C5  IND d   1      -1.355   2.311   1.311  0.00  0.00    -0.031 A 
ATOM      6  C6  IND d   1      -0.688   3.027   0.338  0.00  0.00     0.015 A 
ATOM      7  C7  IND d   1       0.223   2.429  -0.487  0.00  0.00    -0.016 A 
ATOM      8  C8  IND d   1       0.456   1.076  -0.286  0.00  0.00    -0.047 A 
ATOM      9  C9  IND d   1      -0.187   0.354   0.727  0.00  0.00    -0.096 A 
ATOM     10  HN1 IND d   1       1.832   0.407  -1.583  0.00  0.00     0.298 HD
ENDROOT
TORSDOF 0
ENDMDL
