MODEL 1
REMARK minimizedAffinity -3.95577312
REMARK minimizedRMSD -1
REMARK  0 active torsions:
REMARK  status: ('A' for Active; 'I' for Inactive)
ROOT
ATOM      1  N1  IND d   1       1.382  -3.292  -2.012  0.00  0.00    -0.196 N 
ATOM      2  C2  IND d   1       0.479  -3.356  -3.037  0.00  0.00     0.054 A 
ATOM      3  C3  IND d   1      -0.478  -2.413  -2.879  0.00  0.00    -0.031 A 
ATOM      4  C4  IND d   1      -0.701  -0.595  -1.071  0.00  0.00     0.051 A 
ATOM      5  C5  IND d   1      -0.136  -0.161   0.096  0.00  0.00    -0.031 A 
ATOM      6  C6  IND d   1       0.987  -0.760   0.629  0.00  0.00     0.015 A 
ATOM      7  C7  IND d   1       1.598  -1.811   0.006  0.00  0.00    -0.016 A 
ATOM      8  C8  IND d   1       1.023  -2.259  -1.175  0.00  0.00    -0.047 A 
ATOM      9  C9  IND d   1      -0.142  -1.683  -1.699  0.00  0.00    -0.096 A 
ATOM     10  HN1 IND d   1       2.060  -3.811  -1.908  0.00  0.00     0.298 HD
ENDROOT
TORSDOF 0
ENDMDL
