MODEL 1
REMARK minimizedAffinity 18.5685844
REMARK minimizedRMSD -1
REMARK  0 active torsions:
REMARK  status: ('A' for Active; 'I' for Inactive)
ROOT
ATOM      1  C   UNL d   1       3.863  -0.110   1.297  0.00  0.00    -0.002 A 
ATOM      2  C1  UNL d   1       3.846  -0.079   2.684  0.00  0.00     0.010 A 
ATOM      3  C2  UNL d   1       2.656  -0.284   3.385  0.00  0.00     0.041 A 
ATOM      4  C3  UNL d   1       1.472  -0.525   2.661  0.00  0.00    -0.075 A 
ATOM      5  S   UNL d   1      -0.102  -0.805   3.306  0.00  0.00     0.015 SA
ATOM      6  C4  UNL d   1      -0.789  -0.973   1.755  0.00  0.00     0.022 A 
ATOM      7  C5  UNL d   1       0.145  -0.822   0.758  0.00  0.00     0.026 A 
ATOM      8  C6  UNL d   1       1.464  -0.562   1.264  0.00  0.00    -0.082 A 
ATOM      9  C7  UNL d   1       2.687  -0.350   0.582  0.00  0.00     0.045 A 
ENDROOT
TORSDOF 0
ENDMDL
