MODEL 1
REMARK minimizedAffinity 4.95808172
REMARK minimizedRMSD -1
REMARK  0 active torsions:
REMARK  status: ('A' for Active; 'I' for Inactive)
ROOT
ATOM      1  C   UNL d   1       1.113   3.752  -1.493  0.00  0.00    -0.002 A 
ATOM      2  C1  UNL d   1       2.429   3.346  -1.664  0.00  0.00     0.010 A 
ATOM      3  C2  UNL d   1       2.876   2.139  -1.123  0.00  0.00     0.041 A 
ATOM      4  C3  UNL d   1       1.969   1.338  -0.401  0.00  0.00    -0.075 A 
ATOM      5  S   UNL d   1       2.292  -0.180   0.350  0.00  0.00     0.015 SA
ATOM      6  C4  UNL d   1       0.690  -0.325   0.915  0.00  0.00     0.022 A 
ATOM      7  C5  UNL d   1      -0.085   0.749   0.549  0.00  0.00     0.026 A 
ATOM      8  C6  UNL d   1       0.639   1.725  -0.216  0.00  0.00    -0.082 A 
ATOM      9  C7  UNL d   1       0.216   2.955  -0.777  0.00  0.00     0.045 A 
ENDROOT
TORSDOF 0
ENDMDL
