MODEL 1
REMARK minimizedAffinity 14.7743788
REMARK minimizedRMSD -1
REMARK  0 active torsions:
REMARK  status: ('A' for Active; 'I' for Inactive)
ROOT
ATOM      1  C   UNL d   1      -0.692  -1.459   1.132  0.00  0.00    -0.002 A 
ATOM      2  C1  UNL d   1      -0.934  -1.066   2.441  0.00  0.00     0.010 A 
ATOM      3  C2  UNL d   1       0.113  -0.636   3.258  0.00  0.00     0.041 A 
ATOM      4  C3  UNL d   1       1.420  -0.606   2.733  0.00  0.00    -0.075 A 
ATOM      5  S   UNL d   1       2.857  -0.115   3.549  0.00  0.00     0.015 SA
ATOM      6  C4  UNL d   1       3.826  -0.414   2.179  0.00  0.00     0.022 A 
ATOM      7  C5  UNL d   1       3.087  -0.878   1.116  0.00  0.00     0.026 A 
ATOM      8  C6  UNL d   1       1.688  -0.995   1.418  0.00  0.00    -0.082 A 
ATOM      9  C7  UNL d   1       0.606  -1.427   0.614  0.00  0.00     0.045 A 
ENDROOT
TORSDOF 0
ENDMDL
