MODEL 1
REMARK minimizedAffinity 2.74421477
REMARK minimizedRMSD -1
REMARK  0 active torsions:
REMARK  status: ('A' for Active; 'I' for Inactive)
ROOT
ATOM      1  C   UNL d   1       0.512  -1.208   0.038  0.00  0.00    -0.002 A 
ATOM      2  C1  UNL d   1       0.443  -0.268   1.056  0.00  0.00     0.010 A 
ATOM      3  C2  UNL d   1      -0.765   0.364   1.359  0.00  0.00     0.041 A 
ATOM      4  C3  UNL d   1      -1.914   0.030   0.615  0.00  0.00    -0.075 A 
ATOM      5  S   UNL d   1      -3.501   0.674   0.808  0.00  0.00     0.015 SA
ATOM      6  C4  UNL d   1      -4.125  -0.285  -0.456  0.00  0.00     0.022 A 
ATOM      7  C5  UNL d   1      -3.159  -1.083  -1.023  0.00  0.00     0.026 A 
ATOM      8  C6  UNL d   1      -1.869  -0.915  -0.415  0.00  0.00    -0.082 A 
ATOM      9  C7  UNL d   1      -0.629  -1.537  -0.698  0.00  0.00     0.045 A 
ENDROOT
TORSDOF 0
ENDMDL
