MODEL 1
REMARK minimizedAffinity 14.4490738
REMARK minimizedRMSD -1
REMARK  0 active torsions:
REMARK  status: ('A' for Active; 'I' for Inactive)
ROOT
ATOM      1  C   UNL d   1      -1.268  -2.461   5.635  0.00  0.00    -0.002 A 
ATOM      2  C1  UNL d   1      -1.746  -3.503   4.853  0.00  0.00     0.010 A 
ATOM      3  C2  UNL d   1      -1.593  -3.478   3.466  0.00  0.00     0.041 A 
ATOM      4  C3  UNL d   1      -0.942  -2.378   2.872  0.00  0.00    -0.075 A 
ATOM      5  S   UNL d   1      -0.640  -2.133   1.192  0.00  0.00     0.015 SA
ATOM      6  C4  UNL d   1       0.132  -0.640   1.474  0.00  0.00     0.022 A 
ATOM      7  C5  UNL d   1       0.167  -0.321   2.811  0.00  0.00     0.026 A 
ATOM      8  C6  UNL d   1      -0.451  -1.318   3.638  0.00  0.00    -0.082 A 
ATOM      9  C7  UNL d   1      -0.623  -1.372   5.043  0.00  0.00     0.045 A 
ENDROOT
TORSDOF 0
ENDMDL
