MODEL 1
REMARK minimizedAffinity -2.88482714
REMARK minimizedRMSD -1
REMARK  0 active torsions:
REMARK  status: ('A' for Active; 'I' for Inactive)
ROOT
ATOM      1  C   UNL d   1       0.715  -2.838   0.292  0.00  0.00    -0.002 A 
ATOM      2  C1  UNL d   1       1.272  -1.938   1.189  0.00  0.00     0.010 A 
ATOM      3  C2  UNL d   1       0.740  -0.654   1.330  0.00  0.00     0.041 A 
ATOM      4  C3  UNL d   1      -0.372  -0.288   0.548  0.00  0.00    -0.075 A 
ATOM      5  S   UNL d   1      -1.192   1.229   0.552  0.00  0.00     0.015 SA
ATOM      6  C4  UNL d   1      -2.301   0.718  -0.636  0.00  0.00     0.022 A 
ATOM      7  C5  UNL d   1      -2.066  -0.576  -1.038  0.00  0.00     0.026 A 
ATOM      8  C6  UNL d   1      -0.952  -1.177  -0.362  0.00  0.00    -0.082 A 
ATOM      9  C7  UNL d   1      -0.389  -2.470  -0.482  0.00  0.00     0.045 A 
ENDROOT
TORSDOF 0
ENDMDL
