MODEL 1
REMARK minimizedAffinity 17.8140869
REMARK minimizedRMSD -1
REMARK  0 active torsions:
REMARK  status: ('A' for Active; 'I' for Inactive)
ROOT
ATOM      1  C   UNL d   1      -5.774  -5.301   3.331  0.00  0.00    -0.002 A 
ATOM      2  C1  UNL d   1      -5.109  -4.083   3.313  0.00  0.00     0.010 A 
ATOM      3  C2  UNL d   1      -4.652  -3.540   2.110  0.00  0.00     0.041 A 
ATOM      4  C3  UNL d   1      -4.879  -4.248   0.914  0.00  0.00    -0.075 A 
ATOM      5  S   UNL d   1      -4.411  -3.777  -0.677  0.00  0.00     0.015 SA
ATOM      6  C4  UNL d   1      -5.083  -5.181  -1.371  0.00  0.00     0.022 A 
ATOM      7  C5  UNL d   1      -5.655  -6.000  -0.427  0.00  0.00     0.026 A 
ATOM      8  C6  UNL d   1      -5.547  -5.476   0.906  0.00  0.00    -0.082 A 
ATOM      9  C7  UNL d   1      -5.997  -6.000   2.141  0.00  0.00     0.045 A 
ENDROOT
TORSDOF 0
ENDMDL
