MODEL 1
REMARK minimizedAffinity 13.9495783
REMARK minimizedRMSD -1
REMARK  0 active torsions:
REMARK  status: ('A' for Active; 'I' for Inactive)
ROOT
ATOM      1  C   UNL d   1      -3.474  -4.800  -1.069  0.00  0.00    -0.002 A 
ATOM      2  C1  UNL d   1      -3.074  -3.472  -1.054  0.00  0.00     0.010 A 
ATOM      3  C2  UNL d   1      -2.086  -3.017  -1.929  0.00  0.00     0.041 A 
ATOM      4  C3  UNL d   1      -1.502  -3.929  -2.830  0.00  0.00    -0.075 A 
ATOM      5  S   UNL d   1      -0.274  -3.598  -3.994  0.00  0.00     0.015 SA
ATOM      6  C4  UNL d   1      -0.252  -5.212  -4.540  0.00  0.00     0.022 A 
ATOM      7  C5  UNL d   1      -1.153  -5.999  -3.862  0.00  0.00     0.026 A 
ATOM      8  C6  UNL d   1      -1.889  -5.272  -2.865  0.00  0.00    -0.082 A 
ATOM      9  C7  UNL d   1      -2.893  -5.702  -1.965  0.00  0.00     0.045 A 
ENDROOT
TORSDOF 0
ENDMDL
