MODEL 1
REMARK minimizedAffinity 5.83458281
REMARK minimizedRMSD -1
REMARK  0 active torsions:
REMARK  status: ('A' for Active; 'I' for Inactive)
ROOT
ATOM      1  C   UNL d   1      -1.038  -4.512  -0.191  0.00  0.00    -0.002 A 
ATOM      2  C1  UNL d   1      -2.103  -4.009   0.543  0.00  0.00     0.010 A 
ATOM      3  C2  UNL d   1      -3.414  -4.164   0.088  0.00  0.00     0.041 A 
ATOM      4  C3  UNL d   1      -3.639  -4.841  -1.126  0.00  0.00    -0.075 A 
ATOM      5  S   UNL d   1      -5.160  -5.150  -1.878  0.00  0.00     0.015 SA
ATOM      6  C4  UNL d   1      -4.432  -5.958  -3.190  0.00  0.00     0.022 A 
ATOM      7  C5  UNL d   1      -3.062  -6.000  -3.073  0.00  0.00     0.026 A 
ATOM      8  C6  UNL d   1      -2.583  -5.357  -1.882  0.00  0.00    -0.082 A 
ATOM      9  C7  UNL d   1      -1.265  -5.183  -1.395  0.00  0.00     0.045 A 
ENDROOT
TORSDOF 0
ENDMDL
