MODEL 1
REMARK minimizedAffinity 15.7587156
REMARK minimizedRMSD -1
REMARK  0 active torsions:
REMARK  status: ('A' for Active; 'I' for Inactive)
ROOT
ATOM      1  C   UNL d   1      -0.281  -0.555   1.413  0.00  0.00    -0.002 A 
ATOM      2  C1  UNL d   1      -0.959  -1.614   0.826  0.00  0.00     0.010 A 
ATOM      3  C2  UNL d   1      -1.528  -2.617   1.613  0.00  0.00     0.041 A 
ATOM      4  C3  UNL d   1      -1.404  -2.536   3.014  0.00  0.00    -0.075 A 
ATOM      5  S   UNL d   1      -2.021  -3.648   4.178  0.00  0.00     0.015 SA
ATOM      6  C4  UNL d   1      -1.400  -2.743   5.482  0.00  0.00     0.022 A 
ATOM      7  C5  UNL d   1      -0.736  -1.617   5.058  0.00  0.00     0.026 A 
ATOM      8  C6  UNL d   1      -0.727  -1.479   3.629  0.00  0.00    -0.082 A 
ATOM      9  C7  UNL d   1      -0.161  -0.478   2.803  0.00  0.00     0.045 A 
ENDROOT
TORSDOF 0
ENDMDL
