MODEL 1
REMARK minimizedAffinity 11.0401154
REMARK minimizedRMSD -1
REMARK  1 active torsions:
REMARK  status: ('A' for Active; 'I' for Inactive)
REMARK    1  A    between atoms: C1_2  and  C2_3 
ROOT
ATOM      1  C2  UNL d   1       3.793  -4.132   0.993  0.00  0.00    -0.076 A 
ATOM      2  C3  UNL d   1       4.016  -4.118   2.381  0.00  0.00     0.004 A 
ATOM      3  C4  UNL d   1       4.878  -5.036   2.978  0.00  0.00    -0.003 A 
ATOM      4  C5  UNL d   1       5.532  -5.983   2.197  0.00  0.00     0.000 A 
ATOM      5  C6  UNL d   1       5.336  -5.999   0.816  0.00  0.00     0.000 A 
ATOM      6  C7  UNL d   1       4.483  -5.071   0.196  0.00  0.00    -0.073 A 
ATOM      7  C8  UNL d   1       4.304  -5.138  -1.295  0.00  0.00     0.078 C 
ENDROOT
BRANCH   1   8
ATOM      8  C1  UNL d   1       2.826  -3.129   0.405  0.00  0.00     0.053 C 
ATOM      9  C   UNL d   1       1.642  -2.856   1.320  0.00  0.00     0.018 C 
ENDBRANCH   1   8
TORSDOF 1
ENDMDL
