MODEL 1
REMARK minimizedAffinity 4.6021719
REMARK minimizedRMSD -1
REMARK  1 active torsions:
REMARK  status: ('A' for Active; 'I' for Inactive)
REMARK    1  A    between atoms: C1_2  and  C2_3 
ROOT
ATOM      1  C2  UNL d   1       3.227   5.929   3.662  0.00  0.00    -0.076 A 
ATOM      2  C3  UNL d   1       2.081   5.932   2.847  0.00  0.00     0.004 A 
ATOM      3  C4  UNL d   1       0.805   5.957   3.405  0.00  0.00    -0.003 A 
ATOM      4  C5  UNL d   1       0.653   5.980   4.787  0.00  0.00     0.000 A 
ATOM      5  C6  UNL d   1       1.778   5.995   5.610  0.00  0.00     0.000 A 
ATOM      6  C7  UNL d   1       3.073   5.987   5.063  0.00  0.00    -0.073 A 
ATOM      7  C8  UNL d   1       4.252   5.999   5.998  0.00  0.00     0.078 C 
ENDROOT
BRANCH   1   8
ATOM      8  C1  UNL d   1       4.586   5.874   3.000  0.00  0.00     0.053 C 
ATOM      9  C   UNL d   1       4.494   5.658   1.498  0.00  0.00     0.018 C 
ENDBRANCH   1   8
TORSDOF 1
ENDMDL
