MODEL 1
REMARK minimizedAffinity -0.0405273587
REMARK minimizedRMSD -1
REMARK  1 active torsions:
REMARK  status: ('A' for Active; 'I' for Inactive)
REMARK    1  A    between atoms: C1_2  and  C2_3 
ROOT
ATOM      1  C2  UNL d   1      -1.172  -1.275   2.333  0.00  0.00    -0.076 A 
ATOM      2  C3  UNL d   1      -1.417  -2.288   3.277  0.00  0.00     0.004 A 
ATOM      3  C4  UNL d   1      -2.712  -2.741   3.522  0.00  0.00    -0.003 A 
ATOM      4  C5  UNL d   1      -3.783  -2.190   2.828  0.00  0.00     0.000 A 
ATOM      5  C6  UNL d   1      -3.556  -1.197   1.875  0.00  0.00     0.000 A 
ATOM      6  C7  UNL d   1      -2.255  -0.740   1.604  0.00  0.00    -0.073 A 
ATOM      7  C8  UNL d   1      -2.069   0.337   0.571  0.00  0.00     0.078 C 
ENDROOT
BRANCH   1   8
ATOM      8  C1  UNL d   1       0.251  -0.805   2.128  0.00  0.00     0.053 C 
ATOM      9  C   UNL d   1       0.908  -1.446   0.916  0.00  0.00     0.018 C 
ENDBRANCH   1   8
TORSDOF 1
ENDMDL
