MODEL 1
REMARK minimizedAffinity 1.45501506
REMARK minimizedRMSD -1
REMARK  1 active torsions:
REMARK  status: ('A' for Active; 'I' for Inactive)
REMARK    1  A    between atoms: C1_2  and  C2_3 
ROOT
ATOM      1  C2  UNL d   1       1.200   0.117  -0.094  0.00  0.00    -0.076 A 
ATOM      2  C3  UNL d   1       1.215   1.517  -0.227  0.00  0.00     0.004 A 
ATOM      3  C4  UNL d   1       2.333   2.177  -0.735  0.00  0.00    -0.003 A 
ATOM      4  C5  UNL d   1       3.452   1.448  -1.121  0.00  0.00     0.000 A 
ATOM      5  C6  UNL d   1       3.448   0.058  -1.013  0.00  0.00     0.000 A 
ATOM      6  C7  UNL d   1       2.323  -0.625  -0.517  0.00  0.00    -0.073 A 
ATOM      7  C8  UNL d   1       2.375  -2.125  -0.417  0.00  0.00     0.078 C 
ENDROOT
BRANCH   1   8
ATOM      8  C1  UNL d   1      -0.030  -0.541   0.489  0.00  0.00     0.053 C 
ATOM      9  C   UNL d   1      -0.778   0.370   1.451  0.00  0.00     0.018 C 
ENDBRANCH   1   8
TORSDOF 1
ENDMDL
