MODEL 1
REMARK minimizedAffinity 4.87814903
REMARK minimizedRMSD -1
REMARK  0 active torsions:
REMARK  status: ('A' for Active; 'I' for Inactive)
ROOT
ATOM      1  C   UNL d   1       6.000   5.641  -4.491  0.00  0.00     0.078 C 
ATOM      2  C1  UNL d   1       4.796   5.166  -3.734  0.00  0.00    -0.077 A 
ATOM      3  C2  UNL d   1       4.289   5.896  -2.652  0.00  0.00    -0.001 A 
ATOM      4  C3  UNL d   1       3.173   5.436  -1.951  0.00  0.00     0.003 A 
ATOM      5  C4  UNL d   1       2.555   4.244  -2.323  0.00  0.00    -0.005 A 
ATOM      6  C5  UNL d   1       3.054   3.509  -3.396  0.00  0.00     0.003 A 
ATOM      7  C6  UNL d   1       4.169   3.967  -4.099  0.00  0.00    -0.001 A 
ENDROOT
TORSDOF 0
ENDMDL
