MODEL 1
REMARK minimizedAffinity 2.88756824
REMARK minimizedRMSD -1
REMARK  0 active torsions:
REMARK  status: ('A' for Active; 'I' for Inactive)
ROOT
ATOM      1  C   UNL d   1       0.801  -2.923   1.250  0.00  0.00     0.078 C 
ATOM      2  C1  UNL d   1      -0.362  -2.080   1.683  0.00  0.00    -0.077 A 
ATOM      3  C2  UNL d   1      -1.679  -2.502   1.465  0.00  0.00    -0.001 A 
ATOM      4  C3  UNL d   1      -2.751  -1.703   1.865  0.00  0.00     0.003 A 
ATOM      5  C4  UNL d   1      -2.517  -0.477   2.484  0.00  0.00    -0.005 A 
ATOM      6  C5  UNL d   1      -1.210  -0.048   2.703  0.00  0.00     0.003 A 
ATOM      7  C6  UNL d   1      -0.136  -0.845   2.304  0.00  0.00    -0.001 A 
ENDROOT
TORSDOF 0
ENDMDL
