MODEL 1
REMARK minimizedAffinity 5.57401896
REMARK minimizedRMSD -1
REMARK  0 active torsions:
REMARK  status: ('A' for Active; 'I' for Inactive)
ROOT
ATOM      1  C   UNL d   1      -2.476  -0.278   1.393  0.00  0.00     0.078 C 
ATOM      2  C1  UNL d   1      -3.537   0.160   0.428  0.00  0.00    -0.077 A 
ATOM      3  C2  UNL d   1      -4.672   0.851   0.869  0.00  0.00    -0.001 A 
ATOM      4  C3  UNL d   1      -5.656   1.245  -0.039  0.00  0.00     0.003 A 
ATOM      5  C4  UNL d   1      -5.516   0.950  -1.394  0.00  0.00    -0.005 A 
ATOM      6  C5  UNL d   1      -4.391   0.261  -1.842  0.00  0.00     0.003 A 
ATOM      7  C6  UNL d   1      -3.406  -0.133  -0.935  0.00  0.00    -0.001 A 
ENDROOT
TORSDOF 0
ENDMDL
