MODEL 1
REMARK minimizedAffinity 0.142547026
REMARK minimizedRMSD -1
REMARK  0 active torsions:
REMARK  status: ('A' for Active; 'I' for Inactive)
ROOT
ATOM      1  C   UNL d   1      -5.887  -4.863   1.691  0.00  0.00     0.078 C 
ATOM      2  C1  UNL d   1      -5.920  -4.811   3.189  0.00  0.00    -0.077 A 
ATOM      3  C2  UNL d   1      -5.891  -3.588   3.869  0.00  0.00    -0.001 A 
ATOM      4  C3  UNL d   1      -5.913  -3.555   5.264  0.00  0.00     0.003 A 
ATOM      5  C4  UNL d   1      -5.962  -4.742   5.992  0.00  0.00    -0.005 A 
ATOM      6  C5  UNL d   1      -5.988  -5.965   5.324  0.00  0.00     0.003 A 
ATOM      7  C6  UNL d   1      -5.967  -6.000   3.929  0.00  0.00    -0.001 A 
ENDROOT
TORSDOF 0
ENDMDL
