MODEL 1
REMARK minimizedAffinity 5.42444658
REMARK minimizedRMSD -1
REMARK  0 active torsions:
REMARK  status: ('A' for Active; 'I' for Inactive)
ROOT
ATOM      1  C   UNL d   1       2.928   0.846   1.125  0.00  0.00     0.078 C 
ATOM      2  C1  UNL d   1       4.000   1.894   1.137  0.00  0.00    -0.077 A 
ATOM      3  C2  UNL d   1       4.151   2.760   2.227  0.00  0.00    -0.001 A 
ATOM      4  C3  UNL d   1       5.147   3.737   2.220  0.00  0.00     0.003 A 
ATOM      5  C4  UNL d   1       6.000   3.859   1.125  0.00  0.00    -0.005 A 
ATOM      6  C5  UNL d   1       5.857   3.004   0.034  0.00  0.00     0.003 A 
ATOM      7  C6  UNL d   1       4.861   2.026   0.040  0.00  0.00    -0.001 A 
ENDROOT
TORSDOF 0
ENDMDL
