MODEL 1
REMARK minimizedAffinity 7.80234194
REMARK minimizedRMSD -1
REMARK  0 active torsions:
REMARK  status: ('A' for Active; 'I' for Inactive)
ROOT
ATOM      1  C   UNL d   1      -4.302   0.652   0.325  0.00  0.00     0.078 C 
ATOM      2  C1  UNL d   1      -3.139   0.036   1.043  0.00  0.00    -0.077 A 
ATOM      3  C2  UNL d   1      -2.702  -1.257   0.731  0.00  0.00    -0.001 A 
ATOM      4  C3  UNL d   1      -1.624  -1.822   1.414  0.00  0.00     0.003 A 
ATOM      5  C4  UNL d   1      -0.976  -1.102   2.415  0.00  0.00    -0.005 A 
ATOM      6  C5  UNL d   1      -1.405   0.184   2.735  0.00  0.00     0.003 A 
ATOM      7  C6  UNL d   1      -2.483   0.751   2.052  0.00  0.00    -0.001 A 
ENDROOT
TORSDOF 0
ENDMDL
