MODEL 1
REMARK minimizedAffinity 9.0010891
REMARK minimizedRMSD -1
REMARK  0 active torsions:
REMARK  status: ('A' for Active; 'I' for Inactive)
ROOT
ATOM      1  C   UNL d   1       5.345   5.877  -1.733  0.00  0.00     0.078 C 
ATOM      2  C1  UNL d   1       4.874   4.944  -2.807  0.00  0.00    -0.077 A 
ATOM      3  C2  UNL d   1       3.580   4.407  -2.780  0.00  0.00    -0.001 A 
ATOM      4  C3  UNL d   1       3.158   3.532  -3.781  0.00  0.00     0.003 A 
ATOM      5  C4  UNL d   1       4.023   3.184  -4.817  0.00  0.00    -0.005 A 
ATOM      6  C5  UNL d   1       5.312   3.711  -4.851  0.00  0.00     0.003 A 
ATOM      7  C6  UNL d   1       5.737   4.586  -3.850  0.00  0.00    -0.001 A 
ENDROOT
TORSDOF 0
ENDMDL
