MODEL 1
REMARK minimizedAffinity 4.50580788
REMARK minimizedRMSD -1
REMARK  0 active torsions:
REMARK  status: ('A' for Active; 'I' for Inactive)
ROOT
ATOM      1  C   UNL d   1      -4.755   5.724  -2.322  0.00  0.00     0.078 C 
ATOM      2  C1  UNL d   1      -3.951   5.748  -3.588  0.00  0.00    -0.077 A 
ATOM      3  C2  UNL d   1      -2.563   5.570  -3.564  0.00  0.00    -0.001 A 
ATOM      4  C3  UNL d   1      -1.827   5.605  -4.750  0.00  0.00     0.003 A 
ATOM      5  C4  UNL d   1      -2.470   5.819  -5.967  0.00  0.00    -0.005 A 
ATOM      6  C5  UNL d   1      -3.851   6.000  -6.000  0.00  0.00     0.003 A 
ATOM      7  C6  UNL d   1      -4.589   5.965  -4.816  0.00  0.00    -0.001 A 
ENDROOT
TORSDOF 0
ENDMDL
