MODEL 1
REMARK minimizedAffinity 4.73952532
REMARK minimizedRMSD -1
REMARK  0 active torsions:
REMARK  status: ('A' for Active; 'I' for Inactive)
ROOT
ATOM      1  C   UNL d   1      -4.562   0.488   0.544  0.00  0.00     0.078 C 
ATOM      2  C1  UNL d   1      -3.271   0.032   1.157  0.00  0.00    -0.077 A 
ATOM      3  C2  UNL d   1      -2.773   0.633   2.319  0.00  0.00    -0.001 A 
ATOM      4  C3  UNL d   1      -1.566   0.205   2.873  0.00  0.00     0.003 A 
ATOM      5  C4  UNL d   1      -0.846  -0.825   2.272  0.00  0.00    -0.005 A 
ATOM      6  C5  UNL d   1      -1.333  -1.428   1.114  0.00  0.00     0.003 A 
ATOM      7  C6  UNL d   1      -2.540  -1.001   0.558  0.00  0.00    -0.001 A 
ENDROOT
TORSDOF 0
ENDMDL
