MODEL 1
REMARK minimizedAffinity 7.96005678
REMARK minimizedRMSD -1
REMARK  0 active torsions:
REMARK  status: ('A' for Active; 'I' for Inactive)
ROOT
ATOM      1  C   UNL d   1       4.847   6.000  -1.776  0.00  0.00     0.078 C 
ATOM      2  C1  UNL d   1       4.487   4.941  -2.774  0.00  0.00    -0.077 A 
ATOM      3  C2  UNL d   1       5.252   4.749  -3.931  0.00  0.00    -0.001 A 
ATOM      4  C3  UNL d   1       4.899   3.766  -4.856  0.00  0.00     0.003 A 
ATOM      5  C4  UNL d   1       3.778   2.967  -4.635  0.00  0.00    -0.005 A 
ATOM      6  C5  UNL d   1       3.009   3.152  -3.488  0.00  0.00     0.003 A 
ATOM      7  C6  UNL d   1       3.361   4.134  -2.561  0.00  0.00    -0.001 A 
ENDROOT
TORSDOF 0
ENDMDL
