MODEL 1
REMARK minimizedAffinity 6.63866901
REMARK minimizedRMSD -1
REMARK  0 active torsions:
REMARK  status: ('A' for Active; 'I' for Inactive)
ROOT
ATOM      1  C   UNL d   1      -5.247   1.558   0.167  0.00  0.00     0.078 C 
ATOM      2  C1  UNL d   1      -4.144   0.996   1.013  0.00  0.00    -0.077 A 
ATOM      3  C2  UNL d   1      -3.651   1.702   2.117  0.00  0.00    -0.001 A 
ATOM      4  C3  UNL d   1      -2.618   1.171   2.890  0.00  0.00     0.003 A 
ATOM      5  C4  UNL d   1      -2.067  -0.068   2.567  0.00  0.00    -0.005 A 
ATOM      6  C5  UNL d   1      -2.550  -0.777   1.470  0.00  0.00     0.003 A 
ATOM      7  C6  UNL d   1      -3.584  -0.247   0.695  0.00  0.00    -0.001 A 
ENDROOT
TORSDOF 0
ENDMDL
