MODEL 1
REMARK minimizedAffinity 1.63059485
REMARK minimizedRMSD -1
REMARK  0 active torsions:
REMARK  status: ('A' for Active; 'I' for Inactive)
ROOT
ATOM      1  C   UNL d   1      -4.018   5.999  -2.278  0.00  0.00     0.078 C 
ATOM      2  C1  UNL d   1      -3.264   6.000  -3.574  0.00  0.00    -0.077 A 
ATOM      3  C2  UNL d   1      -3.939   5.989  -4.801  0.00  0.00    -0.001 A 
ATOM      4  C3  UNL d   1      -3.224   5.981  -6.000  0.00  0.00     0.003 A 
ATOM      5  C4  UNL d   1      -1.831   5.982  -5.984  0.00  0.00    -0.005 A 
ATOM      6  C5  UNL d   1      -1.151   5.990  -4.768  0.00  0.00     0.003 A 
ATOM      7  C6  UNL d   1      -1.864   5.998  -3.568  0.00  0.00    -0.001 A 
ENDROOT
TORSDOF 0
ENDMDL
