MODEL 1
REMARK minimizedAffinity 7.64088726
REMARK minimizedRMSD -1
REMARK  0 active torsions:
REMARK  status: ('A' for Active; 'I' for Inactive)
ROOT
ATOM      1  C   UNL d   1       6.000   5.382  -4.887  0.00  0.00     0.078 C 
ATOM      2  C1  UNL d   1       4.819   4.599  -4.396  0.00  0.00    -0.077 A 
ATOM      3  C2  UNL d   1       4.111   3.747  -5.253  0.00  0.00    -0.001 A 
ATOM      4  C3  UNL d   1       3.008   3.032  -4.785  0.00  0.00     0.003 A 
ATOM      5  C4  UNL d   1       2.601   3.162  -3.458  0.00  0.00    -0.005 A 
ATOM      6  C5  UNL d   1       3.298   4.009  -2.598  0.00  0.00     0.003 A 
ATOM      7  C6  UNL d   1       4.402   4.725  -3.065  0.00  0.00    -0.001 A 
ENDROOT
TORSDOF 0
ENDMDL
