MODEL 1
REMARK minimizedAffinity 2.76830411
REMARK minimizedRMSD -1
REMARK  0 active torsions:
REMARK  status: ('A' for Active; 'I' for Inactive)
ROOT
ATOM      1  C   UNL d   1       2.309   1.875  -0.002  0.00  0.00     0.078 C 
ATOM      2  C1  UNL d   1       3.598   2.560   0.345  0.00  0.00    -0.077 A 
ATOM      3  C2  UNL d   1       4.744   2.378  -0.437  0.00  0.00    -0.001 A 
ATOM      4  C3  UNL d   1       5.939   3.015  -0.097  0.00  0.00     0.003 A 
ATOM      5  C4  UNL d   1       5.999   3.835   1.028  0.00  0.00    -0.005 A 
ATOM      6  C5  UNL d   1       4.864   4.019   1.814  0.00  0.00     0.003 A 
ATOM      7  C6  UNL d   1       3.668   3.384   1.475  0.00  0.00    -0.001 A 
ENDROOT
TORSDOF 0
ENDMDL
