MODEL 1
REMARK minimizedAffinity 4.96203327
REMARK minimizedRMSD -1
REMARK  0 active torsions:
REMARK  status: ('A' for Active; 'I' for Inactive)
ROOT
ATOM      1  C   UNL d   1      -4.840   0.655   1.483  0.00  0.00     0.078 C 
ATOM      2  C1  UNL d   1      -3.562  -0.004   1.907  0.00  0.00    -0.077 A 
ATOM      3  C2  UNL d   1      -2.743   0.573   2.886  0.00  0.00    -0.001 A 
ATOM      4  C3  UNL d   1      -1.551  -0.047   3.264  0.00  0.00     0.003 A 
ATOM      5  C4  UNL d   1      -1.166  -1.246   2.667  0.00  0.00    -0.005 A 
ATOM      6  C5  UNL d   1      -1.973  -1.826   1.691  0.00  0.00     0.003 A 
ATOM      7  C6  UNL d   1      -3.166  -1.208   1.311  0.00  0.00    -0.001 A 
ENDROOT
TORSDOF 0
ENDMDL
