MODEL 1
REMARK minimizedAffinity 2.80894327
REMARK minimizedRMSD -1
REMARK  0 active torsions:
REMARK  status: ('A' for Active; 'I' for Inactive)
ROOT
ATOM      1  C   UNL d   1       1.146   4.712  -2.513  0.00  0.00     0.078 C 
ATOM      2  C1  UNL d   1       1.797   3.528  -1.862  0.00  0.00    -0.077 A 
ATOM      3  C2  UNL d   1       2.824   2.826  -2.504  0.00  0.00    -0.001 A 
ATOM      4  C3  UNL d   1       3.414   1.720  -1.890  0.00  0.00     0.003 A 
ATOM      5  C4  UNL d   1       2.982   1.305  -0.632  0.00  0.00    -0.005 A 
ATOM      6  C5  UNL d   1       1.959   1.997   0.014  0.00  0.00     0.003 A 
ATOM      7  C6  UNL d   1       1.368   3.103  -0.598  0.00  0.00    -0.001 A 
ENDROOT
TORSDOF 0
ENDMDL
