MODEL 1
REMARK minimizedAffinity -4.10457516
REMARK minimizedRMSD -1
REMARK  0 active torsions:
REMARK  status: ('A' for Active; 'I' for Inactive)
ROOT
ATOM      1  C   UNL d   1      -0.536   4.873  -1.116  0.00  0.00     0.078 C 
ATOM      2  C1  UNL d   1       0.647   3.953  -1.060  0.00  0.00    -0.077 A 
ATOM      3  C2  UNL d   1       1.346   3.750   0.136  0.00  0.00    -0.001 A 
ATOM      4  C3  UNL d   1       2.451   2.898   0.172  0.00  0.00     0.003 A 
ATOM      5  C4  UNL d   1       2.868   2.244  -0.986  0.00  0.00    -0.005 A 
ATOM      6  C5  UNL d   1       2.180   2.442  -2.181  0.00  0.00     0.003 A 
ATOM      7  C6  UNL d   1       1.074   3.294  -2.219  0.00  0.00    -0.001 A 
ENDROOT
TORSDOF 0
ENDMDL
