MODEL 1
REMARK minimizedAffinity -5.22022963
REMARK minimizedRMSD -1
REMARK  1 active torsions:
REMARK  status: ('A' for Active; 'I' for Inactive)
REMARK    1  A    between atoms: C3_4  and  O_7 
ROOT
ATOM      1  C   UNL d   1       0.177   0.830  -1.245  0.00  0.00    -0.033 A 
ATOM      2  C1  UNL d   1       0.537   0.013  -0.171  0.00  0.00     0.039 A 
ATOM      3  C2  UNL d   1       1.811  -0.555  -0.120  0.00  0.00    -0.080 A 
ATOM      4  C3  UNL d   1       2.716  -0.298  -1.146  0.00  0.00     0.150 A 
ATOM      5  C4  UNL d   1       2.366   0.518  -2.217  0.00  0.00    -0.007 A 
ATOM      6  C5  UNL d   1       1.092   1.084  -2.267  0.00  0.00     0.039 A 
ENDROOT
BRANCH   4   7
ATOM      7  O   UNL d   1       3.969  -0.834  -1.142  0.00  0.00    -0.526 OA
ATOM      8  H5  UNL d   1       4.060  -1.398  -0.357  0.00  0.00     0.418 HD
ENDBRANCH   4   7
TORSDOF 1
ENDMDL
