MODEL 1
REMARK minimizedAffinity -5.12812328
REMARK minimizedRMSD -1
REMARK  1 active torsions:
REMARK  status: ('A' for Active; 'I' for Inactive)
REMARK    1  A    between atoms: C3_4  and  O_7 
ROOT
ATOM      1  C   UNL d   1      -1.264   0.969  -0.655  0.00  0.00    -0.033 A 
ATOM      2  C1  UNL d   1      -0.795  -0.165   0.011  0.00  0.00     0.039 A 
ATOM      3  C2  UNL d   1       0.555  -0.514  -0.065  0.00  0.00    -0.080 A 
ATOM      4  C3  UNL d   1       1.424   0.278  -0.810  0.00  0.00     0.150 A 
ATOM      5  C4  UNL d   1       0.965   1.411  -1.474  0.00  0.00    -0.007 A 
ATOM      6  C5  UNL d   1      -0.383   1.758  -1.397  0.00  0.00     0.039 A 
ENDROOT
BRANCH   4   7
ATOM      7  O   UNL d   1       2.749  -0.025  -0.918  0.00  0.00    -0.526 OA
ATOM      8  H5  UNL d   1       2.916  -0.850  -0.432  0.00  0.00     0.418 HD
ENDBRANCH   4   7
TORSDOF 1
ENDMDL
