MODEL 1
REMARK minimizedAffinity -2.76586676
REMARK minimizedRMSD -1
REMARK  1 active torsions:
REMARK  status: ('A' for Active; 'I' for Inactive)
REMARK    1  A    between atoms: C3_4  and  O_7 
ROOT
ATOM      1  C   UNL d   1      -1.120  -0.759  -0.017  0.00  0.00    -0.033 A 
ATOM      2  C1  UNL d   1      -0.652  -2.065  -0.175  0.00  0.00     0.039 A 
ATOM      3  C2  UNL d   1       0.691  -2.295  -0.480  0.00  0.00    -0.080 A 
ATOM      4  C3  UNL d   1       1.554  -1.212  -0.624  0.00  0.00     0.150 A 
ATOM      5  C4  UNL d   1       1.095   0.092  -0.465  0.00  0.00    -0.007 A 
ATOM      6  C5  UNL d   1      -0.246   0.319  -0.160  0.00  0.00     0.039 A 
ENDROOT
BRANCH   4   7
ATOM      7  O   UNL d   1       2.872  -1.386  -0.927  0.00  0.00    -0.526 OA
ATOM      8  H5  UNL d   1       3.039  -2.337  -1.036  0.00  0.00     0.418 HD
ENDBRANCH   4   7
TORSDOF 1
ENDMDL
