MODEL 1
REMARK minimizedAffinity -5.19061518
REMARK minimizedRMSD -1
REMARK  1 active torsions:
REMARK  status: ('A' for Active; 'I' for Inactive)
REMARK    1  A    between atoms: C3_4  and  O_7 
ROOT
ATOM      1  C   UNL d   1      -0.132  -0.727   0.076  0.00  0.00    -0.033 A 
ATOM      2  C1  UNL d   1       0.323  -1.785  -0.714  0.00  0.00     0.039 A 
ATOM      3  C2  UNL d   1       1.592  -1.731  -1.293  0.00  0.00    -0.080 A 
ATOM      4  C3  UNL d   1       2.397  -0.616  -1.073  0.00  0.00     0.150 A 
ATOM      5  C4  UNL d   1       1.952   0.439  -0.284  0.00  0.00    -0.007 A 
ATOM      6  C5  UNL d   1       0.683   0.384   0.292  0.00  0.00     0.039 A 
ENDROOT
BRANCH   4   7
ATOM      7  O   UNL d   1       3.641  -0.517  -1.620  0.00  0.00    -0.526 OA
ATOM      8  H5  UNL d   1       3.803  -1.306  -2.164  0.00  0.00     0.418 HD
ENDBRANCH   4   7
TORSDOF 1
ENDMDL
