MODEL 1
REMARK minimizedAffinity -4.41569281
REMARK minimizedRMSD -1
REMARK  1 active torsions:
REMARK  status: ('A' for Active; 'I' for Inactive)
REMARK    1  A    between atoms: C3_4  and  O_7 
ROOT
ATOM      1  C   UNL d   1       2.856  -0.672  -1.232  0.00  0.00    -0.033 A 
ATOM      2  C1  UNL d   1       1.770  -1.441  -1.656  0.00  0.00     0.039 A 
ATOM      3  C2  UNL d   1       0.521  -1.280  -1.054  0.00  0.00    -0.080 A 
ATOM      4  C3  UNL d   1       0.370  -0.346  -0.032  0.00  0.00     0.150 A 
ATOM      5  C4  UNL d   1       1.447   0.426   0.392  0.00  0.00    -0.007 A 
ATOM      6  C5  UNL d   1       2.694   0.263  -0.210  0.00  0.00     0.039 A 
ENDROOT
BRANCH   4   7
ATOM      7  O   UNL d   1      -0.829  -0.156   0.588  0.00  0.00    -0.526 OA
ATOM      8  H5  UNL d   1      -1.472  -0.779   0.211  0.00  0.00     0.418 HD
ENDBRANCH   4   7
TORSDOF 1
ENDMDL
