MODEL 1
REMARK minimizedAffinity -4.43741655
REMARK minimizedRMSD -1
REMARK  1 active torsions:
REMARK  status: ('A' for Active; 'I' for Inactive)
REMARK    1  A    between atoms: C3_4  and  O_7 
ROOT
ATOM      1  C   UNL d   1      -0.336  -0.817  -0.185  0.00  0.00    -0.033 A 
ATOM      2  C1  UNL d   1       0.319  -1.897  -0.779  0.00  0.00     0.039 A 
ATOM      3  C2  UNL d   1       1.696  -1.842  -1.006  0.00  0.00    -0.080 A 
ATOM      4  C3  UNL d   1       2.404  -0.702  -0.635  0.00  0.00     0.150 A 
ATOM      5  C4  UNL d   1       1.758   0.376  -0.040  0.00  0.00    -0.007 A 
ATOM      6  C5  UNL d   1       0.383   0.320   0.186  0.00  0.00     0.039 A 
ENDROOT
BRANCH   4   7
ATOM      7  O   UNL d   1       3.748  -0.600  -0.841  0.00  0.00    -0.526 OA
ATOM      8  H5  UNL d   1       4.053  -1.408  -1.286  0.00  0.00     0.418 HD
ENDBRANCH   4   7
TORSDOF 1
ENDMDL
