MODEL 1
REMARK minimizedAffinity -2.67830348
REMARK minimizedRMSD -1
REMARK  1 active torsions:
REMARK  status: ('A' for Active; 'I' for Inactive)
REMARK    1  A    between atoms: C3_4  and  O_7 
ROOT
ATOM      1  C   UNL d   1      -0.126   0.742   0.418  0.00  0.00    -0.033 A 
ATOM      2  C1  UNL d   1      -0.723  -0.426  -0.060  0.00  0.00     0.039 A 
ATOM      3  C2  UNL d   1       0.011  -1.314  -0.849  0.00  0.00    -0.080 A 
ATOM      4  C3  UNL d   1       1.338  -1.024  -1.152  0.00  0.00     0.150 A 
ATOM      5  C4  UNL d   1       1.940   0.136  -0.675  0.00  0.00    -0.007 A 
ATOM      6  C5  UNL d   1       1.206   1.023   0.112  0.00  0.00     0.039 A 
ENDROOT
BRANCH   4   7
ATOM      7  O   UNL d   1       2.092  -1.858  -1.922  0.00  0.00    -0.526 OA
ATOM      8  H5  UNL d   1       1.537  -2.604  -2.203  0.00  0.00     0.418 HD
ENDBRANCH   4   7
TORSDOF 1
ENDMDL
