MODEL 1
REMARK minimizedAffinity -2.24908781
REMARK minimizedRMSD -1
REMARK  1 active torsions:
REMARK  status: ('A' for Active; 'I' for Inactive)
REMARK    1  A    between atoms: C3_4  and  O_7 
ROOT
ATOM      1  C   UNL d   1       3.446  -0.737  -1.212  0.00  0.00    -0.033 A 
ATOM      2  C1  UNL d   1       3.353   0.138  -0.128  0.00  0.00     0.039 A 
ATOM      3  C2  UNL d   1       2.103   0.467   0.401  0.00  0.00    -0.080 A 
ATOM      4  C3  UNL d   1       0.956  -0.087  -0.162  0.00  0.00     0.150 A 
ATOM      5  C4  UNL d   1       1.042  -0.962  -1.240  0.00  0.00    -0.007 A 
ATOM      6  C5  UNL d   1       2.291  -1.289  -1.767  0.00  0.00     0.039 A 
ENDROOT
BRANCH   4   7
ATOM      7  O   UNL d   1      -0.286   0.208   0.316  0.00  0.00    -0.526 OA
ATOM      8  H5  UNL d   1      -0.192   0.848   1.042  0.00  0.00     0.418 HD
ENDBRANCH   4   7
TORSDOF 1
ENDMDL
