MODEL 1
REMARK minimizedAffinity -5.01133776
REMARK minimizedRMSD -1
REMARK  1 active torsions:
REMARK  status: ('A' for Active; 'I' for Inactive)
REMARK    1  A    between atoms: C3_4  and  O_7 
ROOT
ATOM      1  C   UNL d   1      -0.563   1.108  -0.454  0.00  0.00    -0.033 A 
ATOM      2  C1  UNL d   1      -0.379  -0.129   0.168  0.00  0.00     0.039 A 
ATOM      3  C2  UNL d   1       0.778  -0.870  -0.077  0.00  0.00    -0.080 A 
ATOM      4  C3  UNL d   1       1.743  -0.364  -0.943  0.00  0.00     0.150 A 
ATOM      5  C4  UNL d   1       1.569   0.868  -1.563  0.00  0.00    -0.007 A 
ATOM      6  C5  UNL d   1       0.412   1.607  -1.319  0.00  0.00     0.039 A 
ENDROOT
BRANCH   4   7
ATOM      7  O   UNL d   1       2.887  -1.054  -1.217  0.00  0.00    -0.526 OA
ATOM      8  H5  UNL d   1       2.858  -1.900  -0.740  0.00  0.00     0.418 HD
ENDBRANCH   4   7
TORSDOF 1
ENDMDL
