MODEL 1
REMARK minimizedAffinity -0.695655882
REMARK minimizedRMSD -1
REMARK  1 active torsions:
REMARK  status: ('A' for Active; 'I' for Inactive)
REMARK    1  A    between atoms: C3_4  and  O_7 
ROOT
ATOM      1  C   UNL d   1      -1.677   0.357   0.297  0.00  0.00    -0.033 A 
ATOM      2  C1  UNL d   1      -1.377   1.014  -0.898  0.00  0.00     0.039 A 
ATOM      3  C2  UNL d   1      -0.047   1.235  -1.261  0.00  0.00    -0.080 A 
ATOM      4  C3  UNL d   1       0.972   0.793  -0.422  0.00  0.00     0.150 A 
ATOM      5  C4  UNL d   1       0.680   0.134   0.768  0.00  0.00    -0.007 A 
ATOM      6  C5  UNL d   1      -0.649  -0.084   1.129  0.00  0.00     0.039 A 
ENDROOT
BRANCH   4   7
ATOM      7  O   UNL d   1       2.285   0.989  -0.731  0.00  0.00    -0.526 OA
ATOM      8  H5  UNL d   1       2.334   1.482  -1.567  0.00  0.00     0.418 HD
ENDBRANCH   4   7
TORSDOF 1
ENDMDL
