MODEL 1
REMARK minimizedAffinity -4.27613688
REMARK minimizedRMSD -1
REMARK  1 active torsions:
REMARK  status: ('A' for Active; 'I' for Inactive)
REMARK    1  A    between atoms: C3_4  and  O_7 
ROOT
ATOM      1  C   UNL d   1       1.837  -1.257  -1.617  0.00  0.00    -0.033 A 
ATOM      2  C1  UNL d   1       0.878  -2.182  -1.199  0.00  0.00     0.039 A 
ATOM      3  C2  UNL d   1      -0.104  -1.805  -0.281  0.00  0.00    -0.080 A 
ATOM      4  C3  UNL d   1      -0.116  -0.503   0.212  0.00  0.00     0.150 A 
ATOM      5  C4  UNL d   1       0.835   0.424  -0.203  0.00  0.00    -0.007 A 
ATOM      6  C5  UNL d   1       1.815   0.046  -1.120  0.00  0.00     0.039 A 
ENDROOT
BRANCH   4   7
ATOM      7  O   UNL d   1      -1.051  -0.091   1.114  0.00  0.00    -0.526 OA
ATOM      8  H5  UNL d   1      -1.624  -0.845   1.330  0.00  0.00     0.418 HD
ENDBRANCH   4   7
TORSDOF 1
ENDMDL
