MODEL 1
REMARK minimizedAffinity -3.92748404
REMARK minimizedRMSD -1
REMARK  1 active torsions:
REMARK  status: ('A' for Active; 'I' for Inactive)
REMARK    1  A    between atoms: C3_4  and  O_7 
ROOT
ATOM      1  C   UNL d   1       2.529  -0.772  -1.080  0.00  0.00    -0.033 A 
ATOM      2  C1  UNL d   1       2.125   0.557  -1.222  0.00  0.00     0.039 A 
ATOM      3  C2  UNL d   1       0.874   0.962  -0.752  0.00  0.00    -0.080 A 
ATOM      4  C3  UNL d   1       0.039   0.030  -0.141  0.00  0.00     0.150 A 
ATOM      5  C4  UNL d   1       0.437  -1.294   0.007  0.00  0.00    -0.007 A 
ATOM      6  C5  UNL d   1       1.686  -1.697  -0.464  0.00  0.00     0.039 A 
ENDROOT
BRANCH   4   7
ATOM      7  O   UNL d   1      -1.193   0.377   0.329  0.00  0.00    -0.526 OA
ATOM      8  H5  UNL d   1      -1.344   1.316   0.131  0.00  0.00     0.418 HD
ENDBRANCH   4   7
TORSDOF 1
ENDMDL
