MODEL 1
REMARK minimizedAffinity -4.76295853
REMARK minimizedRMSD -1
REMARK  1 active torsions:
REMARK  status: ('A' for Active; 'I' for Inactive)
REMARK    1  A    between atoms: C3_4  and  O_7 
ROOT
ATOM      1  C   UNL d   1       2.621  -0.623  -1.970  0.00  0.00    -0.033 A 
ATOM      2  C1  UNL d   1       1.621  -1.589  -1.844  0.00  0.00     0.039 A 
ATOM      3  C2  UNL d   1       0.549  -1.378  -0.976  0.00  0.00    -0.080 A 
ATOM      4  C3  UNL d   1       0.487  -0.197  -0.241  0.00  0.00     0.150 A 
ATOM      5  C4  UNL d   1       1.477   0.772  -0.365  0.00  0.00    -0.007 A 
ATOM      6  C5  UNL d   1       2.548   0.559  -1.232  0.00  0.00     0.039 A 
ENDROOT
BRANCH   4   7
ATOM      7  O   UNL d   1      -0.538   0.052   0.622  0.00  0.00    -0.526 OA
ATOM      8  H5  UNL d   1      -1.132  -0.718   0.625  0.00  0.00     0.418 HD
ENDBRANCH   4   7
TORSDOF 1
ENDMDL
