MODEL 1
REMARK minimizedAffinity -4.54606533
REMARK minimizedRMSD -1
REMARK  1 active torsions:
REMARK  status: ('A' for Active; 'I' for Inactive)
REMARK    1  A    between atoms: C3_4  and  O_7 
ROOT
ATOM      1  C   UNL d   1       2.418  -0.806  -1.770  0.00  0.00    -0.033 A 
ATOM      2  C1  UNL d   1       2.175   0.551  -1.547  0.00  0.00     0.039 A 
ATOM      3  C2  UNL d   1       1.148   0.945  -0.687  0.00  0.00    -0.080 A 
ATOM      4  C3  UNL d   1       0.374  -0.025  -0.056  0.00  0.00     0.150 A 
ATOM      5  C4  UNL d   1       0.614  -1.379  -0.271  0.00  0.00    -0.007 A 
ATOM      6  C5  UNL d   1       1.639  -1.770  -1.131  0.00  0.00     0.039 A 
ENDROOT
BRANCH   4   7
ATOM      7  O   UNL d   1      -0.642   0.311   0.788  0.00  0.00    -0.526 OA
ATOM      8  H5  UNL d   1      -0.710   1.280   0.818  0.00  0.00     0.418 HD
ENDBRANCH   4   7
TORSDOF 1
ENDMDL
