MODEL 1
REMARK minimizedAffinity -2.09105444
REMARK minimizedRMSD -1
REMARK  1 active torsions:
REMARK  status: ('A' for Active; 'I' for Inactive)
REMARK    1  A    between atoms: C3_4  and  O_7 
ROOT
ATOM      1  C   UNL d   1      -0.037   0.423   0.758  0.00  0.00    -0.033 A 
ATOM      2  C1  UNL d   1       1.118   0.896   0.131  0.00  0.00     0.039 A 
ATOM      3  C2  UNL d   1       1.724   0.145  -0.878  0.00  0.00    -0.080 A 
ATOM      4  C3  UNL d   1       1.165  -1.075  -1.252  0.00  0.00     0.150 A 
ATOM      5  C4  UNL d   1       0.013  -1.550  -0.634  0.00  0.00    -0.007 A 
ATOM      6  C5  UNL d   1      -0.590  -0.799   0.375  0.00  0.00     0.039 A 
ENDROOT
BRANCH   4   7
ATOM      7  O   UNL d   1       1.723  -1.845  -2.228  0.00  0.00    -0.526 OA
ATOM      8  H5  UNL d   1       2.529  -1.404  -2.545  0.00  0.00     0.418 HD
ENDBRANCH   4   7
TORSDOF 1
ENDMDL
