MODEL 1
REMARK minimizedAffinity -3.76730943
REMARK minimizedRMSD -1
REMARK  1 active torsions:
REMARK  status: ('A' for Active; 'I' for Inactive)
REMARK    1  A    between atoms: C3_4  and  O_7 
ROOT
ATOM      1  C   UNL d   1       0.659   2.524  -2.057  0.00  0.00    -0.033 A 
ATOM      2  C1  UNL d   1       0.889   1.757  -0.914  0.00  0.00     0.039 A 
ATOM      3  C2  UNL d   1       1.830   0.727  -0.939  0.00  0.00    -0.080 A 
ATOM      4  C3  UNL d   1       2.535   0.474  -2.113  0.00  0.00     0.150 A 
ATOM      5  C4  UNL d   1       2.315   1.237  -3.255  0.00  0.00    -0.007 A 
ATOM      6  C5  UNL d   1       1.373   2.265  -3.228  0.00  0.00     0.039 A 
ENDROOT
BRANCH   4   7
ATOM      7  O   UNL d   1       3.461  -0.524  -2.188  0.00  0.00    -0.526 OA
ATOM      8  H5  UNL d   1       3.486  -0.985  -1.332  0.00  0.00     0.418 HD
ENDBRANCH   4   7
TORSDOF 1
ENDMDL
