MODEL 1
REMARK minimizedAffinity -1.32415307
REMARK minimizedRMSD -1
REMARK  1 active torsions:
REMARK  status: ('A' for Active; 'I' for Inactive)
REMARK    1  A    between atoms: C3_4  and  O_7 
ROOT
ATOM      1  C   UNL d   1       0.847  -0.687   0.258  0.00  0.00    -0.033 A 
ATOM      2  C1  UNL d   1       1.642   0.311  -0.310  0.00  0.00     0.039 A 
ATOM      3  C2  UNL d   1       1.048   1.376  -0.989  0.00  0.00    -0.080 A 
ATOM      4  C3  UNL d   1      -0.339   1.433  -1.092  0.00  0.00     0.150 A 
ATOM      5  C4  UNL d   1      -1.137   0.444  -0.525  0.00  0.00    -0.007 A 
ATOM      6  C5  UNL d   1      -0.542  -0.620   0.152  0.00  0.00     0.039 A 
ENDROOT
BRANCH   4   7
ATOM      7  O   UNL d   1      -0.964   2.450  -1.750  0.00  0.00    -0.526 OA
ATOM      8  H5  UNL d   1      -0.286   3.044  -2.114  0.00  0.00     0.418 HD
ENDBRANCH   4   7
TORSDOF 1
ENDMDL
