MODEL 1
REMARK minimizedAffinity -5.39805651
REMARK minimizedRMSD -1
REMARK  1 active torsions:
REMARK  status: ('A' for Active; 'I' for Inactive)
REMARK    1  A    between atoms: C3_4  and  O_7 
ROOT
ATOM      1  C   UNL d   1       0.112   1.113  -1.108  0.00  0.00    -0.033 A 
ATOM      2  C1  UNL d   1       0.289  -0.155  -0.550  0.00  0.00     0.039 A 
ATOM      3  C2  UNL d   1       1.529  -0.791  -0.637  0.00  0.00    -0.080 A 
ATOM      4  C3  UNL d   1       2.582  -0.149  -1.283  0.00  0.00     0.150 A 
ATOM      5  C4  UNL d   1       2.414   1.115  -1.838  0.00  0.00    -0.007 A 
ATOM      6  C5  UNL d   1       1.174   1.748  -1.751  0.00  0.00     0.039 A 
ENDROOT
BRANCH   4   7
ATOM      7  O   UNL d   1       3.809  -0.732  -1.397  0.00  0.00    -0.526 OA
ATOM      8  H5  UNL d   1       3.769  -1.614  -0.993  0.00  0.00     0.418 HD
ENDBRANCH   4   7
TORSDOF 1
ENDMDL
