MODEL 1
REMARK minimizedAffinity -2.41275597
REMARK minimizedRMSD -1
REMARK  1 active torsions:
REMARK  status: ('A' for Active; 'I' for Inactive)
REMARK    1  A    between atoms: C3_4  and  O_7 
ROOT
ATOM      1  C   UNL d   1      -0.439  -0.664   0.244  0.00  0.00    -0.033 A 
ATOM      2  C1  UNL d   1       0.319   0.509   0.265  0.00  0.00     0.039 A 
ATOM      3  C2  UNL d   1       1.555   0.555  -0.382  0.00  0.00    -0.080 A 
ATOM      4  C3  UNL d   1       2.021  -0.576  -1.047  0.00  0.00     0.150 A 
ATOM      5  C4  UNL d   1       1.269  -1.746  -1.075  0.00  0.00    -0.007 A 
ATOM      6  C5  UNL d   1       0.035  -1.791  -0.428  0.00  0.00     0.039 A 
ENDROOT
BRANCH   4   7
ATOM      7  O   UNL d   1       3.224  -0.581  -1.689  0.00  0.00    -0.526 OA
ATOM      8  H5  UNL d   1       3.644   0.286  -1.560  0.00  0.00     0.418 HD
ENDBRANCH   4   7
TORSDOF 1
ENDMDL
