MODEL 1
REMARK minimizedAffinity -3.68202162
REMARK minimizedRMSD -1
REMARK  1 active torsions:
REMARK  status: ('A' for Active; 'I' for Inactive)
REMARK    1  A    between atoms: C3_4  and  O_7 
ROOT
ATOM      1  C   UNL d   1       0.201   0.776  -0.146  0.00  0.00    -0.033 A 
ATOM      2  C1  UNL d   1      -0.598  -0.059   0.637  0.00  0.00     0.039 A 
ATOM      3  C2  UNL d   1      -1.559   0.488   1.489  0.00  0.00    -0.080 A 
ATOM      4  C3  UNL d   1      -1.712   1.871   1.548  0.00  0.00     0.150 A 
ATOM      5  C4  UNL d   1      -0.922   2.709   0.768  0.00  0.00    -0.007 A 
ATOM      6  C5  UNL d   1       0.038   2.160  -0.082  0.00  0.00     0.039 A 
ENDROOT
BRANCH   4   7
ATOM      7  O   UNL d   1      -2.633   2.452   2.368  0.00  0.00    -0.526 OA
ATOM      8  H5  UNL d   1      -3.085   1.752   2.868  0.00  0.00     0.418 HD
ENDBRANCH   4   7
TORSDOF 1
ENDMDL
