MODEL 1
REMARK minimizedAffinity -4.07461119
REMARK minimizedRMSD -1
REMARK  1 active torsions:
REMARK  status: ('A' for Active; 'I' for Inactive)
REMARK    1  A    between atoms: C3_4  and  O_7 
ROOT
ATOM      1  C   UNL d   1      -1.261   0.738   1.888  0.00  0.00    -0.033 A 
ATOM      2  C1  UNL d   1      -1.144   1.546   0.755  0.00  0.00     0.039 A 
ATOM      3  C2  UNL d   1      -0.164   1.273  -0.202  0.00  0.00    -0.080 A 
ATOM      4  C3  UNL d   1       0.690   0.190  -0.015  0.00  0.00     0.150 A 
ATOM      5  C4  UNL d   1       0.577  -0.622   1.109  0.00  0.00    -0.007 A 
ATOM      6  C5  UNL d   1      -0.401  -0.347   2.064  0.00  0.00     0.039 A 
ENDROOT
BRANCH   4   7
ATOM      7  O   UNL d   1       1.664  -0.113  -0.919  0.00  0.00    -0.526 OA
ATOM      8  H5  UNL d   1       1.643   0.550  -1.629  0.00  0.00     0.418 HD
ENDBRANCH   4   7
TORSDOF 1
ENDMDL
