MODEL 1
REMARK minimizedAffinity 0.0184580572
REMARK minimizedRMSD -1
REMARK  1 active torsions:
REMARK  status: ('A' for Active; 'I' for Inactive)
REMARK    1  A    between atoms: C3_4  and  O_7 
ROOT
ATOM      1  C   UNL d   1       0.958  -3.602  -3.040  0.00  0.00    -0.033 A 
ATOM      2  C1  UNL d   1       1.236  -3.878  -1.700  0.00  0.00     0.039 A 
ATOM      3  C2  UNL d   1       1.253  -2.845  -0.761  0.00  0.00    -0.080 A 
ATOM      4  C3  UNL d   1       0.992  -1.542  -1.174  0.00  0.00     0.150 A 
ATOM      5  C4  UNL d   1       0.711  -1.259  -2.507  0.00  0.00    -0.007 A 
ATOM      6  C5  UNL d   1       0.695  -2.292  -3.443  0.00  0.00     0.039 A 
ENDROOT
BRANCH   4   7
ATOM      7  O   UNL d   1       1.002  -0.500  -0.295  0.00  0.00    -0.526 OA
ATOM      8  H5  UNL d   1       1.239  -0.841   0.584  0.00  0.00     0.418 HD
ENDBRANCH   4   7
TORSDOF 1
ENDMDL
