MODEL 1
REMARK minimizedAffinity -3.68650413
REMARK minimizedRMSD -1
REMARK  1 active torsions:
REMARK  status: ('A' for Active; 'I' for Inactive)
REMARK    1  A    between atoms: C3_4  and  O_7 
ROOT
ATOM      1  C   UNL d   1      -1.076   2.275   1.410  0.00  0.00    -0.033 A 
ATOM      2  C1  UNL d   1      -1.097   1.028   2.037  0.00  0.00     0.039 A 
ATOM      3  C2  UNL d   1      -0.500  -0.075   1.422  0.00  0.00    -0.080 A 
ATOM      4  C3  UNL d   1       0.114   0.084   0.183  0.00  0.00     0.150 A 
ATOM      5  C4  UNL d   1       0.143   1.325  -0.445  0.00  0.00    -0.007 A 
ATOM      6  C5  UNL d   1      -0.454   2.424   0.170  0.00  0.00     0.039 A 
ENDROOT
BRANCH   4   7
ATOM      7  O   UNL d   1       0.706  -0.964  -0.458  0.00  0.00    -0.526 OA
ATOM      8  H5  UNL d   1       0.583  -1.763   0.081  0.00  0.00     0.418 HD
ENDBRANCH   4   7
TORSDOF 1
ENDMDL
