MODEL 1
REMARK minimizedAffinity -5.0591445
REMARK minimizedRMSD -1
REMARK  1 active torsions:
REMARK  status: ('A' for Active; 'I' for Inactive)
REMARK    1  A    between atoms: C3_4  and  O_7 
ROOT
ATOM      1  C   UNL d   1       0.446  -0.444   0.411  0.00  0.00    -0.033 A 
ATOM      2  C1  UNL d   1      -0.096  -0.547   1.694  0.00  0.00     0.039 A 
ATOM      3  C2  UNL d   1      -1.083   0.348   2.111  0.00  0.00    -0.080 A 
ATOM      4  C3  UNL d   1      -1.520   1.340   1.236  0.00  0.00     0.150 A 
ATOM      5  C4  UNL d   1      -0.987   1.446  -0.044  0.00  0.00    -0.007 A 
ATOM      6  C5  UNL d   1      -0.000   0.552  -0.458  0.00  0.00     0.039 A 
ENDROOT
BRANCH   4   7
ATOM      7  O   UNL d   1      -2.478   2.239   1.600  0.00  0.00    -0.526 OA
ATOM      8  H5  UNL d   1      -2.732   2.062   2.521  0.00  0.00     0.418 HD
ENDBRANCH   4   7
TORSDOF 1
ENDMDL
