MODEL 1
REMARK minimizedAffinity -3.52867436
REMARK minimizedRMSD -1
REMARK  1 active torsions:
REMARK  status: ('A' for Active; 'I' for Inactive)
REMARK    1  A    between atoms: C3_4  and  O_7 
ROOT
ATOM      1  C   UNL d   1      -0.220  -0.766   1.893  0.00  0.00    -0.033 A 
ATOM      2  C1  UNL d   1      -0.846   0.481   1.952  0.00  0.00     0.039 A 
ATOM      3  C2  UNL d   1      -0.545   1.462   1.006  0.00  0.00    -0.080 A 
ATOM      4  C3  UNL d   1       0.382   1.184   0.005  0.00  0.00     0.150 A 
ATOM      5  C4  UNL d   1       1.007  -0.057  -0.062  0.00  0.00    -0.007 A 
ATOM      6  C5  UNL d   1       0.706  -1.035   0.884  0.00  0.00     0.039 A 
ENDROOT
BRANCH   4   7
ATOM      7  O   UNL d   1       0.713   2.111  -0.938  0.00  0.00    -0.526 OA
ATOM      8  H5  UNL d   1       0.224   2.930  -0.749  0.00  0.00     0.418 HD
ENDBRANCH   4   7
TORSDOF 1
ENDMDL
