MODEL 1
REMARK minimizedAffinity 0.279633492
REMARK minimizedRMSD -1
REMARK  1 active torsions:
REMARK  status: ('A' for Active; 'I' for Inactive)
REMARK    1  A    between atoms: C3_4  and  O_7 
ROOT
ATOM      1  C   UNL d   1       0.731  -0.770   1.101  0.00  0.00    -0.033 A 
ATOM      2  C1  UNL d   1       0.586  -0.390   2.436  0.00  0.00     0.039 A 
ATOM      3  C2  UNL d   1      -0.266   0.663   2.776  0.00  0.00    -0.080 A 
ATOM      4  C3  UNL d   1      -0.966   1.326   1.772  0.00  0.00     0.150 A 
ATOM      5  C4  UNL d   1      -0.830   0.950   0.440  0.00  0.00    -0.007 A 
ATOM      6  C5  UNL d   1       0.022  -0.101   0.103  0.00  0.00     0.039 A 
ENDROOT
BRANCH   4   7
ATOM      7  O   UNL d   1      -1.806   2.362   2.054  0.00  0.00    -0.526 OA
ATOM      8  H5  UNL d   1      -1.778   2.529   3.011  0.00  0.00     0.418 HD
ENDBRANCH   4   7
TORSDOF 1
ENDMDL
