MODEL 1
REMARK minimizedAffinity -5.28612709
REMARK minimizedRMSD -1
REMARK  1 active torsions:
REMARK  status: ('A' for Active; 'I' for Inactive)
REMARK    1  A    between atoms: C3_4  and  O_7 
ROOT
ATOM      1  C   UNL d   1       0.308   0.004   0.152  0.00  0.00    -0.033 A 
ATOM      2  C1  UNL d   1      -0.235   1.029  -0.626  0.00  0.00     0.039 A 
ATOM      3  C2  UNL d   1      -1.224   1.861  -0.097  0.00  0.00    -0.080 A 
ATOM      4  C3  UNL d   1      -1.660   1.658   1.210  0.00  0.00     0.150 A 
ATOM      5  C4  UNL d   1      -1.121   0.642   1.992  0.00  0.00    -0.007 A 
ATOM      6  C5  UNL d   1      -0.134  -0.188   1.461  0.00  0.00     0.039 A 
ENDROOT
BRANCH   4   7
ATOM      7  O   UNL d   1      -2.626   2.441   1.768  0.00  0.00    -0.526 OA
ATOM      8  H5  UNL d   1      -2.926   3.082   1.102  0.00  0.00     0.418 HD
ENDBRANCH   4   7
TORSDOF 1
ENDMDL
