MODEL 1
REMARK minimizedAffinity -5.34724617
REMARK minimizedRMSD -1
REMARK  1 active torsions:
REMARK  status: ('A' for Active; 'I' for Inactive)
REMARK    1  A    between atoms: C3_4  and  O_7 
ROOT
ATOM      1  C   UNL d   1       0.536  -0.092  -0.088  0.00  0.00    -0.033 A 
ATOM      2  C1  UNL d   1      -0.021   0.968  -0.806  0.00  0.00     0.039 A 
ATOM      3  C2  UNL d   1      -1.099   1.681  -0.277  0.00  0.00    -0.080 A 
ATOM      4  C3  UNL d   1      -1.608   1.325   0.969  0.00  0.00     0.150 A 
ATOM      5  C4  UNL d   1      -1.055   0.273   1.691  0.00  0.00    -0.007 A 
ATOM      6  C5  UNL d   1       0.020  -0.439   1.161  0.00  0.00     0.039 A 
ENDROOT
BRANCH   4   7
ATOM      7  O   UNL d   1      -2.662   1.988   1.523  0.00  0.00    -0.526 OA
ATOM      8  H5  UNL d   1      -2.959   2.672   0.899  0.00  0.00     0.418 HD
ENDBRANCH   4   7
TORSDOF 1
ENDMDL
