MODEL 1
REMARK minimizedAffinity -2.8738203
REMARK minimizedRMSD -1
REMARK  1 active torsions:
REMARK  status: ('A' for Active; 'I' for Inactive)
REMARK    1  A    between atoms: C3_4  and  O_7 
ROOT
ATOM      1  C   UNL d   1       0.239   0.252  -0.182  0.00  0.00    -0.033 A 
ATOM      2  C1  UNL d   1      -0.210  -0.202   1.060  0.00  0.00     0.039 A 
ATOM      3  C2  UNL d   1      -1.250   0.462   1.713  0.00  0.00    -0.080 A 
ATOM      4  C3  UNL d   1      -1.832   1.576   1.115  0.00  0.00     0.150 A 
ATOM      5  C4  UNL d   1      -1.393   2.031  -0.124  0.00  0.00    -0.007 A 
ATOM      6  C5  UNL d   1      -0.353   1.367  -0.775  0.00  0.00     0.039 A 
ENDROOT
BRANCH   4   7
ATOM      7  O   UNL d   1      -2.847   2.259   1.716  0.00  0.00    -0.526 OA
ATOM      8  H5  UNL d   1      -3.026   1.848   2.579  0.00  0.00     0.418 HD
ENDBRANCH   4   7
TORSDOF 1
ENDMDL
