MODEL 1
REMARK minimizedAffinity -4.36309052
REMARK minimizedRMSD -1
REMARK  1 active torsions:
REMARK  status: ('A' for Active; 'I' for Inactive)
REMARK    1  A    between atoms: C3_4  and  O_7 
ROOT
ATOM      1  C   UNL d   1      -0.063  -0.361   0.249  0.00  0.00    -0.033 A 
ATOM      2  C1  UNL d   1      -0.392   0.689  -0.611  0.00  0.00     0.039 A 
ATOM      3  C2  UNL d   1      -1.257   1.699  -0.184  0.00  0.00    -0.080 A 
ATOM      4  C3  UNL d   1      -1.785   1.647   1.103  0.00  0.00     0.150 A 
ATOM      5  C4  UNL d   1      -1.458   0.606   1.966  0.00  0.00    -0.007 A 
ATOM      6  C5  UNL d   1      -0.595  -0.401   1.538  0.00  0.00     0.039 A 
ENDROOT
BRANCH   4   7
ATOM      7  O   UNL d   1      -2.637   2.607   1.563  0.00  0.00    -0.526 OA
ATOM      8  H5  UNL d   1      -2.794   3.246   0.849  0.00  0.00     0.418 HD
ENDBRANCH   4   7
TORSDOF 1
ENDMDL
