MODEL 1
REMARK minimizedAffinity -4.28122044
REMARK minimizedRMSD -1
REMARK  1 active torsions:
REMARK  status: ('A' for Active; 'I' for Inactive)
REMARK    1  A    between atoms: C3_4  and  O_7 
ROOT
ATOM      1  C   UNL d   1       0.316   0.047  -0.674  0.00  0.00    -0.033 A 
ATOM      2  C1  UNL d   1       0.315  -0.759   0.466  0.00  0.00     0.039 A 
ATOM      3  C2  UNL d   1      -0.409  -0.373   1.596  0.00  0.00    -0.080 A 
ATOM      4  C3  UNL d   1      -1.127   0.819   1.572  0.00  0.00     0.150 A 
ATOM      5  C4  UNL d   1      -1.134   1.626   0.439  0.00  0.00    -0.007 A 
ATOM      6  C5  UNL d   1      -0.410   1.239  -0.688  0.00  0.00     0.039 A 
ENDROOT
BRANCH   4   7
ATOM      7  O   UNL d   1      -1.844   1.240   2.653  0.00  0.00    -0.526 OA
ATOM      8  H5  UNL d   1      -1.724   0.598   3.372  0.00  0.00     0.418 HD
ENDBRANCH   4   7
TORSDOF 1
ENDMDL
