MODEL 1
REMARK minimizedAffinity -3.75705719
REMARK minimizedRMSD -1
REMARK  1 active torsions:
REMARK  status: ('A' for Active; 'I' for Inactive)
REMARK    1  A    between atoms: C3_4  and  O_7 
ROOT
ATOM      1  C   UNL d   1       0.635  -0.240  -0.725  0.00  0.00    -0.033 A 
ATOM      2  C1  UNL d   1       1.884  -0.369  -1.336  0.00  0.00     0.039 A 
ATOM      3  C2  UNL d   1       2.119  -1.410  -2.237  0.00  0.00    -0.080 A 
ATOM      4  C3  UNL d   1       1.097  -2.312  -2.519  0.00  0.00     0.150 A 
ATOM      5  C4  UNL d   1      -0.151  -2.187  -1.917  0.00  0.00    -0.007 A 
ATOM      6  C5  UNL d   1      -0.383  -1.148  -1.017  0.00  0.00     0.039 A 
ENDROOT
BRANCH   4   7
ATOM      7  O   UNL d   1       1.280  -3.347  -3.388  0.00  0.00    -0.526 OA
ATOM      8  H5  UNL d   1       2.199  -3.324  -3.704  0.00  0.00     0.418 HD
ENDBRANCH   4   7
TORSDOF 1
ENDMDL
