MODEL 1
REMARK minimizedAffinity -4.41356039
REMARK minimizedRMSD -1
REMARK  1 active torsions:
REMARK  status: ('A' for Active; 'I' for Inactive)
REMARK    1  A    between atoms: C3_4  and  O_7 
ROOT
ATOM      1  C   UNL d   1       0.556  -0.507   0.292  0.00  0.00    -0.033 A 
ATOM      2  C1  UNL d   1      -0.020   0.402  -0.597  0.00  0.00     0.039 A 
ATOM      3  C2  UNL d   1      -1.032   1.261  -0.163  0.00  0.00    -0.080 A 
ATOM      4  C3  UNL d   1      -1.456   1.202   1.162  0.00  0.00     0.150 A 
ATOM      5  C4  UNL d   1      -0.884   0.301   2.054  0.00  0.00    -0.007 A 
ATOM      6  C5  UNL d   1       0.125  -0.557   1.618  0.00  0.00     0.039 A 
ENDROOT
BRANCH   4   7
ATOM      7  O   UNL d   1      -2.443   2.017   1.631  0.00  0.00    -0.526 OA
ATOM      8  H5  UNL d   1      -2.764   2.566   0.896  0.00  0.00     0.418 HD
ENDBRANCH   4   7
TORSDOF 1
ENDMDL
