MODEL 1
REMARK minimizedAffinity -3.83151865
REMARK minimizedRMSD -1
REMARK  1 active torsions:
REMARK  status: ('A' for Active; 'I' for Inactive)
REMARK    1  A    between atoms: C3_4  and  O_7 
ROOT
ATOM      1  C   UNL d   1      -1.846   1.745   1.175  0.00  0.00    -0.033 A 
ATOM      2  C1  UNL d   1      -0.985   1.203   0.218  0.00  0.00     0.039 A 
ATOM      3  C2  UNL d   1      -0.057   2.020  -0.430  0.00  0.00    -0.080 A 
ATOM      4  C3  UNL d   1       0.002   3.374  -0.112  0.00  0.00     0.150 A 
ATOM      5  C4  UNL d   1      -0.850   3.920   0.843  0.00  0.00    -0.007 A 
ATOM      6  C5  UNL d   1      -1.777   3.103   1.489  0.00  0.00     0.039 A 
ENDROOT
BRANCH   4   7
ATOM      7  O   UNL d   1       0.888   4.211  -0.722  0.00  0.00    -0.526 OA
ATOM      8  H5  UNL d   1       1.391   3.702  -1.379  0.00  0.00     0.418 HD
ENDBRANCH   4   7
TORSDOF 1
ENDMDL
