MODEL 1
REMARK minimizedAffinity -5.47769642
REMARK minimizedRMSD -1
REMARK  1 active torsions:
REMARK  status: ('A' for Active; 'I' for Inactive)
REMARK    1  A    between atoms: C3_4  and  O_7 
ROOT
ATOM      1  C   UNL d   1      -1.947   2.132   1.061  0.00  0.00    -0.033 A 
ATOM      2  C1  UNL d   1      -1.557   3.387   0.590  0.00  0.00     0.039 A 
ATOM      3  C2  UNL d   1      -0.578   3.491  -0.399  0.00  0.00    -0.080 A 
ATOM      4  C3  UNL d   1       0.003   2.333  -0.910  0.00  0.00     0.150 A 
ATOM      5  C4  UNL d   1      -0.384   1.079  -0.449  0.00  0.00    -0.007 A 
ATOM      6  C5  UNL d   1      -1.361   0.977   0.540  0.00  0.00     0.039 A 
ENDROOT
BRANCH   4   7
ATOM      7  O   UNL d   1       0.966   2.384  -1.874  0.00  0.00    -0.526 OA
ATOM      8  H5  UNL d   1       1.152   3.317  -2.074  0.00  0.00     0.418 HD
ENDBRANCH   4   7
TORSDOF 1
ENDMDL
