MODEL 1
REMARK minimizedAffinity -5.49779415
REMARK minimizedRMSD -1
REMARK  1 active torsions:
REMARK  status: ('A' for Active; 'I' for Inactive)
REMARK    1  A    between atoms: C3_4  and  O_7 
ROOT
ATOM      1  C   UNL d   1      -1.334   1.886   1.137  0.00  0.00    -0.033 A 
ATOM      2  C1  UNL d   1      -1.126   3.078   0.440  0.00  0.00     0.039 A 
ATOM      3  C2  UNL d   1      -0.085   3.174  -0.486  0.00  0.00    -0.080 A 
ATOM      4  C3  UNL d   1       0.737   2.073  -0.706  0.00  0.00     0.150 A 
ATOM      5  C4  UNL d   1       0.533   0.881  -0.018  0.00  0.00    -0.007 A 
ATOM      6  C5  UNL d   1      -0.506   0.787   0.907  0.00  0.00     0.039 A 
ENDROOT
BRANCH   4   7
ATOM      7  O   UNL d   1       1.768   2.120  -1.597  0.00  0.00    -0.526 OA
ATOM      8  H5  UNL d   1       1.807   3.014  -1.976  0.00  0.00     0.418 HD
ENDBRANCH   4   7
TORSDOF 1
ENDMDL
