MODEL 1
REMARK minimizedAffinity -3.47779894
REMARK minimizedRMSD -1
REMARK  1 active torsions:
REMARK  status: ('A' for Active; 'I' for Inactive)
REMARK    1  A    between atoms: C3_4  and  O_7 
ROOT
ATOM      1  C   UNL d   1       0.754  -2.526  -2.588  0.00  0.00    -0.033 A 
ATOM      2  C1  UNL d   1      -0.272  -3.470  -2.661  0.00  0.00     0.039 A 
ATOM      3  C2  UNL d   1      -0.195  -4.646  -1.912  0.00  0.00    -0.080 A 
ATOM      4  C3  UNL d   1       0.910  -4.865  -1.094  0.00  0.00     0.150 A 
ATOM      5  C4  UNL d   1       1.934  -3.926  -1.014  0.00  0.00    -0.007 A 
ATOM      6  C5  UNL d   1       1.856  -2.753  -1.763  0.00  0.00     0.039 A 
ENDROOT
BRANCH   4   7
ATOM      7  O   UNL d   1       1.032  -5.999  -0.349  0.00  0.00    -0.526 OA
ATOM      8  H5  UNL d   1       0.265  -6.569  -0.527  0.00  0.00     0.418 HD
ENDBRANCH   4   7
TORSDOF 1
ENDMDL
