MODEL 1
REMARK minimizedAffinity -1.66011357
REMARK minimizedRMSD -1
REMARK  1 active torsions:
REMARK  status: ('A' for Active; 'I' for Inactive)
REMARK    1  A    between atoms: C3_4  and  O_7 
ROOT
ATOM      1  C   UNL d   1       0.892  -3.884  -2.578  0.00  0.00    -0.033 A 
ATOM      2  C1  UNL d   1       1.495  -3.972  -1.321  0.00  0.00     0.039 A 
ATOM      3  C2  UNL d   1       1.547  -2.852  -0.490  0.00  0.00    -0.080 A 
ATOM      4  C3  UNL d   1       0.993  -1.651  -0.925  0.00  0.00     0.150 A 
ATOM      5  C4  UNL d   1       0.388  -1.557  -2.174  0.00  0.00    -0.007 A 
ATOM      6  C5  UNL d   1       0.338  -2.677  -3.004  0.00  0.00     0.039 A 
ENDROOT
BRANCH   4   7
ATOM      7  O   UNL d   1       1.024  -0.530  -0.151  0.00  0.00    -0.526 OA
ATOM      8  H5  UNL d   1       1.498  -0.737   0.672  0.00  0.00     0.418 HD
ENDBRANCH   4   7
TORSDOF 1
ENDMDL
