MODEL 1
REMARK minimizedAffinity -4.4896369
REMARK minimizedRMSD -1
REMARK  0 active torsions:
REMARK  status: ('A' for Active; 'I' for Inactive)
ROOT
ATOM      1  C   UNL d   1      -1.657   1.821   1.547  0.00  0.00     0.023 A 
ATOM      2  C1  UNL d   1      -1.049   0.750   2.202  0.00  0.00     0.003 A 
ATOM      3  C2  UNL d   1      -0.334  -0.202   1.472  0.00  0.00     0.048 A 
ATOM      4  C3  UNL d   1      -0.230  -0.077   0.087  0.00  0.00     0.023 A 
ATOM      5  C4  UNL d   1      -0.836   0.994  -0.573  0.00  0.00     0.048 A 
ATOM      6  C5  UNL d   1      -1.550   1.943   0.161  0.00  0.00     0.003 A 
ATOM      7  I   UNL d   1       0.833  -1.492  -1.001  0.00  0.00    -0.146 I 
ENDROOT
TORSDOF 0
ENDMDL
