MODEL 1
REMARK minimizedAffinity -0.845725656
REMARK minimizedRMSD -1
REMARK  0 active torsions:
REMARK  status: ('A' for Active; 'I' for Inactive)
ROOT
ATOM      1  C   UNL d   1       1.323  -2.984  -2.459  0.00  0.00     0.023 A 
ATOM      2  C1  UNL d   1       1.477  -1.599  -2.520  0.00  0.00     0.003 A 
ATOM      3  C2  UNL d   1       1.212  -0.816  -1.395  0.00  0.00     0.048 A 
ATOM      4  C3  UNL d   1       0.794  -1.424  -0.212  0.00  0.00     0.023 A 
ATOM      5  C4  UNL d   1       0.640  -2.809  -0.146  0.00  0.00     0.048 A 
ATOM      6  C5  UNL d   1       0.905  -3.589  -1.274  0.00  0.00     0.003 A 
ATOM      7  I   UNL d   1       0.400  -0.260   1.464  0.00  0.00    -0.146 I 
ENDROOT
TORSDOF 0
ENDMDL
