MODEL 1
REMARK minimizedAffinity -4.89272833
REMARK minimizedRMSD -1
REMARK  0 active torsions:
REMARK  status: ('A' for Active; 'I' for Inactive)
ROOT
ATOM      1  C   UNL d   1      -1.874   1.829   1.662  0.00  0.00     0.023 A 
ATOM      2  C1  UNL d   1      -1.603   0.534   2.104  0.00  0.00     0.003 A 
ATOM      3  C2  UNL d   1      -0.844  -0.331   1.312  0.00  0.00     0.048 A 
ATOM      4  C3  UNL d   1      -0.359   0.107   0.080  0.00  0.00     0.023 A 
ATOM      5  C4  UNL d   1      -0.627   1.402  -0.365  0.00  0.00     0.048 A 
ATOM      6  C5  UNL d   1      -1.387   2.263   0.429  0.00  0.00     0.003 A 
ATOM      7  I   UNL d   1       0.771  -1.178  -1.100  0.00  0.00    -0.146 I 
ENDROOT
TORSDOF 0
ENDMDL
