MODEL 1
REMARK minimizedAffinity -5.22654533
REMARK minimizedRMSD -1
REMARK  0 active torsions:
REMARK  status: ('A' for Active; 'I' for Inactive)
ROOT
ATOM      1  C   UNL d   1      -2.002   1.407   1.507  0.00  0.00     0.023 A 
ATOM      2  C1  UNL d   1      -1.987   1.475   0.114  0.00  0.00     0.003 A 
ATOM      3  C2  UNL d   1      -1.042   0.745  -0.612  0.00  0.00     0.048 A 
ATOM      4  C3  UNL d   1      -0.117  -0.050   0.063  0.00  0.00     0.023 A 
ATOM      5  C4  UNL d   1      -0.129  -0.121   1.457  0.00  0.00     0.048 A 
ATOM      6  C5  UNL d   1      -1.074   0.611   2.178  0.00  0.00     0.003 A 
ATOM      7  I   UNL d   1       1.290  -1.136  -1.014  0.00  0.00    -0.146 I 
ENDROOT
TORSDOF 0
ENDMDL
