MODEL 1
REMARK minimizedAffinity 1.4673177
REMARK minimizedRMSD -1
REMARK  0 active torsions:
REMARK  status: ('A' for Active; 'I' for Inactive)
ROOT
ATOM      1  C   UNL d   1       1.069  -3.075  -2.155  0.00  0.00     0.023 A 
ATOM      2  C1  UNL d   1      -0.152  -2.571  -2.604  0.00  0.00     0.003 A 
ATOM      3  C2  UNL d   1      -0.662  -1.389  -2.062  0.00  0.00     0.048 A 
ATOM      4  C3  UNL d   1       0.054  -0.716  -1.073  0.00  0.00     0.023 A 
ATOM      5  C4  UNL d   1       1.276  -1.216  -0.621  0.00  0.00     0.048 A 
ATOM      6  C5  UNL d   1       1.782  -2.399  -1.165  0.00  0.00     0.003 A 
ATOM      7  I   UNL d   1      -0.703   1.043  -0.266  0.00  0.00    -0.146 I 
ENDROOT
TORSDOF 0
ENDMDL
