MODEL 1
REMARK minimizedAffinity -4.33451796
REMARK minimizedRMSD -1
REMARK  0 active torsions:
REMARK  status: ('A' for Active; 'I' for Inactive)
ROOT
ATOM      1  C   UNL d   1      -1.802   2.492   1.456  0.00  0.00     0.023 A 
ATOM      2  C1  UNL d   1      -1.616   1.237   2.035  0.00  0.00     0.003 A 
ATOM      3  C2  UNL d   1      -0.896   0.253   1.354  0.00  0.00     0.048 A 
ATOM      4  C3  UNL d   1      -0.365   0.531   0.096  0.00  0.00     0.023 A 
ATOM      5  C4  UNL d   1      -0.547   1.786  -0.487  0.00  0.00     0.048 A 
ATOM      6  C5  UNL d   1      -1.269   2.766   0.196  0.00  0.00     0.003 A 
ATOM      7  I   UNL d   1       0.707  -0.933  -0.919  0.00  0.00    -0.146 I 
ENDROOT
TORSDOF 0
ENDMDL
