MODEL 1
REMARK minimizedAffinity -3.89606857
REMARK minimizedRMSD -1
REMARK  0 active torsions:
REMARK  status: ('A' for Active; 'I' for Inactive)
ROOT
ATOM      1  C   UNL d   1      -1.414   2.172   1.944  0.00  0.00     0.023 A 
ATOM      2  C1  UNL d   1      -0.830   1.015   2.461  0.00  0.00     0.003 A 
ATOM      3  C2  UNL d   1      -0.284   0.063   1.599  0.00  0.00     0.048 A 
ATOM      4  C3  UNL d   1      -0.323   0.274   0.221  0.00  0.00     0.023 A 
ATOM      5  C4  UNL d   1      -0.905   1.430  -0.301  0.00  0.00     0.048 A 
ATOM      6  C5  UNL d   1      -1.451   2.380   0.565  0.00  0.00     0.003 A 
ATOM      7  I   UNL d   1       0.491  -1.143  -1.064  0.00  0.00    -0.146 I 
ENDROOT
TORSDOF 0
ENDMDL
