MODEL 1
REMARK minimizedAffinity -4.90798092
REMARK minimizedRMSD -1
REMARK  0 active torsions:
REMARK  status: ('A' for Active; 'I' for Inactive)
ROOT
ATOM      1  C   UNL d   1      -1.654   3.195   0.505  0.00  0.00     0.023 A 
ATOM      2  C1  UNL d   1      -1.633   2.079   1.341  0.00  0.00     0.003 A 
ATOM      3  C2  UNL d   1      -0.909   0.943   0.973  0.00  0.00     0.048 A 
ATOM      4  C3  UNL d   1      -0.207   0.931  -0.232  0.00  0.00     0.023 A 
ATOM      5  C4  UNL d   1      -0.223   2.046  -1.071  0.00  0.00     0.048 A 
ATOM      6  C5  UNL d   1      -0.950   3.179  -0.700  0.00  0.00     0.003 A 
ATOM      7  I   UNL d   1       0.872  -0.759  -0.781  0.00  0.00    -0.146 I 
ENDROOT
TORSDOF 0
ENDMDL
