MODEL 1
REMARK minimizedAffinity -3.56050253
REMARK minimizedRMSD -1
REMARK  0 active torsions:
REMARK  status: ('A' for Active; 'I' for Inactive)
ROOT
ATOM      1  C   UNL d   1      -1.087   3.747   0.170  0.00  0.00     0.023 A 
ATOM      2  C1  UNL d   1      -0.243   3.225  -0.810  0.00  0.00     0.003 A 
ATOM      3  C2  UNL d   1       0.094   1.870  -0.795  0.00  0.00     0.048 A 
ATOM      4  C3  UNL d   1      -0.419   1.042   0.203  0.00  0.00     0.023 A 
ATOM      5  C4  UNL d   1      -1.265   1.559   1.186  0.00  0.00     0.048 A 
ATOM      6  C5  UNL d   1      -1.597   2.915   1.167  0.00  0.00     0.003 A 
ATOM      7  I   UNL d   1       0.080  -0.976   0.229  0.00  0.00    -0.146 I 
ENDROOT
TORSDOF 0
ENDMDL
