MODEL 1
REMARK minimizedAffinity -3.6484158
REMARK minimizedRMSD -1
REMARK  0 active torsions:
REMARK  status: ('A' for Active; 'I' for Inactive)
ROOT
ATOM      1  C   UNL d   1      -1.597   1.412   1.295  0.00  0.00     0.023 A 
ATOM      2  C1  UNL d   1      -1.364   1.699  -0.050  0.00  0.00     0.003 A 
ATOM      3  C2  UNL d   1      -0.544   0.864  -0.812  0.00  0.00     0.048 A 
ATOM      4  C3  UNL d   1       0.039  -0.257  -0.222  0.00  0.00     0.023 A 
ATOM      5  C4  UNL d   1      -0.192  -0.549   1.123  0.00  0.00     0.048 A 
ATOM      6  C5  UNL d   1      -1.012   0.289   1.881  0.00  0.00     0.003 A 
ATOM      7  I   UNL d   1       1.260  -1.502  -1.354  0.00  0.00    -0.146 I 
ENDROOT
TORSDOF 0
ENDMDL
