MODEL 1
REMARK minimizedAffinity -3.3266151
REMARK minimizedRMSD -1
REMARK  0 active torsions:
REMARK  status: ('A' for Active; 'I' for Inactive)
ROOT
ATOM      1  C   UNL d   1      -1.843   1.722   1.530  0.00  0.00     0.023 A 
ATOM      2  C1  UNL d   1      -1.544   2.020   0.201  0.00  0.00     0.003 A 
ATOM      3  C2  UNL d   1      -0.716   1.172  -0.538  0.00  0.00     0.048 A 
ATOM      4  C3  UNL d   1      -0.190   0.027   0.059  0.00  0.00     0.023 A 
ATOM      5  C4  UNL d   1      -0.487  -0.276   1.389  0.00  0.00     0.048 A 
ATOM      6  C5  UNL d   1      -1.315   0.575   2.124  0.00  0.00     0.003 A 
ATOM      7  I   UNL d   1       1.042  -1.237  -1.038  0.00  0.00    -0.146 I 
ENDROOT
TORSDOF 0
ENDMDL
