MODEL 1
REMARK minimizedAffinity 7.75600576
REMARK minimizedRMSD -1
REMARK  0 active torsions:
REMARK  status: ('A' for Active; 'I' for Inactive)
ROOT
ATOM      1  C   UNL d   1      -5.886  -1.046  -3.616  0.00  0.00     0.124 A 
ATOM      2  C1  UNL d   1      -5.920  -0.352  -4.817  0.00  0.00     0.062 A 
ATOM      3  C2  UNL d   1      -5.936   1.040  -4.822  0.00  0.00     0.162 A 
ATOM      4  C3  UNL d   1      -5.917   1.748  -3.620  0.00  0.00    -0.034 A 
ATOM      5  C4  UNL d   1      -5.884   1.043  -2.416  0.00  0.00     0.162 A 
ATOM      6  C5  UNL d   1      -5.868  -0.348  -2.416  0.00  0.00     0.062 A 
ATOM      7  F   UNL d   1      -5.836  -1.017  -1.254  0.00  0.00    -0.097 F 
ATOM      8  F1  UNL d   1      -5.866   1.692  -1.242  0.00  0.00    -0.096 F 
ATOM      9  I   UNL d   1      -5.941   3.829  -3.623  0.00  0.00    -0.060 I 
ATOM     10  F2  UNL d   1      -5.968   1.684  -5.998  0.00  0.00    -0.096 F 
ATOM     11  F3  UNL d   1      -5.938  -1.024  -5.978  0.00  0.00    -0.097 F 
ATOM     12  F4  UNL d   1      -5.871  -2.385  -3.614  0.00  0.00    -0.092 F 
ENDROOT
TORSDOF 0
ENDMDL
