MODEL 1
REMARK minimizedAffinity 18.7268257
REMARK minimizedRMSD -1
REMARK  0 active torsions:
REMARK  status: ('A' for Active; 'I' for Inactive)
ROOT
ATOM      1  C   UNL d   1       3.039   1.732  -2.528  0.00  0.00     0.124 A 
ATOM      2  C1  UNL d   1       3.732   2.331  -3.570  0.00  0.00     0.062 A 
ATOM      3  C2  UNL d   1       3.179   3.413  -4.248  0.00  0.00     0.162 A 
ATOM      4  C3  UNL d   1       1.925   3.904  -3.886  0.00  0.00    -0.034 A 
ATOM      5  C4  UNL d   1       1.233   3.295  -2.837  0.00  0.00     0.162 A 
ATOM      6  C5  UNL d   1       1.790   2.214  -2.162  0.00  0.00     0.062 A 
ATOM      7  F   UNL d   1       1.118   1.636  -1.156  0.00  0.00    -0.097 F 
ATOM      8  F1  UNL d   1       0.025   3.742  -2.463  0.00  0.00    -0.096 F 
ATOM      9  I   UNL d   1       1.094   5.522  -4.898  0.00  0.00    -0.060 I 
ATOM     10  F2  UNL d   1       3.872   3.973  -5.251  0.00  0.00    -0.096 F 
ATOM     11  F3  UNL d   1       4.939   1.866  -3.925  0.00  0.00    -0.097 F 
ATOM     12  F4  UNL d   1       3.573   0.690  -1.877  0.00  0.00    -0.092 F 
ENDROOT
TORSDOF 0
ENDMDL
