MODEL 1
REMARK minimizedAffinity 21.7728367
REMARK minimizedRMSD -1
REMARK  0 active torsions:
REMARK  status: ('A' for Active; 'I' for Inactive)
ROOT
ATOM      1  C   UNL d   1      -4.899   4.097  -0.935  0.00  0.00     0.124 A 
ATOM      2  C1  UNL d   1      -3.757   4.645  -0.368  0.00  0.00     0.062 A 
ATOM      3  C2  UNL d   1      -2.612   4.827  -1.137  0.00  0.00     0.162 A 
ATOM      4  C3  UNL d   1      -2.603   4.462  -2.483  0.00  0.00    -0.034 A 
ATOM      5  C4  UNL d   1      -3.755   3.910  -3.047  0.00  0.00     0.162 A 
ATOM      6  C5  UNL d   1      -4.897   3.730  -2.273  0.00  0.00     0.062 A 
ATOM      7  F   UNL d   1      -6.000   3.201  -2.823  0.00  0.00    -0.097 F 
ATOM      8  F1  UNL d   1      -3.781   3.548  -4.338  0.00  0.00    -0.096 F 
ATOM      9  I   UNL d   1      -0.892   4.732  -3.638  0.00  0.00    -0.060 I 
ATOM     10  F2  UNL d   1      -1.522   5.358  -0.563  0.00  0.00    -0.096 F 
ATOM     11  F3  UNL d   1      -3.756   4.999   0.926  0.00  0.00    -0.097 F 
ATOM     12  F4  UNL d   1      -6.000   3.922  -0.192  0.00  0.00    -0.092 F 
ENDROOT
TORSDOF 0
ENDMDL
