MODEL 1
REMARK minimizedAffinity 17.9187489
REMARK minimizedRMSD -1
REMARK  0 active torsions:
REMARK  status: ('A' for Active; 'I' for Inactive)
ROOT
ATOM      1  C   UNL d   1       0.544  -3.911   1.113  0.00  0.00     0.124 A 
ATOM      2  C1  UNL d   1       1.113  -4.594   0.047  0.00  0.00     0.062 A 
ATOM      3  C2  UNL d   1       0.323  -5.006  -1.022  0.00  0.00     0.162 A 
ATOM      4  C3  UNL d   1      -1.045  -4.734  -1.032  0.00  0.00    -0.034 A 
ATOM      5  C4  UNL d   1      -1.611  -4.047   0.044  0.00  0.00     0.162 A 
ATOM      6  C5  UNL d   1      -0.817  -3.639   1.111  0.00  0.00     0.062 A 
ATOM      7  F   UNL d   1      -1.368  -2.979   2.140  0.00  0.00    -0.097 F 
ATOM      8  F1  UNL d   1      -2.923  -3.770   0.067  0.00  0.00    -0.096 F 
ATOM      9  I   UNL d   1      -2.230  -5.347  -2.630  0.00  0.00    -0.060 I 
ATOM     10  F2  UNL d   1       0.900  -5.664  -2.039  0.00  0.00    -0.096 F 
ATOM     11  F3  UNL d   1       2.427  -4.860   0.048  0.00  0.00    -0.097 F 
ATOM     12  F4  UNL d   1       1.306  -3.518   2.142  0.00  0.00    -0.092 F 
ENDROOT
TORSDOF 0
ENDMDL
