MODEL 1
REMARK minimizedAffinity 16.8328991
REMARK minimizedRMSD -1
REMARK  0 active torsions:
REMARK  status: ('A' for Active; 'I' for Inactive)
ROOT
ATOM      1  C   UNL d   1       0.902  -2.227   3.397  0.00  0.00     0.124 A 
ATOM      2  C1  UNL d   1       0.127  -1.352   4.146  0.00  0.00     0.062 A 
ATOM      3  C2  UNL d   1      -1.159  -1.024   3.729  0.00  0.00     0.162 A 
ATOM      4  C3  UNL d   1      -1.681  -1.572   2.558  0.00  0.00    -0.034 A 
ATOM      5  C4  UNL d   1      -0.896  -2.451   1.809  0.00  0.00     0.162 A 
ATOM      6  C5  UNL d   1       0.390  -2.776   2.230  0.00  0.00     0.062 A 
ATOM      7  F   UNL d   1       1.136  -3.621   1.505  0.00  0.00    -0.097 F 
ATOM      8  F1  UNL d   1      -1.366  -2.996   0.678  0.00  0.00    -0.096 F 
ATOM      9  I   UNL d   1      -3.605  -1.084   1.931  0.00  0.00    -0.060 I 
ATOM     10  F2  UNL d   1      -1.885  -0.176   4.473  0.00  0.00    -0.096 F 
ATOM     11  F3  UNL d   1       0.620  -0.820   5.274  0.00  0.00    -0.097 F 
ATOM     12  F4  UNL d   1       2.140  -2.540   3.800  0.00  0.00    -0.092 F 
ENDROOT
TORSDOF 0
ENDMDL
