MODEL 1
REMARK minimizedAffinity 26.8358517
REMARK minimizedRMSD -1
REMARK  0 active torsions:
REMARK  status: ('A' for Active; 'I' for Inactive)
ROOT
ATOM      1  C   UNL d   1       2.299   2.237  -2.159  0.00  0.00     0.124 A 
ATOM      2  C1  UNL d   1       1.513   1.878  -1.073  0.00  0.00     0.062 A 
ATOM      3  C2  UNL d   1       2.063   1.155  -0.018  0.00  0.00     0.162 A 
ATOM      4  C3  UNL d   1       3.408   0.787  -0.044  0.00  0.00    -0.034 A 
ATOM      5  C4  UNL d   1       4.192   1.150  -1.140  0.00  0.00     0.162 A 
ATOM      6  C5  UNL d   1       3.638   1.873  -2.192  0.00  0.00     0.062 A 
ATOM      7  F   UNL d   1       4.399   2.218  -3.240  0.00  0.00    -0.097 F 
ATOM      8  F1  UNL d   1       5.489   0.813  -1.197  0.00  0.00    -0.096 F 
ATOM      9  I   UNL d   1       4.235  -0.294   1.531  0.00  0.00    -0.060 I 
ATOM     10  F2  UNL d   1       1.280   0.822   1.018  0.00  0.00    -0.096 F 
ATOM     11  F3  UNL d   1       0.219   2.228  -1.039  0.00  0.00    -0.097 F 
ATOM     12  F4  UNL d   1       1.767   2.931  -3.173  0.00  0.00    -0.092 F 
ENDROOT
TORSDOF 0
ENDMDL
