MODEL 1
REMARK minimizedAffinity 20.8695889
REMARK minimizedRMSD -1
REMARK  0 active torsions:
REMARK  status: ('A' for Active; 'I' for Inactive)
ROOT
ATOM      1  C   UNL d   1       1.798  -0.632   2.086  0.00  0.00     0.124 A 
ATOM      2  C1  UNL d   1       1.108   0.320   1.348  0.00  0.00     0.062 A 
ATOM      3  C2  UNL d   1       1.689   0.885   0.217  0.00  0.00     0.162 A 
ATOM      4  C3  UNL d   1       2.968   0.499  -0.185  0.00  0.00    -0.034 A 
ATOM      5  C4  UNL d   1       3.656  -0.459   0.562  0.00  0.00     0.162 A 
ATOM      6  C5  UNL d   1       3.071  -1.020   1.692  0.00  0.00     0.062 A 
ATOM      7  F   UNL d   1       3.739  -1.940   2.403  0.00  0.00    -0.097 F 
ATOM      8  F1  UNL d   1       4.887  -0.853   0.204  0.00  0.00    -0.096 F 
ATOM      9  I   UNL d   1       3.840   1.342  -1.877  0.00  0.00    -0.060 I 
ATOM     10  F2  UNL d   1       0.999   1.803  -0.477  0.00  0.00    -0.096 F 
ATOM     11  F3  UNL d   1      -0.121   0.697   1.727  0.00  0.00    -0.097 F 
ATOM     12  F4  UNL d   1       1.237  -1.174   3.174  0.00  0.00    -0.092 F 
ENDROOT
TORSDOF 0
ENDMDL
