MODEL 1
REMARK minimizedAffinity 13.4545164
REMARK minimizedRMSD -1
REMARK  0 active torsions:
REMARK  status: ('A' for Active; 'I' for Inactive)
ROOT
ATOM      1  C   UNL d   1      -3.797   0.036   3.547  0.00  0.00     0.124 A 
ATOM      2  C1  UNL d   1      -3.607  -0.854   2.500  0.00  0.00     0.062 A 
ATOM      3  C2  UNL d   1      -2.340  -1.368   2.240  0.00  0.00     0.162 A 
ATOM      4  C3  UNL d   1      -1.253  -0.994   3.030  0.00  0.00    -0.034 A 
ATOM      5  C4  UNL d   1      -1.452  -0.097   4.081  0.00  0.00     0.162 A 
ATOM      6  C5  UNL d   1      -2.720   0.414   4.337  0.00  0.00     0.062 A 
ATOM      7  F   UNL d   1      -2.903   1.274   5.349  0.00  0.00    -0.097 F 
ATOM      8  F1  UNL d   1      -0.429   0.284   4.860  0.00  0.00    -0.096 F 
ATOM      9  I   UNL d   1       0.644  -1.760   2.644  0.00  0.00    -0.060 I 
ATOM     10  F2  UNL d   1      -2.185  -2.227   1.221  0.00  0.00    -0.096 F 
ATOM     11  F3  UNL d   1      -4.646  -1.220   1.735  0.00  0.00    -0.097 F 
ATOM     12  F4  UNL d   1      -5.017   0.530   3.795  0.00  0.00    -0.092 F 
ENDROOT
TORSDOF 0
ENDMDL
