MODEL 1
REMARK minimizedAffinity 14.8884144
REMARK minimizedRMSD -1
REMARK  0 active torsions:
REMARK  status: ('A' for Active; 'I' for Inactive)
ROOT
ATOM      1  C   UNL d   1       1.723   0.788   0.950  0.00  0.00     0.124 A 
ATOM      2  C1  UNL d   1       2.710  -0.169   1.142  0.00  0.00     0.062 A 
ATOM      3  C2  UNL d   1       3.932   0.189   1.704  0.00  0.00     0.162 A 
ATOM      4  C3  UNL d   1       4.174   1.510   2.080  0.00  0.00    -0.034 A 
ATOM      5  C4  UNL d   1       3.177   2.467   1.883  0.00  0.00     0.162 A 
ATOM      6  C5  UNL d   1       1.957   2.105   1.321  0.00  0.00     0.062 A 
ATOM      7  F   UNL d   1       1.005   3.031   1.136  0.00  0.00    -0.097 F 
ATOM      8  F1  UNL d   1       3.376   3.747   2.233  0.00  0.00    -0.096 F 
ATOM      9  I   UNL d   1       6.000   2.049   2.921  0.00  0.00    -0.060 I 
ATOM     10  F2  UNL d   1       4.867  -0.757   1.878  0.00  0.00    -0.096 F 
ATOM     11  F3  UNL d   1       2.486  -1.441   0.784  0.00  0.00    -0.097 F 
ATOM     12  F4  UNL d   1       0.548   0.442   0.408  0.00  0.00    -0.092 F 
ENDROOT
TORSDOF 0
ENDMDL
