MODEL 1
REMARK minimizedAffinity 17.1534576
REMARK minimizedRMSD -1
REMARK  0 active torsions:
REMARK  status: ('A' for Active; 'I' for Inactive)
ROOT
ATOM      1  C   UNL d   1       2.027   3.223  -3.325  0.00  0.00     0.124 A 
ATOM      2  C1  UNL d   1       0.655   3.139  -3.136  0.00  0.00     0.062 A 
ATOM      3  C2  UNL d   1      -0.206   3.925  -3.896  0.00  0.00     0.162 A 
ATOM      4  C3  UNL d   1       0.303   4.803  -4.853  0.00  0.00    -0.034 A 
ATOM      5  C4  UNL d   1       1.685   4.883  -5.037  0.00  0.00     0.162 A 
ATOM      6  C5  UNL d   1       2.541   4.094  -4.275  0.00  0.00     0.062 A 
ATOM      7  F   UNL d   1       3.867   4.177  -4.459  0.00  0.00    -0.097 F 
ATOM      8  F1  UNL d   1       2.208   5.716  -5.948  0.00  0.00    -0.096 F 
ATOM      9  I   UNL d   1      -0.980   5.982  -5.991  0.00  0.00    -0.060 I 
ATOM     10  F2  UNL d   1      -1.528   3.824  -3.692  0.00  0.00    -0.096 F 
ATOM     11  F3  UNL d   1       0.156   2.298  -2.219  0.00  0.00    -0.097 F 
ATOM     12  F4  UNL d   1       2.853   2.465  -2.592  0.00  0.00    -0.092 F 
ENDROOT
TORSDOF 0
ENDMDL
