MODEL 1
REMARK minimizedAffinity 8.37775803
REMARK minimizedRMSD -1
REMARK  0 active torsions:
REMARK  status: ('A' for Active; 'I' for Inactive)
ROOT
ATOM      1  C   UNL d   1       3.079   2.515  -2.381  0.00  0.00     0.124 A 
ATOM      2  C1  UNL d   1       3.873   2.977  -3.421  0.00  0.00     0.062 A 
ATOM      3  C2  UNL d   1       3.311   3.719  -4.455  0.00  0.00     0.162 A 
ATOM      4  C3  UNL d   1       1.946   4.007  -4.453  0.00  0.00    -0.034 A 
ATOM      5  C4  UNL d   1       1.153   3.538  -3.404  0.00  0.00     0.162 A 
ATOM      6  C5  UNL d   1       1.720   2.796  -2.373  0.00  0.00     0.062 A 
ATOM      7  F   UNL d   1       0.951   2.352  -1.368  0.00  0.00    -0.097 F 
ATOM      8  F1  UNL d   1      -0.163   3.797  -3.370  0.00  0.00    -0.096 F 
ATOM      9  I   UNL d   1       1.100   5.117  -5.997  0.00  0.00    -0.060 I 
ATOM     10  F2  UNL d   1       4.102   4.152  -5.448  0.00  0.00    -0.096 F 
ATOM     11  F3  UNL d   1       5.186   2.705  -3.432  0.00  0.00    -0.097 F 
ATOM     12  F4  UNL d   1       3.623   1.800  -1.388  0.00  0.00    -0.092 F 
ENDROOT
TORSDOF 0
ENDMDL
