MODEL 1
REMARK minimizedAffinity 15.9960184
REMARK minimizedRMSD -1
REMARK  0 active torsions:
REMARK  status: ('A' for Active; 'I' for Inactive)
ROOT
ATOM      1  C   UNL d   1       1.771   1.919  -2.309  0.00  0.00     0.124 A 
ATOM      2  C1  UNL d   1       1.167   1.506  -1.129  0.00  0.00     0.062 A 
ATOM      3  C2  UNL d   1       1.925   1.345   0.026  0.00  0.00     0.162 A 
ATOM      4  C3  UNL d   1       3.297   1.598   0.009  0.00  0.00    -0.034 A 
ATOM      5  C4  UNL d   1       3.898   2.011  -1.182  0.00  0.00     0.162 A 
ATOM      6  C5  UNL d   1       3.135   2.170  -2.334  0.00  0.00     0.062 A 
ATOM      7  F   UNL d   1       3.720   2.569  -3.473  0.00  0.00    -0.097 F 
ATOM      8  F1  UNL d   1       5.214   2.262  -1.234  0.00  0.00    -0.096 F 
ATOM      9  I   UNL d   1       4.435   1.358   1.735  0.00  0.00    -0.060 I 
ATOM     10  F2  UNL d   1       1.315   0.946   1.152  0.00  0.00    -0.096 F 
ATOM     11  F3  UNL d   1      -0.151   1.262  -1.102  0.00  0.00    -0.097 F 
ATOM     12  F4  UNL d   1       1.038   2.072  -3.420  0.00  0.00    -0.092 F 
ENDROOT
TORSDOF 0
ENDMDL
