MODEL 1
REMARK minimizedAffinity 7.40461159
REMARK minimizedRMSD -1
REMARK  0 active torsions:
REMARK  status: ('A' for Active; 'I' for Inactive)
ROOT
ATOM      1  C   UNL d   1       3.137   2.579  -2.291  0.00  0.00     0.124 A 
ATOM      2  C1  UNL d   1       3.790   2.826  -3.490  0.00  0.00     0.062 A 
ATOM      3  C2  UNL d   1       3.161   3.562  -4.491  0.00  0.00     0.162 A 
ATOM      4  C3  UNL d   1       1.872   4.058  -4.295  0.00  0.00    -0.034 A 
ATOM      5  C4  UNL d   1       1.221   3.804  -3.086  0.00  0.00     0.162 A 
ATOM      6  C5  UNL d   1       1.854   3.068  -2.090  0.00  0.00     0.062 A 
ATOM      7  F   UNL d   1       1.222   2.830  -0.931  0.00  0.00    -0.097 F 
ATOM      8  F1  UNL d   1      -0.018   4.266  -2.865  0.00  0.00    -0.096 F 
ATOM      9  I   UNL d   1       0.929   5.158  -5.789  0.00  0.00    -0.060 I 
ATOM     10  F2  UNL d   1       3.816   3.786  -5.640  0.00  0.00    -0.096 F 
ATOM     11  F3  UNL d   1       5.029   2.354  -3.687  0.00  0.00    -0.097 F 
ATOM     12  F4  UNL d   1       3.744   1.870  -1.330  0.00  0.00    -0.092 F 
ENDROOT
TORSDOF 0
ENDMDL
