MODEL 1
REMARK minimizedAffinity 7.21316004
REMARK minimizedRMSD -1
REMARK  0 active torsions:
REMARK  status: ('A' for Active; 'I' for Inactive)
ROOT
ATOM      1  C   UNL d   1       1.743   1.872   0.885  0.00  0.00     0.124 A 
ATOM      2  C1  UNL d   1       2.568   2.962   0.646  0.00  0.00     0.062 A 
ATOM      3  C2  UNL d   1       2.906   3.311  -0.658  0.00  0.00     0.162 A 
ATOM      4  C3  UNL d   1       2.418   2.569  -1.734  0.00  0.00    -0.034 A 
ATOM      5  C4  UNL d   1       1.590   1.474  -1.486  0.00  0.00     0.162 A 
ATOM      6  C5  UNL d   1       1.254   1.129  -0.180  0.00  0.00     0.062 A 
ATOM      7  F   UNL d   1       0.457   0.076   0.049  0.00  0.00    -0.097 F 
ATOM      8  F1  UNL d   1       1.103   0.739  -2.497  0.00  0.00    -0.096 F 
ATOM      9  I   UNL d   1       2.922   3.088  -3.686  0.00  0.00    -0.060 I 
ATOM     10  F2  UNL d   1       3.706   4.369  -0.860  0.00  0.00    -0.096 F 
ATOM     11  F3  UNL d   1       3.042   3.681   1.674  0.00  0.00    -0.097 F 
ATOM     12  F4  UNL d   1       1.419   1.538   2.141  0.00  0.00    -0.092 F 
ENDROOT
TORSDOF 0
ENDMDL
