MODEL 1
REMARK minimizedAffinity 2.13040137
REMARK minimizedRMSD -1
REMARK  1 active torsions:
REMARK  status: ('A' for Active; 'I' for Inactive)
REMARK    1  A    between atoms: C1_2  and  C2_3 
ROOT
ATOM      1  C2  UNL d   1       0.999   4.818  -4.554  0.00  0.00    -0.081 A 
ATOM      2  C3  UNL d   1       0.722   3.511  -4.975  0.00  0.00     0.006 A 
ATOM      3  C4  UNL d   1       1.045   2.422  -4.162  0.00  0.00     0.002 A 
ATOM      4  C5  UNL d   1       1.643   2.621  -2.913  0.00  0.00    -0.080 A 
ATOM      5  C6  UNL d   1       1.966   1.462  -2.017  0.00  0.00     0.076 C 
ATOM      6  C7  UNL d   1       1.935   3.925  -2.500  0.00  0.00     0.002 A 
ATOM      7  C8  UNL d   1       1.613   5.015  -3.313  0.00  0.00     0.006 A 
ENDROOT
BRANCH   1   8
ATOM      8  C1  UNL d   1       0.594   5.997  -5.400  0.00  0.00     0.054 C 
ATOM      9  C   UNL d   1      -0.904   5.996  -5.669  0.00  0.00     0.018 C 
ENDBRANCH   1   8
TORSDOF 1
ENDMDL
