MODEL 1
REMARK minimizedAffinity -1.20416844
REMARK minimizedRMSD -1
REMARK  1 active torsions:
REMARK  status: ('A' for Active; 'I' for Inactive)
REMARK    1  A    between atoms: C1_2  and  C2_3 
ROOT
ATOM      1  C2  UNL d   1       1.286   2.772  -3.217  0.00  0.00    -0.081 A 
ATOM      2  C3  UNL d   1      -0.024   3.205  -3.454  0.00  0.00     0.006 A 
ATOM      3  C4  UNL d   1      -0.273   4.258  -4.338  0.00  0.00     0.002 A 
ATOM      4  C5  UNL d   1       0.782   4.889  -5.006  0.00  0.00    -0.080 A 
ATOM      5  C6  UNL d   1       0.525   6.000  -5.980  0.00  0.00     0.076 C 
ATOM      6  C7  UNL d   1       2.092   4.467  -4.756  0.00  0.00     0.002 A 
ATOM      7  C8  UNL d   1       2.342   3.416  -3.872  0.00  0.00     0.006 A 
ENDROOT
BRANCH   1   8
ATOM      8  C1  UNL d   1       1.553   1.595  -2.314  0.00  0.00     0.054 C 
ATOM      9  C   UNL d   1       0.764   1.703  -1.017  0.00  0.00     0.018 C 
ENDBRANCH   1   8
TORSDOF 1
ENDMDL
