MODEL 1
REMARK minimizedAffinity 4.08038664
REMARK minimizedRMSD -1
REMARK  1 active torsions:
REMARK  status: ('A' for Active; 'I' for Inactive)
REMARK    1  A    between atoms: C1_2  and  C2_3 
ROOT
ATOM      1  C2  UNL d   1       1.906   2.321  -1.684  0.00  0.00    -0.081 A 
ATOM      2  C3  UNL d   1       2.337   1.012  -1.931  0.00  0.00     0.006 A 
ATOM      3  C4  UNL d   1       2.774   0.200  -0.881  0.00  0.00     0.002 A 
ATOM      4  C5  UNL d   1       2.779   0.681   0.433  0.00  0.00    -0.080 A 
ATOM      5  C6  UNL d   1       3.217  -0.190   1.573  0.00  0.00     0.076 C 
ATOM      6  C7  UNL d   1       2.366   1.995   0.677  0.00  0.00     0.002 A 
ATOM      7  C8  UNL d   1       1.930   2.807  -0.372  0.00  0.00     0.006 A 
ENDROOT
BRANCH   1   8
ATOM      8  C1  UNL d   1       1.374   3.177  -2.805  0.00  0.00     0.054 C 
ATOM      9  C   UNL d   1       2.310   4.338  -3.107  0.00  0.00     0.018 C 
ENDBRANCH   1   8
TORSDOF 1
ENDMDL
