MODEL 1
REMARK minimizedAffinity 13.3237162
REMARK minimizedRMSD -1
REMARK  1 active torsions:
REMARK  status: ('A' for Active; 'I' for Inactive)
REMARK    1  A    between atoms: C1_2  and  C2_3 
ROOT
ATOM      1  C2  UNL d   1       2.498   4.308  -4.804  0.00  0.00    -0.081 A 
ATOM      2  C3  UNL d   1       1.940   3.920  -3.580  0.00  0.00     0.006 A 
ATOM      3  C4  UNL d   1       0.631   4.280  -3.253  0.00  0.00     0.002 A 
ATOM      4  C5  UNL d   1      -0.145   5.026  -4.147  0.00  0.00    -0.080 A 
ATOM      5  C6  UNL d   1      -1.562   5.393  -3.821  0.00  0.00     0.076 C 
ATOM      6  C7  UNL d   1       0.419   5.428  -5.363  0.00  0.00     0.002 A 
ATOM      7  C8  UNL d   1       1.728   5.069  -5.690  0.00  0.00     0.006 A 
ENDROOT
BRANCH   1   8
ATOM      8  C1  UNL d   1       3.888   3.866  -5.187  0.00  0.00     0.054 C 
ATOM      9  C   UNL d   1       4.062   2.365  -5.003  0.00  0.00     0.018 C 
ENDBRANCH   1   8
TORSDOF 1
ENDMDL
