MODEL 1
REMARK minimizedAffinity 9.99661255
REMARK minimizedRMSD -1
REMARK  1 active torsions:
REMARK  status: ('A' for Active; 'I' for Inactive)
REMARK    1  A    between atoms: C1_2  and  C2_3 
ROOT
ATOM      1  C2  UNL d   1       2.467   2.162  -1.931  0.00  0.00    -0.081 A 
ATOM      2  C3  UNL d   1       2.253   2.595  -0.617  0.00  0.00     0.006 A 
ATOM      3  C4  UNL d   1       1.767   1.711   0.350  0.00  0.00     0.002 A 
ATOM      4  C5  UNL d   1       1.494   0.379   0.021  0.00  0.00    -0.080 A 
ATOM      5  C6  UNL d   1       1.001  -0.588   1.056  0.00  0.00     0.076 C 
ATOM      6  C7  UNL d   1       1.691  -0.049  -1.296  0.00  0.00     0.002 A 
ATOM      7  C8  UNL d   1       2.176   0.834  -2.263  0.00  0.00     0.006 A 
ENDROOT
BRANCH   1   8
ATOM      8  C1  UNL d   1       3.052   3.095  -2.960  0.00  0.00     0.054 C 
ATOM      9  C   UNL d   1       4.573   3.072  -2.926  0.00  0.00     0.018 C 
ENDBRANCH   1   8
TORSDOF 1
ENDMDL
