MODEL 1
REMARK minimizedAffinity 7.78995466
REMARK minimizedRMSD -1
REMARK  1 active torsions:
REMARK  status: ('A' for Active; 'I' for Inactive)
REMARK    1  A    between atoms: C1_2  and  C2_3 
ROOT
ATOM      1  C2  UNL d   1       2.644   1.256   0.388  0.00  0.00    -0.081 A 
ATOM      2  C3  UNL d   1       1.697   2.212   0.777  0.00  0.00     0.006 A 
ATOM      3  C4  UNL d   1       0.894   2.843  -0.176  0.00  0.00     0.002 A 
ATOM      4  C5  UNL d   1       1.019   2.524  -1.532  0.00  0.00    -0.080 A 
ATOM      5  C6  UNL d   1       0.142   3.172  -2.562  0.00  0.00     0.076 C 
ATOM      6  C7  UNL d   1       1.977   1.582  -1.923  0.00  0.00     0.002 A 
ATOM      7  C8  UNL d   1       2.780   0.951  -0.971  0.00  0.00     0.006 A 
ENDROOT
BRANCH   1   8
ATOM      8  C1  UNL d   1       3.466   0.527   1.420  0.00  0.00     0.054 C 
ATOM      9  C   UNL d   1       3.421  -0.978   1.200  0.00  0.00     0.018 C 
ENDBRANCH   1   8
TORSDOF 1
ENDMDL
