MODEL 1
REMARK minimizedAffinity 6.66188812
REMARK minimizedRMSD -1
REMARK  1 active torsions:
REMARK  status: ('A' for Active; 'I' for Inactive)
REMARK    1  A    between atoms: C1_2  and  C2_3 
ROOT
ATOM      1  C2  UNL d   1      -3.746  -0.190   2.418  0.00  0.00    -0.081 A 
ATOM      2  C3  UNL d   1      -3.749   0.410   3.683  0.00  0.00     0.006 A 
ATOM      3  C4  UNL d   1      -2.662   0.250   4.545  0.00  0.00     0.002 A 
ATOM      4  C5  UNL d   1      -1.551  -0.506   4.155  0.00  0.00    -0.080 A 
ATOM      5  C6  UNL d   1      -0.365  -0.660   5.060  0.00  0.00     0.076 C 
ATOM      6  C7  UNL d   1      -1.555  -1.120   2.899  0.00  0.00     0.002 A 
ATOM      7  C8  UNL d   1      -2.642  -0.961   2.036  0.00  0.00     0.006 A 
ENDROOT
BRANCH   1   8
ATOM      8  C1  UNL d   1      -4.888   0.034   1.460  0.00  0.00     0.054 C 
ATOM      9  C   UNL d   1      -5.645   1.312   1.791  0.00  0.00     0.018 C 
ENDBRANCH   1   8
TORSDOF 1
ENDMDL
