MODEL 1
REMARK minimizedAffinity 13.5767298
REMARK minimizedRMSD -1
REMARK  1 active torsions:
REMARK  status: ('A' for Active; 'I' for Inactive)
REMARK    1  A    between atoms: C1_2  and  C2_3 
ROOT
ATOM      1  C2  UNL d   1      -5.782   0.455  -2.023  0.00  0.00    -0.081 A 
ATOM      2  C3  UNL d   1      -5.990   1.829  -1.846  0.00  0.00     0.006 A 
ATOM      3  C4  UNL d   1      -5.748   2.427  -0.607  0.00  0.00     0.002 A 
ATOM      4  C5  UNL d   1      -5.288   1.665   0.472  0.00  0.00    -0.080 A 
ATOM      5  C6  UNL d   1      -4.996   2.301   1.798  0.00  0.00     0.076 C 
ATOM      6  C7  UNL d   1      -5.097   0.290   0.300  0.00  0.00     0.002 A 
ATOM      7  C8  UNL d   1      -5.339  -0.309  -0.938  0.00  0.00     0.006 A 
ENDROOT
BRANCH   1   8
ATOM      8  C1  UNL d   1      -5.980  -0.182  -3.375  0.00  0.00     0.054 C 
ATOM      9  C   UNL d   1      -6.000   0.863  -4.481  0.00  0.00     0.018 C 
ENDBRANCH   1   8
TORSDOF 1
ENDMDL
