MODEL 1
REMARK minimizedAffinity 2.35937285
REMARK minimizedRMSD -1
REMARK  1 active torsions:
REMARK  status: ('A' for Active; 'I' for Inactive)
REMARK    1  A    between atoms: C1_2  and  C2_3 
ROOT
ATOM      1  C2  UNL d   1      -3.191  -1.522   2.238  0.00  0.00    -0.081 A 
ATOM      2  C3  UNL d   1      -1.968  -0.870   2.442  0.00  0.00     0.006 A 
ATOM      3  C4  UNL d   1      -1.703  -0.227   3.654  0.00  0.00     0.002 A 
ATOM      4  C5  UNL d   1      -2.651  -0.232   4.682  0.00  0.00    -0.080 A 
ATOM      5  C6  UNL d   1      -2.367   0.429   5.998  0.00  0.00     0.076 C 
ATOM      6  C7  UNL d   1      -3.879  -0.868   4.472  0.00  0.00     0.002 A 
ATOM      7  C8  UNL d   1      -4.145  -1.510   3.261  0.00  0.00     0.006 A 
ENDROOT
BRANCH   1   8
ATOM      8  C1  UNL d   1      -3.454  -2.272   0.957  0.00  0.00     0.054 C 
ATOM      9  C   UNL d   1      -2.567  -3.503   0.844  0.00  0.00     0.018 C 
ENDBRANCH   1   8
TORSDOF 1
ENDMDL
