MODEL 1
REMARK minimizedAffinity -0.0461819135
REMARK minimizedRMSD -1
REMARK  1 active torsions:
REMARK  status: ('A' for Active; 'I' for Inactive)
REMARK    1  A    between atoms: C1_2  and  C2_3 
ROOT
ATOM      1  C2  UNL d   1      -2.024  -0.905   2.651  0.00  0.00    -0.081 A 
ATOM      2  C3  UNL d   1      -1.450  -0.334   3.794  0.00  0.00     0.006 A 
ATOM      3  C4  UNL d   1      -2.250   0.045   4.875  0.00  0.00     0.002 A 
ATOM      4  C5  UNL d   1      -3.635  -0.148   4.834  0.00  0.00    -0.080 A 
ATOM      5  C6  UNL d   1      -4.501   0.226   6.000  0.00  0.00     0.076 C 
ATOM      6  C7  UNL d   1      -4.210  -0.702   3.686  0.00  0.00     0.002 A 
ATOM      7  C8  UNL d   1      -3.411  -1.080   2.605  0.00  0.00     0.006 A 
ENDROOT
BRANCH   1   8
ATOM      8  C1  UNL d   1      -1.157  -1.373   1.510  0.00  0.00     0.054 C 
ATOM      9  C   UNL d   1      -0.363  -2.614   1.893  0.00  0.00     0.018 C 
ENDBRANCH   1   8
TORSDOF 1
ENDMDL
