MODEL 1
REMARK minimizedAffinity 7.82115269
REMARK minimizedRMSD -1
REMARK  1 active torsions:
REMARK  status: ('A' for Active; 'I' for Inactive)
REMARK    1  A    between atoms: C1_2  and  C2_3 
ROOT
ATOM      1  C2  UNL d   1      -5.912   2.642  -0.661  0.00  0.00    -0.081 A 
ATOM      2  C3  UNL d   1      -5.918   1.265  -0.917  0.00  0.00     0.006 A 
ATOM      3  C4  UNL d   1      -5.959   0.789  -2.229  0.00  0.00     0.002 A 
ATOM      4  C5  UNL d   1      -5.986   1.680  -3.307  0.00  0.00    -0.080 A 
ATOM      5  C6  UNL d   1      -5.999   1.181  -4.722  0.00  0.00     0.076 C 
ATOM      6  C7  UNL d   1      -5.997   3.055  -3.052  0.00  0.00     0.002 A 
ATOM      7  C8  UNL d   1      -5.957   3.532  -1.740  0.00  0.00     0.006 A 
ENDROOT
BRANCH   1   8
ATOM      8  C1  UNL d   1      -5.803   3.159   0.751  0.00  0.00     0.054 C 
ATOM      9  C   UNL d   1      -5.994   4.668   0.804  0.00  0.00     0.018 C 
ENDBRANCH   1   8
TORSDOF 1
ENDMDL
