MODEL 1
REMARK minimizedAffinity 3.70242834
REMARK minimizedRMSD -1
REMARK  1 active torsions:
REMARK  status: ('A' for Active; 'I' for Inactive)
REMARK    1  A    between atoms: C1_2  and  C2_3 
ROOT
ATOM      1  C2  UNL d   1      -5.988   0.031  -3.511  0.00  0.00    -0.081 A 
ATOM      2  C3  UNL d   1      -5.998   1.424  -3.648  0.00  0.00     0.006 A 
ATOM      3  C4  UNL d   1      -5.930   2.248  -2.522  0.00  0.00     0.002 A 
ATOM      4  C5  UNL d   1      -5.844   1.692  -1.241  0.00  0.00    -0.080 A 
ATOM      5  C6  UNL d   1      -5.740   2.565  -0.025  0.00  0.00     0.076 C 
ATOM      6  C7  UNL d   1      -5.852   0.300  -1.102  0.00  0.00     0.002 A 
ATOM      7  C8  UNL d   1      -5.920  -0.524  -2.228  0.00  0.00     0.006 A 
ENDROOT
BRANCH   1   8
ATOM      8  C1  UNL d   1      -5.996  -0.859  -4.727  0.00  0.00     0.054 C 
ATOM      9  C   UNL d   1      -5.700  -0.069  -5.993  0.00  0.00     0.018 C 
ENDBRANCH   1   8
TORSDOF 1
ENDMDL
