MODEL 1
REMARK minimizedAffinity 1.95468199
REMARK minimizedRMSD -1
REMARK  1 active torsions:
REMARK  status: ('A' for Active; 'I' for Inactive)
REMARK    1  A    between atoms: C1_2  and  C2_3 
ROOT
ATOM      1  C2  UNL d   1      -5.942   0.400  -2.155  0.00  0.00    -0.081 A 
ATOM      2  C3  UNL d   1      -5.987   1.155  -3.333  0.00  0.00     0.006 A 
ATOM      3  C4  UNL d   1      -5.993   0.525  -4.579  0.00  0.00     0.002 A 
ATOM      4  C5  UNL d   1      -5.963  -0.871  -4.669  0.00  0.00    -0.080 A 
ATOM      5  C6  UNL d   1      -6.000  -1.561  -6.000  0.00  0.00     0.076 C 
ATOM      6  C7  UNL d   1      -5.900  -1.626  -3.492  0.00  0.00     0.002 A 
ATOM      7  C8  UNL d   1      -5.893  -0.996  -2.246  0.00  0.00     0.006 A 
ENDROOT
BRANCH   1   8
ATOM      8  C1  UNL d   1      -6.000   1.075  -0.809  0.00  0.00     0.054 C 
ATOM      9  C   UNL d   1      -5.713   2.565  -0.924  0.00  0.00     0.018 C 
ENDBRANCH   1   8
TORSDOF 1
ENDMDL
