MODEL 1
REMARK minimizedAffinity 3.46410227
REMARK minimizedRMSD -1
REMARK  1 active torsions:
REMARK  status: ('A' for Active; 'I' for Inactive)
REMARK    1  A    between atoms: C1_2  and  C2_3 
ROOT
ATOM      1  C2  UNL d   1       0.980   4.335  -4.347  0.00  0.00    -0.081 A 
ATOM      2  C3  UNL d   1       0.253   3.219  -3.917  0.00  0.00     0.006 A 
ATOM      3  C4  UNL d   1       0.842   2.269  -3.079  0.00  0.00     0.002 A 
ATOM      4  C5  UNL d   1       2.165   2.425  -2.650  0.00  0.00    -0.080 A 
ATOM      5  C6  UNL d   1       2.799   1.429  -1.725  0.00  0.00     0.076 C 
ATOM      6  C7  UNL d   1       2.897   3.531  -3.093  0.00  0.00     0.002 A 
ATOM      7  C8  UNL d   1       2.309   4.480  -3.932  0.00  0.00     0.006 A 
ENDROOT
BRANCH   1   8
ATOM      8  C1  UNL d   1       0.328   5.394  -5.198  0.00  0.00     0.054 C 
ATOM      9  C   UNL d   1      -0.834   4.822  -5.998  0.00  0.00     0.018 C 
ENDBRANCH   1   8
TORSDOF 1
ENDMDL
