MODEL 1
REMARK minimizedAffinity -0.153014243
REMARK minimizedRMSD -1
REMARK  1 active torsions:
REMARK  status: ('A' for Active; 'I' for Inactive)
REMARK    1  A    between atoms: C1_2  and  C2_3 
ROOT
ATOM      1  C2  UNL d   1      -1.901  -0.822   3.369  0.00  0.00    -0.081 A 
ATOM      2  C3  UNL d   1      -2.917  -0.514   4.282  0.00  0.00     0.006 A 
ATOM      3  C4  UNL d   1      -4.218  -0.982   4.078  0.00  0.00     0.002 A 
ATOM      4  C5  UNL d   1      -4.522  -1.770   2.963  0.00  0.00    -0.080 A 
ATOM      5  C6  UNL d   1      -5.907  -2.303   2.747  0.00  0.00     0.076 C 
ATOM      6  C7  UNL d   1      -3.511  -2.062   2.041  0.00  0.00     0.002 A 
ATOM      7  C8  UNL d   1      -2.210  -1.594   2.245  0.00  0.00     0.006 A 
ENDROOT
BRANCH   1   8
ATOM      8  C1  UNL d   1      -0.484  -0.373   3.621  0.00  0.00     0.054 C 
ATOM      9  C   UNL d   1       0.231  -1.313   4.581  0.00  0.00     0.018 C 
ENDBRANCH   1   8
TORSDOF 1
ENDMDL
