MODEL 1
REMARK minimizedAffinity 9.46401691
REMARK minimizedRMSD -1
REMARK  1 active torsions:
REMARK  status: ('A' for Active; 'I' for Inactive)
REMARK    1  A    between atoms: C1_2  and  C2_3 
ROOT
ATOM      1  C2  UNL d   1      -5.994   1.148  -2.231  0.00  0.00    -0.081 A 
ATOM      2  C3  UNL d   1      -5.940  -0.251  -2.261  0.00  0.00     0.006 A 
ATOM      3  C4  UNL d   1      -5.874  -0.931  -3.479  0.00  0.00     0.002 A 
ATOM      4  C5  UNL d   1      -5.853  -0.225  -4.686  0.00  0.00    -0.080 A 
ATOM      5  C6  UNL d   1      -5.752  -0.941  -6.000  0.00  0.00     0.076 C 
ATOM      6  C7  UNL d   1      -5.924   1.172  -4.657  0.00  0.00     0.002 A 
ATOM      7  C8  UNL d   1      -5.991   1.853  -3.439  0.00  0.00     0.006 A 
ENDROOT
BRANCH   1   8
ATOM      8  C1  UNL d   1      -6.000   1.886  -0.917  0.00  0.00     0.054 C 
ATOM      9  C   UNL d   1      -5.309   1.080   0.174  0.00  0.00     0.018 C 
ENDBRANCH   1   8
TORSDOF 1
ENDMDL
