MODEL 1
REMARK minimizedAffinity 19.9155521
REMARK minimizedRMSD -1
REMARK  1 active torsions:
REMARK  status: ('A' for Active; 'I' for Inactive)
REMARK    1  A    between atoms: C1_2  and  C2_3 
ROOT
ATOM      1  C2  UNL d   1       0.432   1.785  -3.499  0.00  0.00    -0.073 A 
ATOM      2  C3  UNL d   1       0.429   0.392  -3.632  0.00  0.00    -0.002 A 
ATOM      3  C4  UNL d   1       1.197  -0.399  -2.776  0.00  0.00     0.004 A 
ATOM      4  C5  UNL d   1       1.969   0.194  -1.776  0.00  0.00    -0.004 A 
ATOM      5  C6  UNL d   1       1.975   1.584  -1.621  0.00  0.00    -0.075 A 
ATOM      6  C7  UNL d   1       2.802   2.236  -0.552  0.00  0.00     0.076 C 
ATOM      7  C8  UNL d   1       1.204   2.371  -2.486  0.00  0.00     0.001 A 
ENDROOT
BRANCH   1   8
ATOM      8  C1  UNL d   1      -0.401   2.643  -4.417  0.00  0.00     0.053 C 
ATOM      9  C   UNL d   1      -1.870   2.637  -4.026  0.00  0.00     0.018 C 
ENDBRANCH   1   8
TORSDOF 1
ENDMDL
