MODEL 1
REMARK minimizedAffinity 11.8085232
REMARK minimizedRMSD -1
REMARK  1 active torsions:
REMARK  status: ('A' for Active; 'I' for Inactive)
REMARK    1  A    between atoms: C1_2  and  C2_3 
ROOT
ATOM      1  C2  UNL d   1      -1.313  -2.695  -0.036  0.00  0.00    -0.073 A 
ATOM      2  C3  UNL d   1      -2.352  -1.863   0.395  0.00  0.00    -0.002 A 
ATOM      3  C4  UNL d   1      -2.880  -0.895  -0.460  0.00  0.00     0.004 A 
ATOM      4  C5  UNL d   1      -2.381  -0.754  -1.755  0.00  0.00    -0.004 A 
ATOM      5  C6  UNL d   1      -1.351  -1.585  -2.208  0.00  0.00    -0.075 A 
ATOM      6  C7  UNL d   1      -0.801  -1.445  -3.597  0.00  0.00     0.076 C 
ATOM      7  C8  UNL d   1      -0.824  -2.552  -1.342  0.00  0.00     0.001 A 
ENDROOT
BRANCH   1   8
ATOM      8  C1  UNL d   1      -0.744  -3.746   0.882  0.00  0.00     0.053 C 
ATOM      9  C   UNL d   1      -0.644  -5.103   0.202  0.00  0.00     0.018 C 
ENDBRANCH   1   8
TORSDOF 1
ENDMDL
