MODEL 1
REMARK minimizedAffinity 11.5771961
REMARK minimizedRMSD -1
REMARK  1 active torsions:
REMARK  status: ('A' for Active; 'I' for Inactive)
REMARK    1  A    between atoms: C1_2  and  C2_3 
ROOT
ATOM      1  C2  UNL d   1      -0.466  -5.302   0.562  0.00  0.00    -0.073 A 
ATOM      2  C3  UNL d   1      -0.358  -5.970  -0.663  0.00  0.00    -0.002 A 
ATOM      3  C4  UNL d   1      -0.697  -5.322  -1.852  0.00  0.00     0.004 A 
ATOM      4  C5  UNL d   1      -1.139  -3.999  -1.829  0.00  0.00    -0.004 A 
ATOM      5  C6  UNL d   1      -1.242  -3.311  -0.616  0.00  0.00    -0.075 A 
ATOM      6  C7  UNL d   1      -1.719  -1.889  -0.574  0.00  0.00     0.076 C 
ATOM      7  C8  UNL d   1      -0.903  -3.970   0.574  0.00  0.00     0.001 A 
ENDROOT
BRANCH   1   8
ATOM      8  C1  UNL d   1      -0.095  -5.996   1.847  0.00  0.00     0.053 C 
ATOM      9  C   UNL d   1      -0.919  -5.495   3.023  0.00  0.00     0.018 C 
ENDBRANCH   1   8
TORSDOF 1
ENDMDL
