MODEL 1
REMARK minimizedAffinity 17.770237
REMARK minimizedRMSD -1
REMARK  1 active torsions:
REMARK  status: ('A' for Active; 'I' for Inactive)
REMARK    1  A    between atoms: C1_2  and  C2_3 
ROOT
ATOM      1  C2  UNL d   1      -0.934   0.178  -3.147  0.00  0.00    -0.073 A 
ATOM      2  C3  UNL d   1      -2.283   0.412  -2.855  0.00  0.00    -0.002 A 
ATOM      3  C4  UNL d   1      -2.895   1.601  -3.254  0.00  0.00     0.004 A 
ATOM      4  C5  UNL d   1      -2.168   2.564  -3.953  0.00  0.00    -0.004 A 
ATOM      5  C6  UNL d   1      -0.822   2.344  -4.265  0.00  0.00    -0.075 A 
ATOM      6  C7  UNL d   1      -0.026   3.371  -5.015  0.00  0.00     0.076 C 
ATOM      7  C8  UNL d   1      -0.214   1.149  -3.859  0.00  0.00     0.001 A 
ENDROOT
BRANCH   1   8
ATOM      8  C1  UNL d   1      -0.271  -1.107  -2.725  0.00  0.00     0.053 C 
ATOM      9  C   UNL d   1      -0.943  -1.722  -1.508  0.00  0.00     0.018 C 
ENDBRANCH   1   8
TORSDOF 1
ENDMDL
