MODEL 1
REMARK minimizedAffinity 19.9464531
REMARK minimizedRMSD -1
REMARK  1 active torsions:
REMARK  status: ('A' for Active; 'I' for Inactive)
REMARK    1  A    between atoms: C1_2  and  C2_3 
ROOT
ATOM      1  C2  UNL d   1       4.113   3.679  -0.297  0.00  0.00    -0.073 A 
ATOM      2  C3  UNL d   1       3.059   3.191  -1.077  0.00  0.00    -0.002 A 
ATOM      3  C4  UNL d   1       2.418   2.000  -0.731  0.00  0.00     0.004 A 
ATOM      4  C5  UNL d   1       2.819   1.291   0.402  0.00  0.00    -0.004 A 
ATOM      5  C6  UNL d   1       3.863   1.770   1.201  0.00  0.00    -0.075 A 
ATOM      6  C7  UNL d   1       4.307   1.018   2.421  0.00  0.00     0.076 C 
ATOM      7  C8  UNL d   1       4.503   2.964   0.845  0.00  0.00     0.001 A 
ENDROOT
BRANCH   1   8
ATOM      8  C1  UNL d   1       4.804   4.967  -0.664  0.00  0.00     0.053 C 
ATOM      9  C   UNL d   1       4.715   5.999   0.449  0.00  0.00     0.018 C 
ENDBRANCH   1   8
TORSDOF 1
ENDMDL
