MODEL 1
REMARK minimizedAffinity 8.72356892
REMARK minimizedRMSD -1
REMARK  1 active torsions:
REMARK  status: ('A' for Active; 'I' for Inactive)
REMARK    1  A    between atoms: C1_2  and  C2_3 
ROOT
ATOM      1  C2  UNL d   1       4.174   3.033   2.863  0.00  0.00    -0.073 A 
ATOM      2  C3  UNL d   1       3.628   1.957   2.155  0.00  0.00    -0.002 A 
ATOM      3  C4  UNL d   1       3.577   1.983   0.761  0.00  0.00     0.004 A 
ATOM      4  C5  UNL d   1       4.077   3.080   0.060  0.00  0.00    -0.004 A 
ATOM      5  C6  UNL d   1       4.638   4.161   0.749  0.00  0.00    -0.075 A 
ATOM      6  C7  UNL d   1       5.178   5.350   0.011  0.00  0.00     0.076 C 
ATOM      7  C8  UNL d   1       4.683   4.128   2.149  0.00  0.00     0.001 A 
ENDROOT
BRANCH   1   8
ATOM      8  C1  UNL d   1       4.238   3.007   4.368  0.00  0.00     0.053 C 
ATOM      9  C   UNL d   1       4.999   4.198   4.928  0.00  0.00     0.018 C 
ENDBRANCH   1   8
TORSDOF 1
ENDMDL
