MODEL 1
REMARK minimizedAffinity 8.43475914
REMARK minimizedRMSD -1
REMARK  1 active torsions:
REMARK  status: ('A' for Active; 'I' for Inactive)
REMARK    1  A    between atoms: C1_2  and  C2_3 
ROOT
ATOM      1  C2  UNL d   1      -2.779   3.454  -4.854  0.00  0.00    -0.073 A 
ATOM      2  C3  UNL d   1      -3.627   3.027  -5.882  0.00  0.00    -0.002 A 
ATOM      3  C4  UNL d   1      -4.914   3.554  -5.999  0.00  0.00     0.004 A 
ATOM      4  C5  UNL d   1      -5.363   4.516  -5.095  0.00  0.00    -0.004 A 
ATOM      5  C6  UNL d   1      -4.526   4.964  -4.068  0.00  0.00    -0.075 A 
ATOM      6  C7  UNL d   1      -4.995   5.998  -3.086  0.00  0.00     0.076 C 
ATOM      7  C8  UNL d   1      -3.236   4.429  -3.956  0.00  0.00     0.001 A 
ENDROOT
BRANCH   1   8
ATOM      8  C1  UNL d   1      -1.386   2.893  -4.728  0.00  0.00     0.053 C 
ATOM      9  C   UNL d   1      -0.555   3.143  -5.977  0.00  0.00     0.018 C 
ENDBRANCH   1   8
TORSDOF 1
ENDMDL
