MODEL 1
REMARK minimizedAffinity 16.398037
REMARK minimizedRMSD -1
REMARK  1 active torsions:
REMARK  status: ('A' for Active; 'I' for Inactive)
REMARK    1  A    between atoms: C1_2  and  C2_3 
ROOT
ATOM      1  C2  UNL d   1       3.846   3.892  -0.421  0.00  0.00    -0.073 A 
ATOM      2  C3  UNL d   1       3.218   3.053  -1.348  0.00  0.00    -0.002 A 
ATOM      3  C4  UNL d   1       2.558   1.900  -0.920  0.00  0.00     0.004 A 
ATOM      4  C5  UNL d   1       2.512   1.579   0.436  0.00  0.00    -0.004 A 
ATOM      5  C6  UNL d   1       3.124   2.412   1.379  0.00  0.00    -0.075 A 
ATOM      6  C7  UNL d   1       3.086   2.080   2.842  0.00  0.00     0.076 C 
ATOM      7  C8  UNL d   1       3.787   3.566   0.942  0.00  0.00     0.001 A 
ENDROOT
BRANCH   1   8
ATOM      8  C1  UNL d   1       4.556   5.141  -0.877  0.00  0.00     0.053 C 
ATOM      9  C   UNL d   1       5.008   6.000   0.294  0.00  0.00     0.018 C 
ENDBRANCH   1   8
TORSDOF 1
ENDMDL
