MODEL 1
REMARK minimizedAffinity 12.29177
REMARK minimizedRMSD -1
REMARK  1 active torsions:
REMARK  status: ('A' for Active; 'I' for Inactive)
REMARK    1  A    between atoms: C1_2  and  C2_3 
ROOT
ATOM      1  C2  UNL d   1      -1.164  -4.168   1.128  0.00  0.00    -0.073 A 
ATOM      2  C3  UNL d   1      -2.171  -3.676   1.966  0.00  0.00    -0.002 A 
ATOM      3  C4  UNL d   1      -2.814  -2.474   1.666  0.00  0.00     0.004 A 
ATOM      4  C5  UNL d   1      -2.462  -1.757   0.523  0.00  0.00    -0.004 A 
ATOM      5  C6  UNL d   1      -1.467  -2.238  -0.334  0.00  0.00    -0.075 A 
ATOM      6  C7  UNL d   1      -1.075  -1.476  -1.566  0.00  0.00     0.076 C 
ATOM      7  C8  UNL d   1      -0.824  -3.444  -0.024  0.00  0.00     0.001 A 
ENDROOT
BRANCH   1   8
ATOM      8  C1  UNL d   1      -0.472  -5.469   1.444  0.00  0.00     0.053 C 
ATOM      9  C   UNL d   1      -0.855  -5.999   2.816  0.00  0.00     0.018 C 
ENDBRANCH   1   8
TORSDOF 1
ENDMDL
