MODEL 1
REMARK minimizedAffinity 8.29407406
REMARK minimizedRMSD -1
REMARK  1 active torsions:
REMARK  status: ('A' for Active; 'I' for Inactive)
REMARK    1  A    between atoms: C1_2  and  C2_3 
ROOT
ATOM      1  C2  UNL d   1      -1.495  -1.969  -1.210  0.00  0.00    -0.073 A 
ATOM      2  C3  UNL d   1      -2.309  -1.369  -0.243  0.00  0.00    -0.002 A 
ATOM      3  C4  UNL d   1      -2.537  -2.005   0.978  0.00  0.00     0.004 A 
ATOM      4  C5  UNL d   1      -1.950  -3.241   1.247  0.00  0.00    -0.004 A 
ATOM      5  C6  UNL d   1      -1.124  -3.851   0.298  0.00  0.00    -0.075 A 
ATOM      6  C7  UNL d   1      -0.486  -5.181   0.570  0.00  0.00     0.076 C 
ATOM      7  C8  UNL d   1      -0.901  -3.207  -0.927  0.00  0.00     0.001 A 
ENDROOT
BRANCH   1   8
ATOM      8  C1  UNL d   1      -1.240  -1.283  -2.528  0.00  0.00     0.053 C 
ATOM      9  C   UNL d   1      -1.605  -2.167  -3.710  0.00  0.00     0.018 C 
ENDBRANCH   1   8
TORSDOF 1
ENDMDL
