MODEL 1
REMARK minimizedAffinity -4.00338459
REMARK minimizedRMSD -1
REMARK  2 active torsions:
REMARK  status: ('A' for Active; 'I' for Inactive)
REMARK    1  A    between atoms: C2'_3  and  C1'_4 
REMARK    2  A    between atoms: C1'_4  and  C1_5 
ROOT
ATOM      1  C1  I4B d   1      -0.635   0.132  -0.222  0.00  0.00    -0.075 A 
ATOM      2  C2  I4B d   1       0.637   0.265   0.276  0.00  0.00     0.003 A 
ATOM      3  C3  I4B d   1       1.521  -0.841   0.278  0.00  0.00     0.002 A 
ATOM      4  C4  I4B d   1       1.078  -2.066  -0.178  0.00  0.00    -0.004 A 
ATOM      5  C5  I4B d   1      -0.204  -2.193  -0.704  0.00  0.00     0.002 A 
ATOM      6  C6  I4B d   1      -1.063  -1.085  -0.738  0.00  0.00     0.003 A 
ENDROOT
BRANCH   1   7
ATOM      7  C1' I4B d   1      -1.553   1.312  -0.178  0.00  0.00     0.060 C 
BRANCH   7   8
ATOM      8  C2' I4B d   1      -2.763   0.932   0.651  0.00  0.00    -0.013 C 
ATOM      9  C4' I4B d   1      -2.919   1.846   1.838  0.00  0.00     0.013 C 
ATOM     10  C3' I4B d   1      -3.970   0.987  -0.237  0.00  0.00     0.013 C 
ENDBRANCH   7   8
ENDBRANCH   1   7
TORSDOF 2
ENDMDL
