MODEL 1
REMARK minimizedAffinity -2.66944528
REMARK minimizedRMSD -1
REMARK  2 active torsions:
REMARK  status: ('A' for Active; 'I' for Inactive)
REMARK    1  A    between atoms: C2'_3  and  C1'_4 
REMARK    2  A    between atoms: C1'_4  and  C1_5 
ROOT
ATOM      1  C1  I4B d   1      -0.126   0.181  -0.008  0.00  0.00    -0.075 A 
ATOM      2  C2  I4B d   1      -0.508  -1.135   0.080  0.00  0.00     0.003 A 
ATOM      3  C3  I4B d   1       0.436  -2.167  -0.138  0.00  0.00     0.002 A 
ATOM      4  C4  I4B d   1       1.730  -1.842  -0.489  0.00  0.00    -0.004 A 
ATOM      5  C5  I4B d   1       2.121  -0.508  -0.554  0.00  0.00     0.002 A 
ATOM      6  C6  I4B d   1       1.191   0.510  -0.300  0.00  0.00     0.003 A 
ENDROOT
BRANCH   1   7
ATOM      7  C1' I4B d   1      -1.156   1.246   0.196  0.00  0.00     0.060 C 
BRANCH   7   8
ATOM      8  C2' I4B d   1      -2.358   0.611   0.865  0.00  0.00    -0.013 C 
ATOM      9  C4' I4B d   1      -2.788   1.399   2.075  0.00  0.00     0.013 C 
ATOM     10  C3' I4B d   1      -3.461   0.527  -0.147  0.00  0.00     0.013 C 
ENDBRANCH   7   8
ENDBRANCH   1   7
TORSDOF 2
ENDMDL
