MODEL 1
REMARK minimizedAffinity -1.93263006
REMARK minimizedRMSD -1
REMARK  2 active torsions:
REMARK  status: ('A' for Active; 'I' for Inactive)
REMARK    1  A    between atoms: C2'_3  and  C1'_4 
REMARK    2  A    between atoms: C1'_4  and  C1_5 
ROOT
ATOM      1  C1  I4B d   1      -0.531   0.099  -0.234  0.00  0.00    -0.075 A 
ATOM      2  C2  I4B d   1      -0.739  -1.154  -0.756  0.00  0.00     0.003 A 
ATOM      3  C3  I4B d   1       0.311  -2.104  -0.767  0.00  0.00     0.002 A 
ATOM      4  C4  I4B d   1       1.558  -1.745  -0.297  0.00  0.00    -0.004 A 
ATOM      5  C5  I4B d   1       1.760  -0.482   0.252  0.00  0.00     0.002 A 
ATOM      6  C6  I4B d   1       0.706   0.442   0.295  0.00  0.00     0.003 A 
ENDROOT
BRANCH   1   7
ATOM      7  C1' I4B d   1      -1.653   1.088  -0.268  0.00  0.00     0.060 C 
BRANCH   7   8
ATOM      8  C2' I4B d   1      -2.362   1.035   1.069  0.00  0.00    -0.013 C 
ATOM      9  C4' I4B d   1      -2.331   2.375   1.756  0.00  0.00     0.013 C 
ATOM     10  C3' I4B d   1      -3.772   0.583   0.828  0.00  0.00     0.013 C 
ENDBRANCH   7   8
ENDBRANCH   1   7
TORSDOF 2
ENDMDL
