MODEL 1
REMARK minimizedAffinity -2.5498867
REMARK minimizedRMSD -1
REMARK  2 active torsions:
REMARK  status: ('A' for Active; 'I' for Inactive)
REMARK    1  A    between atoms: C2'_3  and  C1'_4 
REMARK    2  A    between atoms: C1'_4  and  C1_5 
ROOT
ATOM      1  C1  I4B d   1      -0.779   0.236   0.342  0.00  0.00    -0.075 A 
ATOM      2  C2  I4B d   1      -1.078  -0.496   1.465  0.00  0.00     0.003 A 
ATOM      3  C3  I4B d   1      -2.321  -0.322   2.120  0.00  0.00     0.002 A 
ATOM      4  C4  I4B d   1      -3.209   0.625   1.651  0.00  0.00    -0.004 A 
ATOM      5  C5  I4B d   1      -2.914   1.350   0.500  0.00  0.00     0.002 A 
ATOM      6  C6  I4B d   1      -1.697   1.145  -0.166  0.00  0.00     0.003 A 
ENDROOT
BRANCH   1   7
ATOM      7  C1' I4B d   1       0.556   0.050  -0.305  0.00  0.00     0.060 C 
BRANCH   7   8
ATOM      8  C2' I4B d   1       0.938  -1.411  -0.177  0.00  0.00    -0.013 C 
ATOM      9  C4' I4B d   1       0.205  -2.256  -1.186  0.00  0.00     0.013 C 
ATOM     10  C3' I4B d   1       2.423  -1.519  -0.357  0.00  0.00     0.013 C 
ENDBRANCH   7   8
ENDBRANCH   1   7
TORSDOF 2
ENDMDL
