MODEL 1
REMARK minimizedAffinity -2.68429828
REMARK minimizedRMSD -1
REMARK  2 active torsions:
REMARK  status: ('A' for Active; 'I' for Inactive)
REMARK    1  A    between atoms: C2'_3  and  C1'_4 
REMARK    2  A    between atoms: C1'_4  and  C1_5 
ROOT
ATOM      1  C1  I4B d   1      -0.071   0.695  -0.383  0.00  0.00    -0.075 A 
ATOM      2  C2  I4B d   1       1.195   1.063   0.001  0.00  0.00     0.003 A 
ATOM      3  C3  I4B d   1       2.228   0.097   0.070  0.00  0.00     0.002 A 
ATOM      4  C4  I4B d   1       1.941  -1.226  -0.201  0.00  0.00    -0.004 A 
ATOM      5  C5  I4B d   1       0.663  -1.593  -0.612  0.00  0.00     0.002 A 
ATOM      6  C6  I4B d   1      -0.347  -0.625  -0.716  0.00  0.00     0.003 A 
ENDROOT
BRANCH   1   7
ATOM      7  C1' I4B d   1      -1.145   1.735  -0.414  0.00  0.00     0.060 C 
BRANCH   7   8
ATOM      8  C2' I4B d   1      -2.334   1.202   0.360  0.00  0.00    -0.013 C 
ATOM      9  C4' I4B d   1      -2.767   2.171   1.428  0.00  0.00     0.013 C 
ATOM     10  C3' I4B d   1      -3.442   0.940  -0.615  0.00  0.00     0.013 C 
ENDBRANCH   7   8
ENDBRANCH   1   7
TORSDOF 2
ENDMDL
