MODEL 1
REMARK minimizedAffinity -4.47556543
REMARK minimizedRMSD -1
REMARK  2 active torsions:
REMARK  status: ('A' for Active; 'I' for Inactive)
REMARK    1  A    between atoms: C2'_3  and  C1'_4 
REMARK    2  A    between atoms: C1'_4  and  C1_5 
ROOT
ATOM      1  C1  I4B d   1       0.699  -0.064   0.001  0.00  0.00    -0.075 A 
ATOM      2  C2  I4B d   1       1.432  -1.198  -0.242  0.00  0.00     0.003 A 
ATOM      3  C3  I4B d   1       2.846  -1.135  -0.299  0.00  0.00     0.002 A 
ATOM      4  C4  I4B d   1       3.478   0.084  -0.158  0.00  0.00    -0.004 A 
ATOM      5  C5  I4B d   1       2.734   1.229   0.112  0.00  0.00     0.002 A 
ATOM      6  C6  I4B d   1       1.336   1.153   0.204  0.00  0.00     0.003 A 
ENDROOT
BRANCH   1   7
ATOM      7  C1' I4B d   1      -0.794  -0.161   0.022  0.00  0.00     0.060 C 
BRANCH   7   8
ATOM      8  C2' I4B d   1      -1.355   1.233  -0.168  0.00  0.00    -0.013 C 
ATOM      9  C4' I4B d   1      -1.310   1.646  -1.616  0.00  0.00     0.013 C 
ATOM     10  C3' I4B d   1      -2.761   1.242   0.354  0.00  0.00     0.013 C 
ENDBRANCH   7   8
ENDBRANCH   1   7
TORSDOF 2
ENDMDL
