MODEL 1
REMARK minimizedAffinity 2.12353373
REMARK minimizedRMSD -1
REMARK  2 active torsions:
REMARK  status: ('A' for Active; 'I' for Inactive)
REMARK    1  A    between atoms: C2'_3  and  C1'_4 
REMARK    2  A    between atoms: C1'_4  and  C1_5 
ROOT
ATOM      1  C1  I4B d   1      -2.101   0.344  -0.096  0.00  0.00    -0.075 A 
ATOM      2  C2  I4B d   1      -2.093   0.189   1.268  0.00  0.00     0.003 A 
ATOM      3  C3  I4B d   1      -3.296   0.307   2.006  0.00  0.00     0.002 A 
ATOM      4  C4  I4B d   1      -4.466   0.630   1.351  0.00  0.00    -0.004 A 
ATOM      5  C5  I4B d   1      -4.477   0.764  -0.035  0.00  0.00     0.002 A 
ATOM      6  C6  I4B d   1      -3.290   0.608  -0.764  0.00  0.00     0.003 A 
ENDROOT
BRANCH   1   7
ATOM      7  C1' I4B d   1      -0.808   0.244  -0.840  0.00  0.00     0.060 C 
BRANCH   7   8
ATOM      8  C2' I4B d   1       0.234  -0.317   0.106  0.00  0.00    -0.013 C 
ATOM      9  C4' I4B d   1       0.694  -1.681  -0.336  0.00  0.00     0.013 C 
ATOM     10  C3' I4B d   1       1.379   0.650   0.161  0.00  0.00     0.013 C 
ENDBRANCH   7   8
ENDBRANCH   1   7
TORSDOF 2
ENDMDL
