MODEL 1
REMARK minimizedAffinity -4.38408613
REMARK minimizedRMSD -1
REMARK  1 active torsions:
REMARK  status: ('A' for Active; 'I' for Inactive)
REMARK    1  A    between atoms: C1_2  and  C2_3 
ROOT
ATOM      1  C2  UNL d   1      -0.010  -0.471   0.041  0.00  0.00    -0.081 A 
ATOM      2  C3  UNL d   1      -1.329  -0.110   0.340  0.00  0.00     0.006 A 
ATOM      3  C4  UNL d   1      -1.772  -0.079   1.665  0.00  0.00     0.002 A 
ATOM      4  C5  UNL d   1      -0.902  -0.402   2.711  0.00  0.00    -0.080 A 
ATOM      5  C6  UNL d   1      -1.356  -0.344   4.140  0.00  0.00     0.076 C 
ATOM      6  C7  UNL d   1       0.411  -0.780   2.411  0.00  0.00     0.002 A 
ATOM      7  C8  UNL d   1       0.854  -0.811   1.087  0.00  0.00     0.006 A 
ENDROOT
BRANCH   1   8
ATOM      8  C1  UNL d   1       0.489  -0.442  -1.382  0.00  0.00     0.054 C 
ATOM      9  C   UNL d   1       0.525  -1.840  -1.984  0.00  0.00     0.018 C 
ENDBRANCH   1   8
TORSDOF 1
ENDMDL
