MODEL 1
REMARK minimizedAffinity -3.17069769
REMARK minimizedRMSD -1
REMARK  1 active torsions:
REMARK  status: ('A' for Active; 'I' for Inactive)
REMARK    1  A    between atoms: C1_2  and  C2_3 
ROOT
ATOM      1  C2  UNL d   1       0.113  -0.277  -0.496  0.00  0.00    -0.081 A 
ATOM      2  C3  UNL d   1      -0.175   0.848   0.287  0.00  0.00     0.006 A 
ATOM      3  C4  UNL d   1      -0.750   0.703   1.552  0.00  0.00     0.002 A 
ATOM      4  C5  UNL d   1      -1.039  -0.569   2.058  0.00  0.00    -0.080 A 
ATOM      5  C6  UNL d   1      -1.628  -0.740   3.427  0.00  0.00     0.076 C 
ATOM      6  C7  UNL d   1      -0.767  -1.692   1.270  0.00  0.00     0.002 A 
ATOM      7  C8  UNL d   1      -0.193  -1.548   0.005  0.00  0.00     0.006 A 
ENDROOT
BRANCH   1   8
ATOM      8  C1  UNL d   1       0.792  -0.127  -1.833  0.00  0.00     0.054 C 
ATOM      9  C   UNL d   1       0.777  -1.436  -2.611  0.00  0.00     0.018 C 
ENDBRANCH   1   8
TORSDOF 1
ENDMDL
