MODEL 1
REMARK minimizedAffinity -2.93726444
REMARK minimizedRMSD -1
REMARK  1 active torsions:
REMARK  status: ('A' for Active; 'I' for Inactive)
REMARK    1  A    between atoms: C1_2  and  C2_3 
ROOT
ATOM      1  C2  UNL d   1       0.194  -0.507  -0.917  0.00  0.00    -0.081 A 
ATOM      2  C3  UNL d   1      -1.098  -0.679  -0.405  0.00  0.00     0.006 A 
ATOM      3  C4  UNL d   1      -1.313  -0.719   0.975  0.00  0.00     0.002 A 
ATOM      4  C5  UNL d   1      -0.242  -0.579   1.864  0.00  0.00    -0.080 A 
ATOM      5  C6  UNL d   1      -0.463  -0.589   3.348  0.00  0.00     0.076 C 
ATOM      6  C7  UNL d   1       1.051  -0.425   1.353  0.00  0.00     0.002 A 
ATOM      7  C8  UNL d   1       1.266  -0.386  -0.027  0.00  0.00     0.006 A 
ENDROOT
BRANCH   1   8
ATOM      8  C1  UNL d   1       0.421  -0.399  -2.404  0.00  0.00     0.054 C 
ATOM      9  C   UNL d   1       0.780  -1.749  -3.008  0.00  0.00     0.018 C 
ENDBRANCH   1   8
TORSDOF 1
ENDMDL
