MODEL 1
REMARK minimizedAffinity -5.42359209
REMARK minimizedRMSD -1
REMARK  1 active torsions:
REMARK  status: ('A' for Active; 'I' for Inactive)
REMARK    1  A    between atoms: C1_2  and  C2_3 
ROOT
ATOM      1  C2  UNL d   1       0.459  -1.081  -1.291  0.00  0.00    -0.081 A 
ATOM      2  C3  UNL d   1      -0.595  -0.257  -0.878  0.00  0.00     0.006 A 
ATOM      3  C4  UNL d   1      -0.757   0.061   0.473  0.00  0.00     0.002 A 
ATOM      4  C5  UNL d   1       0.135  -0.433   1.430  0.00  0.00    -0.080 A 
ATOM      5  C6  UNL d   1      -0.010  -0.075   2.879  0.00  0.00     0.076 C 
ATOM      6  C7  UNL d   1       1.178  -1.270   1.019  0.00  0.00     0.002 A 
ATOM      7  C8  UNL d   1       1.340  -1.589  -0.331  0.00  0.00     0.006 A 
ENDROOT
BRANCH   1   8
ATOM      8  C1  UNL d   1       0.675  -1.373  -2.754  0.00  0.00     0.054 C 
ATOM      9  C   UNL d   1       1.804  -2.373  -2.958  0.00  0.00     0.018 C 
ENDBRANCH   1   8
TORSDOF 1
ENDMDL
