MODEL 1
REMARK minimizedAffinity -6.00128365
REMARK minimizedRMSD -1
REMARK  1 active torsions:
REMARK  status: ('A' for Active; 'I' for Inactive)
REMARK    1  A    between atoms: C1_2  and  C2_3 
ROOT
ATOM      1  C2  UNL d   1       0.037   0.482  -0.015  0.00  0.00    -0.081 A 
ATOM      2  C3  UNL d   1       0.871   0.329   1.099  0.00  0.00     0.006 A 
ATOM      3  C4  UNL d   1       0.334   0.003   2.347  0.00  0.00     0.002 A 
ATOM      4  C5  UNL d   1      -1.044  -0.184   2.500  0.00  0.00    -0.080 A 
ATOM      5  C6  UNL d   1      -1.630  -0.564   3.827  0.00  0.00     0.076 C 
ATOM      6  C7  UNL d   1      -1.879  -0.014   1.391  0.00  0.00     0.002 A 
ATOM      7  C8  UNL d   1      -1.343   0.313   0.143  0.00  0.00     0.006 A 
ENDROOT
BRANCH   1   8
ATOM      8  C1  UNL d   1       0.619   0.771  -1.375  0.00  0.00     0.054 C 
ATOM      9  C   UNL d   1       0.757  -0.502  -2.199  0.00  0.00     0.018 C 
ENDBRANCH   1   8
TORSDOF 1
ENDMDL
