MODEL 1
REMARK minimizedAffinity -2.0992434
REMARK minimizedRMSD -1
REMARK  1 active torsions:
REMARK  status: ('A' for Active; 'I' for Inactive)
REMARK    1  A    between atoms: C1_2  and  C2_3 
ROOT
ATOM      1  C2  UNL d   1      -1.176   0.135   0.609  0.00  0.00    -0.081 A 
ATOM      2  C3  UNL d   1      -0.717   0.001   1.925  0.00  0.00     0.006 A 
ATOM      3  C4  UNL d   1       0.618   0.266   2.240  0.00  0.00     0.002 A 
ATOM      4  C5  UNL d   1       1.514   0.677   1.248  0.00  0.00    -0.080 A 
ATOM      5  C6  UNL d   1       2.942   0.994   1.578  0.00  0.00     0.076 C 
ATOM      6  C7  UNL d   1       1.060   0.794  -0.070  0.00  0.00     0.002 A 
ATOM      7  C8  UNL d   1      -0.275   0.529  -0.386  0.00  0.00     0.006 A 
ENDROOT
BRANCH   1   8
ATOM      8  C1  UNL d   1      -2.629  -0.087   0.278  0.00  0.00     0.054 C 
ATOM      9  C   UNL d   1      -3.125   0.926  -0.744  0.00  0.00     0.018 C 
ENDBRANCH   1   8
TORSDOF 1
ENDMDL
