MODEL 1
REMARK minimizedAffinity -4.50048923
REMARK minimizedRMSD -1
REMARK  1 active torsions:
REMARK  status: ('A' for Active; 'I' for Inactive)
REMARK    1  A    between atoms: C1_2  and  C2_3 
ROOT
ATOM      1  C2  UNL d   1       0.521  -0.134  -1.582  0.00  0.00    -0.081 A 
ATOM      2  C3  UNL d   1       1.452  -0.477  -0.594  0.00  0.00     0.006 A 
ATOM      3  C4  UNL d   1       1.142  -0.313   0.759  0.00  0.00     0.002 A 
ATOM      4  C5  UNL d   1      -0.105   0.188   1.146  0.00  0.00    -0.080 A 
ATOM      5  C6  UNL d   1      -0.461   0.341   2.595  0.00  0.00     0.076 C 
ATOM      6  C7  UNL d   1      -1.029   0.548   0.158  0.00  0.00     0.002 A 
ATOM      7  C8  UNL d   1      -0.720   0.385  -1.194  0.00  0.00     0.006 A 
ENDROOT
BRANCH   1   8
ATOM      8  C1  UNL d   1       0.827  -0.371  -3.038  0.00  0.00     0.054 C 
ATOM      9  C   UNL d   1       0.816  -1.855  -3.372  0.00  0.00     0.018 C 
ENDBRANCH   1   8
TORSDOF 1
ENDMDL
