MODEL 1
REMARK minimizedAffinity -4.98092413
REMARK minimizedRMSD -1
REMARK  1 active torsions:
REMARK  status: ('A' for Active; 'I' for Inactive)
REMARK    1  A    between atoms: C1_2  and  C2_3 
ROOT
ATOM      1  C2  UNL d   1      -0.074   0.341   0.014  0.00  0.00    -0.081 A 
ATOM      2  C3  UNL d   1       0.788   0.326   1.117  0.00  0.00     0.006 A 
ATOM      3  C4  UNL d   1       0.306   0.003   2.388  0.00  0.00     0.002 A 
ATOM      4  C5  UNL d   1      -1.042  -0.317   2.576  0.00  0.00    -0.080 A 
ATOM      5  C6  UNL d   1      -1.566  -0.695   3.930  0.00  0.00     0.076 C 
ATOM      6  C7  UNL d   1      -1.908  -0.285   1.477  0.00  0.00     0.002 A 
ATOM      7  C8  UNL d   1      -1.427   0.038   0.206  0.00  0.00     0.006 A 
ENDROOT
BRANCH   1   8
ATOM      8  C1  UNL d   1       0.455   0.626  -1.368  0.00  0.00     0.054 C 
ATOM      9  C   UNL d   1       0.518  -0.642  -2.208  0.00  0.00     0.018 C 
ENDBRANCH   1   8
TORSDOF 1
ENDMDL
