MODEL 1
REMARK minimizedAffinity -3.37352514
REMARK minimizedRMSD -1
REMARK  1 active torsions:
REMARK  status: ('A' for Active; 'I' for Inactive)
REMARK    1  A    between atoms: C1_2  and  C2_3 
ROOT
ATOM      1  C2  UNL d   1      -0.250   0.416  -0.621  0.00  0.00    -0.081 A 
ATOM      2  C3  UNL d   1       0.739   0.446   0.370  0.00  0.00     0.006 A 
ATOM      3  C4  UNL d   1       0.412   0.191   1.704  0.00  0.00     0.002 A 
ATOM      4  C5  UNL d   1      -0.906  -0.106   2.068  0.00  0.00    -0.080 A 
ATOM      5  C6  UNL d   1      -1.265  -0.411   3.491  0.00  0.00     0.076 C 
ATOM      6  C7  UNL d   1      -1.897  -0.119   1.080  0.00  0.00     0.002 A 
ATOM      7  C8  UNL d   1      -1.571   0.137  -0.254  0.00  0.00     0.006 A 
ENDROOT
BRANCH   1   8
ATOM      8  C1  UNL d   1       0.111   0.627  -2.069  0.00  0.00     0.054 C 
ATOM      9  C   UNL d   1       1.158  -0.377  -2.531  0.00  0.00     0.018 C 
ENDBRANCH   1   8
TORSDOF 1
ENDMDL
