MODEL 1
REMARK minimizedAffinity -3.58203363
REMARK minimizedRMSD -1
REMARK  1 active torsions:
REMARK  status: ('A' for Active; 'I' for Inactive)
REMARK    1  A    between atoms: C1_2  and  C2_3 
ROOT
ATOM      1  C2  UNL d   1       0.364  -0.616  -1.453  0.00  0.00    -0.081 A 
ATOM      2  C3  UNL d   1       0.513   0.737  -1.124  0.00  0.00     0.006 A 
ATOM      3  C4  UNL d   1       0.451   1.153   0.208  0.00  0.00     0.002 A 
ATOM      4  C5  UNL d   1       0.246   0.223   1.233  0.00  0.00    -0.080 A 
ATOM      5  C6  UNL d   1       0.208   0.653   2.670  0.00  0.00     0.076 C 
ATOM      6  C7  UNL d   1       0.079  -1.126   0.904  0.00  0.00     0.002 A 
ATOM      7  C8  UNL d   1       0.141  -1.543  -0.428  0.00  0.00     0.006 A 
ENDROOT
BRANCH   1   8
ATOM      8  C1  UNL d   1       0.495  -1.077  -2.882  0.00  0.00     0.054 C 
ATOM      9  C   UNL d   1       1.876  -0.763  -3.440  0.00  0.00     0.018 C 
ENDBRANCH   1   8
TORSDOF 1
ENDMDL
