MODEL 1
REMARK minimizedAffinity 0.726282477
REMARK minimizedRMSD -1
REMARK  1 active torsions:
REMARK  status: ('A' for Active; 'I' for Inactive)
REMARK    1  A    between atoms: C1_2  and  C2_3 
ROOT
ATOM      1  C2  UNL d   1      -0.258   0.707   2.075  0.00  0.00    -0.081 A 
ATOM      2  C3  UNL d   1       0.517   0.429   0.943  0.00  0.00     0.006 A 
ATOM      3  C4  UNL d   1      -0.088   0.259  -0.305  0.00  0.00     0.002 A 
ATOM      4  C5  UNL d   1      -1.475   0.370  -0.442  0.00  0.00    -0.080 A 
ATOM      5  C6  UNL d   1      -2.134   0.220  -1.781  0.00  0.00     0.076 C 
ATOM      6  C7  UNL d   1      -2.252   0.630   0.692  0.00  0.00     0.002 A 
ATOM      7  C8  UNL d   1      -1.648   0.800   1.940  0.00  0.00     0.006 A 
ENDROOT
BRANCH   1   8
ATOM      8  C1  UNL d   1       0.397   0.955   3.410  0.00  0.00     0.054 C 
ATOM      9  C   UNL d   1      -0.266   2.111   4.145  0.00  0.00     0.018 C 
ENDBRANCH   1   8
TORSDOF 1
ENDMDL
