MODEL 1
REMARK minimizedAffinity 0.947702467
REMARK minimizedRMSD -1
REMARK  1 active torsions:
REMARK  status: ('A' for Active; 'I' for Inactive)
REMARK    1  A    between atoms: C1_2  and  C2_3 
ROOT
ATOM      1  C2  UNL d   1       0.608  -0.287  -0.830  0.00  0.00    -0.081 A 
ATOM      2  C3  UNL d   1       0.833   0.920  -0.158  0.00  0.00     0.006 A 
ATOM      3  C4  UNL d   1       0.476   1.061   1.185  0.00  0.00     0.002 A 
ATOM      4  C5  UNL d   1      -0.105  -0.005   1.880  0.00  0.00    -0.080 A 
ATOM      5  C6  UNL d   1      -0.465   0.123   3.330  0.00  0.00     0.076 C 
ATOM      6  C7  UNL d   1      -0.346  -1.206   1.204  0.00  0.00     0.002 A 
ATOM      7  C8  UNL d   1       0.010  -1.347  -0.139  0.00  0.00     0.006 A 
ENDROOT
BRANCH   1   8
ATOM      8  C1  UNL d   1       1.051  -0.463  -2.260  0.00  0.00     0.054 C 
ATOM      9  C   UNL d   1       1.167  -1.936  -2.627  0.00  0.00     0.018 C 
ENDBRANCH   1   8
TORSDOF 1
ENDMDL
