MODEL 1
REMARK minimizedAffinity 3.27092409
REMARK minimizedRMSD -1
REMARK  1 active torsions:
REMARK  status: ('A' for Active; 'I' for Inactive)
REMARK    1  A    between atoms: N_2  and  C1_3 
ROOT
ATOM      1  C1  UNL d   1       3.533   3.799  -5.916  0.00  0.00     0.143 A 
ATOM      2  C2  UNL d   1       2.318   4.490  -5.983  0.00  0.00    -0.057 A 
ATOM      3  C3  UNL d   1       1.095   3.809  -5.999  0.00  0.00     0.033 A 
ATOM      4  C4  UNL d   1       1.066   2.418  -5.977  0.00  0.00    -0.042 A 
ATOM      5  C5  UNL d   1       2.262   1.710  -5.935  0.00  0.00     0.033 A 
ATOM      6  C6  UNL d   1       3.480   2.396  -5.914  0.00  0.00    -0.057 A 
ENDROOT
BRANCH   1   7
ATOM      7  N   UNL d   1       4.784   4.415  -5.998  0.00  0.00    -0.732 N 
ATOM      8  C   UNL d   1       4.897   5.857  -6.000  0.00  0.00     0.284 C 
ATOM      9  H3  UNL d   1       5.486   3.944  -5.432  0.00  0.00     0.395 HD
ENDBRANCH   1   7
TORSDOF 1
ENDMDL
