MODEL 1
REMARK minimizedAffinity -3.007478
REMARK minimizedRMSD -1
REMARK  1 active torsions:
REMARK  status: ('A' for Active; 'I' for Inactive)
REMARK    1  A    between atoms: N_2  and  C1_3 
ROOT
ATOM      1  C1  UNL d   1       1.526   4.883   3.730  0.00  0.00     0.143 A 
ATOM      2  C2  UNL d   1       0.236   5.062   3.220  0.00  0.00    -0.057 A 
ATOM      3  C3  UNL d   1      -0.781   5.628   3.998  0.00  0.00     0.033 A 
ATOM      4  C4  UNL d   1      -0.532   6.000   5.315  0.00  0.00    -0.042 A 
ATOM      5  C5  UNL d   1       0.737   5.808   5.851  0.00  0.00     0.033 A 
ATOM      6  C6  UNL d   1       1.750   5.248   5.067  0.00  0.00    -0.057 A 
ENDROOT
BRANCH   1   7
ATOM      7  N   UNL d   1       2.553   4.235   3.039  0.00  0.00    -0.732 N 
ATOM      8  C   UNL d   1       2.359   2.902   2.510  0.00  0.00     0.284 C 
ATOM      9  H3  UNL d   1       3.055   4.862   2.414  0.00  0.00     0.395 HD
ENDBRANCH   1   7
TORSDOF 1
ENDMDL
