MODEL 1
REMARK minimizedAffinity -2.7460413
REMARK minimizedRMSD -1
REMARK  1 active torsions:
REMARK  status: ('A' for Active; 'I' for Inactive)
REMARK    1  A    between atoms: N_2  and  C1_3 
ROOT
ATOM      1  C1  UNL d   1       3.071   4.999  -5.765  0.00  0.00     0.143 A 
ATOM      2  C2  UNL d   1       1.701   5.276  -5.812  0.00  0.00    -0.057 A 
ATOM      3  C3  UNL d   1       0.755   4.249  -5.914  0.00  0.00     0.033 A 
ATOM      4  C4  UNL d   1       1.166   2.923  -6.000  0.00  0.00    -0.042 A 
ATOM      5  C5  UNL d   1       2.524   2.625  -5.980  0.00  0.00     0.033 A 
ATOM      6  C6  UNL d   1       3.463   3.655  -5.872  0.00  0.00    -0.057 A 
ENDROOT
BRANCH   1   7
ATOM      7  N   UNL d   1       4.064   5.981  -5.764  0.00  0.00    -0.732 N 
ATOM      8  C   UNL d   1       5.448   5.630  -5.999  0.00  0.00     0.284 C 
ATOM      9  H3  UNL d   1       3.767   6.835  -6.231  0.00  0.00     0.395 HD
ENDBRANCH   1   7
TORSDOF 1
ENDMDL
