MODEL 1
REMARK minimizedAffinity -0.935545743
REMARK minimizedRMSD -1
REMARK  1 active torsions:
REMARK  status: ('A' for Active; 'I' for Inactive)
REMARK    1  A    between atoms: N_2  and  C1_3 
ROOT
ATOM      1  C1  UNL d   1       4.884  -4.426   3.202  0.00  0.00     0.143 A 
ATOM      2  C2  UNL d   1       4.518  -5.532   3.976  0.00  0.00    -0.057 A 
ATOM      3  C3  UNL d   1       4.333  -5.420   5.359  0.00  0.00     0.033 A 
ATOM      4  C4  UNL d   1       4.539  -4.202   5.999  0.00  0.00    -0.042 A 
ATOM      5  C5  UNL d   1       4.928  -3.095   5.253  0.00  0.00     0.033 A 
ATOM      6  C6  UNL d   1       5.105  -3.212   3.871  0.00  0.00    -0.057 A 
ENDROOT
BRANCH   1   7
ATOM      7  N   UNL d   1       5.179  -4.495   1.838  0.00  0.00    -0.732 N 
ATOM      8  C   UNL d   1       4.413  -3.729   0.878  0.00  0.00     0.284 C 
ATOM      9  H3  UNL d   1       6.181  -4.505   1.657  0.00  0.00     0.395 HD
ENDBRANCH   1   7
TORSDOF 1
ENDMDL
