MODEL 1
REMARK minimizedAffinity 5.43726158
REMARK minimizedRMSD -1
REMARK  1 active torsions:
REMARK  status: ('A' for Active; 'I' for Inactive)
REMARK    1  A    between atoms: N_2  and  C1_3 
ROOT
ATOM      1  C1  UNL d   1       2.380   5.904   4.794  0.00  0.00     0.143 A 
ATOM      2  C2  UNL d   1       1.628   5.973   5.972  0.00  0.00    -0.057 A 
ATOM      3  C3  UNL d   1       0.229   5.998   5.941  0.00  0.00     0.033 A 
ATOM      4  C4  UNL d   1      -0.446   5.985   4.724  0.00  0.00    -0.042 A 
ATOM      5  C5  UNL d   1       0.281   5.942   3.540  0.00  0.00     0.033 A 
ATOM      6  C6  UNL d   1       1.678   5.910   3.578  0.00  0.00    -0.057 A 
ENDROOT
BRANCH   1   7
ATOM      7  N   UNL d   1       3.774   5.975   4.756  0.00  0.00    -0.732 N 
ATOM      8  C   UNL d   1       4.550   5.902   5.975  0.00  0.00     0.284 C 
ATOM      9  H3  UNL d   1       4.169   5.447   3.980  0.00  0.00     0.395 HD
ENDBRANCH   1   7
TORSDOF 1
ENDMDL
