MODEL 1
REMARK minimizedAffinity -3.48870921
REMARK minimizedRMSD -1
REMARK  1 active torsions:
REMARK  status: ('A' for Active; 'I' for Inactive)
REMARK    1  A    between atoms: N_2  and  C1_3 
ROOT
ATOM      1  C1  UNL d   1       4.691   3.932  -5.639  0.00  0.00     0.143 A 
ATOM      2  C2  UNL d   1       3.506   3.208  -5.805  0.00  0.00    -0.057 A 
ATOM      3  C3  UNL d   1       2.280   3.856  -5.998  0.00  0.00     0.033 A 
ATOM      4  C4  UNL d   1       2.214   5.245  -5.999  0.00  0.00    -0.042 A 
ATOM      5  C5  UNL d   1       3.376   5.986  -5.811  0.00  0.00     0.033 A 
ATOM      6  C6  UNL d   1       4.598   5.332  -5.625  0.00  0.00    -0.057 A 
ENDROOT
BRANCH   1   7
ATOM      7  N   UNL d   1       5.926   3.347  -5.345  0.00  0.00    -0.732 N 
ATOM      8  C   UNL d   1       5.995   2.099  -4.616  0.00  0.00     0.284 C 
ATOM      9  H3  UNL d   1       6.581   3.411  -6.121  0.00  0.00     0.395 HD
ENDBRANCH   1   7
TORSDOF 1
ENDMDL
