MODEL 1
REMARK minimizedAffinity 3.12425685
REMARK minimizedRMSD -1
REMARK  1 active torsions:
REMARK  status: ('A' for Active; 'I' for Inactive)
REMARK    1  A    between atoms: N_2  and  C1_3 
ROOT
ATOM      1  C1  UNL d   1       4.659  -4.502   3.286  0.00  0.00     0.143 A 
ATOM      2  C2  UNL d   1       4.876  -5.664   4.035  0.00  0.00    -0.057 A 
ATOM      3  C3  UNL d   1       5.248  -5.600   5.383  0.00  0.00     0.033 A 
ATOM      4  C4  UNL d   1       5.439  -4.368   6.000  0.00  0.00    -0.042 A 
ATOM      5  C5  UNL d   1       5.253  -3.200   5.268  0.00  0.00     0.033 A 
ATOM      6  C6  UNL d   1       4.875  -3.271   3.924  0.00  0.00    -0.057 A 
ENDROOT
BRANCH   1   7
ATOM      7  N   UNL d   1       4.384  -4.500   1.916  0.00  0.00    -0.732 N 
ATOM      8  C   UNL d   1       3.442  -3.556   1.355  0.00  0.00     0.284 C 
ATOM      9  H3  UNL d   1       5.219  -4.640   1.352  0.00  0.00     0.395 HD
ENDBRANCH   1   7
TORSDOF 1
ENDMDL
