MODEL 1
REMARK minimizedAffinity 1.29178536
REMARK minimizedRMSD -1
REMARK  1 active torsions:
REMARK  status: ('A' for Active; 'I' for Inactive)
REMARK    1  A    between atoms: N_2  and  C1_3 
ROOT
ATOM      1  C1  UNL d   1       4.570  -4.281   3.375  0.00  0.00     0.143 A 
ATOM      2  C2  UNL d   1       4.748  -5.374   4.230  0.00  0.00    -0.057 A 
ATOM      3  C3  UNL d   1       5.229  -5.205   5.534  0.00  0.00     0.033 A 
ATOM      4  C4  UNL d   1       5.571  -3.939   5.997  0.00  0.00    -0.042 A 
ATOM      5  C5  UNL d   1       5.427  -2.841   5.156  0.00  0.00     0.033 A 
ATOM      6  C6  UNL d   1       4.939  -3.015   3.857  0.00  0.00    -0.057 A 
ENDROOT
BRANCH   1   7
ATOM      7  N   UNL d   1       4.189  -4.395   2.036  0.00  0.00    -0.732 N 
ATOM      8  C   UNL d   1       4.610  -3.410   1.063  0.00  0.00     0.284 C 
ATOM      9  H3  UNL d   1       4.230  -5.355   1.700  0.00  0.00     0.395 HD
ENDBRANCH   1   7
TORSDOF 1
ENDMDL
