MODEL 1
REMARK minimizedAffinity -4.15651941
REMARK minimizedRMSD -1
REMARK  0 active torsions:
REMARK  status: ('A' for Active; 'I' for Inactive)
ROOT
ATOM      1  C   UNL d   1      -0.630  -0.130  -0.059  0.00  0.00     0.172 C 
ATOM      2  N   UNL d   1       0.633  -0.496   0.537  0.00  0.00    -0.070 N 
ATOM      3  C1  UNL d   1       0.887  -1.655   1.222  0.00  0.00    -0.004 A 
ATOM      4  C2  UNL d   1       2.204  -1.625   1.628  0.00  0.00    -0.047 A 
ATOM      5  C3  UNL d   1       2.760  -0.407   1.172  0.00  0.00    -0.047 A 
ATOM      6  C4  UNL d   1       1.766   0.273   0.500  0.00  0.00    -0.004 A 
ENDROOT
TORSDOF 0
ENDMDL
