MODEL 1
REMARK minimizedAffinity -3.43795514
REMARK minimizedRMSD -1
REMARK  0 active torsions:
REMARK  status: ('A' for Active; 'I' for Inactive)
ROOT
ATOM      1  C   UNL d   1      -0.137   1.119  -0.272  0.00  0.00     0.172 C 
ATOM      2  N   UNL d   1       1.024   0.412   0.215  0.00  0.00    -0.070 N 
ATOM      3  C1  UNL d   1       2.321   0.840   0.112  0.00  0.00    -0.004 A 
ATOM      4  C2  UNL d   1       3.127  -0.112   0.697  0.00  0.00    -0.047 A 
ATOM      5  C3  UNL d   1       2.286  -1.148   1.167  0.00  0.00    -0.047 A 
ATOM      6  C4  UNL d   1       0.989  -0.798   0.855  0.00  0.00    -0.004 A 
ENDROOT
TORSDOF 0
ENDMDL
