MODEL 1
REMARK minimizedAffinity -1.66667521
REMARK minimizedRMSD -1
REMARK  0 active torsions:
REMARK  status: ('A' for Active; 'I' for Inactive)
ROOT
ATOM      1  C   UNL d   1       0.624   0.471   0.203  0.00  0.00     0.172 C 
ATOM      2  N   UNL d   1       1.328  -0.334   1.173  0.00  0.00    -0.070 N 
ATOM      3  C1  UNL d   1       2.560  -0.053   1.701  0.00  0.00    -0.004 A 
ATOM      4  C2  UNL d   1       2.879  -1.060   2.587  0.00  0.00    -0.047 A 
ATOM      5  C3  UNL d   1       1.803  -1.978   2.591  0.00  0.00    -0.047 A 
ATOM      6  C4  UNL d   1       0.856  -1.504   1.707  0.00  0.00    -0.004 A 
ENDROOT
TORSDOF 0
ENDMDL
