MODEL 1
REMARK minimizedAffinity -3.93192053
REMARK minimizedRMSD -1
REMARK  0 active torsions:
REMARK  status: ('A' for Active; 'I' for Inactive)
ROOT
ATOM      1  C   UNL d   1      -0.528  -2.252   1.490  0.00  0.00     0.172 C 
ATOM      2  N   UNL d   1       0.846  -1.812   1.457  0.00  0.00    -0.070 N 
ATOM      3  C1  UNL d   1       1.828  -2.190   2.333  0.00  0.00    -0.004 A 
ATOM      4  C2  UNL d   1       2.993  -1.554   1.963  0.00  0.00    -0.047 A 
ATOM      5  C3  UNL d   1       2.701  -0.765   0.825  0.00  0.00    -0.047 A 
ATOM      6  C4  UNL d   1       1.366  -0.943   0.533  0.00  0.00    -0.004 A 
ENDROOT
TORSDOF 0
ENDMDL
