MODEL 1
REMARK minimizedAffinity 8.50661755
REMARK minimizedRMSD -1
REMARK  1 active torsions:
REMARK  status: ('A' for Active; 'I' for Inactive)
REMARK    1  A    between atoms: C1_2  and  C2_3 
ROOT
ATOM      1  C2  UNL d   1      -2.102   1.083   1.102  0.00  0.00    -0.073 A 
ATOM      2  C3  UNL d   1      -2.490  -0.215   1.453  0.00  0.00    -0.002 A 
ATOM      3  C4  UNL d   1      -2.370  -0.654   2.772  0.00  0.00     0.004 A 
ATOM      4  C5  UNL d   1      -1.869   0.200   3.753  0.00  0.00    -0.004 A 
ATOM      5  C6  UNL d   1      -1.487   1.505   3.425  0.00  0.00    -0.075 A 
ATOM      6  C7  UNL d   1      -0.944   2.436   4.469  0.00  0.00     0.076 C 
ATOM      7  C8  UNL d   1      -1.608   1.938   2.097  0.00  0.00     0.001 A 
ENDROOT
BRANCH   1   8
ATOM      8  C1  UNL d   1      -2.235   1.564  -0.320  0.00  0.00     0.053 C 
ATOM      9  C   UNL d   1      -3.428   2.489  -0.499  0.00  0.00     0.018 C 
ENDBRANCH   1   8
TORSDOF 1
ENDMDL
