MODEL 1
REMARK minimizedAffinity 1.27393687
REMARK minimizedRMSD -1
REMARK  1 active torsions:
REMARK  status: ('A' for Active; 'I' for Inactive)
REMARK    1  A    between atoms: C1_2  and  C2_3 
ROOT
ATOM      1  C2  UNL d   1      -3.515   1.570   1.393  0.00  0.00    -0.073 A 
ATOM      2  C3  UNL d   1      -3.124   0.259   1.095  0.00  0.00    -0.002 A 
ATOM      3  C4  UNL d   1      -2.097  -0.352   1.815  0.00  0.00     0.004 A 
ATOM      4  C5  UNL d   1      -1.456   0.338   2.844  0.00  0.00    -0.004 A 
ATOM      5  C6  UNL d   1      -1.839   1.644   3.165  0.00  0.00    -0.075 A 
ATOM      6  C7  UNL d   1      -1.158   2.400   4.268  0.00  0.00     0.076 C 
ATOM      7  C8  UNL d   1      -2.870   2.251   2.435  0.00  0.00     0.001 A 
ENDROOT
BRANCH   1   8
ATOM      8  C1  UNL d   1      -4.628   2.231   0.622  0.00  0.00     0.053 C 
ATOM      9  C   UNL d   1      -5.999   1.821   1.135  0.00  0.00     0.018 C 
ENDBRANCH   1   8
TORSDOF 1
ENDMDL
