MODEL 1
REMARK minimizedAffinity 0.609867334
REMARK minimizedRMSD -1
REMARK  1 active torsions:
REMARK  status: ('A' for Active; 'I' for Inactive)
REMARK    1  A    between atoms: C1_2  and  C2_3 
ROOT
ATOM      1  C2  UNL d   1       4.371   5.284   4.720  0.00  0.00    -0.073 A 
ATOM      2  C3  UNL d   1       4.835   6.000   3.611  0.00  0.00    -0.002 A 
ATOM      3  C4  UNL d   1       5.435   5.333   2.542  0.00  0.00     0.004 A 
ATOM      4  C5  UNL d   1       5.571   3.945   2.568  0.00  0.00    -0.004 A 
ATOM      5  C6  UNL d   1       5.102   3.210   3.662  0.00  0.00    -0.075 A 
ATOM      6  C7  UNL d   1       5.243   1.717   3.706  0.00  0.00     0.076 C 
ATOM      7  C8  UNL d   1       4.503   3.888   4.733  0.00  0.00     0.001 A 
ENDROOT
BRANCH   1   8
ATOM      8  C1  UNL d   1       3.716   5.999   5.874  0.00  0.00     0.053 C 
ATOM      9  C   UNL d   1       2.200   5.998   5.758  0.00  0.00     0.018 C 
ENDBRANCH   1   8
TORSDOF 1
ENDMDL
