MODEL 1
REMARK minimizedAffinity 6.23574877
REMARK minimizedRMSD -1
REMARK  1 active torsions:
REMARK  status: ('A' for Active; 'I' for Inactive)
REMARK    1  A    between atoms: C1_2  and  C2_3 
ROOT
ATOM      1  C2  UNL d   1      -2.797   0.200   1.012  0.00  0.00    -0.073 A 
ATOM      2  C3  UNL d   1      -1.879   0.951   0.269  0.00  0.00    -0.002 A 
ATOM      3  C4  UNL d   1      -2.294   2.092  -0.418  0.00  0.00     0.004 A 
ATOM      4  C5  UNL d   1      -3.628   2.497  -0.366  0.00  0.00    -0.004 A 
ATOM      5  C6  UNL d   1      -4.558   1.766   0.380  0.00  0.00    -0.075 A 
ATOM      6  C7  UNL d   1      -5.997   2.187   0.445  0.00  0.00     0.076 C 
ATOM      7  C8  UNL d   1      -4.134   0.620   1.066  0.00  0.00     0.001 A 
ENDROOT
BRANCH   1   8
ATOM      8  C1  UNL d   1      -2.352  -1.029   1.761  0.00  0.00     0.053 C 
ATOM      9  C   UNL d   1      -2.024  -0.724   3.214  0.00  0.00     0.018 C 
ENDBRANCH   1   8
TORSDOF 1
ENDMDL
