MODEL 1
REMARK minimizedAffinity 10.057478
REMARK minimizedRMSD -1
REMARK  1 active torsions:
REMARK  status: ('A' for Active; 'I' for Inactive)
REMARK    1  A    between atoms: C1_2  and  C2_3 
ROOT
ATOM      1  C2  UNL d   1      -3.374   0.110   1.041  0.00  0.00    -0.073 A 
ATOM      2  C3  UNL d   1      -4.725   0.460   1.147  0.00  0.00    -0.002 A 
ATOM      3  C4  UNL d   1      -5.227   1.553   0.439  0.00  0.00     0.004 A 
ATOM      4  C5  UNL d   1      -4.388   2.302  -0.385  0.00  0.00    -0.004 A 
ATOM      5  C6  UNL d   1      -3.037   1.961  -0.512  0.00  0.00    -0.075 A 
ATOM      6  C7  UNL d   1      -2.120   2.758  -1.393  0.00  0.00     0.076 C 
ATOM      7  C8  UNL d   1      -2.539   0.864   0.204  0.00  0.00     0.001 A 
ENDROOT
BRANCH   1   8
ATOM      8  C1  UNL d   1      -2.828  -1.073   1.798  0.00  0.00     0.053 C 
ATOM      9  C   UNL d   1      -2.314  -0.681   3.175  0.00  0.00     0.018 C 
ENDBRANCH   1   8
TORSDOF 1
ENDMDL
