MODEL 1
REMARK minimizedAffinity 18.4651089
REMARK minimizedRMSD -1
REMARK  1 active torsions:
REMARK  status: ('A' for Active; 'I' for Inactive)
REMARK    1  A    between atoms: C1_2  and  C2_3 
ROOT
ATOM      1  C2  UNL d   1       4.828   2.537   1.748  0.00  0.00    -0.073 A 
ATOM      2  C3  UNL d   1       5.967   2.938   1.040  0.00  0.00    -0.002 A 
ATOM      3  C4  UNL d   1       6.000   2.846  -0.352  0.00  0.00     0.004 A 
ATOM      4  C5  UNL d   1       4.894   2.361  -1.050  0.00  0.00    -0.004 A 
ATOM      5  C6  UNL d   1       3.743   1.966  -0.361  0.00  0.00    -0.075 A 
ATOM      6  C7  UNL d   1       2.546   1.439  -1.097  0.00  0.00     0.076 C 
ATOM      7  C8  UNL d   1       3.718   2.059   1.037  0.00  0.00     0.001 A 
ENDROOT
BRANCH   1   8
ATOM      8  C1  UNL d   1       4.785   2.640   3.251  0.00  0.00     0.053 C 
ATOM      9  C   UNL d   1       5.943   1.903   3.906  0.00  0.00     0.018 C 
ENDBRANCH   1   8
TORSDOF 1
ENDMDL
