MODEL 1
REMARK minimizedAffinity 10.136816
REMARK minimizedRMSD -1
REMARK  1 active torsions:
REMARK  status: ('A' for Active; 'I' for Inactive)
REMARK    1  A    between atoms: C1_2  and  C2_3 
ROOT
ATOM      1  C2  UNL d   1       4.697   2.366   0.690  0.00  0.00    -0.073 A 
ATOM      2  C3  UNL d   1       4.623   1.033   1.110  0.00  0.00    -0.002 A 
ATOM      3  C4  UNL d   1       3.817   0.122   0.426  0.00  0.00     0.004 A 
ATOM      4  C5  UNL d   1       3.084   0.532  -0.688  0.00  0.00    -0.004 A 
ATOM      5  C6  UNL d   1       3.155   1.857  -1.130  0.00  0.00    -0.075 A 
ATOM      6  C7  UNL d   1       2.371   2.314  -2.325  0.00  0.00     0.076 C 
ATOM      7  C8  UNL d   1       3.964   2.766  -0.436  0.00  0.00     0.001 A 
ENDROOT
BRANCH   1   8
ATOM      8  C1  UNL d   1       5.571   3.351   1.422  0.00  0.00     0.053 C 
ATOM      9  C   UNL d   1       4.753   4.390   2.174  0.00  0.00     0.018 C 
ENDBRANCH   1   8
TORSDOF 1
ENDMDL
