MODEL 1
REMARK minimizedAffinity 5.4598074
REMARK minimizedRMSD -1
REMARK  1 active torsions:
REMARK  status: ('A' for Active; 'I' for Inactive)
REMARK    1  A    between atoms: C1_2  and  C2_3 
ROOT
ATOM      1  C2  UNL d   1       0.750   2.360   1.627  0.00  0.00    -0.073 A 
ATOM      2  C3  UNL d   1       1.722   3.152   2.249  0.00  0.00    -0.002 A 
ATOM      3  C4  UNL d   1       3.075   2.830   2.131  0.00  0.00     0.004 A 
ATOM      4  C5  UNL d   1       3.470   1.720   1.385  0.00  0.00    -0.004 A 
ATOM      5  C6  UNL d   1       2.514   0.923   0.746  0.00  0.00    -0.075 A 
ATOM      6  C7  UNL d   1       2.923  -0.276  -0.058  0.00  0.00     0.076 C 
ATOM      7  C8  UNL d   1       1.158   1.251   0.871  0.00  0.00     0.001 A 
ENDROOT
BRANCH   1   8
ATOM      8  C1  UNL d   1      -0.711   2.707   1.746  0.00  0.00     0.053 C 
ATOM      9  C   UNL d   1      -1.087   3.112   3.162  0.00  0.00     0.018 C 
ENDBRANCH   1   8
TORSDOF 1
ENDMDL
