MODEL 1
REMARK minimizedAffinity 4.94141531
REMARK minimizedRMSD -1
REMARK  1 active torsions:
REMARK  status: ('A' for Active; 'I' for Inactive)
REMARK    1  A    between atoms: C1_2  and  C2_3 
ROOT
ATOM      1  C2  UNL d   1       1.313   1.289   0.243  0.00  0.00    -0.073 A 
ATOM      2  C3  UNL d   1       2.626   1.371   0.720  0.00  0.00    -0.002 A 
ATOM      3  C4  UNL d   1       2.915   2.121   1.862  0.00  0.00     0.004 A 
ATOM      4  C5  UNL d   1       1.896   2.789   2.540  0.00  0.00    -0.004 A 
ATOM      5  C6  UNL d   1       0.576   2.709   2.085  0.00  0.00    -0.075 A 
ATOM      6  C7  UNL d   1      -0.532   3.423   2.802  0.00  0.00     0.076 C 
ATOM      7  C8  UNL d   1       0.294   1.957   0.937  0.00  0.00     0.001 A 
ENDROOT
BRANCH   1   8
ATOM      8  C1  UNL d   1       0.995   0.476  -0.985  0.00  0.00     0.053 C 
ATOM      9  C   UNL d   1       2.154   0.452  -1.969  0.00  0.00     0.018 C 
ENDBRANCH   1   8
TORSDOF 1
ENDMDL
