MODEL 1
REMARK minimizedAffinity 33.5696831
REMARK minimizedRMSD -1
REMARK  0 active torsions:
REMARK  status: ('A' for Active; 'I' for Inactive)
ROOT
ATOM      1  C   UNL d   1      -0.435   1.300   1.357  0.00  0.00     0.124 A 
ATOM      2  C1  UNL d   1      -1.591   0.728   1.870  0.00  0.00     0.062 A 
ATOM      3  C2  UNL d   1      -2.041  -0.496   1.384  0.00  0.00     0.162 A 
ATOM      4  C3  UNL d   1      -1.334  -1.158   0.380  0.00  0.00    -0.034 A 
ATOM      5  C4  UNL d   1      -0.173  -0.576  -0.131  0.00  0.00     0.162 A 
ATOM      6  C5  UNL d   1       0.273   0.648   0.358  0.00  0.00     0.062 A 
ATOM      7  F   UNL d   1       1.390   1.199  -0.139  0.00  0.00    -0.097 F 
ATOM      8  F1  UNL d   1       0.531  -1.185  -1.097  0.00  0.00    -0.096 F 
ATOM      9  I   UNL d   1      -2.004  -2.989  -0.349  0.00  0.00    -0.060 I 
ATOM     10  F2  UNL d   1      -3.162  -1.026   1.898  0.00  0.00    -0.096 F 
ATOM     11  F3  UNL d   1      -2.277   1.356   2.835  0.00  0.00    -0.097 F 
ATOM     12  F4  UNL d   1      -0.005   2.478   1.826  0.00  0.00    -0.092 F 
ENDROOT
TORSDOF 0
ENDMDL
