MODEL 1
REMARK minimizedAffinity 14.9716568
REMARK minimizedRMSD -1
REMARK  0 active torsions:
REMARK  status: ('A' for Active; 'I' for Inactive)
ROOT
ATOM      1  C   UNL d   1       2.465  -0.681  -4.117  0.00  0.00     0.124 A 
ATOM      2  C1  UNL d   1       2.010  -1.762  -4.860  0.00  0.00     0.062 A 
ATOM      3  C2  UNL d   1       2.900  -2.746  -5.281  0.00  0.00     0.162 A 
ATOM      4  C3  UNL d   1       4.254  -2.655  -4.958  0.00  0.00    -0.034 A 
ATOM      5  C4  UNL d   1       4.704  -1.565  -4.211  0.00  0.00     0.162 A 
ATOM      6  C5  UNL d   1       3.811  -0.584  -3.793  0.00  0.00     0.062 A 
ATOM      7  F   UNL d   1       4.252   0.459  -3.075  0.00  0.00    -0.097 F 
ATOM      8  F1  UNL d   1       5.999  -1.447  -3.884  0.00  0.00    -0.096 F 
ATOM      9  I   UNL d   1       5.588  -4.125  -5.586  0.00  0.00    -0.060 I 
ATOM     10  F2  UNL d   1       2.433  -3.779  -5.998  0.00  0.00    -0.096 F 
ATOM     11  F3  UNL d   1       0.711  -1.858  -5.175  0.00  0.00    -0.097 F 
ATOM     12  F4  UNL d   1       1.607   0.265  -3.715  0.00  0.00    -0.092 F 
ENDROOT
TORSDOF 0
ENDMDL
