MODEL 1
REMARK minimizedAffinity 5.40168285
REMARK minimizedRMSD -1
REMARK  0 active torsions:
REMARK  status: ('A' for Active; 'I' for Inactive)
ROOT
ATOM      1  C   UNL d   1      -2.507  -1.644  -2.827  0.00  0.00     0.124 A 
ATOM      2  C1  UNL d   1      -2.350  -0.265  -2.869  0.00  0.00     0.062 A 
ATOM      3  C2  UNL d   1      -1.539   0.375  -1.938  0.00  0.00     0.162 A 
ATOM      4  C3  UNL d   1      -0.876  -0.362  -0.956  0.00  0.00    -0.034 A 
ATOM      5  C4  UNL d   1      -1.040  -1.748  -0.919  0.00  0.00     0.162 A 
ATOM      6  C5  UNL d   1      -1.852  -2.384  -1.853  0.00  0.00     0.062 A 
ATOM      7  F   UNL d   1      -2.003  -3.715  -1.810  0.00  0.00    -0.097 F 
ATOM      8  F1  UNL d   1      -0.418  -2.487   0.011  0.00  0.00    -0.096 F 
ATOM      9  I   UNL d   1       0.338   0.593   0.439  0.00  0.00    -0.060 I 
ATOM     10  F2  UNL d   1      -1.405   1.709  -2.002  0.00  0.00    -0.096 F 
ATOM     11  F3  UNL d   1      -2.983   0.452  -3.809  0.00  0.00    -0.097 F 
ATOM     12  F4  UNL d   1      -3.290  -2.258  -3.724  0.00  0.00    -0.092 F 
ENDROOT
TORSDOF 0
ENDMDL
