MODEL 1
REMARK minimizedAffinity 12.4872751
REMARK minimizedRMSD -1
REMARK  0 active torsions:
REMARK  status: ('A' for Active; 'I' for Inactive)
ROOT
ATOM      1  C   UNL d   1      -1.157  -5.977   1.991  0.00  0.00     0.124 A 
ATOM      2  C1  UNL d   1      -1.068  -5.970   3.376  0.00  0.00     0.062 A 
ATOM      3  C2  UNL d   1       0.177  -5.971   3.997  0.00  0.00     0.162 A 
ATOM      4  C3  UNL d   1       1.344  -5.978   3.234  0.00  0.00    -0.034 A 
ATOM      5  C4  UNL d   1       1.247  -5.986   1.841  0.00  0.00     0.162 A 
ATOM      6  C5  UNL d   1       0.000  -5.985   1.225  0.00  0.00     0.062 A 
ATOM      7  F   UNL d   1      -0.084  -5.993  -0.113  0.00  0.00    -0.097 F 
ATOM      8  F1  UNL d   1       2.349  -5.994   1.077  0.00  0.00    -0.096 F 
ATOM      9  I   UNL d   1       3.209  -5.980   4.159  0.00  0.00    -0.060 I 
ATOM     10  F2  UNL d   1       0.233  -5.963   5.337  0.00  0.00    -0.096 F 
ATOM     11  F3  UNL d   1      -2.185  -5.962   4.118  0.00  0.00    -0.097 F 
ATOM     12  F4  UNL d   1      -2.357  -5.977   1.395  0.00  0.00    -0.092 F 
ENDROOT
TORSDOF 0
ENDMDL
