MODEL 1
REMARK minimizedAffinity 29.0091972
REMARK minimizedRMSD -1
REMARK  0 active torsions:
REMARK  status: ('A' for Active; 'I' for Inactive)
ROOT
ATOM      1  C   UNL d   1      -2.732  -5.806   2.867  0.00  0.00     0.124 A 
ATOM      2  C1  UNL d   1      -3.162  -5.904   1.551  0.00  0.00     0.062 A 
ATOM      3  C2  UNL d   1      -2.237  -5.902   0.511  0.00  0.00     0.162 A 
ATOM      4  C3  UNL d   1      -0.872  -5.803   0.782  0.00  0.00    -0.034 A 
ATOM      5  C4  UNL d   1      -0.448  -5.704   2.108  0.00  0.00     0.162 A 
ATOM      6  C5  UNL d   1      -1.376  -5.707   3.145  0.00  0.00     0.062 A 
ATOM      7  F   UNL d   1      -0.958  -5.612   4.415  0.00  0.00    -0.097 F 
ATOM      8  F1  UNL d   1       0.857  -5.608   2.405  0.00  0.00    -0.096 F 
ATOM      9  I   UNL d   1       0.513  -5.799  -0.771  0.00  0.00    -0.060 I 
ATOM     10  F2  UNL d   1      -2.681  -5.997  -0.751  0.00  0.00    -0.096 F 
ATOM     11  F3  UNL d   1      -4.471  -5.999   1.280  0.00  0.00    -0.097 F 
ATOM     12  F4  UNL d   1      -3.624  -5.807   3.866  0.00  0.00    -0.092 F 
ENDROOT
TORSDOF 0
ENDMDL
