MODEL 1
REMARK minimizedAffinity 15.8076391
REMARK minimizedRMSD -1
REMARK  0 active torsions:
REMARK  status: ('A' for Active; 'I' for Inactive)
ROOT
ATOM      1  C   UNL d   1      -1.311  -1.518   2.041  0.00  0.00     0.124 A 
ATOM      2  C1  UNL d   1      -2.124  -2.630   1.870  0.00  0.00     0.062 A 
ATOM      3  C2  UNL d   1      -1.584  -3.910   1.943  0.00  0.00     0.162 A 
ATOM      4  C3  UNL d   1      -0.222  -4.086   2.188  0.00  0.00    -0.034 A 
ATOM      5  C4  UNL d   1       0.590  -2.963   2.358  0.00  0.00     0.162 A 
ATOM      6  C5  UNL d   1       0.045  -1.686   2.284  0.00  0.00     0.062 A 
ATOM      7  F   UNL d   1       0.832  -0.613   2.449  0.00  0.00    -0.097 F 
ATOM      8  F1  UNL d   1       1.903  -3.097   2.595  0.00  0.00    -0.096 F 
ATOM      9  I   UNL d   1       0.591  -5.999   2.297  0.00  0.00    -0.060 I 
ATOM     10  F2  UNL d   1      -2.393  -4.967   1.774  0.00  0.00    -0.096 F 
ATOM     11  F3  UNL d   1      -3.434  -2.471   1.634  0.00  0.00    -0.097 F 
ATOM     12  F4  UNL d   1      -1.834  -0.287   1.970  0.00  0.00    -0.092 F 
ENDROOT
TORSDOF 0
ENDMDL
