MODEL 1
REMARK minimizedAffinity 22.7963543
REMARK minimizedRMSD -1
REMARK  0 active torsions:
REMARK  status: ('A' for Active; 'I' for Inactive)
ROOT
ATOM      1  C   UNL d   1      -1.491   0.305  -1.877  0.00  0.00     0.124 A 
ATOM      2  C1  UNL d   1      -2.227  -0.863  -2.025  0.00  0.00     0.062 A 
ATOM      3  C2  UNL d   1      -1.662  -2.092  -1.697  0.00  0.00     0.162 A 
ATOM      4  C3  UNL d   1      -0.355  -2.160  -1.215  0.00  0.00    -0.034 A 
ATOM      5  C4  UNL d   1       0.379  -0.981  -1.070  0.00  0.00     0.162 A 
ATOM      6  C5  UNL d   1      -0.190   0.245  -1.400  0.00  0.00     0.062 A 
ATOM      7  F   UNL d   1       0.522   1.372  -1.256  0.00  0.00    -0.097 F 
ATOM      8  F1  UNL d   1       1.639  -1.010  -0.610  0.00  0.00    -0.096 F 
ATOM      9  I   UNL d   1       0.493  -3.996  -0.723  0.00  0.00    -0.060 I 
ATOM     10  F2  UNL d   1      -2.396  -3.204  -1.850  0.00  0.00    -0.096 F 
ATOM     11  F3  UNL d   1      -3.484  -0.808  -2.487  0.00  0.00    -0.097 F 
ATOM     12  F4  UNL d   1      -2.037   1.486  -2.195  0.00  0.00    -0.092 F 
ENDROOT
TORSDOF 0
ENDMDL
