MODEL 1
REMARK minimizedAffinity 7.70637751
REMARK minimizedRMSD -1
REMARK  0 active torsions:
REMARK  status: ('A' for Active; 'I' for Inactive)
ROOT
ATOM      1  C   UNL d   1      -2.347  -1.180  -1.793  0.00  0.00     0.124 A 
ATOM      2  C1  UNL d   1      -1.940   0.129  -2.007  0.00  0.00     0.062 A 
ATOM      3  C2  UNL d   1      -1.038   0.733  -1.136  0.00  0.00     0.162 A 
ATOM      4  C3  UNL d   1      -0.537   0.028  -0.041  0.00  0.00    -0.034 A 
ATOM      5  C4  UNL d   1      -0.952  -1.288   0.168  0.00  0.00     0.162 A 
ATOM      6  C5  UNL d   1      -1.853  -1.887  -0.706  0.00  0.00     0.062 A 
ATOM      7  F   UNL d   1      -2.246  -3.153  -0.497  0.00  0.00    -0.097 F 
ATOM      8  F1  UNL d   1      -0.490  -1.995   1.210  0.00  0.00    -0.096 F 
ATOM      9  I   UNL d   1       0.811   0.928   1.264  0.00  0.00    -0.060 I 
ATOM     10  F2  UNL d   1      -0.662   2.000  -1.367  0.00  0.00    -0.096 F 
ATOM     11  F3  UNL d   1      -2.416   0.815  -3.057  0.00  0.00    -0.097 F 
ATOM     12  F4  UNL d   1      -3.215  -1.759  -2.633  0.00  0.00    -0.092 F 
ENDROOT
TORSDOF 0
ENDMDL
