MODEL 1
REMARK minimizedAffinity 21.3966732
REMARK minimizedRMSD -1
REMARK  0 active torsions:
REMARK  status: ('A' for Active; 'I' for Inactive)
ROOT
ATOM      1  C   UNL d   1       3.974   0.628  -4.697  0.00  0.00     0.124 A 
ATOM      2  C1  UNL d   1       3.368   1.794  -4.253  0.00  0.00     0.062 A 
ATOM      3  C2  UNL d   1       3.086   1.965  -2.900  0.00  0.00     0.162 A 
ATOM      4  C3  UNL d   1       3.410   0.966  -1.982  0.00  0.00    -0.034 A 
ATOM      5  C4  UNL d   1       4.019  -0.205  -2.437  0.00  0.00     0.162 A 
ATOM      6  C5  UNL d   1       4.299  -0.370  -3.790  0.00  0.00     0.062 A 
ATOM      7  F   UNL d   1       4.885  -1.498  -4.218  0.00  0.00    -0.097 F 
ATOM      8  F1  UNL d   1       4.345  -1.185  -1.582  0.00  0.00    -0.096 F 
ATOM      9  I   UNL d   1       2.990   1.217   0.041  0.00  0.00    -0.060 I 
ATOM     10  F2  UNL d   1       2.499   3.102  -2.499  0.00  0.00    -0.096 F 
ATOM     11  F3  UNL d   1       3.052   2.760  -5.128  0.00  0.00    -0.097 F 
ATOM     12  F4  UNL d   1       4.244   0.466  -5.999  0.00  0.00    -0.092 F 
ENDROOT
TORSDOF 0
ENDMDL
