MODEL 1
REMARK minimizedAffinity 7.11825371
REMARK minimizedRMSD -1
REMARK  0 active torsions:
REMARK  status: ('A' for Active; 'I' for Inactive)
ROOT
ATOM      1  C   UNL d   1      -2.140  -1.687  -1.345  0.00  0.00     0.124 A 
ATOM      2  C1  UNL d   1      -1.708  -2.295  -0.174  0.00  0.00     0.062 A 
ATOM      3  C2  UNL d   1      -0.777  -1.658   0.642  0.00  0.00     0.162 A 
ATOM      4  C3  UNL d   1      -0.273  -0.406   0.292  0.00  0.00    -0.034 A 
ATOM      5  C4  UNL d   1      -0.711   0.198  -0.888  0.00  0.00     0.162 A 
ATOM      6  C5  UNL d   1      -1.641  -0.442  -1.701  0.00  0.00     0.062 A 
ATOM      7  F   UNL d   1      -2.057   0.146  -2.832  0.00  0.00    -0.097 F 
ATOM      8  F1  UNL d   1      -0.247   1.402  -1.255  0.00  0.00    -0.096 F 
ATOM      9  I   UNL d   1       1.118   0.549   1.510  0.00  0.00    -0.060 I 
ATOM     10  F2  UNL d   1      -0.378  -2.269   1.768  0.00  0.00    -0.096 F 
ATOM     11  F3  UNL d   1      -2.187  -3.498   0.171  0.00  0.00    -0.097 F 
ATOM     12  F4  UNL d   1      -3.034  -2.302  -2.130  0.00  0.00    -0.092 F 
ENDROOT
TORSDOF 0
ENDMDL
