MODEL 1
REMARK minimizedAffinity 9.04859447
REMARK minimizedRMSD -1
REMARK  0 active torsions:
REMARK  status: ('A' for Active; 'I' for Inactive)
ROOT
ATOM      1  C   UNL d   1      -1.553   0.328  -1.585  0.00  0.00     0.124 A 
ATOM      2  C1  UNL d   1      -1.025  -0.374  -0.509  0.00  0.00     0.062 A 
ATOM      3  C2  UNL d   1      -1.290  -1.732  -0.362  0.00  0.00     0.162 A 
ATOM      4  C3  UNL d   1      -2.087  -2.399  -1.293  0.00  0.00    -0.034 A 
ATOM      5  C4  UNL d   1      -2.615  -1.686  -2.371  0.00  0.00     0.162 A 
ATOM      6  C5  UNL d   1      -2.347  -0.329  -2.514  0.00  0.00     0.062 A 
ATOM      7  F   UNL d   1      -2.858   0.347  -3.553  0.00  0.00    -0.097 F 
ATOM      8  F1  UNL d   1      -3.384  -2.296  -3.285  0.00  0.00    -0.096 F 
ATOM      9  I   UNL d   1      -2.485  -4.430  -1.077  0.00  0.00    -0.060 I 
ATOM     10  F2  UNL d   1      -0.767  -2.385   0.686  0.00  0.00    -0.096 F 
ATOM     11  F3  UNL d   1      -0.258   0.259   0.391  0.00  0.00    -0.097 F 
ATOM     12  F4  UNL d   1      -1.297   1.635  -1.723  0.00  0.00    -0.092 F 
ENDROOT
TORSDOF 0
ENDMDL
