MODEL 1
REMARK minimizedAffinity 24.3784256
REMARK minimizedRMSD -1
REMARK  0 active torsions:
REMARK  status: ('A' for Active; 'I' for Inactive)
ROOT
ATOM      1  C   UNL d   1       4.117   3.891   0.127  0.00  0.00     0.124 A 
ATOM      2  C1  UNL d   1       4.181   2.728   0.883  0.00  0.00     0.062 A 
ATOM      3  C2  UNL d   1       3.215   1.738   0.727  0.00  0.00     0.162 A 
ATOM      4  C3  UNL d   1       2.177   1.906  -0.190  0.00  0.00    -0.034 A 
ATOM      5  C4  UNL d   1       2.119   3.078  -0.945  0.00  0.00     0.162 A 
ATOM      6  C5  UNL d   1       3.086   4.065  -0.786  0.00  0.00     0.062 A 
ATOM      7  F   UNL d   1       3.022   5.187  -1.516  0.00  0.00    -0.097 F 
ATOM      8  F1  UNL d   1       1.134   3.271  -1.835  0.00  0.00    -0.096 F 
ATOM      9  I   UNL d   1       0.732   0.427  -0.426  0.00  0.00    -0.060 I 
ATOM     10  F2  UNL d   1       3.302   0.625   1.470  0.00  0.00    -0.096 F 
ATOM     11  F3  UNL d   1       5.175   2.559   1.766  0.00  0.00    -0.097 F 
ATOM     12  F4  UNL d   1       5.047   4.843   0.280  0.00  0.00    -0.092 F 
ENDROOT
TORSDOF 0
ENDMDL
