MODEL 1
REMARK minimizedAffinity 11.6636772
REMARK minimizedRMSD -1
REMARK  0 active torsions:
REMARK  status: ('A' for Active; 'I' for Inactive)
ROOT
ATOM      1  C   UNL d   1      -2.207  -1.875   0.457  0.00  0.00     0.124 A 
ATOM      2  C1  UNL d   1      -1.398  -1.576  -0.630  0.00  0.00     0.062 A 
ATOM      3  C2  UNL d   1      -0.321  -0.707  -0.482  0.00  0.00     0.162 A 
ATOM      4  C3  UNL d   1      -0.046  -0.131   0.758  0.00  0.00    -0.034 A 
ATOM      5  C4  UNL d   1      -0.865  -0.436   1.847  0.00  0.00     0.162 A 
ATOM      6  C5  UNL d   1      -1.941  -1.305   1.694  0.00  0.00     0.062 A 
ATOM      7  F   UNL d   1      -2.722  -1.593   2.745  0.00  0.00    -0.097 F 
ATOM      8  F1  UNL d   1      -0.630   0.100   3.053  0.00  0.00    -0.096 F 
ATOM      9  I   UNL d   1       1.564   1.169   0.983  0.00  0.00    -0.060 I 
ATOM     10  F2  UNL d   1       0.445  -0.436  -1.550  0.00  0.00    -0.096 F 
ATOM     11  F3  UNL d   1      -1.654  -2.125  -1.826  0.00  0.00    -0.097 F 
ATOM     12  F4  UNL d   1      -3.244  -2.711   0.312  0.00  0.00    -0.092 F 
ENDROOT
TORSDOF 0
ENDMDL
