MODEL 1
REMARK minimizedAffinity 25.693182
REMARK minimizedRMSD -1
REMARK  0 active torsions:
REMARK  status: ('A' for Active; 'I' for Inactive)
ROOT
ATOM      1  C   UNL d   1      -2.257  -3.040   1.021  0.00  0.00     0.124 A 
ATOM      2  C1  UNL d   1      -3.541  -3.143   0.503  0.00  0.00     0.062 A 
ATOM      3  C2  UNL d   1      -4.611  -2.540   1.158  0.00  0.00     0.162 A 
ATOM      4  C3  UNL d   1      -4.402  -1.828   2.340  0.00  0.00    -0.034 A 
ATOM      5  C4  UNL d   1      -3.108  -1.730   2.855  0.00  0.00     0.162 A 
ATOM      6  C5  UNL d   1      -2.042  -2.333   2.196  0.00  0.00     0.062 A 
ATOM      7  F   UNL d   1      -0.803  -2.233   2.699  0.00  0.00    -0.097 F 
ATOM      8  F1  UNL d   1      -2.872  -1.052   3.989  0.00  0.00    -0.096 F 
ATOM      9  I   UNL d   1      -5.999  -0.926   3.323  0.00  0.00    -0.060 I 
ATOM     10  F2  UNL d   1      -5.840  -2.656   0.635  0.00  0.00    -0.096 F 
ATOM     11  F3  UNL d   1      -3.751  -3.825  -0.632  0.00  0.00    -0.097 F 
ATOM     12  F4  UNL d   1      -1.230  -3.621   0.389  0.00  0.00    -0.092 F 
ENDROOT
TORSDOF 0
ENDMDL
