MODEL 1
REMARK minimizedAffinity 14.8819942
REMARK minimizedRMSD -1
REMARK  1 active torsions:
REMARK  status: ('A' for Active; 'I' for Inactive)
REMARK    1  A    between atoms: C1_2  and  C2_3 
ROOT
ATOM      1  C2  UNL d   1       3.111   4.306   2.215  0.00  0.00    -0.081 A 
ATOM      2  C3  UNL d   1       4.105   5.270   2.420  0.00  0.00     0.006 A 
ATOM      3  C4  UNL d   1       4.823   5.789   1.339  0.00  0.00     0.002 A 
ATOM      4  C5  UNL d   1       4.553   5.358   0.036  0.00  0.00    -0.080 A 
ATOM      5  C6  UNL d   1       5.295   5.929  -1.136  0.00  0.00     0.076 C 
ATOM      6  C7  UNL d   1       3.571   4.382  -0.168  0.00  0.00     0.002 A 
ATOM      7  C8  UNL d   1       2.854   3.863   0.912  0.00  0.00     0.006 A 
ENDROOT
BRANCH   1   8
ATOM      8  C1  UNL d   1       2.290   3.793   3.370  0.00  0.00     0.054 C 
ATOM      9  C   UNL d   1       2.059   2.292   3.261  0.00  0.00     0.018 C 
ENDBRANCH   1   8
TORSDOF 1
ENDMDL
