MODEL 1
REMARK minimizedAffinity 9.40952969
REMARK minimizedRMSD -1
REMARK  1 active torsions:
REMARK  status: ('A' for Active; 'I' for Inactive)
REMARK    1  A    between atoms: C1_2  and  C2_3 
ROOT
ATOM      1  C2  UNL d   1      -5.807   1.995  -1.082  0.00  0.00    -0.081 A 
ATOM      2  C3  UNL d   1      -5.704   3.378  -0.885  0.00  0.00     0.006 A 
ATOM      3  C4  UNL d   1      -5.754   4.253  -1.972  0.00  0.00     0.002 A 
ATOM      4  C5  UNL d   1      -5.915   3.763  -3.272  0.00  0.00    -0.080 A 
ATOM      5  C6  UNL d   1      -5.999   4.694  -4.445  0.00  0.00     0.076 C 
ATOM      6  C7  UNL d   1      -6.000   2.380  -3.471  0.00  0.00     0.002 A 
ATOM      7  C8  UNL d   1      -5.950   1.504  -2.384  0.00  0.00     0.006 A 
ENDROOT
BRANCH   1   8
ATOM      8  C1  UNL d   1      -5.820   1.052   0.094  0.00  0.00     0.054 C 
ATOM      9  C   UNL d   1      -4.469   0.374   0.274  0.00  0.00     0.018 C 
ENDBRANCH   1   8
TORSDOF 1
ENDMDL
