MODEL 1
REMARK minimizedAffinity 18.4326973
REMARK minimizedRMSD -1
REMARK  1 active torsions:
REMARK  status: ('A' for Active; 'I' for Inactive)
REMARK    1  A    between atoms: C1_2  and  C2_3 
ROOT
ATOM      1  C2  UNL d   1       0.139   1.426  -0.456  0.00  0.00    -0.081 A 
ATOM      2  C3  UNL d   1       0.619   0.738   0.665  0.00  0.00     0.006 A 
ATOM      3  C4  UNL d   1       1.445   1.381   1.590  0.00  0.00     0.002 A 
ATOM      4  C5  UNL d   1       1.798   2.723   1.414  0.00  0.00    -0.080 A 
ATOM      5  C6  UNL d   1       2.659   3.433   2.416  0.00  0.00     0.076 C 
ATOM      6  C7  UNL d   1       1.332   3.406   0.285  0.00  0.00     0.002 A 
ATOM      7  C8  UNL d   1       0.507   2.763  -0.641  0.00  0.00     0.006 A 
ENDROOT
BRANCH   1   8
ATOM      8  C1  UNL d   1      -0.804   0.755  -1.422  0.00  0.00     0.054 C 
ATOM      9  C   UNL d   1      -2.215   0.683  -0.857  0.00  0.00     0.018 C 
ENDBRANCH   1   8
TORSDOF 1
ENDMDL
