MODEL 1
REMARK minimizedAffinity 6.51413536
REMARK minimizedRMSD -1
REMARK  1 active torsions:
REMARK  status: ('A' for Active; 'I' for Inactive)
REMARK    1  A    between atoms: C1_2  and  C2_3 
ROOT
ATOM      1  C2  UNL d   1      -5.402   4.095   1.387  0.00  0.00    -0.081 A 
ATOM      2  C3  UNL d   1      -5.932   5.384   1.523  0.00  0.00     0.006 A 
ATOM      3  C4  UNL d   1      -5.995   5.994   2.778  0.00  0.00     0.002 A 
ATOM      4  C5  UNL d   1      -5.523   5.330   3.915  0.00  0.00    -0.080 A 
ATOM      5  C6  UNL d   1      -5.557   5.987   5.263  0.00  0.00     0.076 C 
ATOM      6  C7  UNL d   1      -5.009   4.036   3.782  0.00  0.00     0.002 A 
ATOM      7  C8  UNL d   1      -4.946   3.425   2.528  0.00  0.00     0.006 A 
ENDROOT
BRANCH   1   8
ATOM      8  C1  UNL d   1      -5.273   3.459   0.026  0.00  0.00     0.054 C 
ATOM      9  C   UNL d   1      -5.370   1.943   0.113  0.00  0.00     0.018 C 
ENDBRANCH   1   8
TORSDOF 1
ENDMDL
