MODEL 1
REMARK minimizedAffinity 2.31904578
REMARK minimizedRMSD -1
REMARK  1 active torsions:
REMARK  status: ('A' for Active; 'I' for Inactive)
REMARK    1  A    between atoms: C1_2  and  C2_3 
ROOT
ATOM      1  C2  UNL d   1       1.464  -1.299   1.005  0.00  0.00    -0.081 A 
ATOM      2  C3  UNL d   1       1.933  -0.025   0.663  0.00  0.00     0.006 A 
ATOM      3  C4  UNL d   1       2.788   0.146  -0.428  0.00  0.00     0.002 A 
ATOM      4  C5  UNL d   1       3.182  -0.953  -1.200  0.00  0.00    -0.080 A 
ATOM      5  C6  UNL d   1       4.075  -0.779  -2.392  0.00  0.00     0.076 C 
ATOM      6  C7  UNL d   1       2.727  -2.228  -0.848  0.00  0.00     0.002 A 
ATOM      7  C8  UNL d   1       1.873  -2.399   0.243  0.00  0.00     0.006 A 
ENDROOT
BRANCH   1   8
ATOM      8  C1  UNL d   1       0.490  -1.477   2.141  0.00  0.00     0.054 C 
ATOM      9  C   UNL d   1       0.985  -0.793   3.407  0.00  0.00     0.018 C 
ENDBRANCH   1   8
TORSDOF 1
ENDMDL
