MODEL 1
REMARK minimizedAffinity 5.53675175
REMARK minimizedRMSD -1
REMARK  1 active torsions:
REMARK  status: ('A' for Active; 'I' for Inactive)
REMARK    1  A    between atoms: C1_2  and  C2_3 
ROOT
ATOM      1  C2  UNL d   1       3.080   0.650  -0.717  0.00  0.00    -0.081 A 
ATOM      2  C3  UNL d   1       3.974   1.070  -1.709  0.00  0.00     0.006 A 
ATOM      3  C4  UNL d   1       4.823   2.156  -1.483  0.00  0.00     0.002 A 
ATOM      4  C5  UNL d   1       4.799   2.834  -0.260  0.00  0.00    -0.080 A 
ATOM      5  C6  UNL d   1       5.726   3.982   0.006  0.00  0.00     0.076 C 
ATOM      6  C7  UNL d   1       3.893   2.426   0.725  0.00  0.00     0.002 A 
ATOM      7  C8  UNL d   1       3.043   1.340   0.500  0.00  0.00     0.006 A 
ENDROOT
BRANCH   1   8
ATOM      8  C1  UNL d   1       2.208  -0.561  -0.933  0.00  0.00     0.054 C 
ATOM      9  C   UNL d   1       2.466  -1.624   0.125  0.00  0.00     0.018 C 
ENDBRANCH   1   8
TORSDOF 1
ENDMDL
