MODEL 1
REMARK minimizedAffinity 5.97408581
REMARK minimizedRMSD -1
REMARK  1 active torsions:
REMARK  status: ('A' for Active; 'I' for Inactive)
REMARK    1  A    between atoms: C1_2  and  C2_3 
ROOT
ATOM      1  C2  UNL d   1      -4.163   0.382  -1.934  0.00  0.00    -0.081 A 
ATOM      2  C3  UNL d   1      -2.857   0.395  -2.439  0.00  0.00     0.006 A 
ATOM      3  C4  UNL d   1      -2.611   0.786  -3.757  0.00  0.00     0.002 A 
ATOM      4  C5  UNL d   1      -3.664   1.177  -4.590  0.00  0.00    -0.080 A 
ATOM      5  C6  UNL d   1      -3.410   1.628  -5.997  0.00  0.00     0.076 C 
ATOM      6  C7  UNL d   1      -4.971   1.148  -4.091  0.00  0.00     0.002 A 
ATOM      7  C8  UNL d   1      -5.218   0.756  -2.774  0.00  0.00     0.006 A 
ENDROOT
BRANCH   1   8
ATOM      8  C1  UNL d   1      -4.425   0.022  -0.494  0.00  0.00     0.054 C 
ATOM      9  C   UNL d   1      -5.231   1.106   0.209  0.00  0.00     0.018 C 
ENDBRANCH   1   8
TORSDOF 1
ENDMDL
