MODEL 1
REMARK minimizedAffinity 3.17495799
REMARK minimizedRMSD -1
REMARK  0 active torsions:
REMARK  status: ('A' for Active; 'I' for Inactive)
ROOT
ATOM      1  O1  BZF d   1       1.432   0.313  -0.287  0.00  0.00    -0.204 OA
ATOM      2  C2  BZF d   1       0.307  -0.389   0.101  0.00  0.00     0.174 A 
ATOM      3  C3  BZF d   1      -0.446  -0.714  -0.969  0.00  0.00    -0.012 A 
ATOM      4  C3A BZF d   1       0.298  -0.262  -2.105  0.00  0.00    -0.107 A 
ATOM      5  C4  BZF d   1       0.078  -0.312  -3.451  0.00  0.00     0.055 A 
ATOM      6  C5  BZF d   1       0.966   0.286  -4.288  0.00  0.00    -0.016 A 
ATOM      7  C6  BZF d   1       2.081   0.946  -3.813  0.00  0.00     0.022 A 
ATOM      8  C7  BZF d   1       2.344   1.017  -2.485  0.00  0.00     0.029 A 
ATOM      9  C7A BZF d   1       1.465   0.386  -1.639  0.00  0.00     0.058 A 
ENDROOT
TORSDOF 0
ENDMDL
