MODEL 1
REMARK minimizedAffinity -1.71518707
REMARK minimizedRMSD -1
REMARK  0 active torsions:
REMARK  status: ('A' for Active; 'I' for Inactive)
ROOT
ATOM      1  O1  BZF d   1       1.503   0.249  -0.274  0.00  0.00    -0.204 OA
ATOM      2  C2  BZF d   1       0.300  -0.199   0.235  0.00  0.00     0.174 A 
ATOM      3  C3  BZF d   1      -0.548  -0.528  -0.761  0.00  0.00    -0.012 A 
ATOM      4  C3A BZF d   1       0.203  -0.358  -1.967  0.00  0.00    -0.107 A 
ATOM      5  C4  BZF d   1      -0.087  -0.543  -3.288  0.00  0.00     0.055 A 
ATOM      6  C5  BZF d   1       0.845  -0.216  -4.221  0.00  0.00    -0.016 A 
ATOM      7  C6  BZF d   1       2.073   0.304  -3.870  0.00  0.00     0.022 A 
ATOM      8  C7  BZF d   1       2.409   0.501  -2.572  0.00  0.00     0.029 A 
ATOM      9  C7A BZF d   1       1.482   0.140  -1.624  0.00  0.00     0.058 A 
ENDROOT
TORSDOF 0
ENDMDL
