MODEL 1
REMARK minimizedAffinity -3.02703691
REMARK minimizedRMSD -1
REMARK  0 active torsions:
REMARK  status: ('A' for Active; 'I' for Inactive)
ROOT
ATOM      1  O1  BZF d   1      -3.043  -1.708   1.247  0.00  0.00    -0.204 OA
ATOM      2  C2  BZF d   1      -3.386  -1.964   2.561  0.00  0.00     0.174 A 
ATOM      3  C3  BZF d   1      -2.671  -1.191   3.402  0.00  0.00    -0.012 A 
ATOM      4  C3A BZF d   1      -1.893  -0.336   2.558  0.00  0.00    -0.107 A 
ATOM      5  C4  BZF d   1      -0.996   0.663   2.805  0.00  0.00     0.055 A 
ATOM      6  C5  BZF d   1      -0.357   1.251   1.759  0.00  0.00    -0.016 A 
ATOM      7  C6  BZF d   1      -0.588   0.862   0.456  0.00  0.00     0.022 A 
ATOM      8  C7  BZF d   1      -1.474  -0.121   0.161  0.00  0.00     0.029 A 
ATOM      9  C7A BZF d   1      -2.145  -0.694   1.214  0.00  0.00     0.058 A 
ENDROOT
TORSDOF 0
ENDMDL
