MODEL 1
REMARK minimizedAffinity -4.48372316
REMARK minimizedRMSD -1
REMARK  0 active torsions:
REMARK  status: ('A' for Active; 'I' for Inactive)
ROOT
ATOM      1  O1  BZF d   1       1.134   0.034  -0.274  0.00  0.00    -0.204 OA
ATOM      2  C2  BZF d   1       0.362  -0.359  -1.350  0.00  0.00     0.174 A 
ATOM      3  C3  BZF d   1      -0.948  -0.333  -1.034  0.00  0.00    -0.012 A 
ATOM      4  C3A BZF d   1      -1.004   0.192   0.296  0.00  0.00    -0.107 A 
ATOM      5  C4  BZF d   1      -2.030   0.472   1.153  0.00  0.00     0.055 A 
ATOM      6  C5  BZF d   1      -1.742   0.907   2.408  0.00  0.00    -0.016 A 
ATOM      7  C6  BZF d   1      -0.442   1.069   2.840  0.00  0.00     0.022 A 
ATOM      8  C7  BZF d   1       0.609   0.810   2.024  0.00  0.00     0.029 A 
ATOM      9  C7A BZF d   1       0.321   0.401   0.745  0.00  0.00     0.058 A 
ENDROOT
TORSDOF 0
ENDMDL
