MODEL 1
REMARK minimizedAffinity -0.983846009
REMARK minimizedRMSD -1
REMARK  0 active torsions:
REMARK  status: ('A' for Active; 'I' for Inactive)
ROOT
ATOM      1  O1  BZF d   1      -1.625   0.173   3.331  0.00  0.00    -0.204 OA
ATOM      2  C2  BZF d   1      -2.691  -0.706   3.306  0.00  0.00     0.174 A 
ATOM      3  C3  BZF d   1      -2.880  -1.194   2.063  0.00  0.00    -0.012 A 
ATOM      4  C3A BZF d   1      -1.811  -0.654   1.280  0.00  0.00    -0.107 A 
ATOM      5  C4  BZF d   1      -1.447  -0.785  -0.029  0.00  0.00     0.055 A 
ATOM      6  C5  BZF d   1      -0.394  -0.065  -0.497  0.00  0.00    -0.016 A 
ATOM      7  C6  BZF d   1       0.314   0.798   0.314  0.00  0.00     0.022 A 
ATOM      8  C7  BZF d   1      -0.007   0.958   1.621  0.00  0.00     0.029 A 
ATOM      9  C7A BZF d   1      -1.050   0.207   2.105  0.00  0.00     0.058 A 
ENDROOT
TORSDOF 0
ENDMDL
