MODEL 1
REMARK minimizedAffinity -2.9390707
REMARK minimizedRMSD -1
REMARK  0 active torsions:
REMARK  status: ('A' for Active; 'I' for Inactive)
ROOT
ATOM      1  O1  BZF d   1      -1.150  -0.707  -0.180  0.00  0.00    -0.204 OA
ATOM      2  C2  BZF d   1      -0.039  -0.745  -1.001  0.00  0.00     0.174 A 
ATOM      3  C3  BZF d   1       0.924   0.079  -0.540  0.00  0.00    -0.012 A 
ATOM      4  C3A BZF d   1       0.417   0.599   0.693  0.00  0.00    -0.107 A 
ATOM      5  C4  BZF d   1       0.919   1.459   1.627  0.00  0.00     0.055 A 
ATOM      6  C5  BZF d   1       0.140   1.819   2.680  0.00  0.00    -0.016 A 
ATOM      7  C6  BZF d   1      -1.146   1.344   2.828  0.00  0.00     0.022 A 
ATOM      8  C7  BZF d   1      -1.687   0.485   1.930  0.00  0.00     0.029 A 
ATOM      9  C7A BZF d   1      -0.890   0.093   0.881  0.00  0.00     0.058 A 
ENDROOT
TORSDOF 0
ENDMDL
