MODEL 1
REMARK minimizedAffinity -2.56762004
REMARK minimizedRMSD -1
REMARK  0 active torsions:
REMARK  status: ('A' for Active; 'I' for Inactive)
ROOT
ATOM      1  O1  BZF d   1      -1.335  -1.260   0.779  0.00  0.00    -0.204 OA
ATOM      2  C2  BZF d   1      -0.393  -1.337  -0.229  0.00  0.00     0.174 A 
ATOM      3  C3  BZF d   1       0.397  -0.244  -0.229  0.00  0.00    -0.012 A 
ATOM      4  C3A BZF d   1      -0.022   0.524   0.903  0.00  0.00    -0.107 A 
ATOM      5  C4  BZF d   1       0.395   1.708   1.440  0.00  0.00     0.055 A 
ATOM      6  C5  BZF d   1      -0.272   2.220   2.508  0.00  0.00    -0.016 A 
ATOM      7  C6  BZF d   1      -1.362   1.578   3.059  0.00  0.00     0.022 A 
ATOM      8  C7  BZF d   1      -1.809   0.398   2.564  0.00  0.00     0.029 A 
ATOM      9  C7A BZF d   1      -1.116  -0.138   1.506  0.00  0.00     0.058 A 
ENDROOT
TORSDOF 0
ENDMDL
