MODEL 1
REMARK minimizedAffinity -2.85770559
REMARK minimizedRMSD -1
REMARK  0 active torsions:
REMARK  status: ('A' for Active; 'I' for Inactive)
ROOT
ATOM      1  C   UNL d   1       1.360   1.529   1.649  0.00  0.00     0.077 C 
ATOM      2  C1  UNL d   1       1.324   0.512   0.548  0.00  0.00    -0.074 A 
ATOM      3  C2  UNL d   1       2.419   0.334  -0.303  0.00  0.00    -0.005 A 
ATOM      4  C3  UNL d   1       2.375  -0.622  -1.317  0.00  0.00     0.006 A 
ATOM      5  C4  UNL d   1       1.236  -1.410  -1.490  0.00  0.00    -0.005 A 
ATOM      6  C5  UNL d   1       0.131  -1.247  -0.648  0.00  0.00    -0.074 A 
ATOM      7  C6  UNL d   1      -1.097  -2.092  -0.814  0.00  0.00     0.077 C 
ATOM      8  C7  UNL d   1       0.186  -0.288   0.373  0.00  0.00    -0.001 A 
ENDROOT
TORSDOF 0
ENDMDL
