MODEL 1
REMARK minimizedAffinity -4.90537739
REMARK minimizedRMSD -1
REMARK  0 active torsions:
REMARK  status: ('A' for Active; 'I' for Inactive)
ROOT
ATOM      1  C   UNL d   1       3.425  -0.150  -2.104  0.00  0.00     0.077 C 
ATOM      2  C1  UNL d   1       2.053  -0.069  -1.503  0.00  0.00    -0.074 A 
ATOM      3  C2  UNL d   1       1.550  -1.110  -0.716  0.00  0.00    -0.005 A 
ATOM      4  C3  UNL d   1       0.276  -1.017  -0.156  0.00  0.00     0.006 A 
ATOM      5  C4  UNL d   1      -0.507   0.116  -0.378  0.00  0.00    -0.005 A 
ATOM      6  C5  UNL d   1      -0.021   1.168  -1.161  0.00  0.00    -0.074 A 
ATOM      7  C6  UNL d   1      -0.847   2.397  -1.401  0.00  0.00     0.077 C 
ATOM      8  C7  UNL d   1       1.263   1.069  -1.715  0.00  0.00    -0.001 A 
ENDROOT
TORSDOF 0
ENDMDL
