MODEL 1
REMARK minimizedAffinity -2.74768209
REMARK minimizedRMSD -1
REMARK  0 active torsions:
REMARK  status: ('A' for Active; 'I' for Inactive)
ROOT
ATOM      1  C   UNL d   1      -0.914  -2.652  -0.402  0.00  0.00     0.077 C 
ATOM      2  C1  UNL d   1      -0.134  -1.372  -0.389  0.00  0.00    -0.074 A 
ATOM      3  C2  UNL d   1      -0.729  -0.171   0.013  0.00  0.00    -0.005 A 
ATOM      4  C3  UNL d   1       0.012   1.010   0.029  0.00  0.00     0.006 A 
ATOM      5  C4  UNL d   1       1.354   1.003  -0.355  0.00  0.00    -0.005 A 
ATOM      6  C5  UNL d   1       1.966  -0.187  -0.759  0.00  0.00    -0.074 A 
ATOM      7  C6  UNL d   1       3.410  -0.214  -1.165  0.00  0.00     0.077 C 
ATOM      8  C7  UNL d   1       1.216  -1.372  -0.766  0.00  0.00    -0.001 A 
ENDROOT
TORSDOF 0
ENDMDL
