MODEL 1
REMARK minimizedAffinity -3.03604531
REMARK minimizedRMSD -1
REMARK  0 active torsions:
REMARK  status: ('A' for Active; 'I' for Inactive)
ROOT
ATOM      1  C   UNL d   1      -0.826   2.443  -1.255  0.00  0.00     0.077 C 
ATOM      2  C1  UNL d   1       0.093   1.315  -0.890  0.00  0.00    -0.074 A 
ATOM      3  C2  UNL d   1       1.460   1.536  -0.698  0.00  0.00    -0.005 A 
ATOM      4  C3  UNL d   1       2.301   0.479  -0.349  0.00  0.00     0.006 A 
ATOM      5  C4  UNL d   1       1.784  -0.807  -0.189  0.00  0.00    -0.005 A 
ATOM      6  C5  UNL d   1       0.419  -1.047  -0.376  0.00  0.00    -0.074 A 
ATOM      7  C6  UNL d   1      -0.155  -2.421  -0.198  0.00  0.00     0.077 C 
ATOM      8  C7  UNL d   1      -0.421   0.022  -0.719  0.00  0.00    -0.001 A 
ENDROOT
TORSDOF 0
ENDMDL
