MODEL 1
REMARK minimizedAffinity -3.58041453
REMARK minimizedRMSD -1
REMARK  0 active torsions:
REMARK  status: ('A' for Active; 'I' for Inactive)
ROOT
ATOM      1  C   UNL d   1      -1.427   1.171  -0.734  0.00  0.00     0.077 C 
ATOM      2  C1  UNL d   1      -0.426   0.055  -0.695  0.00  0.00    -0.074 A 
ATOM      3  C2  UNL d   1      -0.834  -1.270  -0.515  0.00  0.00    -0.005 A 
ATOM      4  C3  UNL d   1       0.108  -2.299  -0.490  0.00  0.00     0.006 A 
ATOM      5  C4  UNL d   1       1.465  -2.013  -0.644  0.00  0.00    -0.005 A 
ATOM      6  C5  UNL d   1       1.892  -0.693  -0.825  0.00  0.00    -0.074 A 
ATOM      7  C6  UNL d   1       3.346  -0.370  -1.002  0.00  0.00     0.077 C 
ATOM      8  C7  UNL d   1       0.939   0.334  -0.856  0.00  0.00    -0.001 A 
ENDROOT
TORSDOF 0
ENDMDL
