MODEL 1
REMARK minimizedAffinity -4.23624659
REMARK minimizedRMSD -1
REMARK  0 active torsions:
REMARK  status: ('A' for Active; 'I' for Inactive)
ROOT
ATOM      1  C   UNL d   1      -0.839  -3.121   0.042  0.00  0.00     0.077 C 
ATOM      2  C1  UNL d   1      -0.255  -1.774  -0.266  0.00  0.00    -0.074 A 
ATOM      3  C2  UNL d   1      -0.981  -0.604  -0.022  0.00  0.00    -0.005 A 
ATOM      4  C3  UNL d   1      -0.421   0.642  -0.304  0.00  0.00     0.006 A 
ATOM      5  C4  UNL d   1       0.868   0.730  -0.832  0.00  0.00    -0.005 A 
ATOM      6  C5  UNL d   1       1.609  -0.430  -1.082  0.00  0.00    -0.074 A 
ATOM      7  C6  UNL d   1       2.999  -0.352  -1.640  0.00  0.00     0.077 C 
ATOM      8  C7  UNL d   1       1.042  -1.677  -0.789  0.00  0.00    -0.001 A 
ENDROOT
TORSDOF 0
ENDMDL
