MODEL 1
REMARK minimizedAffinity -1.95406854
REMARK minimizedRMSD -1
REMARK  0 active torsions:
REMARK  status: ('A' for Active; 'I' for Inactive)
ROOT
ATOM      1  C   UNL d   1       0.730  -2.559  -0.416  0.00  0.00     0.077 C 
ATOM      2  C1  UNL d   1       1.044  -1.092  -0.424  0.00  0.00    -0.074 A 
ATOM      3  C2  UNL d   1       2.353  -0.637  -0.233  0.00  0.00    -0.005 A 
ATOM      4  C3  UNL d   1       2.632   0.730  -0.252  0.00  0.00     0.006 A 
ATOM      5  C4  UNL d   1       1.607   1.653  -0.463  0.00  0.00    -0.005 A 
ATOM      6  C5  UNL d   1       0.292   1.216  -0.657  0.00  0.00    -0.074 A 
ATOM      7  C6  UNL d   1      -0.819   2.194  -0.894  0.00  0.00     0.077 C 
ATOM      8  C7  UNL d   1       0.021  -0.159  -0.643  0.00  0.00    -0.001 A 
ENDROOT
TORSDOF 0
ENDMDL
