MODEL 1
REMARK minimizedAffinity -5.15860653
REMARK minimizedRMSD -1
REMARK  0 active torsions:
REMARK  status: ('A' for Active; 'I' for Inactive)
ROOT
ATOM      1  C   UNL d   1       3.229  -0.501  -1.329  0.00  0.00     0.077 C 
ATOM      2  C1  UNL d   1       1.971   0.302  -1.177  0.00  0.00    -0.074 A 
ATOM      3  C2  UNL d   1       1.775   1.476  -1.910  0.00  0.00    -0.005 A 
ATOM      4  C3  UNL d   1       0.596   2.207  -1.766  0.00  0.00     0.006 A 
ATOM      5  C4  UNL d   1      -0.397   1.772  -0.887  0.00  0.00    -0.005 A 
ATOM      6  C5  UNL d   1      -0.219   0.600  -0.146  0.00  0.00    -0.074 A 
ATOM      7  C6  UNL d   1      -1.281   0.113   0.795  0.00  0.00     0.077 C 
ATOM      8  C7  UNL d   1       0.965  -0.133  -0.302  0.00  0.00    -0.001 A 
ENDROOT
TORSDOF 0
ENDMDL
