MODEL 1
REMARK minimizedAffinity -3.84157944
REMARK minimizedRMSD -1
REMARK  0 active torsions:
REMARK  status: ('A' for Active; 'I' for Inactive)
ROOT
ATOM      1  C   UNL d   1       2.766  -0.476  -1.309  0.00  0.00     0.077 C 
ATOM      2  C1  UNL d   1       1.390  -0.526  -0.713  0.00  0.00    -0.074 A 
ATOM      3  C2  UNL d   1       0.548  -1.620  -0.940  0.00  0.00    -0.005 A 
ATOM      4  C3  UNL d   1      -0.725  -1.657  -0.371  0.00  0.00     0.006 A 
ATOM      5  C4  UNL d   1      -1.168  -0.603   0.429  0.00  0.00    -0.005 A 
ATOM      6  C5  UNL d   1      -0.340   0.498   0.668  0.00  0.00    -0.074 A 
ATOM      7  C6  UNL d   1      -0.797   1.634   1.534  0.00  0.00     0.077 C 
ATOM      8  C7  UNL d   1       0.941   0.525   0.099  0.00  0.00    -0.001 A 
ENDROOT
TORSDOF 0
ENDMDL
