MODEL 1
REMARK minimizedAffinity -3.78174114
REMARK minimizedRMSD -1
REMARK  0 active torsions:
REMARK  status: ('A' for Active; 'I' for Inactive)
ROOT
ATOM      1  C   UNL d   1      -1.573  -0.123   1.485  0.00  0.00     0.077 C 
ATOM      2  C1  UNL d   1      -0.629   0.315   0.406  0.00  0.00    -0.074 A 
ATOM      3  C2  UNL d   1      -0.979   1.335  -0.485  0.00  0.00    -0.005 A 
ATOM      4  C3  UNL d   1      -0.086   1.738  -1.478  0.00  0.00     0.006 A 
ATOM      5  C4  UNL d   1       1.163   1.126  -1.591  0.00  0.00    -0.005 A 
ATOM      6  C5  UNL d   1       1.530   0.105  -0.709  0.00  0.00    -0.074 A 
ATOM      7  C6  UNL d   1       2.873  -0.556  -0.810  0.00  0.00     0.077 C 
ATOM      8  C7  UNL d   1       0.631  -0.290   0.291  0.00  0.00    -0.001 A 
ENDROOT
TORSDOF 0
ENDMDL
