MODEL 1
REMARK minimizedAffinity -4.2476716
REMARK minimizedRMSD -1
REMARK  0 active torsions:
REMARK  status: ('A' for Active; 'I' for Inactive)
ROOT
ATOM      1  C   UNL d   1       3.098  -0.597  -1.449  0.00  0.00     0.077 C 
ATOM      2  C1  UNL d   1       1.666  -0.536  -1.009  0.00  0.00    -0.074 A 
ATOM      3  C2  UNL d   1       1.061   0.686  -0.697  0.00  0.00    -0.005 A 
ATOM      4  C3  UNL d   1      -0.275   0.728  -0.298  0.00  0.00     0.006 A 
ATOM      5  C4  UNL d   1      -1.019  -0.450  -0.208  0.00  0.00    -0.005 A 
ATOM      6  C5  UNL d   1      -0.431  -1.681  -0.516  0.00  0.00    -0.074 A 
ATOM      7  C6  UNL d   1      -1.219  -2.954  -0.434  0.00  0.00     0.077 C 
ATOM      8  C7  UNL d   1       0.910  -1.714  -0.923  0.00  0.00    -0.001 A 
ENDROOT
TORSDOF 0
ENDMDL
