MODEL 1
REMARK minimizedAffinity -1.74297071
REMARK minimizedRMSD -1
REMARK  0 active torsions:
REMARK  status: ('A' for Active; 'I' for Inactive)
ROOT
ATOM      1  C   UNL d   1      -1.125   0.359  -0.104  0.00  0.00     0.077 C 
ATOM      2  C1  UNL d   1      -1.445   0.580   1.344  0.00  0.00    -0.074 A 
ATOM      3  C2  UNL d   1      -1.155   1.799   1.966  0.00  0.00    -0.005 A 
ATOM      4  C3  UNL d   1      -1.467   1.993   3.312  0.00  0.00     0.006 A 
ATOM      5  C4  UNL d   1      -2.071   0.973   4.047  0.00  0.00    -0.005 A 
ATOM      6  C5  UNL d   1      -2.369  -0.252   3.442  0.00  0.00    -0.074 A 
ATOM      7  C6  UNL d   1      -3.028  -1.355   4.216  0.00  0.00     0.077 C 
ATOM      8  C7  UNL d   1      -2.059  -0.437   2.088  0.00  0.00    -0.001 A 
ENDROOT
TORSDOF 0
ENDMDL
