MODEL 1
REMARK minimizedAffinity -0.419702053
REMARK minimizedRMSD -1
REMARK  0 active torsions:
REMARK  status: ('A' for Active; 'I' for Inactive)
ROOT
ATOM      1  C   UNL d   1      -1.873   1.151   2.806  0.00  0.00     0.077 C 
ATOM      2  C1  UNL d   1      -1.331   0.894   1.432  0.00  0.00    -0.074 A 
ATOM      3  C2  UNL d   1      -2.136   1.054   0.300  0.00  0.00    -0.005 A 
ATOM      4  C3  UNL d   1      -1.616   0.821  -0.973  0.00  0.00     0.006 A 
ATOM      5  C4  UNL d   1      -0.286   0.426  -1.126  0.00  0.00    -0.005 A 
ATOM      6  C5  UNL d   1       0.535   0.261  -0.006  0.00  0.00    -0.074 A 
ATOM      7  C6  UNL d   1       1.969  -0.153  -0.154  0.00  0.00     0.077 C 
ATOM      8  C7  UNL d   1       0.006   0.505   1.269  0.00  0.00    -0.001 A 
ENDROOT
TORSDOF 0
ENDMDL
