MODEL 1
REMARK minimizedAffinity -4.10832739
REMARK minimizedRMSD -1
REMARK  0 active torsions:
REMARK  status: ('A' for Active; 'I' for Inactive)
ROOT
ATOM      1  C   UNL d   1       3.440  -0.233  -1.471  0.00  0.00     0.077 C 
ATOM      2  C1  UNL d   1       2.061  -0.554  -0.977  0.00  0.00    -0.074 A 
ATOM      3  C2  UNL d   1       1.735  -1.841  -0.538  0.00  0.00    -0.005 A 
ATOM      4  C3  UNL d   1       0.451  -2.122  -0.072  0.00  0.00     0.006 A 
ATOM      5  C4  UNL d   1      -0.519  -1.119  -0.040  0.00  0.00    -0.005 A 
ATOM      6  C5  UNL d   1      -0.212   0.174  -0.474  0.00  0.00    -0.074 A 
ATOM      7  C6  UNL d   1      -1.241   1.265  -0.437  0.00  0.00     0.077 C 
ATOM      8  C7  UNL d   1       1.083   0.450  -0.934  0.00  0.00    -0.001 A 
ENDROOT
TORSDOF 0
ENDMDL
