MODEL 1
REMARK minimizedAffinity -4.65066051
REMARK minimizedRMSD -1
REMARK  0 active torsions:
REMARK  status: ('A' for Active; 'I' for Inactive)
ROOT
ATOM      1  C   UNL d   1      -2.441   0.117   2.362  0.00  0.00     0.077 C 
ATOM      2  C1  UNL d   1      -1.405  -0.223   1.332  0.00  0.00    -0.074 A 
ATOM      3  C2  UNL d   1      -0.945  -1.536   1.181  0.00  0.00    -0.005 A 
ATOM      4  C3  UNL d   1       0.011  -1.839   0.213  0.00  0.00     0.006 A 
ATOM      5  C4  UNL d   1       0.517  -0.835  -0.614  0.00  0.00    -0.005 A 
ATOM      6  C5  UNL d   1       0.068   0.483  -0.479  0.00  0.00    -0.074 A 
ATOM      7  C6  UNL d   1       0.594   1.572  -1.366  0.00  0.00     0.077 C 
ATOM      8  C7  UNL d   1      -0.898   0.778   0.492  0.00  0.00    -0.001 A 
ENDROOT
TORSDOF 0
ENDMDL
