MODEL 1
REMARK minimizedAffinity 3.9319396
REMARK minimizedRMSD -1
REMARK  0 active torsions:
REMARK  status: ('A' for Active; 'I' for Inactive)
ROOT
ATOM      1  C1  BNZ d   1       2.184   4.875  -5.269  0.00  0.00     0.000 A 
ATOM      2  C2  BNZ d   1       2.373   3.733  -6.000  0.00  0.00     0.000 A 
ATOM      3  C3  BNZ d   1       3.562   3.059  -5.952  0.00  0.00     0.000 A 
ATOM      4  C4  BNZ d   1       4.572   3.551  -5.205  0.00  0.00     0.000 A 
ATOM      5  C5  BNZ d   1       4.400   4.706  -4.470  0.00  0.00     0.000 A 
ATOM      6  C6  BNZ d   1       3.189   5.360  -4.490  0.00  0.00     0.000 A 
ENDROOT
TORSDOF 0
ENDMDL
