MODEL 1
REMARK minimizedAffinity 0.801661074
REMARK minimizedRMSD -1
REMARK  0 active torsions:
REMARK  status: ('A' for Active; 'I' for Inactive)
ROOT
ATOM      1  C1  BNZ d   1      -3.889   0.846   1.912  0.00  0.00     0.000 A 
ATOM      2  C2  BNZ d   1      -3.329  -0.391   1.734  0.00  0.00     0.000 A 
ATOM      3  C3  BNZ d   1      -1.983  -0.578   1.882  0.00  0.00     0.000 A 
ATOM      4  C4  BNZ d   1      -1.194   0.478   2.167  0.00  0.00     0.000 A 
ATOM      5  C5  BNZ d   1      -1.742   1.733   2.340  0.00  0.00     0.000 A 
ATOM      6  C6  BNZ d   1      -3.103   1.910   2.229  0.00  0.00     0.000 A 
ENDROOT
TORSDOF 0
ENDMDL
