MODEL 1
REMARK minimizedAffinity 8.17948818
REMARK minimizedRMSD -1
REMARK  0 active torsions:
REMARK  status: ('A' for Active; 'I' for Inactive)
ROOT
ATOM      1  C1  BNZ d   1      -0.048  -2.064  -5.155  0.00  0.00     0.000 A 
ATOM      2  C2  BNZ d   1       1.023  -1.982  -4.305  0.00  0.00     0.000 A 
ATOM      3  C3  BNZ d   1       1.578  -0.772  -3.993  0.00  0.00     0.000 A 
ATOM      4  C4  BNZ d   1       1.088   0.348  -4.561  0.00  0.00     0.000 A 
ATOM      5  C5  BNZ d   1       0.015   0.281  -5.428  0.00  0.00     0.000 A 
ATOM      6  C6  BNZ d   1      -0.566  -0.935  -5.709  0.00  0.00     0.000 A 
ENDROOT
TORSDOF 0
ENDMDL
