MODEL 1
REMARK minimizedAffinity 6.66395235
REMARK minimizedRMSD -1
REMARK  0 active torsions:
REMARK  status: ('A' for Active; 'I' for Inactive)
ROOT
ATOM      1  C1  BNZ d   1      -4.186   1.448   1.686  0.00  0.00     0.000 A 
ATOM      2  C2  BNZ d   1      -3.165   0.574   1.423  0.00  0.00     0.000 A 
ATOM      3  C3  BNZ d   1      -1.953   0.707   2.041  0.00  0.00     0.000 A 
ATOM      4  C4  BNZ d   1      -1.751   1.735   2.890  0.00  0.00     0.000 A 
ATOM      5  C5  BNZ d   1      -2.768   2.630   3.159  0.00  0.00     0.000 A 
ATOM      6  C6  BNZ d   1      -3.998   2.470   2.564  0.00  0.00     0.000 A 
ENDROOT
TORSDOF 0
ENDMDL
