MODEL 1
REMARK minimizedAffinity 8.20185089
REMARK minimizedRMSD -1
REMARK  0 active torsions:
REMARK  status: ('A' for Active; 'I' for Inactive)
ROOT
ATOM      1  C1  BNZ d   1      -5.517  -3.537   0.476  0.00  0.00     0.000 A 
ATOM      2  C2  BNZ d   1      -5.965  -2.251   0.614  0.00  0.00     0.000 A 
ATOM      3  C3  BNZ d   1      -5.095  -1.198   0.565  0.00  0.00     0.000 A 
ATOM      4  C4  BNZ d   1      -3.775  -1.434   0.417  0.00  0.00     0.000 A 
ATOM      5  C5  BNZ d   1      -3.307  -2.727   0.286  0.00  0.00     0.000 A 
ATOM      6  C6  BNZ d   1      -4.190  -3.782   0.297  0.00  0.00     0.000 A 
ENDROOT
TORSDOF 0
ENDMDL
