MODEL 1
REMARK minimizedAffinity 2.95104027
REMARK minimizedRMSD -1
REMARK  0 active torsions:
REMARK  status: ('A' for Active; 'I' for Inactive)
ROOT
ATOM      1  C1  BNZ d   1       2.289  -0.343  -4.560  0.00  0.00     0.000 A 
ATOM      2  C2  BNZ d   1       1.103  -1.010  -4.407  0.00  0.00     0.000 A 
ATOM      3  C3  BNZ d   1      -0.023  -0.597  -5.064  0.00  0.00     0.000 A 
ATOM      4  C4  BNZ d   1       0.030   0.504  -5.842  0.00  0.00     0.000 A 
ATOM      5  C5  BNZ d   1       1.216   1.193  -5.999  0.00  0.00     0.000 A 
ATOM      6  C6  BNZ d   1       2.356   0.752  -5.366  0.00  0.00     0.000 A 
ENDROOT
TORSDOF 0
ENDMDL
