MODEL 1
REMARK minimizedAffinity 2.7038157
REMARK minimizedRMSD -1
REMARK  0 active torsions:
REMARK  status: ('A' for Active; 'I' for Inactive)
ROOT
ATOM      1  C1  BNZ d   1       2.744   2.192  -4.239  0.00  0.00     0.000 A 
ATOM      2  C2  BNZ d   1       3.625   2.598  -5.206  0.00  0.00     0.000 A 
ATOM      3  C3  BNZ d   1       4.082   3.886  -5.240  0.00  0.00     0.000 A 
ATOM      4  C4  BNZ d   1       3.627   4.775  -4.334  0.00  0.00     0.000 A 
ATOM      5  C5  BNZ d   1       2.731   4.384  -3.359  0.00  0.00     0.000 A 
ATOM      6  C6  BNZ d   1       2.303   3.077  -3.304  0.00  0.00     0.000 A 
ENDROOT
TORSDOF 0
ENDMDL
