MODEL 1
REMARK minimizedAffinity 4.02586126
REMARK minimizedRMSD -1
REMARK  0 active torsions:
REMARK  status: ('A' for Active; 'I' for Inactive)
ROOT
ATOM      1  C1  BNZ d   1      -4.443  -1.929   0.408  0.00  0.00     0.000 A 
ATOM      2  C2  BNZ d   1      -5.196  -2.812  -0.320  0.00  0.00     0.000 A 
ATOM      3  C3  BNZ d   1      -4.746  -4.079  -0.564  0.00  0.00     0.000 A 
ATOM      4  C4  BNZ d   1      -3.529  -4.449  -0.115  0.00  0.00     0.000 A 
ATOM      5  C5  BNZ d   1      -2.755  -3.567   0.612  0.00  0.00     0.000 A 
ATOM      6  C6  BNZ d   1      -3.227  -2.305   0.889  0.00  0.00     0.000 A 
ENDROOT
TORSDOF 0
ENDMDL
