MODEL 1
REMARK minimizedAffinity 23.3296871
REMARK minimizedRMSD -1
REMARK  0 active torsions:
REMARK  status: ('A' for Active; 'I' for Inactive)
ROOT
ATOM      1  C1  BNZ d   1      -3.090  -2.695   1.480  0.00  0.00     0.000 A 
ATOM      2  C2  BNZ d   1      -4.298  -3.332   1.580  0.00  0.00     0.000 A 
ATOM      3  C3  BNZ d   1      -5.459  -2.685   1.257  0.00  0.00     0.000 A 
ATOM      4  C4  BNZ d   1      -5.413  -1.394   0.872  0.00  0.00     0.000 A 
ATOM      5  C5  BNZ d   1      -4.203  -0.736   0.774  0.00  0.00     0.000 A 
ATOM      6  C6  BNZ d   1      -3.034  -1.401   1.063  0.00  0.00     0.000 A 
ENDROOT
TORSDOF 0
ENDMDL
