MODEL 1
REMARK minimizedAffinity 3.02392054
REMARK minimizedRMSD -1
REMARK  0 active torsions:
REMARK  status: ('A' for Active; 'I' for Inactive)
ROOT
ATOM      1  C1  BNZ d   1      -5.461   3.600   3.691  0.00  0.00     0.000 A 
ATOM      2  C2  BNZ d   1      -5.514   4.968   3.705  0.00  0.00     0.000 A 
ATOM      3  C3  BNZ d   1      -5.764   5.647   4.865  0.00  0.00     0.000 A 
ATOM      4  C4  BNZ d   1      -6.000   4.957   6.000  0.00  0.00     0.000 A 
ATOM      5  C5  BNZ d   1      -5.959   3.577   6.000  0.00  0.00     0.000 A 
ATOM      6  C6  BNZ d   1      -5.668   2.898   4.839  0.00  0.00     0.000 A 
ENDROOT
TORSDOF 0
ENDMDL
