MODEL 1
REMARK minimizedAffinity 8.29771614
REMARK minimizedRMSD -1
REMARK  0 active torsions:
REMARK  status: ('A' for Active; 'I' for Inactive)
ROOT
ATOM      1  C1  BNZ d   1      -5.371  -1.574  -0.317  0.00  0.00     0.000 A 
ATOM      2  C2  BNZ d   1      -4.997  -2.671  -1.047  0.00  0.00     0.000 A 
ATOM      3  C3  BNZ d   1      -4.489  -3.781  -0.433  0.00  0.00     0.000 A 
ATOM      4  C4  BNZ d   1      -4.319  -3.779   0.905  0.00  0.00     0.000 A 
ATOM      5  C5  BNZ d   1      -4.682  -2.678   1.654  0.00  0.00     0.000 A 
ATOM      6  C6  BNZ d   1      -5.229  -1.577   1.036  0.00  0.00     0.000 A 
ENDROOT
TORSDOF 0
ENDMDL
