MODEL 1
REMARK minimizedAffinity 3.01464248
REMARK minimizedRMSD -1
REMARK  0 active torsions:
REMARK  status: ('A' for Active; 'I' for Inactive)
ROOT
ATOM      1  C1  BNZ d   1      -0.814   1.903   1.733  0.00  0.00     0.000 A 
ATOM      2  C2  BNZ d   1      -1.334   3.011   2.347  0.00  0.00     0.000 A 
ATOM      3  C3  BNZ d   1      -2.574   3.479   2.013  0.00  0.00     0.000 A 
ATOM      4  C4  BNZ d   1      -3.275   2.864   1.039  0.00  0.00     0.000 A 
ATOM      5  C5  BNZ d   1      -2.761   1.752   0.404  0.00  0.00     0.000 A 
ATOM      6  C6  BNZ d   1      -1.529   1.260   0.769  0.00  0.00     0.000 A 
ENDROOT
TORSDOF 0
ENDMDL
