MODEL 1
REMARK minimizedAffinity 8.04417801
REMARK minimizedRMSD -1
REMARK  0 active torsions:
REMARK  status: ('A' for Active; 'I' for Inactive)
ROOT
ATOM      1  C1  BNZ d   1      -3.451  -1.360   1.065  0.00  0.00     0.000 A 
ATOM      2  C2  BNZ d   1      -2.841  -2.542   0.739  0.00  0.00     0.000 A 
ATOM      3  C3  BNZ d   1      -3.557  -3.575   0.201  0.00  0.00     0.000 A 
ATOM      4  C4  BNZ d   1      -4.888  -3.439   0.028  0.00  0.00     0.000 A 
ATOM      5  C5  BNZ d   1      -5.519  -2.257   0.360  0.00  0.00     0.000 A 
ATOM      6  C6  BNZ d   1      -4.788  -1.206   0.865  0.00  0.00     0.000 A 
ENDROOT
TORSDOF 0
ENDMDL
