MODEL 1
REMARK minimizedAffinity -3.54771972
REMARK minimizedRMSD -1
REMARK  1 active torsions:
REMARK  status: ('A' for Active; 'I' for Inactive)
REMARK    1  A    between atoms: C1_2  and  C2_3 
ROOT
ATOM      1  C2  UNL d   1       5.802  -3.318   3.614  0.00  0.00    -0.076 A 
ATOM      2  C3  UNL d   1       5.822  -4.654   4.052  0.00  0.00     0.004 A 
ATOM      3  C4  UNL d   1       5.919  -5.706   3.143  0.00  0.00    -0.003 A 
ATOM      4  C5  UNL d   1       6.000  -5.440   1.781  0.00  0.00     0.000 A 
ATOM      5  C6  UNL d   1       5.999  -4.120   1.329  0.00  0.00     0.000 A 
ATOM      6  C7  UNL d   1       5.918  -3.047   2.234  0.00  0.00    -0.073 A 
ATOM      7  C8  UNL d   1       5.915  -1.645   1.691  0.00  0.00     0.078 C 
ENDROOT
BRANCH   1   8
ATOM      8  C1  UNL d   1       5.667  -2.220   4.644  0.00  0.00     0.053 C 
ATOM      9  C   UNL d   1       4.863  -2.656   5.859  0.00  0.00     0.018 C 
ENDBRANCH   1   8
TORSDOF 1
ENDMDL
