MODEL 1
REMARK minimizedAffinity -2.15514851
REMARK minimizedRMSD -1
REMARK  1 active torsions:
REMARK  status: ('A' for Active; 'I' for Inactive)
REMARK    1  A    between atoms: C1_2  and  C2_3 
ROOT
ATOM      1  C2  UNL d   1       5.955  -3.969   4.045  0.00  0.00    -0.076 A 
ATOM      2  C3  UNL d   1       5.978  -4.933   3.022  0.00  0.00     0.004 A 
ATOM      3  C4  UNL d   1       6.000  -4.555   1.681  0.00  0.00    -0.003 A 
ATOM      4  C5  UNL d   1       5.999  -3.206   1.341  0.00  0.00     0.000 A 
ATOM      5  C6  UNL d   1       5.994  -2.237   2.343  0.00  0.00     0.000 A 
ATOM      6  C7  UNL d   1       5.988  -2.601   3.700  0.00  0.00    -0.073 A 
ATOM      7  C8  UNL d   1       5.977  -1.513   4.739  0.00  0.00     0.078 C 
ENDROOT
BRANCH   1   8
ATOM      8  C1  UNL d   1       5.904  -4.438   5.482  0.00  0.00     0.053 C 
ATOM      9  C   UNL d   1       5.952  -5.954   5.601  0.00  0.00     0.018 C 
ENDBRANCH   1   8
TORSDOF 1
ENDMDL
