MODEL 1
REMARK minimizedAffinity -3.55820894
REMARK minimizedRMSD -1
REMARK  1 active torsions:
REMARK  status: ('A' for Active; 'I' for Inactive)
REMARK    1  A    between atoms: C1_2  and  C2_3 
ROOT
ATOM      1  C2  UNL d   1       5.590  -4.469   4.630  0.00  0.00    -0.076 A 
ATOM      2  C3  UNL d   1       5.747  -5.134   3.402  0.00  0.00     0.004 A 
ATOM      3  C4  UNL d   1       5.950  -4.422   2.221  0.00  0.00    -0.003 A 
ATOM      4  C5  UNL d   1       6.000  -3.033   2.249  0.00  0.00     0.000 A 
ATOM      5  C6  UNL d   1       5.863  -2.357   3.461  0.00  0.00     0.000 A 
ATOM      6  C7  UNL d   1       5.674  -3.061   4.663  0.00  0.00    -0.073 A 
ATOM      7  C8  UNL d   1       5.527  -2.281   5.941  0.00  0.00     0.078 C 
ENDROOT
BRANCH   1   8
ATOM      8  C1  UNL d   1       5.345  -5.293   5.874  0.00  0.00     0.053 C 
ATOM      9  C   UNL d   1       3.897  -5.743   5.999  0.00  0.00     0.018 C 
ENDBRANCH   1   8
TORSDOF 1
ENDMDL
