MODEL 1
REMARK minimizedAffinity -3.44454002
REMARK minimizedRMSD -1
REMARK  1 active torsions:
REMARK  status: ('A' for Active; 'I' for Inactive)
REMARK    1  A    between atoms: C1_2  and  C2_3 
ROOT
ATOM      1  C2  UNL d   1       5.823  -4.359   3.946  0.00  0.00    -0.076 A 
ATOM      2  C3  UNL d   1       5.643  -3.307   4.861  0.00  0.00     0.004 A 
ATOM      3  C4  UNL d   1       5.500  -1.992   4.423  0.00  0.00    -0.003 A 
ATOM      4  C5  UNL d   1       5.534  -1.707   3.062  0.00  0.00     0.000 A 
ATOM      5  C6  UNL d   1       5.694  -2.740   2.139  0.00  0.00     0.000 A 
ATOM      6  C7  UNL d   1       5.823  -4.074   2.563  0.00  0.00    -0.073 A 
ATOM      7  C8  UNL d   1       5.999  -5.148   1.525  0.00  0.00     0.078 C 
ENDROOT
BRANCH   1   8
ATOM      8  C1  UNL d   1       6.000  -5.762   4.481  0.00  0.00     0.053 C 
ATOM      9  C   UNL d   1       5.940  -5.818   5.999  0.00  0.00     0.018 C 
ENDBRANCH   1   8
TORSDOF 1
ENDMDL
