MODEL 1
REMARK minimizedAffinity -1.6225239
REMARK minimizedRMSD -1
REMARK  1 active torsions:
REMARK  status: ('A' for Active; 'I' for Inactive)
REMARK    1  A    between atoms: C1_2  and  C2_3 
ROOT
ATOM      1  C2  UNL d   1       5.164  -4.704   3.725  0.00  0.00    -0.076 A 
ATOM      2  C3  UNL d   1       4.899  -3.469   4.343  0.00  0.00     0.004 A 
ATOM      3  C4  UNL d   1       5.188  -2.268   3.698  0.00  0.00    -0.003 A 
ATOM      4  C5  UNL d   1       5.746  -2.282   2.424  0.00  0.00     0.000 A 
ATOM      5  C6  UNL d   1       6.000  -3.497   1.789  0.00  0.00     0.000 A 
ATOM      6  C7  UNL d   1       5.699  -4.717   2.419  0.00  0.00    -0.073 A 
ATOM      7  C8  UNL d   1       5.999  -5.999   1.690  0.00  0.00     0.078 C 
ENDROOT
BRANCH   1   8
ATOM      8  C1  UNL d   1       4.855  -5.975   4.484  0.00  0.00     0.053 C 
ATOM      9  C   UNL d   1       5.482  -5.993   5.870  0.00  0.00     0.018 C 
ENDBRANCH   1   8
TORSDOF 1
ENDMDL
