MODEL 1
REMARK minimizedAffinity -3.47541833
REMARK minimizedRMSD -1
REMARK  1 active torsions:
REMARK  status: ('A' for Active; 'I' for Inactive)
REMARK    1  A    between atoms: C1_2  and  C2_3 
ROOT
ATOM      1  C2  UNL d   1       5.941  -4.434   4.311  0.00  0.00    -0.076 A 
ATOM      2  C3  UNL d   1       5.978  -5.102   3.075  0.00  0.00     0.004 A 
ATOM      3  C4  UNL d   1       6.000  -4.391   1.876  0.00  0.00    -0.003 A 
ATOM      4  C5  UNL d   1       5.986  -3.001   1.894  0.00  0.00     0.000 A 
ATOM      5  C6  UNL d   1       5.967  -2.322   3.111  0.00  0.00     0.000 A 
ATOM      6  C7  UNL d   1       5.962  -3.023   4.329  0.00  0.00    -0.073 A 
ATOM      7  C8  UNL d   1       5.935  -2.239   5.613  0.00  0.00     0.078 C 
ENDROOT
BRANCH   1   8
ATOM      8  C1  UNL d   1       5.891  -5.257   5.578  0.00  0.00     0.053 C 
ATOM      9  C   UNL d   1       4.469  -5.592   6.000  0.00  0.00     0.018 C 
ENDBRANCH   1   8
TORSDOF 1
ENDMDL
