MODEL 1
REMARK minimizedAffinity -0.768072128
REMARK minimizedRMSD -1
REMARK  1 active torsions:
REMARK  status: ('A' for Active; 'I' for Inactive)
REMARK    1  A    between atoms: C1_2  and  C2_3 
ROOT
ATOM      1  C2  UNL d   1       5.242  -4.594   3.982  0.00  0.00    -0.076 A 
ATOM      2  C3  UNL d   1       5.721  -4.719   2.666  0.00  0.00     0.004 A 
ATOM      3  C4  UNL d   1       5.999  -3.593   1.893  0.00  0.00    -0.003 A 
ATOM      4  C5  UNL d   1       5.804  -2.323   2.424  0.00  0.00     0.000 A 
ATOM      5  C6  UNL d   1       5.347  -2.180   3.734  0.00  0.00     0.000 A 
ATOM      6  C7  UNL d   1       5.077  -3.305   4.532  0.00  0.00    -0.073 A 
ATOM      7  C8  UNL d   1       4.580  -3.092   5.935  0.00  0.00     0.078 C 
ENDROOT
BRANCH   1   8
ATOM      8  C1  UNL d   1       4.932  -5.851   4.762  0.00  0.00     0.053 C 
ATOM      9  C   UNL d   1       5.804  -5.999   5.999  0.00  0.00     0.018 C 
ENDBRANCH   1   8
TORSDOF 1
ENDMDL
