MODEL 1
REMARK minimizedAffinity -3.40910244
REMARK minimizedRMSD -1
REMARK  1 active torsions:
REMARK  status: ('A' for Active; 'I' for Inactive)
REMARK    1  A    between atoms: C1_2  and  C2_3 
ROOT
ATOM      1  C2  UNL d   1       5.964  -4.367   4.260  0.00  0.00    -0.076 A 
ATOM      2  C3  UNL d   1       5.980  -5.031   3.021  0.00  0.00     0.004 A 
ATOM      3  C4  UNL d   1       5.994  -4.316   1.825  0.00  0.00    -0.003 A 
ATOM      4  C5  UNL d   1       5.994  -2.926   1.847  0.00  0.00     0.000 A 
ATOM      5  C6  UNL d   1       5.996  -2.251   3.067  0.00  0.00     0.000 A 
ATOM      6  C7  UNL d   1       5.998  -2.956   4.283  0.00  0.00    -0.073 A 
ATOM      7  C8  UNL d   1       5.994  -2.177   5.570  0.00  0.00     0.078 C 
ENDROOT
BRANCH   1   8
ATOM      8  C1  UNL d   1       5.921  -5.194   5.525  0.00  0.00     0.053 C 
ATOM      9  C   UNL d   1       4.508  -5.620   5.895  0.00  0.00     0.018 C 
ENDBRANCH   1   8
TORSDOF 1
ENDMDL
