MODEL 1
REMARK minimizedAffinity -1.1427356
REMARK minimizedRMSD -1
REMARK  1 active torsions:
REMARK  status: ('A' for Active; 'I' for Inactive)
REMARK    1  A    between atoms: C1_2  and  C2_3 
ROOT
ATOM      1  C2  UNL d   1       5.857  -3.754   3.733  0.00  0.00    -0.076 A 
ATOM      2  C3  UNL d   1       6.000  -4.503   2.553  0.00  0.00     0.004 A 
ATOM      3  C4  UNL d   1       5.996  -3.883   1.304  0.00  0.00    -0.003 A 
ATOM      4  C5  UNL d   1       5.851  -2.503   1.217  0.00  0.00     0.000 A 
ATOM      5  C6  UNL d   1       5.725  -1.742   2.378  0.00  0.00     0.000 A 
ATOM      6  C7  UNL d   1       5.743  -2.350   3.645  0.00  0.00    -0.073 A 
ATOM      7  C8  UNL d   1       5.598  -1.481   4.865  0.00  0.00     0.078 C 
ENDROOT
BRANCH   1   8
ATOM      8  C1  UNL d   1       5.840  -4.484   5.057  0.00  0.00     0.053 C 
ATOM      9  C   UNL d   1       4.458  -4.511   5.691  0.00  0.00     0.018 C 
ENDBRANCH   1   8
TORSDOF 1
ENDMDL
