MODEL 1
REMARK minimizedAffinity -3.0083282
REMARK minimizedRMSD -1
REMARK  1 active torsions:
REMARK  status: ('A' for Active; 'I' for Inactive)
REMARK    1  A    between atoms: C1_2  and  C2_3 
ROOT
ATOM      1  C2  UNL d   1       5.797  -4.154   4.398  0.00  0.00    -0.076 A 
ATOM      2  C3  UNL d   1       5.592  -3.083   5.285  0.00  0.00     0.004 A 
ATOM      3  C4  UNL d   1       5.426  -1.782   4.812  0.00  0.00    -0.003 A 
ATOM      4  C5  UNL d   1       5.461  -1.532   3.445  0.00  0.00     0.000 A 
ATOM      5  C6  UNL d   1       5.645  -2.585   2.550  0.00  0.00     0.000 A 
ATOM      6  C7  UNL d   1       5.798  -3.904   3.009  0.00  0.00    -0.073 A 
ATOM      7  C8  UNL d   1       6.000  -5.001   1.999  0.00  0.00     0.078 C 
ENDROOT
BRANCH   1   8
ATOM      8  C1  UNL d   1       5.998  -5.539   4.970  0.00  0.00     0.053 C 
ATOM      9  C   UNL d   1       4.940  -5.904   5.999  0.00  0.00     0.018 C 
ENDBRANCH   1   8
TORSDOF 1
ENDMDL
