MODEL 1
REMARK minimizedAffinity -2.45730376
REMARK minimizedRMSD -1
REMARK  1 active torsions:
REMARK  status: ('A' for Active; 'I' for Inactive)
REMARK    1  A    between atoms: C1_2  and  C2_3 
ROOT
ATOM      1  C2  UNL d   1       5.745  -4.244   3.728  0.00  0.00    -0.076 A 
ATOM      2  C3  UNL d   1       5.883  -2.892   3.370  0.00  0.00     0.004 A 
ATOM      3  C4  UNL d   1       5.700  -1.879   4.310  0.00  0.00    -0.003 A 
ATOM      4  C5  UNL d   1       5.376  -2.202   5.623  0.00  0.00     0.000 A 
ATOM      5  C6  UNL d   1       5.253  -3.539   6.000  0.00  0.00     0.000 A 
ATOM      6  C7  UNL d   1       5.451  -4.573   5.069  0.00  0.00    -0.073 A 
ATOM      7  C8  UNL d   1       5.299  -5.997   5.528  0.00  0.00     0.078 C 
ENDROOT
BRANCH   1   8
ATOM      8  C1  UNL d   1       5.928  -5.298   2.660  0.00  0.00     0.053 C 
ATOM      9  C   UNL d   1       5.993  -4.705   1.261  0.00  0.00     0.018 C 
ENDBRANCH   1   8
TORSDOF 1
ENDMDL
