MODEL 1
REMARK minimizedAffinity -3.72123027
REMARK minimizedRMSD -1
REMARK  1 active torsions:
REMARK  status: ('A' for Active; 'I' for Inactive)
REMARK    1  A    between atoms: C1_2  and  C2_3 
ROOT
ATOM      1  C2  UNL d   1       5.401  -4.778   4.094  0.00  0.00    -0.076 A 
ATOM      2  C3  UNL d   1       5.704  -5.976   3.424  0.00  0.00     0.004 A 
ATOM      3  C4  UNL d   1       6.000  -5.980   2.062  0.00  0.00    -0.003 A 
ATOM      4  C5  UNL d   1       5.998  -4.787   1.348  0.00  0.00     0.000 A 
ATOM      5  C6  UNL d   1       5.717  -3.587   2.001  0.00  0.00     0.000 A 
ATOM      6  C7  UNL d   1       5.432  -3.563   3.377  0.00  0.00    -0.073 A 
ATOM      7  C8  UNL d   1       5.130  -2.241   4.028  0.00  0.00     0.078 C 
ENDROOT
BRANCH   1   8
ATOM      8  C1  UNL d   1       5.061  -4.838   5.566  0.00  0.00     0.053 C 
ATOM      9  C   UNL d   1       4.128  -5.991   5.902  0.00  0.00     0.018 C 
ENDBRANCH   1   8
TORSDOF 1
ENDMDL
