MODEL 1
REMARK minimizedAffinity -3.12926102
REMARK minimizedRMSD -1
REMARK  1 active torsions:
REMARK  status: ('A' for Active; 'I' for Inactive)
REMARK    1  A    between atoms: C1_2  and  C2_3 
ROOT
ATOM      1  C2  UNL d   1       5.353  -3.203   4.224  0.00  0.00    -0.076 A 
ATOM      2  C3  UNL d   1       6.000  -4.332   3.692  0.00  0.00     0.004 A 
ATOM      3  C4  UNL d   1       5.882  -5.580   4.301  0.00  0.00    -0.003 A 
ATOM      4  C5  UNL d   1       5.116  -5.720   5.453  0.00  0.00     0.000 A 
ATOM      5  C6  UNL d   1       4.453  -4.614   5.984  0.00  0.00     0.000 A 
ATOM      6  C7  UNL d   1       4.547  -3.352   5.373  0.00  0.00    -0.073 A 
ATOM      7  C8  UNL d   1       3.816  -2.193   5.993  0.00  0.00     0.078 C 
ENDROOT
BRANCH   1   8
ATOM      8  C1  UNL d   1       5.539  -1.870   3.535  0.00  0.00     0.053 C 
ATOM      9  C   UNL d   1       6.000  -2.019   2.093  0.00  0.00     0.018 C 
ENDBRANCH   1   8
TORSDOF 1
ENDMDL
