MODEL 1
REMARK minimizedAffinity -4.12874222
REMARK minimizedRMSD -1
REMARK  0 active torsions:
REMARK  status: ('A' for Active; 'I' for Inactive)
ROOT
ATOM      1  C   UNL d   1      -0.411   1.361   2.742  0.00  0.00     0.020 A 
ATOM      2  C1  UNL d   1       0.895   1.201   2.281  0.00  0.00     0.020 A 
ATOM      3  C2  UNL d   1       1.128   0.642   1.023  0.00  0.00     0.034 A 
ATOM      4  C3  UNL d   1       0.053   0.241   0.221  0.00  0.00     0.017 A 
ATOM      5  C4  UNL d   1      -1.258   0.403   0.684  0.00  0.00     0.017 A 
ATOM      6  C5  UNL d   1      -1.485   0.963   1.945  0.00  0.00     0.034 A 
ATOM      7 Cl   UNL d   1      -2.635  -0.067  -0.249  0.00  0.00    -0.070 Cl
ATOM      8 Cl1  UNL d   1       0.414  -0.442  -1.325  0.00  0.00    -0.070 Cl
ENDROOT
TORSDOF 0
ENDMDL
