MODEL 1
REMARK minimizedAffinity 6.1686182
REMARK minimizedRMSD -1
REMARK  0 active torsions:
REMARK  status: ('A' for Active; 'I' for Inactive)
ROOT
ATOM      1  C   UNL d   1      -1.725  -0.188   2.851  0.00  0.00     0.020 A 
ATOM      2  C1  UNL d   1      -2.612  -0.116   1.777  0.00  0.00     0.020 A 
ATOM      3  C2  UNL d   1      -2.128  -0.158   0.468  0.00  0.00     0.034 A 
ATOM      4  C3  UNL d   1      -0.754  -0.272   0.228  0.00  0.00     0.017 A 
ATOM      5  C4  UNL d   1       0.136  -0.344   1.307  0.00  0.00     0.017 A 
ATOM      6  C5  UNL d   1      -0.354  -0.302   2.616  0.00  0.00     0.034 A 
ATOM      7 Cl   UNL d   1       1.845  -0.486   1.091  0.00  0.00    -0.070 Cl
ATOM      8 Cl1  UNL d   1      -0.226  -0.318  -1.416  0.00  0.00    -0.070 Cl
ENDROOT
TORSDOF 0
ENDMDL
