MODEL 1
REMARK minimizedAffinity -3.95979929
REMARK minimizedRMSD -1
REMARK  0 active torsions:
REMARK  status: ('A' for Active; 'I' for Inactive)
ROOT
ATOM      1  C   UNL d   1      -0.043  -0.384  -0.225  0.00  0.00     0.020 A 
ATOM      2  C1  UNL d   1      -1.375  -0.191   0.141  0.00  0.00     0.020 A 
ATOM      3  C2  UNL d   1      -1.683   0.400   1.368  0.00  0.00     0.034 A 
ATOM      4  C3  UNL d   1      -0.659   0.799   2.234  0.00  0.00     0.017 A 
ATOM      5  C4  UNL d   1       0.678   0.604   1.866  0.00  0.00     0.017 A 
ATOM      6  C5  UNL d   1       0.981   0.012   0.636  0.00  0.00     0.034 A 
ATOM      7 Cl   UNL d   1       1.996   1.070   2.882  0.00  0.00    -0.070 Cl
ATOM      8 Cl1  UNL d   1      -1.113   1.522   3.736  0.00  0.00    -0.070 Cl
ENDROOT
TORSDOF 0
ENDMDL
