MODEL 1
REMARK minimizedAffinity -2.86898232
REMARK minimizedRMSD -1
REMARK  0 active torsions:
REMARK  status: ('A' for Active; 'I' for Inactive)
ROOT
ATOM      1  C   UNL d   1      -0.637  -0.354  -1.210  0.00  0.00     0.020 A 
ATOM      2  C1  UNL d   1       0.672  -0.819  -1.331  0.00  0.00     0.020 A 
ATOM      3  C2  UNL d   1       1.574  -0.645  -0.280  0.00  0.00     0.034 A 
ATOM      4  C3  UNL d   1       1.169  -0.005   0.897  0.00  0.00     0.017 A 
ATOM      5  C4  UNL d   1      -0.145   0.461   1.018  0.00  0.00     0.017 A 
ATOM      6  C5  UNL d   1      -1.044   0.284  -0.038  0.00  0.00     0.034 A 
ATOM      7 Cl   UNL d   1      -0.718   1.261   2.439  0.00  0.00    -0.070 Cl
ATOM      8 Cl1  UNL d   1       2.338   0.176   2.157  0.00  0.00    -0.070 Cl
ENDROOT
TORSDOF 0
ENDMDL
