MODEL 1
REMARK minimizedAffinity -2.67003155
REMARK minimizedRMSD -1
REMARK  0 active torsions:
REMARK  status: ('A' for Active; 'I' for Inactive)
ROOT
ATOM      1  C   UNL d   1       1.851   0.567  -3.802  0.00  0.00     0.020 A 
ATOM      2  C1  UNL d   1       0.789   1.433  -3.547  0.00  0.00     0.020 A 
ATOM      3  C2  UNL d   1      -0.001   1.255  -2.409  0.00  0.00     0.034 A 
ATOM      4  C3  UNL d   1       0.271   0.207  -1.522  0.00  0.00     0.017 A 
ATOM      5  C4  UNL d   1       1.337  -0.663  -1.778  0.00  0.00     0.017 A 
ATOM      6  C5  UNL d   1       2.125  -0.479  -2.919  0.00  0.00     0.034 A 
ATOM      7 Cl   UNL d   1       1.733  -1.978  -0.730  0.00  0.00    -0.070 Cl
ATOM      8 Cl1  UNL d   1      -0.747   0.045  -0.134  0.00  0.00    -0.070 Cl
ENDROOT
TORSDOF 0
ENDMDL
