MODEL 1
REMARK minimizedAffinity -3.77292109
REMARK minimizedRMSD -1
REMARK  0 active torsions:
REMARK  status: ('A' for Active; 'I' for Inactive)
ROOT
ATOM      1  C   UNL d   1      -0.592  -0.268  -1.455  0.00  0.00     0.020 A 
ATOM      2  C1  UNL d   1      -1.743   0.322  -0.935  0.00  0.00     0.020 A 
ATOM      3  C2  UNL d   1      -1.774   0.735   0.399  0.00  0.00     0.034 A 
ATOM      4  C3  UNL d   1      -0.653   0.557   1.217  0.00  0.00     0.017 A 
ATOM      5  C4  UNL d   1       0.502  -0.036   0.694  0.00  0.00     0.017 A 
ATOM      6  C5  UNL d   1       0.528  -0.447  -0.642  0.00  0.00     0.034 A 
ATOM      7 Cl   UNL d   1       1.925  -0.288   1.642  0.00  0.00    -0.070 Cl
ATOM      8 Cl1  UNL d   1      -0.762   1.091   2.857  0.00  0.00    -0.070 Cl
ENDROOT
TORSDOF 0
ENDMDL
