MODEL 1
REMARK minimizedAffinity 0.559691727
REMARK minimizedRMSD -1
REMARK  0 active torsions:
REMARK  status: ('A' for Active; 'I' for Inactive)
ROOT
ATOM      1  C   UNL d   1      -2.106   0.510   1.271  0.00  0.00     0.020 A 
ATOM      2  C1  UNL d   1      -1.422   0.195   2.444  0.00  0.00     0.020 A 
ATOM      3  C2  UNL d   1      -0.109  -0.277   2.381  0.00  0.00     0.034 A 
ATOM      4  C3  UNL d   1       0.524  -0.435   1.143  0.00  0.00     0.017 A 
ATOM      5  C4  UNL d   1      -0.164  -0.118  -0.034  0.00  0.00     0.017 A 
ATOM      6  C5  UNL d   1      -1.478   0.353   0.034  0.00  0.00     0.034 A 
ATOM      7 Cl   UNL d   1       0.551  -0.287  -1.599  0.00  0.00    -0.070 Cl
ATOM      8 Cl1  UNL d   1       2.149  -1.022   1.140  0.00  0.00    -0.070 Cl
ENDROOT
TORSDOF 0
ENDMDL
