MODEL 1
REMARK minimizedAffinity 1.48481607
REMARK minimizedRMSD -1
REMARK  0 active torsions:
REMARK  status: ('A' for Active; 'I' for Inactive)
ROOT
ATOM      1  C   UNL d   1       0.016  -0.686   4.260  0.00  0.00     0.020 A 
ATOM      2  C1  UNL d   1      -0.573   0.573   4.361  0.00  0.00     0.020 A 
ATOM      3  C2  UNL d   1      -0.486   1.472   3.296  0.00  0.00     0.034 A 
ATOM      4  C3  UNL d   1       0.192   1.113   2.125  0.00  0.00     0.017 A 
ATOM      5  C4  UNL d   1       0.783  -0.152   2.024  0.00  0.00     0.017 A 
ATOM      6  C5  UNL d   1       0.693  -1.048   3.094  0.00  0.00     0.034 A 
ATOM      7 Cl   UNL d   1       1.635  -0.667   0.612  0.00  0.00    -0.070 Cl
ATOM      8 Cl1  UNL d   1       0.259   2.274   0.847  0.00  0.00    -0.070 Cl
ENDROOT
TORSDOF 0
ENDMDL
