MODEL 1
REMARK minimizedAffinity -4.46987438
REMARK minimizedRMSD -1
REMARK  0 active torsions:
REMARK  status: ('A' for Active; 'I' for Inactive)
ROOT
ATOM      1  C   UNL d   1      -0.701   1.390   2.819  0.00  0.00     0.020 A 
ATOM      2  C1  UNL d   1       0.620   1.519   2.390  0.00  0.00     0.020 A 
ATOM      3  C2  UNL d   1       1.031   0.912   1.202  0.00  0.00     0.034 A 
ATOM      4  C3  UNL d   1       0.121   0.172   0.439  0.00  0.00     0.017 A 
ATOM      5  C4  UNL d   1      -1.204   0.042   0.870  0.00  0.00     0.017 A 
ATOM      6  C5  UNL d   1      -1.611   0.653   2.060  0.00  0.00     0.034 A 
ATOM      7 Cl   UNL d   1      -2.385  -0.855  -0.019  0.00  0.00    -0.070 Cl
ATOM      8 Cl1  UNL d   1       0.698  -0.553  -1.020  0.00  0.00    -0.070 Cl
ENDROOT
TORSDOF 0
ENDMDL
