MODEL 1
REMARK minimizedAffinity -0.824388921
REMARK minimizedRMSD -1
REMARK  0 active torsions:
REMARK  status: ('A' for Active; 'I' for Inactive)
ROOT
ATOM      1  C   UNL d   1      -1.257   1.801   2.410  0.00  0.00     0.020 A 
ATOM      2  C1  UNL d   1      -0.171   2.428   1.799  0.00  0.00     0.020 A 
ATOM      3  C2  UNL d   1       0.387   1.885   0.640  0.00  0.00     0.034 A 
ATOM      4  C3  UNL d   1      -0.140   0.712   0.087  0.00  0.00     0.017 A 
ATOM      5  C4  UNL d   1      -1.230   0.084   0.701  0.00  0.00     0.017 A 
ATOM      6  C5  UNL d   1      -1.785   0.631   1.861  0.00  0.00     0.034 A 
ATOM      7 Cl   UNL d   1      -1.934  -1.366   0.078  0.00  0.00    -0.070 Cl
ATOM      8 Cl1  UNL d   1       0.599   0.098  -1.349  0.00  0.00    -0.070 Cl
ENDROOT
TORSDOF 0
ENDMDL
