MODEL 1
REMARK minimizedAffinity -5.09057283
REMARK minimizedRMSD -1
REMARK  0 active torsions:
REMARK  status: ('A' for Active; 'I' for Inactive)
ROOT
ATOM      1  C   UNL d   1      -0.773   1.414   2.638  0.00  0.00     0.020 A 
ATOM      2  C1  UNL d   1       0.575   1.375   2.284  0.00  0.00     0.020 A 
ATOM      3  C2  UNL d   1       0.974   0.692   1.133  0.00  0.00     0.034 A 
ATOM      4  C3  UNL d   1       0.025   0.044   0.333  0.00  0.00     0.017 A 
ATOM      5  C4  UNL d   1      -1.327   0.084   0.690  0.00  0.00     0.017 A 
ATOM      6  C5  UNL d   1      -1.722   0.770   1.843  0.00  0.00     0.034 A 
ATOM      7 Cl   UNL d   1      -2.556  -0.690  -0.247  0.00  0.00    -0.070 Cl
ATOM      8 Cl1  UNL d   1       0.591  -0.781  -1.075  0.00  0.00    -0.070 Cl
ENDROOT
TORSDOF 0
ENDMDL
