MODEL 1
REMARK minimizedAffinity -3.47730064
REMARK minimizedRMSD -1
REMARK  0 active torsions:
REMARK  status: ('A' for Active; 'I' for Inactive)
ROOT
ATOM      1  C   UNL d   1      -0.838   1.464   2.242  0.00  0.00     0.020 A 
ATOM      2  C1  UNL d   1      -0.168   2.489   1.575  0.00  0.00     0.020 A 
ATOM      3  C2  UNL d   1       0.265   2.300   0.261  0.00  0.00     0.034 A 
ATOM      4  C3  UNL d   1       0.029   1.084  -0.390  0.00  0.00     0.017 A 
ATOM      5  C4  UNL d   1      -0.644   0.056   0.280  0.00  0.00     0.017 A 
ATOM      6  C5  UNL d   1      -1.076   0.250   1.596  0.00  0.00     0.034 A 
ATOM      7 Cl   UNL d   1      -0.972  -1.472  -0.458  0.00  0.00    -0.070 Cl
ATOM      8 Cl1  UNL d   1       0.593   0.920  -2.015  0.00  0.00    -0.070 Cl
ENDROOT
TORSDOF 0
ENDMDL
