MODEL 1
REMARK minimizedAffinity -4.51551533
REMARK minimizedRMSD -1
REMARK  0 active torsions:
REMARK  status: ('A' for Active; 'I' for Inactive)
ROOT
ATOM      1  C   UNL d   1      -0.712   1.639   2.164  0.00  0.00     0.020 A 
ATOM      2  C1  UNL d   1      -0.246   0.636   3.013  0.00  0.00     0.020 A 
ATOM      3  C2  UNL d   1       0.561  -0.386   2.508  0.00  0.00     0.034 A 
ATOM      4  C3  UNL d   1       0.905  -0.407   1.152  0.00  0.00     0.017 A 
ATOM      5  C4  UNL d   1       0.437   0.600   0.301  0.00  0.00     0.017 A 
ATOM      6  C5  UNL d   1      -0.371   1.621   0.811  0.00  0.00     0.034 A 
ATOM      7 Cl   UNL d   1       0.819   0.641  -1.384  0.00  0.00    -0.070 Cl
ATOM      8 Cl1  UNL d   1       1.907  -1.701   0.597  0.00  0.00    -0.070 Cl
ENDROOT
TORSDOF 0
ENDMDL
