MODEL 1
REMARK minimizedAffinity -1.75176835
REMARK minimizedRMSD -1
REMARK  0 active torsions:
REMARK  status: ('A' for Active; 'I' for Inactive)
ROOT
ATOM      1  C   UNL d   1       0.082   1.743   2.278  0.00  0.00     0.020 A 
ATOM      2  C1  UNL d   1      -1.213   1.409   2.671  0.00  0.00     0.020 A 
ATOM      3  C2  UNL d   1      -1.981   0.547   1.885  0.00  0.00     0.034 A 
ATOM      4  C3  UNL d   1      -1.454   0.017   0.701  0.00  0.00     0.017 A 
ATOM      5  C4  UNL d   1      -0.153   0.354   0.308  0.00  0.00     0.017 A 
ATOM      6  C5  UNL d   1       0.611   1.217   1.099  0.00  0.00     0.034 A 
ATOM      7 Cl   UNL d   1       0.565  -0.261  -1.139  0.00  0.00    -0.070 Cl
ATOM      8 Cl1  UNL d   1      -2.459  -1.043  -0.222  0.00  0.00    -0.070 Cl
ENDROOT
TORSDOF 0
ENDMDL
