MODEL 1
REMARK minimizedAffinity -4.06284237
REMARK minimizedRMSD -1
REMARK  0 active torsions:
REMARK  status: ('A' for Active; 'I' for Inactive)
ROOT
ATOM      1  C   UNL d   1      -0.624  -0.217  -1.126  0.00  0.00     0.020 A 
ATOM      2  C1  UNL d   1      -1.800   0.339  -0.624  0.00  0.00     0.020 A 
ATOM      3  C2  UNL d   1      -1.846   0.805   0.692  0.00  0.00     0.034 A 
ATOM      4  C3  UNL d   1      -0.714   0.716   1.510  0.00  0.00     0.017 A 
ATOM      5  C4  UNL d   1       0.466   0.157   1.005  0.00  0.00     0.017 A 
ATOM      6  C5  UNL d   1       0.506  -0.307  -0.313  0.00  0.00     0.034 A 
ATOM      7 Cl   UNL d   1       1.903   0.013   1.954  0.00  0.00    -0.070 Cl
ATOM      8 Cl1  UNL d   1      -0.842   1.312   3.127  0.00  0.00    -0.070 Cl
ENDROOT
TORSDOF 0
ENDMDL
