MODEL 1
REMARK minimizedAffinity -1.53800821
REMARK minimizedRMSD -1
REMARK  0 active torsions:
REMARK  status: ('A' for Active; 'I' for Inactive)
ROOT
ATOM      1  C   UNL d   1       0.418  -0.785   1.134  0.00  0.00     0.172 C 
ATOM      2  N   UNL d   1       1.457  -0.707   0.134  0.00  0.00    -0.070 N 
ATOM      3  C1  UNL d   1       1.701   0.366  -0.681  0.00  0.00    -0.004 A 
ATOM      4  C2  UNL d   1       2.770   0.047  -1.490  0.00  0.00    -0.047 A 
ATOM      5  C3  UNL d   1       3.182  -1.264  -1.150  0.00  0.00    -0.047 A 
ATOM      6  C4  UNL d   1       2.352  -1.707  -0.142  0.00  0.00    -0.004 A 
ENDROOT
TORSDOF 0
ENDMDL
