MODEL 1
REMARK minimizedAffinity -0.811210454
REMARK minimizedRMSD -1
REMARK  0 active torsions:
REMARK  status: ('A' for Active; 'I' for Inactive)
ROOT
ATOM      1  C   UNL d   1       3.143  -0.415  -1.748  0.00  0.00     0.172 C 
ATOM      2  N   UNL d   1       2.222  -0.467  -0.637  0.00  0.00    -0.070 N 
ATOM      3  C1  UNL d   1       2.290  -1.342   0.414  0.00  0.00    -0.004 A 
ATOM      4  C2  UNL d   1       1.235  -1.069   1.258  0.00  0.00    -0.047 A 
ATOM      5  C3  UNL d   1       0.508   0.006   0.694  0.00  0.00    -0.047 A 
ATOM      6  C4  UNL d   1       1.141   0.359  -0.479  0.00  0.00    -0.004 A 
ENDROOT
TORSDOF 0
ENDMDL
