MODEL 1
REMARK minimizedAffinity -1.02617896
REMARK minimizedRMSD -1
REMARK  0 active torsions:
REMARK  status: ('A' for Active; 'I' for Inactive)
ROOT
ATOM      1  C   UNL d   1      -0.659  -0.704   2.363  0.00  0.00     0.172 C 
ATOM      2  N   UNL d   1       0.370  -0.501   1.370  0.00  0.00    -0.070 N 
ATOM      3  C1  UNL d   1       1.186   0.595   1.279  0.00  0.00    -0.004 A 
ATOM      4  C2  UNL d   1       2.028   0.406   0.204  0.00  0.00    -0.047 A 
ATOM      5  C3  UNL d   1       1.705  -0.846  -0.371  0.00  0.00    -0.047 A 
ATOM      6  C4  UNL d   1       0.676  -1.386   0.370  0.00  0.00    -0.004 A 
ENDROOT
TORSDOF 0
ENDMDL
