MODEL 1
REMARK minimizedAffinity -1.283952
REMARK minimizedRMSD -1
REMARK  0 active torsions:
REMARK  status: ('A' for Active; 'I' for Inactive)
ROOT
ATOM      1  C   UNL d   1       4.594  -0.047  -2.533  0.00  0.00     0.172 C 
ATOM      2  N   UNL d   1       3.378  -0.156  -1.763  0.00  0.00    -0.070 N 
ATOM      3  C1  UNL d   1       2.777  -1.326  -1.381  0.00  0.00    -0.004 A 
ATOM      4  C2  UNL d   1       1.644  -1.004  -0.664  0.00  0.00    -0.047 A 
ATOM      5  C3  UNL d   1       1.562   0.408  -0.614  0.00  0.00    -0.047 A 
ATOM      6  C4  UNL d   1       2.647   0.907  -1.302  0.00  0.00    -0.004 A 
ENDROOT
TORSDOF 0
ENDMDL
