MODEL 1
REMARK minimizedAffinity 0.811757445
REMARK minimizedRMSD -1
REMARK  0 active torsions:
REMARK  status: ('A' for Active; 'I' for Inactive)
ROOT
ATOM      1  C   UNL d   1       3.159  -1.535  -0.843  0.00  0.00     0.172 C 
ATOM      2  N   UNL d   1       2.170  -0.737  -0.157  0.00  0.00    -0.070 N 
ATOM      3  C1  UNL d   1       0.966  -1.189   0.313  0.00  0.00    -0.004 A 
ATOM      4  C2  UNL d   1       0.317  -0.126   0.902  0.00  0.00    -0.047 A 
ATOM      5  C3  UNL d   1       1.160   1.005   0.781  0.00  0.00    -0.047 A 
ATOM      6  C4  UNL d   1       2.300   0.598   0.122  0.00  0.00    -0.004 A 
ENDROOT
TORSDOF 0
ENDMDL
