MODEL 1
REMARK minimizedAffinity -0.868513703
REMARK minimizedRMSD -1
REMARK  0 active torsions:
REMARK  status: ('A' for Active; 'I' for Inactive)
ROOT
ATOM      1  C   UNL d   1       4.762  -0.535  -1.925  0.00  0.00     0.172 C 
ATOM      2  N   UNL d   1       3.514  -0.514  -1.199  0.00  0.00    -0.070 N 
ATOM      3  C1  UNL d   1       2.852  -1.611  -0.716  0.00  0.00    -0.004 A 
ATOM      4  C2  UNL d   1       1.708  -1.171  -0.087  0.00  0.00    -0.047 A 
ATOM      5  C3  UNL d   1       1.681   0.240  -0.196  0.00  0.00    -0.047 A 
ATOM      6  C4  UNL d   1       2.811   0.620  -0.889  0.00  0.00    -0.004 A 
ENDROOT
TORSDOF 0
ENDMDL
