MODEL 1
REMARK minimizedAffinity -0.901455462
REMARK minimizedRMSD -1
REMARK  0 active torsions:
REMARK  status: ('A' for Active; 'I' for Inactive)
ROOT
ATOM      1  C   UNL d   1       3.192  -1.223  -1.230  0.00  0.00     0.172 C 
ATOM      2  N   UNL d   1       2.244  -0.636  -0.312  0.00  0.00    -0.070 N 
ATOM      3  C1  UNL d   1       1.111  -1.242   0.162  0.00  0.00    -0.004 A 
ATOM      4  C2  UNL d   1       0.481  -0.356   1.009  0.00  0.00    -0.047 A 
ATOM      5  C3  UNL d   1       1.262   0.824   1.045  0.00  0.00    -0.047 A 
ATOM      6  C4  UNL d   1       2.347   0.623   0.218  0.00  0.00    -0.004 A 
ENDROOT
TORSDOF 0
ENDMDL
