MODEL 1
REMARK minimizedAffinity -1.47352469
REMARK minimizedRMSD -1
REMARK  0 active torsions:
REMARK  status: ('A' for Active; 'I' for Inactive)
ROOT
ATOM      1  C   UNL d   1       5.339  -0.345  -2.306  0.00  0.00     0.172 C 
ATOM      2  N   UNL d   1       4.068  -0.263  -1.626  0.00  0.00    -0.070 N 
ATOM      3  C1  UNL d   1       3.341  -1.326  -1.161  0.00  0.00    -0.004 A 
ATOM      4  C2  UNL d   1       2.196  -0.830  -0.576  0.00  0.00    -0.047 A 
ATOM      5  C3  UNL d   1       2.236   0.580  -0.695  0.00  0.00    -0.047 A 
ATOM      6  C4  UNL d   1       3.405   0.904  -1.348  0.00  0.00    -0.004 A 
ENDROOT
TORSDOF 0
ENDMDL
