MODEL 1
REMARK minimizedAffinity 3.4633677
REMARK minimizedRMSD -1
REMARK  0 active torsions:
REMARK  status: ('A' for Active; 'I' for Inactive)
ROOT
ATOM      1  C   UNL d   1       0.300   2.721  -3.734  0.00  0.00     0.172 C 
ATOM      2  N   UNL d   1      -0.462   3.744  -3.056  0.00  0.00    -0.070 N 
ATOM      3  C1  UNL d   1      -1.827   3.790  -2.960  0.00  0.00    -0.004 A 
ATOM      4  C2  UNL d   1      -2.161   4.916  -2.238  0.00  0.00    -0.047 A 
ATOM      5  C3  UNL d   1      -0.955   5.569  -1.890  0.00  0.00    -0.047 A 
ATOM      6  C4  UNL d   1       0.081   4.822  -2.409  0.00  0.00    -0.004 A 
ENDROOT
TORSDOF 0
ENDMDL
