MODEL 1
REMARK minimizedAffinity -1.1479789
REMARK minimizedRMSD -1
REMARK  0 active torsions:
REMARK  status: ('A' for Active; 'I' for Inactive)
ROOT
ATOM      1  C   UNL d   1       3.397  -1.093  -0.386  0.00  0.00     0.172 C 
ATOM      2  N   UNL d   1       2.138  -1.018   0.317  0.00  0.00    -0.070 N 
ATOM      3  C1  UNL d   1       1.266  -2.057   0.505  0.00  0.00    -0.004 A 
ATOM      4  C2  UNL d   1       0.189  -1.580   1.220  0.00  0.00    -0.047 A 
ATOM      5  C3  UNL d   1       0.421  -0.207   1.470  0.00  0.00    -0.047 A 
ATOM      6  C4  UNL d   1       1.635   0.115   0.899  0.00  0.00    -0.004 A 
ENDROOT
TORSDOF 0
ENDMDL
