MODEL 1
REMARK minimizedAffinity 0.370042741
REMARK minimizedRMSD -1
REMARK  0 active torsions:
REMARK  status: ('A' for Active; 'I' for Inactive)
ROOT
ATOM      1  C   UNL d   1      -1.153  -0.861   2.115  0.00  0.00     0.172 C 
ATOM      2  N   UNL d   1       0.100  -0.709   1.413  0.00  0.00    -0.070 N 
ATOM      3  C1  UNL d   1       0.663  -1.634   0.575  0.00  0.00    -0.004 A 
ATOM      4  C2  UNL d   1       1.850  -1.114   0.108  0.00  0.00    -0.047 A 
ATOM      5  C3  UNL d   1       2.007   0.169   0.686  0.00  0.00    -0.047 A 
ATOM      6  C4  UNL d   1       0.909   0.394   1.490  0.00  0.00    -0.004 A 
ENDROOT
TORSDOF 0
ENDMDL
