MODEL 1
REMARK minimizedAffinity -0.911414564
REMARK minimizedRMSD -1
REMARK  0 active torsions:
REMARK  status: ('A' for Active; 'I' for Inactive)
ROOT
ATOM      1  C   UNL d   1      -0.595  -0.835   1.693  0.00  0.00     0.172 C 
ATOM      2  N   UNL d   1       0.662  -0.743   0.988  0.00  0.00    -0.070 N 
ATOM      3  C1  UNL d   1       1.547  -1.770   0.796  0.00  0.00    -0.004 A 
ATOM      4  C2  UNL d   1       2.617  -1.278   0.081  0.00  0.00    -0.047 A 
ATOM      5  C3  UNL d   1       2.367   0.093  -0.164  0.00  0.00    -0.047 A 
ATOM      6  C4  UNL d   1       1.151   0.398   0.408  0.00  0.00    -0.004 A 
ENDROOT
TORSDOF 0
ENDMDL
