MODEL 1
REMARK minimizedAffinity -1.75604463
REMARK minimizedRMSD -1
REMARK  0 active torsions:
REMARK  status: ('A' for Active; 'I' for Inactive)
ROOT
ATOM      1  C   UNL d   1       3.396  -1.127  -1.844  0.00  0.00     0.172 C 
ATOM      2  N   UNL d   1       2.427  -0.625  -0.899  0.00  0.00    -0.070 N 
ATOM      3  C1  UNL d   1       1.987   0.669  -0.819  0.00  0.00    -0.004 A 
ATOM      4  C2  UNL d   1       1.069   0.740   0.207  0.00  0.00    -0.047 A 
ATOM      5  C3  UNL d   1       0.955  -0.556   0.763  0.00  0.00    -0.047 A 
ATOM      6  C4  UNL d   1       1.806  -1.381   0.059  0.00  0.00    -0.004 A 
ENDROOT
TORSDOF 0
ENDMDL
