MODEL 1
REMARK minimizedAffinity -1.18709171
REMARK minimizedRMSD -1
REMARK  0 active torsions:
REMARK  status: ('A' for Active; 'I' for Inactive)
ROOT
ATOM      1  C   UNL d   1       3.955  -0.829  -1.910  0.00  0.00     0.172 C 
ATOM      2  N   UNL d   1       3.099  -0.168  -0.953  0.00  0.00    -0.070 N 
ATOM      3  C1  UNL d   1       2.292  -0.792  -0.040  0.00  0.00    -0.004 A 
ATOM      4  C2  UNL d   1       1.641   0.184   0.684  0.00  0.00    -0.047 A 
ATOM      5  C3  UNL d   1       2.071   1.437   0.187  0.00  0.00    -0.047 A 
ATOM      6  C4  UNL d   1       2.973   1.190  -0.826  0.00  0.00    -0.004 A 
ENDROOT
TORSDOF 0
ENDMDL
