MODEL 1
REMARK minimizedAffinity -0.146754235
REMARK minimizedRMSD -1
REMARK  0 active torsions:
REMARK  status: ('A' for Active; 'I' for Inactive)
ROOT
ATOM      1  C   UNL d   1       1.665   1.425   0.054  0.00  0.00     0.172 C 
ATOM      2  N   UNL d   1       1.113   0.269   0.721  0.00  0.00    -0.070 N 
ATOM      3  C1  UNL d   1       1.701  -0.965   0.798  0.00  0.00    -0.004 A 
ATOM      4  C2  UNL d   1       0.862  -1.789   1.515  0.00  0.00    -0.047 A 
ATOM      5  C3  UNL d   1      -0.271  -1.024   1.882  0.00  0.00    -0.047 A 
ATOM      6  C4  UNL d   1      -0.089   0.246   1.378  0.00  0.00    -0.004 A 
ENDROOT
TORSDOF 0
ENDMDL
