MODEL 1
REMARK minimizedAffinity -2.97069502
REMARK minimizedRMSD -1
REMARK  0 active torsions:
REMARK  status: ('A' for Active; 'I' for Inactive)
ROOT
ATOM      1  C   UNL d   1       0.692  -0.370   0.648  0.00  0.00     0.172 C 
ATOM      2  N   UNL d   1       1.750  -0.248  -0.327  0.00  0.00    -0.070 N 
ATOM      3  C1  UNL d   1       2.517  -1.276  -0.805  0.00  0.00    -0.004 A 
ATOM      4  C2  UNL d   1       3.410  -0.750  -1.714  0.00  0.00    -0.047 A 
ATOM      5  C3  UNL d   1       3.172   0.643  -1.783  0.00  0.00    -0.047 A 
ATOM      6  C4  UNL d   1       2.139   0.927  -0.914  0.00  0.00    -0.004 A 
ENDROOT
TORSDOF 0
ENDMDL
