MODEL 1
REMARK minimizedAffinity -1.78898191
REMARK minimizedRMSD -1
REMARK  0 active torsions:
REMARK  status: ('A' for Active; 'I' for Inactive)
ROOT
ATOM      1  C   UNL d   1       0.269  -0.732   2.324  0.00  0.00     0.172 C 
ATOM      2  N   UNL d   1      -1.132  -0.858   1.995  0.00  0.00    -0.070 N 
ATOM      3  C1  UNL d   1      -2.048   0.159   1.999  0.00  0.00    -0.004 A 
ATOM      4  C2  UNL d   1      -3.266  -0.368   1.628  0.00  0.00    -0.047 A 
ATOM      5  C3  UNL d   1      -3.075  -1.751   1.395  0.00  0.00    -0.047 A 
ATOM      6  C4  UNL d   1      -1.745  -2.027   1.629  0.00  0.00    -0.004 A 
ENDROOT
TORSDOF 0
ENDMDL
