MODEL 1
REMARK minimizedAffinity -2.77584863
REMARK minimizedRMSD -1
REMARK  0 active torsions:
REMARK  status: ('A' for Active; 'I' for Inactive)
ROOT
ATOM      1  N1  IND d   1       0.357   1.465  -1.602  0.00  0.00    -0.196 N 
ATOM      2  C2  IND d   1       0.692   0.236  -2.098  0.00  0.00     0.054 A 
ATOM      3  C3  IND d   1       0.774  -0.668  -1.096  0.00  0.00    -0.031 A 
ATOM      4  C4  IND d   1       0.301  -0.374   1.417  0.00  0.00     0.051 A 
ATOM      5  C5  IND d   1      -0.001   0.576   2.352  0.00  0.00    -0.031 A 
ATOM      6  C6  IND d   1      -0.206   1.897   2.010  0.00  0.00     0.015 A 
ATOM      7  C7  IND d   1      -0.127   2.317   0.712  0.00  0.00    -0.016 A 
ATOM      8  C8  IND d   1       0.186   1.357  -0.239  0.00  0.00    -0.047 A 
ATOM      9  C9  IND d   1       0.437   0.023   0.108  0.00  0.00    -0.096 A 
ATOM     10  HN1 IND d   1       0.268   2.185  -2.064  0.00  0.00     0.298 HD
ENDROOT
TORSDOF 0
ENDMDL
