MODEL 1
REMARK minimizedAffinity 1.39444757
REMARK minimizedRMSD -1
REMARK  0 active torsions:
REMARK  status: ('A' for Active; 'I' for Inactive)
ROOT
ATOM      1  N1  IND d   1      -0.129   2.335  -1.840  0.00  0.00    -0.196 N 
ATOM      2  C2  IND d   1      -0.071   3.628  -1.401  0.00  0.00     0.054 A 
ATOM      3  C3  IND d   1      -0.001   3.664  -0.051  0.00  0.00    -0.031 A 
ATOM      4  C4  IND d   1       0.135   1.720   1.631  0.00  0.00     0.051 A 
ATOM      5  C5  IND d   1       0.079   0.357   1.709  0.00  0.00    -0.031 A 
ATOM      6  C6  IND d   1      -0.049  -0.433   0.585  0.00  0.00     0.015 A 
ATOM      7  C7  IND d   1      -0.114   0.114  -0.666  0.00  0.00    -0.016 A 
ATOM      8  C8  IND d   1      -0.065   1.498  -0.748  0.00  0.00    -0.047 A 
ATOM      9  C9  IND d   1       0.022   2.306   0.393  0.00  0.00    -0.096 A 
ATOM     10  HN1 IND d   1      -0.195   2.086  -2.661  0.00  0.00     0.298 HD
ENDROOT
TORSDOF 0
ENDMDL
