MODEL 1
REMARK minimizedAffinity 8.53983116
REMARK minimizedRMSD -1
REMARK  0 active torsions:
REMARK  status: ('A' for Active; 'I' for Inactive)
ROOT
ATOM      1  N1  IND d   1       0.710   2.502   0.516  0.00  0.00    -0.196 N 
ATOM      2  C2  IND d   1       0.337   3.252   1.596  0.00  0.00     0.054 A 
ATOM      3  C3  IND d   1       0.117   2.456   2.667  0.00  0.00    -0.031 A 
ATOM      4  C4  IND d   1       0.405  -0.092   2.898  0.00  0.00     0.051 A 
ATOM      5  C5  IND d   1       0.692  -1.214   2.172  0.00  0.00    -0.031 A 
ATOM      6  C6  IND d   1       1.008  -1.153   0.830  0.00  0.00     0.015 A 
ATOM      7  C7  IND d   1       1.061   0.039   0.164  0.00  0.00    -0.016 A 
ATOM      8  C8  IND d   1       0.764   1.180   0.897  0.00  0.00    -0.047 A 
ATOM      9  C9  IND d   1       0.400   1.120   2.248  0.00  0.00    -0.096 A 
ATOM     10  HN1 IND d   1       0.882   2.806  -0.270  0.00  0.00     0.298 HD
ENDROOT
TORSDOF 0
ENDMDL
