MODEL 1
REMARK minimizedAffinity 5.3418808
REMARK minimizedRMSD -1
REMARK  0 active torsions:
REMARK  status: ('A' for Active; 'I' for Inactive)
ROOT
ATOM      1  N1  IND d   1       1.101   0.534   0.533  0.00  0.00    -0.196 N 
ATOM      2  C2  IND d   1       0.678  -0.386   1.452  0.00  0.00     0.054 A 
ATOM      3  C3  IND d   1      -0.556  -0.836   1.132  0.00  0.00    -0.031 A 
ATOM      4  C4  IND d   1      -2.024  -0.277  -0.908  0.00  0.00     0.051 A 
ATOM      5  C5  IND d   1      -2.080   0.537  -2.003  0.00  0.00    -0.031 A 
ATOM      6  C6  IND d   1      -1.056   1.408  -2.318  0.00  0.00     0.015 A 
ATOM      7  C7  IND d   1       0.071   1.489  -1.550  0.00  0.00    -0.016 A 
ATOM      8  C8  IND d   1       0.128   0.668  -0.433  0.00  0.00    -0.047 A 
ATOM      9  C9  IND d   1      -0.926  -0.187  -0.085  0.00  0.00    -0.096 A 
ATOM     10  HN1 IND d   1       1.849   0.958   0.555  0.00  0.00     0.298 HD
ENDROOT
TORSDOF 0
ENDMDL
