MODEL 1
REMARK minimizedAffinity -4.30031347
REMARK minimizedRMSD -1
REMARK  0 active torsions:
REMARK  status: ('A' for Active; 'I' for Inactive)
ROOT
ATOM      1  N1  IND d   1       0.536   0.416  -1.254  0.00  0.00    -0.196 N 
ATOM      2  C2  IND d   1       0.002   1.268  -2.179  0.00  0.00     0.054 A 
ATOM      3  C3  IND d   1      -0.803   2.173  -1.576  0.00  0.00    -0.031 A 
ATOM      4  C4  IND d   1      -1.305   2.502   0.927  0.00  0.00     0.051 A 
ATOM      5  C5  IND d   1      -1.077   1.945   2.154  0.00  0.00    -0.031 A 
ATOM      6  C6  IND d   1      -0.281   0.828   2.311  0.00  0.00     0.015 A 
ATOM      7  C7  IND d   1       0.328   0.232   1.243  0.00  0.00    -0.016 A 
ATOM      8  C8  IND d   1       0.093   0.791  -0.005  0.00  0.00    -0.047 A 
ATOM      9  C9  IND d   1      -0.748   1.898  -0.176  0.00  0.00    -0.096 A 
ATOM     10  HN1 IND d   1       1.061  -0.244  -1.424  0.00  0.00     0.298 HD
ENDROOT
TORSDOF 0
ENDMDL
