MODEL 1
REMARK minimizedAffinity 9.65968323
REMARK minimizedRMSD -1
REMARK  0 active torsions:
REMARK  status: ('A' for Active; 'I' for Inactive)
ROOT
ATOM      1  N1  IND d   1      -0.270   2.418   0.050  0.00  0.00    -0.196 N 
ATOM      2  C2  IND d   1      -0.652   1.444   0.930  0.00  0.00     0.054 A 
ATOM      3  C3  IND d   1      -0.129   1.685   2.153  0.00  0.00    -0.031 A 
ATOM      4  C4  IND d   1       1.297   3.671   2.961  0.00  0.00     0.051 A 
ATOM      5  C5  IND d   1       1.933   4.794   2.511  0.00  0.00    -0.031 A 
ATOM      6  C6  IND d   1       1.863   5.192   1.191  0.00  0.00     0.015 A 
ATOM      7  C7  IND d   1       1.143   4.485   0.271  0.00  0.00    -0.016 A 
ATOM      8  C8  IND d   1       0.502   3.340   0.723  0.00  0.00    -0.047 A 
ATOM      9  C9  IND d   1       0.603   2.908   2.052  0.00  0.00    -0.096 A 
ATOM     10  HN1 IND d   1      -0.477   2.449  -0.784  0.00  0.00     0.298 HD
ENDROOT
TORSDOF 0
ENDMDL
