MODEL 1
REMARK minimizedAffinity 0.512358248
REMARK minimizedRMSD -1
REMARK  0 active torsions:
REMARK  status: ('A' for Active; 'I' for Inactive)
ROOT
ATOM      1  N1  IND d   1       0.851  -1.358   2.692  0.00  0.00    -0.196 N 
ATOM      2  C2  IND d   1       0.735  -1.212   4.046  0.00  0.00     0.054 A 
ATOM      3  C3  IND d   1       0.400   0.061   4.354  0.00  0.00    -0.031 A 
ATOM      4  C4  IND d   1      -0.108   2.043   2.792  0.00  0.00     0.051 A 
ATOM      5  C5  IND d   1      -0.098   2.406   1.474  0.00  0.00    -0.031 A 
ATOM      6  C6  IND d   1       0.232   1.514   0.475  0.00  0.00     0.015 A 
ATOM      7  C7  IND d   1       0.556   0.217   0.756  0.00  0.00    -0.016 A 
ATOM      8  C8  IND d   1       0.554  -0.153   2.093  0.00  0.00    -0.047 A 
ATOM      9  C9  IND d   1       0.261   0.759   3.115  0.00  0.00    -0.096 A 
ATOM     10  HN1 IND d   1       1.072  -2.081   2.282  0.00  0.00     0.298 HD
ENDROOT
TORSDOF 0
ENDMDL
