MODEL 1
REMARK minimizedAffinity 6.81025124
REMARK minimizedRMSD -1
REMARK  0 active torsions:
REMARK  status: ('A' for Active; 'I' for Inactive)
ROOT
ATOM      1  C1  DEN d   1       2.757  -4.733   3.502  0.00  0.00     0.130 A 
ATOM      2  C2  DEN d   1       3.241  -3.913   4.609  0.00  0.00    -0.031 A 
ATOM      3  C3  DEN d   1       2.814  -2.520   4.365  0.00  0.00     0.027 A 
ATOM      4  C4  DEN d   1       1.456  -1.561   2.394  0.00  0.00     0.027 A 
ATOM      5  C5  DEN d   1       0.833  -1.869   1.204  0.00  0.00    -0.003 A 
ATOM      6  C6  DEN d   1       0.837  -3.136   0.685  0.00  0.00     0.001 A 
ATOM      7  C7  DEN d   1       1.438  -4.153   1.380  0.00  0.00     0.017 A 
ATOM      8  C8  DEN d   1       2.075  -3.848   2.576  0.00  0.00    -0.094 A 
ATOM      9  C9  DEN d   1       2.049  -2.563   3.090  0.00  0.00    -0.072 A 
ENDROOT
TORSDOF 0
ENDMDL
