MODEL 1
REMARK minimizedAffinity 11.860507
REMARK minimizedRMSD -1
REMARK  0 active torsions:
REMARK  status: ('A' for Active; 'I' for Inactive)
ROOT
ATOM      1  C1  DEN d   1       1.996  -1.098  -0.918  0.00  0.00     0.130 A 
ATOM      2  C2  DEN d   1       2.670  -0.721  -2.158  0.00  0.00    -0.031 A 
ATOM      3  C3  DEN d   1       3.408   0.534  -1.913  0.00  0.00     0.027 A 
ATOM      4  C4  DEN d   1       3.577   1.921   0.255  0.00  0.00     0.027 A 
ATOM      5  C5  DEN d   1       3.167   2.007   1.567  0.00  0.00    -0.003 A 
ATOM      6  C6  DEN d   1       2.319   1.090   2.129  0.00  0.00     0.001 A 
ATOM      7  C7  DEN d   1       1.888   0.021   1.388  0.00  0.00     0.017 A 
ATOM      8  C8  DEN d   1       2.290  -0.068   0.062  0.00  0.00    -0.094 A 
ATOM      9  C9  DEN d   1       3.158   0.863  -0.484  0.00  0.00    -0.072 A 
ENDROOT
TORSDOF 0
ENDMDL
