MODEL 1
REMARK minimizedAffinity -3.63514972
REMARK minimizedRMSD -1
REMARK  0 active torsions:
REMARK  status: ('A' for Active; 'I' for Inactive)
ROOT
ATOM      1  C1  DEN d   1       0.981  -1.388   1.811  0.00  0.00     0.130 A 
ATOM      2  C2  DEN d   1       1.296  -0.888   3.146  0.00  0.00    -0.031 A 
ATOM      3  C3  DEN d   1       1.748  -2.029   3.967  0.00  0.00     0.027 A 
ATOM      4  C4  DEN d   1       1.994  -4.509   3.302  0.00  0.00     0.027 A 
ATOM      5  C5  DEN d   1       1.835  -5.418   2.279  0.00  0.00    -0.003 A 
ATOM      6  C6  DEN d   1       1.352  -5.057   1.049  0.00  0.00     0.001 A 
ATOM      7  C7  DEN d   1       1.053  -3.744   0.797  0.00  0.00     0.017 A 
ATOM      8  C8  DEN d   1       1.204  -2.823   1.825  0.00  0.00    -0.094 A 
ATOM      9  C9  DEN d   1       1.705  -3.206   3.057  0.00  0.00    -0.072 A 
ENDROOT
TORSDOF 0
ENDMDL
