MODEL 1
REMARK minimizedAffinity -2.38757753
REMARK minimizedRMSD -1
REMARK  0 active torsions:
REMARK  status: ('A' for Active; 'I' for Inactive)
ROOT
ATOM      1  C1  DEN d   1       4.817  -5.934  -4.673  0.00  0.00     0.130 A 
ATOM      2  C2  DEN d   1       4.167  -5.961  -5.980  0.00  0.00    -0.031 A 
ATOM      3  C3  DEN d   1       2.706  -5.990  -5.762  0.00  0.00     0.027 A 
ATOM      4  C4  DEN d   1       1.396  -5.991  -3.541  0.00  0.00     0.027 A 
ATOM      5  C5  DEN d   1       1.514  -5.986  -2.168  0.00  0.00    -0.003 A 
ATOM      6  C6  DEN d   1       2.731  -5.998  -1.540  0.00  0.00     0.001 A 
ATOM      7  C7  DEN d   1       3.880  -5.969  -2.285  0.00  0.00     0.017 A 
ATOM      8  C8  DEN d   1       3.770  -5.982  -3.669  0.00  0.00    -0.094 A 
ATOM      9  C9  DEN d   1       2.530  -5.958  -4.285  0.00  0.00    -0.072 A 
ENDROOT
TORSDOF 0
ENDMDL
