MODEL 1
REMARK minimizedAffinity 9.90676785
REMARK minimizedRMSD -1
REMARK  0 active torsions:
REMARK  status: ('A' for Active; 'I' for Inactive)
ROOT
ATOM      1  C1  DEN d   1       1.649  -1.475   3.052  0.00  0.00     0.130 A 
ATOM      2  C2  DEN d   1       1.186  -2.109   1.821  0.00  0.00    -0.031 A 
ATOM      3  C3  DEN d   1       1.383  -1.153   0.713  0.00  0.00     0.027 A 
ATOM      4  C4  DEN d   1       2.360   1.233   0.782  0.00  0.00     0.027 A 
ATOM      5  C5  DEN d   1       2.879   2.210   1.603  0.00  0.00    -0.003 A 
ATOM      6  C6  DEN d   1       2.993   2.041   2.957  0.00  0.00     0.001 A 
ATOM      7  C7  DEN d   1       2.623   0.851   3.527  0.00  0.00     0.017 A 
ATOM      8  C8  DEN d   1       2.091  -0.135   2.707  0.00  0.00    -0.094 A 
ATOM      9  C9  DEN d   1       1.996   0.050   1.338  0.00  0.00    -0.072 A 
ENDROOT
TORSDOF 0
ENDMDL
