MODEL 1
REMARK minimizedAffinity 12.2470503
REMARK minimizedRMSD -1
REMARK  0 active torsions:
REMARK  status: ('A' for Active; 'I' for Inactive)
ROOT
ATOM      1  C1  DEN d   1      -2.272   2.974  -0.469  0.00  0.00     0.130 A 
ATOM      2  C2  DEN d   1      -1.386   2.894   0.690  0.00  0.00    -0.031 A 
ATOM      3  C3  DEN d   1      -2.158   3.296   1.883  0.00  0.00     0.027 A 
ATOM      4  C4  DEN d   1      -4.626   4.026   2.048  0.00  0.00     0.027 A 
ATOM      5  C5  DEN d   1      -5.778   4.260   1.330  0.00  0.00    -0.003 A 
ATOM      6  C6  DEN d   1      -5.832   4.117  -0.031  0.00  0.00     0.001 A 
ATOM      7  C7  DEN d   1      -4.725   3.683  -0.712  0.00  0.00     0.017 A 
ATOM      8  C8  DEN d   1      -3.558   3.452   0.004  0.00  0.00    -0.094 A 
ATOM      9  C9  DEN d   1      -3.527   3.592   1.381  0.00  0.00    -0.072 A 
ENDROOT
TORSDOF 0
ENDMDL
