MODEL 1
REMARK minimizedAffinity 9.53620148
REMARK minimizedRMSD -1
REMARK  0 active torsions:
REMARK  status: ('A' for Active; 'I' for Inactive)
ROOT
ATOM      1  C1  DEN d   1       2.679  -2.592   2.828  0.00  0.00     0.130 A 
ATOM      2  C2  DEN d   1       2.278  -1.364   3.508  0.00  0.00    -0.031 A 
ATOM      3  C3  DEN d   1       1.845  -1.719   4.874  0.00  0.00     0.027 A 
ATOM      4  C4  DEN d   1       1.764  -4.038   6.000  0.00  0.00     0.027 A 
ATOM      5  C5  DEN d   1       1.995  -5.383   5.817  0.00  0.00    -0.003 A 
ATOM      6  C6  DEN d   1       2.435  -5.893   4.624  0.00  0.00     0.001 A 
ATOM      7  C7  DEN d   1       2.700  -5.045   3.580  0.00  0.00     0.017 A 
ATOM      8  C8  DEN d   1       2.462  -3.688   3.755  0.00  0.00    -0.094 A 
ATOM      9  C9  DEN d   1       2.029  -3.192   4.973  0.00  0.00    -0.072 A 
ENDROOT
TORSDOF 0
ENDMDL
