MODEL 1
REMARK minimizedAffinity -3.89511371
REMARK minimizedRMSD -1
REMARK  0 active torsions:
REMARK  status: ('A' for Active; 'I' for Inactive)
ROOT
ATOM      1  C2' OXE d   1      -0.459   0.963  -0.322  0.00  0.00     0.078 C 
ATOM      2  C1' OXE d   1       2.326   1.130  -0.632  0.00  0.00     0.078 C 
ATOM      3  C1  OXE d   1       1.751  -0.171  -0.129  0.00  0.00    -0.078 A 
ATOM      4  C2  OXE d   1       0.391  -0.228   0.064  0.00  0.00    -0.078 A 
ATOM      5  C3  OXE d   1      -0.197  -1.421   0.474  0.00  0.00     0.003 A 
ATOM      6  C4  OXE d   1       0.598  -2.515   0.839  0.00  0.00    -0.002 A 
ATOM      7  C5  OXE d   1       1.987  -2.464   0.687  0.00  0.00    -0.002 A 
ATOM      8  C6  OXE d   1       2.575  -1.317   0.166  0.00  0.00     0.003 A 
ENDROOT
TORSDOF 0
ENDMDL
