MODEL 1
REMARK minimizedAffinity 0.10213796
REMARK minimizedRMSD -1
REMARK  0 active torsions:
REMARK  status: ('A' for Active; 'I' for Inactive)
ROOT
ATOM      1  C2' OXE d   1      -1.808  -1.419   0.352  0.00  0.00     0.078 C 
ATOM      2  C1' OXE d   1      -0.460   0.860  -0.582  0.00  0.00     0.078 C 
ATOM      3  C1  OXE d   1       0.372  -0.319  -0.141  0.00  0.00    -0.078 A 
ATOM      4  C2  OXE d   1      -0.294  -1.412   0.358  0.00  0.00    -0.078 A 
ATOM      5  C3  OXE d   1       0.422  -2.546   0.727  0.00  0.00     0.003 A 
ATOM      6  C4  OXE d   1       1.822  -2.528   0.739  0.00  0.00    -0.002 A 
ATOM      7  C5  OXE d   1       2.521  -1.410   0.272  0.00  0.00    -0.002 A 
ATOM      8  C6  OXE d   1       1.812  -0.315  -0.211  0.00  0.00     0.003 A 
ENDROOT
TORSDOF 0
ENDMDL
