MODEL 1
REMARK minimizedAffinity -2.60309887
REMARK minimizedRMSD -1
REMARK  0 active torsions:
REMARK  status: ('A' for Active; 'I' for Inactive)
ROOT
ATOM      1  C2' OXE d   1       1.856  -1.830   0.940  0.00  0.00     0.078 C 
ATOM      2  C1' OXE d   1       2.493   0.543  -0.417  0.00  0.00     0.078 C 
ATOM      3  C1  OXE d   1       1.035   0.182  -0.279  0.00  0.00    -0.078 A 
ATOM      4  C2  OXE d   1       0.735  -1.004   0.346  0.00  0.00    -0.078 A 
ATOM      5  C3  OXE d   1      -0.596  -1.359   0.549  0.00  0.00     0.003 A 
ATOM      6  C4  OXE d   1      -1.626  -0.595  -0.012  0.00  0.00    -0.002 A 
ATOM      7  C5  OXE d   1      -1.340   0.596  -0.687  0.00  0.00    -0.002 A 
ATOM      8  C6  OXE d   1      -0.020   1.020  -0.791  0.00  0.00     0.003 A 
ENDROOT
TORSDOF 0
ENDMDL
