MODEL 1
REMARK minimizedAffinity -3.42192101
REMARK minimizedRMSD -1
REMARK  0 active torsions:
REMARK  status: ('A' for Active; 'I' for Inactive)
ROOT
ATOM      1  C2' OXE d   1       3.218  -0.959   1.381  0.00  0.00     0.078 C 
ATOM      2  C1' OXE d   1       1.386  -3.080   1.545  0.00  0.00     0.078 C 
ATOM      3  C1  OXE d   1       0.995  -1.874   0.727  0.00  0.00    -0.078 A 
ATOM      4  C2  OXE d   1       1.878  -0.822   0.690  0.00  0.00    -0.078 A 
ATOM      5  C3  OXE d   1       1.591   0.292  -0.094  0.00  0.00     0.003 A 
ATOM      6  C4  OXE d   1       0.346   0.415  -0.721  0.00  0.00    -0.002 A 
ATOM      7  C5  OXE d   1      -0.584  -0.628  -0.665  0.00  0.00    -0.002 A 
ATOM      8  C6  OXE d   1      -0.259  -1.795   0.018  0.00  0.00     0.003 A 
ENDROOT
TORSDOF 0
ENDMDL
