MODEL 1
REMARK minimizedAffinity -3.74239659
REMARK minimizedRMSD -1
REMARK  0 active torsions:
REMARK  status: ('A' for Active; 'I' for Inactive)
ROOT
ATOM      1  C2' OXE d   1      -0.759   0.800  -0.401  0.00  0.00     0.078 C 
ATOM      2  C1' OXE d   1      -1.271  -0.652   1.946  0.00  0.00     0.078 C 
ATOM      3  C1  OXE d   1      -0.030  -0.998   1.162  0.00  0.00    -0.078 A 
ATOM      4  C2  OXE d   1       0.188  -0.314  -0.010  0.00  0.00    -0.078 A 
ATOM      5  C3  OXE d   1       1.346  -0.556  -0.744  0.00  0.00     0.003 A 
ATOM      6  C4  OXE d   1       2.212  -1.595  -0.381  0.00  0.00    -0.002 A 
ATOM      7  C5  OXE d   1       1.987  -2.330   0.788  0.00  0.00    -0.002 A 
ATOM      8  C6  OXE d   1       0.896  -2.016   1.591  0.00  0.00     0.003 A 
ENDROOT
TORSDOF 0
ENDMDL
