MODEL 1
REMARK minimizedAffinity -3.25172234
REMARK minimizedRMSD -1
REMARK  0 active torsions:
REMARK  status: ('A' for Active; 'I' for Inactive)
ROOT
ATOM      1  C2' OXE d   1      -0.292   2.634  -4.245  0.00  0.00     0.078 C 
ATOM      2  C1' OXE d   1      -0.686   2.682  -1.466  0.00  0.00     0.078 C 
ATOM      3  C1  OXE d   1      -1.800   2.138  -2.325  0.00  0.00    -0.078 A 
ATOM      4  C2  OXE d   1      -1.617   2.161  -3.687  0.00  0.00    -0.078 A 
ATOM      5  C3  OXE d   1      -2.591   1.621  -4.522  0.00  0.00     0.003 A 
ATOM      6  C4  OXE d   1      -3.818   1.195  -3.999  0.00  0.00    -0.002 A 
ATOM      7  C5  OXE d   1      -4.040   1.200  -2.617  0.00  0.00    -0.002 A 
ATOM      8  C6  OXE d   1      -3.027   1.627  -1.766  0.00  0.00     0.003 A 
ENDROOT
TORSDOF 0
ENDMDL
