MODEL 1
REMARK minimizedAffinity -3.50794768
REMARK minimizedRMSD -1
REMARK  0 active torsions:
REMARK  status: ('A' for Active; 'I' for Inactive)
ROOT
ATOM      1  C2' OXE d   1      -0.680   1.130  -0.522  0.00  0.00     0.078 C 
ATOM      2  C1' OXE d   1      -1.083  -0.319   1.848  0.00  0.00     0.078 C 
ATOM      3  C1  OXE d   1       0.171  -0.597   1.059  0.00  0.00    -0.078 A 
ATOM      4  C2  OXE d   1       0.338   0.083  -0.124  0.00  0.00    -0.078 A 
ATOM      5  C3  OXE d   1       1.503  -0.095  -0.864  0.00  0.00     0.003 A 
ATOM      6  C4  OXE d   1       2.435  -1.073  -0.494  0.00  0.00    -0.002 A 
ATOM      7  C5  OXE d   1       2.265  -1.805   0.686  0.00  0.00    -0.002 A 
ATOM      8  C6  OXE d   1       1.163  -1.549   1.494  0.00  0.00     0.003 A 
ENDROOT
TORSDOF 0
ENDMDL
