MODEL 1
REMARK minimizedAffinity -2.51206183
REMARK minimizedRMSD -1
REMARK  0 active torsions:
REMARK  status: ('A' for Active; 'I' for Inactive)
ROOT
ATOM      1  C2' OXE d   1      -0.036   0.715   0.202  0.00  0.00     0.078 C 
ATOM      2  C1' OXE d   1       0.404  -1.012  -1.966  0.00  0.00     0.078 C 
ATOM      3  C1  OXE d   1      -0.517   0.164  -2.179  0.00  0.00    -0.078 A 
ATOM      4  C2  OXE d   1      -0.763   0.977  -1.099  0.00  0.00    -0.078 A 
ATOM      5  C3  OXE d   1      -1.562   2.107  -1.255  0.00  0.00     0.003 A 
ATOM      6  C4  OXE d   1      -2.239   2.336  -2.459  0.00  0.00    -0.002 A 
ATOM      7  C5  OXE d   1      -2.033   1.497  -3.559  0.00  0.00    -0.002 A 
ATOM      8  C6  OXE d   1      -1.144   0.434  -3.449  0.00  0.00     0.003 A 
ENDROOT
TORSDOF 0
ENDMDL
