MODEL 1
REMARK minimizedAffinity -4.83140135
REMARK minimizedRMSD -1
REMARK  0 active torsions:
REMARK  status: ('A' for Active; 'I' for Inactive)
ROOT
ATOM      1  C2' OXE d   1       1.483  -2.230   0.583  0.00  0.00     0.078 C 
ATOM      2  C1' OXE d   1       2.302   0.060  -0.818  0.00  0.00     0.078 C 
ATOM      3  C1  OXE d   1       0.991   0.122  -0.077  0.00  0.00    -0.078 A 
ATOM      4  C2  OXE d   1       0.575  -1.019   0.568  0.00  0.00    -0.078 A 
ATOM      5  C3  OXE d   1      -0.601  -1.000   1.313  0.00  0.00     0.003 A 
ATOM      6  C4  OXE d   1      -1.440   0.121   1.285  0.00  0.00    -0.002 A 
ATOM      7  C5  OXE d   1      -1.054   1.279   0.602  0.00  0.00    -0.002 A 
ATOM      8  C6  OXE d   1       0.175   1.311  -0.047  0.00  0.00     0.003 A 
ENDROOT
TORSDOF 0
ENDMDL
