MODEL 1
REMARK minimizedAffinity -4.0271492
REMARK minimizedRMSD -1
REMARK  0 active torsions:
REMARK  status: ('A' for Active; 'I' for Inactive)
ROOT
ATOM      1  C2' OXE d   1      -1.139  -2.324   1.886  0.00  0.00     0.078 C 
ATOM      2  C1' OXE d   1       1.654  -2.371   1.615  0.00  0.00     0.078 C 
ATOM      3  C1  OXE d   1       0.888  -1.336   0.828  0.00  0.00    -0.078 A 
ATOM      4  C2  OXE d   1      -0.482  -1.351   0.931  0.00  0.00    -0.078 A 
ATOM      5  C3  OXE d   1      -1.233  -0.384   0.270  0.00  0.00     0.003 A 
ATOM      6  C4  OXE d   1      -0.618   0.506  -0.619  0.00  0.00    -0.002 A 
ATOM      7  C5  OXE d   1       0.773   0.512  -0.769  0.00  0.00    -0.002 A 
ATOM      8  C6  OXE d   1       1.543  -0.373  -0.022  0.00  0.00     0.003 A 
ENDROOT
TORSDOF 0
ENDMDL
