MODEL 1
REMARK minimizedAffinity -1.93742204
REMARK minimizedRMSD -1
REMARK  0 active torsions:
REMARK  status: ('A' for Active; 'I' for Inactive)
ROOT
ATOM      1  C2' OXE d   1       2.251  -0.068  -0.960  0.00  0.00     0.078 C 
ATOM      2  C1' OXE d   1       1.639  -2.102   0.875  0.00  0.00     0.078 C 
ATOM      3  C1  OXE d   1       0.629  -0.998   0.686  0.00  0.00    -0.078 A 
ATOM      4  C2  OXE d   1       0.958   0.018  -0.179  0.00  0.00    -0.078 A 
ATOM      5  C3  OXE d   1       0.039   1.033  -0.431  0.00  0.00     0.003 A 
ATOM      6  C4  OXE d   1      -1.151   1.110   0.303  0.00  0.00    -0.002 A 
ATOM      7  C5  OXE d   1      -1.487   0.107   1.218  0.00  0.00    -0.002 A 
ATOM      8  C6  OXE d   1      -0.629  -0.974   1.390  0.00  0.00     0.003 A 
ENDROOT
TORSDOF 0
ENDMDL
