MODEL 1
REMARK minimizedAffinity 0.335498899
REMARK minimizedRMSD -1
REMARK  0 active torsions:
REMARK  status: ('A' for Active; 'I' for Inactive)
ROOT
ATOM      1  C2' OXE d   1      -1.223  -1.476   2.483  0.00  0.00     0.078 C 
ATOM      2  C1' OXE d   1       1.119  -2.510   1.331  0.00  0.00     0.078 C 
ATOM      3  C1  OXE d   1       0.565  -1.225   0.767  0.00  0.00    -0.078 A 
ATOM      4  C2  OXE d   1      -0.606  -0.751   1.306  0.00  0.00    -0.078 A 
ATOM      5  C3  OXE d   1      -1.131   0.459   0.860  0.00  0.00     0.003 A 
ATOM      6  C4  OXE d   1      -0.560   1.118  -0.235  0.00  0.00    -0.002 A 
ATOM      7  C5  OXE d   1       0.612   0.631  -0.825  0.00  0.00    -0.002 A 
ATOM      8  C6  OXE d   1       1.209  -0.513  -0.309  0.00  0.00     0.003 A 
ENDROOT
TORSDOF 0
ENDMDL
