MODEL 1
REMARK minimizedAffinity -4.9896102
REMARK minimizedRMSD -1
REMARK  0 active torsions:
REMARK  status: ('A' for Active; 'I' for Inactive)
ROOT
ATOM      1  C2' OXE d   1       1.411   0.565  -0.771  0.00  0.00     0.078 C 
ATOM      2  C1' OXE d   1      -0.432  -1.354   0.125  0.00  0.00     0.078 C 
ATOM      3  C1  OXE d   1      -0.843  -0.467  -1.023  0.00  0.00    -0.078 A 
ATOM      4  C2  OXE d   1       0.047   0.501  -1.424  0.00  0.00    -0.078 A 
ATOM      5  C3  OXE d   1      -0.260   1.310  -2.514  0.00  0.00     0.003 A 
ATOM      6  C4  OXE d   1      -1.527   1.252  -3.106  0.00  0.00    -0.002 A 
ATOM      7  C5  OXE d   1      -2.463   0.300  -2.687  0.00  0.00    -0.002 A 
ATOM      8  C6  OXE d   1      -2.122  -0.593  -1.677  0.00  0.00     0.003 A 
ENDROOT
TORSDOF 0
ENDMDL
