MODEL 1
REMARK minimizedAffinity -2.02264595
REMARK minimizedRMSD -1
REMARK  2 active torsions:
REMARK  status: ('A' for Active; 'I' for Inactive)
REMARK    1  A    between atoms: C1_2  and  C2_3 
REMARK    2  A    between atoms: C2_3  and  C3_4 
ROOT
ATOM      1  C3  UNL d   1      -0.181  -0.196  -0.240  0.00  0.00    -0.075 A 
ATOM      2  C4  UNL d   1      -1.529   0.113  -0.472  0.00  0.00     0.002 A 
ATOM      3  C5  UNL d   1      -2.353   0.522   0.577  0.00  0.00     0.002 A 
ATOM      4  C6  UNL d   1      -1.843   0.619   1.870  0.00  0.00    -0.004 A 
ATOM      5  C7  UNL d   1      -0.510   0.299   2.115  0.00  0.00     0.002 A 
ATOM      6  C8  UNL d   1       0.318  -0.107   1.066  0.00  0.00     0.002 A 
ENDROOT
BRANCH   1   7
ATOM      7  C2  UNL d   1       0.723  -0.611  -1.376  0.00  0.00     0.056 C 
BRANCH   7   8
ATOM      8  C1  UNL d   1       0.335  -0.013  -2.732  0.00  0.00     0.007 C 
ATOM      9  C   UNL d   1       1.485   0.709  -3.421  0.00  0.00     0.009 C 
ENDBRANCH   7   8
ENDBRANCH   1   7
TORSDOF 2
ENDMDL
