MODEL 1
REMARK minimizedAffinity 2.65381551
REMARK minimizedRMSD -1
REMARK  2 active torsions:
REMARK  status: ('A' for Active; 'I' for Inactive)
REMARK    1  A    between atoms: C1_2  and  C2_3 
REMARK    2  A    between atoms: C2_3  and  C3_4 
ROOT
ATOM      1  C3  UNL d   1      -1.274  -0.081   1.455  0.00  0.00    -0.075 A 
ATOM      2  C4  UNL d   1      -0.059   0.522   1.100  0.00  0.00     0.002 A 
ATOM      3  C5  UNL d   1       0.415   0.444  -0.211  0.00  0.00     0.002 A 
ATOM      4  C6  UNL d   1      -0.314  -0.245  -1.178  0.00  0.00    -0.004 A 
ATOM      5  C7  UNL d   1      -1.514  -0.862  -0.833  0.00  0.00     0.002 A 
ATOM      6  C8  UNL d   1      -1.992  -0.782   0.477  0.00  0.00     0.002 A 
ENDROOT
BRANCH   1   7
ATOM      7  C2  UNL d   1      -1.806   0.024   2.864  0.00  0.00     0.056 C 
BRANCH   7   8
ATOM      8  C1  UNL d   1      -2.188  -1.322   3.489  0.00  0.00     0.007 C 
ATOM      9  C   UNL d   1      -3.672  -1.433   3.814  0.00  0.00     0.009 C 
ENDBRANCH   7   8
ENDBRANCH   1   7
TORSDOF 2
ENDMDL
