MODEL 1
REMARK minimizedAffinity -3.22251439
REMARK minimizedRMSD -1
REMARK  0 active torsions:
REMARK  status: ('A' for Active; 'I' for Inactive)
ROOT
ATOM      1  C   UNL d   1      -1.938  -0.871  -0.028  0.00  0.00     0.172 C 
ATOM      2  N   UNL d   1      -0.812   0.024   0.102  0.00  0.00    -0.070 N 
ATOM      3  C1  UNL d   1       0.507  -0.335   0.024  0.00  0.00    -0.004 A 
ATOM      4  C2  UNL d   1       1.266   0.802   0.198  0.00  0.00    -0.047 A 
ATOM      5  C3  UNL d   1       0.372   1.882   0.388  0.00  0.00    -0.047 A 
ATOM      6  C4  UNL d   1      -0.908   1.373   0.324  0.00  0.00    -0.004 A 
ENDROOT
TORSDOF 0
ENDMDL
