MODEL 1
REMARK minimizedAffinity -3.69976354
REMARK minimizedRMSD -1
REMARK  0 active torsions:
REMARK  status: ('A' for Active; 'I' for Inactive)
ROOT
ATOM      1  C   UNL d   1      -2.896  -0.066  -0.567  0.00  0.00     0.172 C 
ATOM      2  N   UNL d   1      -1.477   0.192  -0.640  0.00  0.00    -0.070 N 
ATOM      3  C1  UNL d   1      -0.856   0.980  -1.571  0.00  0.00    -0.004 A 
ATOM      4  C2  UNL d   1       0.495   0.970  -1.299  0.00  0.00    -0.047 A 
ATOM      5  C3  UNL d   1       0.693   0.145  -0.166  0.00  0.00    -0.047 A 
ATOM      6  C4  UNL d   1      -0.545  -0.324   0.222  0.00  0.00    -0.004 A 
ENDROOT
TORSDOF 0
ENDMDL
