MODEL 1
REMARK minimizedAffinity -0.555478573
REMARK minimizedRMSD -1
REMARK  0 active torsions:
REMARK  status: ('A' for Active; 'I' for Inactive)
ROOT
ATOM      1  C   UNL d   1       3.522   4.165   1.709  0.00  0.00     0.172 C 
ATOM      2  N   UNL d   1       4.146   4.035   0.413  0.00  0.00    -0.070 N 
ATOM      3  C1  UNL d   1       4.573   5.071  -0.375  0.00  0.00    -0.004 A 
ATOM      4  C2  UNL d   1       5.109   4.533  -1.525  0.00  0.00    -0.047 A 
ATOM      5  C3  UNL d   1       4.999   3.126  -1.425  0.00  0.00    -0.047 A 
ATOM      6  C4  UNL d   1       4.399   2.845  -0.216  0.00  0.00    -0.004 A 
ENDROOT
TORSDOF 0
ENDMDL
