MODEL 1
REMARK minimizedAffinity -1.20054412
REMARK minimizedRMSD -1
REMARK  0 active torsions:
REMARK  status: ('A' for Active; 'I' for Inactive)
ROOT
ATOM      1  C   UNL d   1       3.444   3.482   0.718  0.00  0.00     0.172 C 
ATOM      2  N   UNL d   1       4.420   3.468  -0.347  0.00  0.00    -0.070 N 
ATOM      3  C1  UNL d   1       4.714   2.395  -1.144  0.00  0.00    -0.004 A 
ATOM      4  C2  UNL d   1       5.693   2.785  -2.033  0.00  0.00    -0.047 A 
ATOM      5  C3  UNL d   1       5.997   4.140  -1.759  0.00  0.00    -0.047 A 
ATOM      6  C4  UNL d   1       5.194   4.537  -0.710  0.00  0.00    -0.004 A 
ENDROOT
TORSDOF 0
ENDMDL
