MODEL 1
REMARK minimizedAffinity -4.0790391
REMARK minimizedRMSD -1
REMARK  0 active torsions:
REMARK  status: ('A' for Active; 'I' for Inactive)
ROOT
ATOM      1  C   UNL d   1      -0.630   0.504  -0.017  0.00  0.00     0.172 C 
ATOM      2  N   UNL d   1      -1.670  -0.498  -0.028  0.00  0.00    -0.070 N 
ATOM      3  C1  UNL d   1      -2.837  -0.431  -0.741  0.00  0.00    -0.004 A 
ATOM      4  C2  UNL d   1      -3.557  -1.577  -0.483  0.00  0.00    -0.047 A 
ATOM      5  C3  UNL d   1      -2.797  -2.360   0.418  0.00  0.00    -0.047 A 
ATOM      6  C4  UNL d   1      -1.634  -1.669   0.683  0.00  0.00    -0.004 A 
ENDROOT
TORSDOF 0
ENDMDL
