MODEL 1
REMARK minimizedAffinity -4.1621418
REMARK minimizedRMSD -1
REMARK  0 active torsions:
REMARK  status: ('A' for Active; 'I' for Inactive)
ROOT
ATOM      1  C   UNL d   1       0.041   0.049   0.145  0.00  0.00     0.172 C 
ATOM      2  N   UNL d   1      -1.214  -0.664   0.130  0.00  0.00    -0.070 N 
ATOM      3  C1  UNL d   1      -1.487  -1.813   0.823  0.00  0.00    -0.004 A 
ATOM      4  C2  UNL d   1      -2.788  -2.175   0.544  0.00  0.00    -0.047 A 
ATOM      5  C3  UNL d   1      -3.314  -1.211  -0.348  0.00  0.00    -0.047 A 
ATOM      6  C4  UNL d   1      -2.318  -0.287  -0.587  0.00  0.00    -0.004 A 
ENDROOT
TORSDOF 0
ENDMDL
