MODEL 1
REMARK minimizedAffinity -3.98629951
REMARK minimizedRMSD -1
REMARK  0 active torsions:
REMARK  status: ('A' for Active; 'I' for Inactive)
ROOT
ATOM      1  C   UNL d   1      -0.339   0.078   0.006  0.00  0.00     0.172 C 
ATOM      2  N   UNL d   1      -1.385  -0.901   0.187  0.00  0.00    -0.070 N 
ATOM      3  C1  UNL d   1      -2.537  -0.984  -0.550  0.00  0.00    -0.004 A 
ATOM      4  C2  UNL d   1      -3.270  -2.047  -0.068  0.00  0.00    -0.047 A 
ATOM      5  C3  UNL d   1      -2.534  -2.621   0.995  0.00  0.00    -0.047 A 
ATOM      6  C4  UNL d   1      -1.372  -1.892   1.132  0.00  0.00    -0.004 A 
ENDROOT
TORSDOF 0
ENDMDL
