MODEL 1
REMARK minimizedAffinity -4.09974813
REMARK minimizedRMSD -1
REMARK  0 active torsions:
REMARK  status: ('A' for Active; 'I' for Inactive)
ROOT
ATOM      1  C   UNL d   1      -1.499  -2.953   1.586  0.00  0.00     0.172 C 
ATOM      2  N   UNL d   1      -1.758  -1.712   0.895  0.00  0.00    -0.070 N 
ATOM      3  C1  UNL d   1      -0.893  -0.654   0.805  0.00  0.00    -0.004 A 
ATOM      4  C2  UNL d   1      -1.510   0.334   0.067  0.00  0.00    -0.047 A 
ATOM      5  C3  UNL d   1      -2.789  -0.148  -0.298  0.00  0.00    -0.047 A 
ATOM      6  C4  UNL d   1      -2.917  -1.416   0.228  0.00  0.00    -0.004 A 
ENDROOT
TORSDOF 0
ENDMDL
