MODEL 1
REMARK minimizedAffinity -2.77214932
REMARK minimizedRMSD -1
REMARK  0 active torsions:
REMARK  status: ('A' for Active; 'I' for Inactive)
ROOT
ATOM      1  C   UNL d   1       2.297   2.301   1.508  0.00  0.00     0.172 C 
ATOM      2  N   UNL d   1       1.540   1.292   0.805  0.00  0.00    -0.070 N 
ATOM      3  C1  UNL d   1       0.175   1.181   0.795  0.00  0.00    -0.004 A 
ATOM      4  C2  UNL d   1      -0.154   0.096   0.011  0.00  0.00    -0.047 A 
ATOM      5  C3  UNL d   1       1.055  -0.465  -0.465  0.00  0.00    -0.047 A 
ATOM      6  C4  UNL d   1       2.088   0.295   0.042  0.00  0.00    -0.004 A 
ENDROOT
TORSDOF 0
ENDMDL
