MODEL 1
REMARK minimizedAffinity -2.72901011
REMARK minimizedRMSD -1
REMARK  0 active torsions:
REMARK  status: ('A' for Active; 'I' for Inactive)
ROOT
ATOM      1  C   UNL d   1       2.619   2.063   1.261  0.00  0.00     0.172 C 
ATOM      2  N   UNL d   1       1.648   1.135   0.732  0.00  0.00    -0.070 N 
ATOM      3  C1  UNL d   1       1.870  -0.191   0.471  0.00  0.00    -0.004 A 
ATOM      4  C2  UNL d   1       0.699  -0.726  -0.021  0.00  0.00    -0.047 A 
ATOM      5  C3  UNL d   1      -0.259   0.315  -0.059  0.00  0.00    -0.047 A 
ATOM      6  C4  UNL d   1       0.355   1.456   0.413  0.00  0.00    -0.004 A 
ENDROOT
TORSDOF 0
ENDMDL
