MODEL 1
REMARK minimizedAffinity -2.3520453
REMARK minimizedRMSD -1
REMARK  0 active torsions:
REMARK  status: ('A' for Active; 'I' for Inactive)
ROOT
ATOM      1  C   UNL d   1       2.597   1.878   1.940  0.00  0.00     0.172 C 
ATOM      2  N   UNL d   1       1.489   0.953   1.993  0.00  0.00    -0.070 N 
ATOM      3  C1  UNL d   1       1.459  -0.289   1.417  0.00  0.00    -0.004 A 
ATOM      4  C2  UNL d   1       0.232  -0.852   1.694  0.00  0.00    -0.047 A 
ATOM      5  C3  UNL d   1      -0.500   0.084   2.462  0.00  0.00    -0.047 A 
ATOM      6  C4  UNL d   1       0.302   1.193   2.632  0.00  0.00    -0.004 A 
ENDROOT
TORSDOF 0
ENDMDL
