MODEL 1
REMARK minimizedAffinity 3.3968339
REMARK minimizedRMSD -1
REMARK  0 active torsions:
REMARK  status: ('A' for Active; 'I' for Inactive)
ROOT
ATOM      1  C   UNL d   1      -0.798   1.088   3.137  0.00  0.00     0.172 C 
ATOM      2  N   UNL d   1      -0.177  -0.128   2.665  0.00  0.00    -0.070 N 
ATOM      3  C1  UNL d   1       1.097  -0.538   2.953  0.00  0.00    -0.004 A 
ATOM      4  C2  UNL d   1       1.307  -1.742   2.316  0.00  0.00    -0.047 A 
ATOM      5  C3  UNL d   1       0.119  -2.066   1.620  0.00  0.00    -0.047 A 
ATOM      6  C4  UNL d   1      -0.784  -1.050   1.853  0.00  0.00    -0.004 A 
ENDROOT
TORSDOF 0
ENDMDL
