MODEL 1
REMARK minimizedAffinity -2.38265967
REMARK minimizedRMSD -1
REMARK  0 active torsions:
REMARK  status: ('A' for Active; 'I' for Inactive)
ROOT
ATOM      1  C   UNL d   1      -0.022   0.504  -0.077  0.00  0.00     0.172 C 
ATOM      2  N   UNL d   1       1.195   1.131   0.383  0.00  0.00    -0.070 N 
ATOM      3  C1  UNL d   1       2.451   0.594   0.298  0.00  0.00    -0.004 A 
ATOM      4  C2  UNL d   1       3.335   1.500   0.843  0.00  0.00    -0.047 A 
ATOM      5  C3  UNL d   1       2.583   2.620   1.272  0.00  0.00    -0.047 A 
ATOM      6  C4  UNL d   1       1.261   2.365   0.974  0.00  0.00    -0.004 A 
ENDROOT
TORSDOF 0
ENDMDL
