MODEL 1
REMARK minimizedAffinity -1.32228625
REMARK minimizedRMSD -1
REMARK  0 active torsions:
REMARK  status: ('A' for Active; 'I' for Inactive)
ROOT
ATOM      1  C   UNL d   1       2.838   2.101   1.555  0.00  0.00     0.172 C 
ATOM      2  N   UNL d   1       1.682   1.523   0.911  0.00  0.00    -0.070 N 
ATOM      3  C1  UNL d   1       1.622   0.276   0.349  0.00  0.00    -0.004 A 
ATOM      4  C2  UNL d   1       0.352   0.102  -0.158  0.00  0.00    -0.047 A 
ATOM      5  C3  UNL d   1      -0.375   1.286   0.108  0.00  0.00    -0.047 A 
ATOM      6  C4  UNL d   1       0.472   2.149   0.770  0.00  0.00    -0.004 A 
ENDROOT
TORSDOF 0
ENDMDL
