MODEL 1
REMARK minimizedAffinity -1.66731012
REMARK minimizedRMSD -1
REMARK  0 active torsions:
REMARK  status: ('A' for Active; 'I' for Inactive)
ROOT
ATOM      1  C   UNL d   1       2.812   3.271   1.039  0.00  0.00     0.172 C 
ATOM      2  N   UNL d   1       3.492   3.376  -0.231  0.00  0.00    -0.070 N 
ATOM      3  C1  UNL d   1       3.771   4.542  -0.893  0.00  0.00    -0.004 A 
ATOM      4  C2  UNL d   1       4.426   4.217  -2.061  0.00  0.00    -0.047 A 
ATOM      5  C3  UNL d   1       4.544   2.807  -2.103  0.00  0.00    -0.047 A 
ATOM      6  C4  UNL d   1       3.957   2.312  -0.957  0.00  0.00    -0.004 A 
ENDROOT
TORSDOF 0
ENDMDL
