MODEL 1
REMARK minimizedAffinity 4.6478982
REMARK minimizedRMSD -1
REMARK  3 active torsions:
REMARK  status: ('A' for Active; 'I' for Inactive)
REMARK    1  A    between atoms: C3'_2  and  C2'_3 
REMARK    2  A    between atoms: C2'_3  and  C1'_4 
REMARK    3  A    between atoms: C1'_4  and  C1_5 
ROOT
ATOM      1  C1  N4B d   1       4.780   2.016   5.981  0.00  0.00    -0.075 A 
ATOM      2  C2  N4B d   1       5.995   2.736   5.994  0.00  0.00     0.002 A 
ATOM      3  C3  N4B d   1       5.979   4.109   5.999  0.00  0.00     0.002 A 
ATOM      4  C4  N4B d   1       4.766   4.781   5.972  0.00  0.00    -0.004 A 
ATOM      5  C5  N4B d   1       3.597   4.078   5.984  0.00  0.00     0.002 A 
ATOM      6  C6  N4B d   1       3.598   2.698   5.983  0.00  0.00     0.002 A 
ENDROOT
BRANCH   1   7
ATOM      7  C1' N4B d   1       4.747   0.515   5.888  0.00  0.00     0.057 C 
BRANCH   7   8
ATOM      8  C2' N4B d   1       4.556   0.107   4.430  0.00  0.00     0.009 C 
BRANCH   8   9
ATOM      9  C3' N4B d   1       5.809   0.343   3.605  0.00  0.00     0.004 C 
ATOM     10  C4' N4B d   1       5.568   1.241   2.428  0.00  0.00     0.003 C 
ENDBRANCH   8   9
ENDBRANCH   7   8
ENDBRANCH   1   7
TORSDOF 3
ENDMDL
