MODEL 1
REMARK minimizedAffinity 13.788641
REMARK minimizedRMSD -1
REMARK  3 active torsions:
REMARK  status: ('A' for Active; 'I' for Inactive)
REMARK    1  A    between atoms: C3'_2  and  C2'_3 
REMARK    2  A    between atoms: C2'_3  and  C1'_4 
REMARK    3  A    between atoms: C1'_4  and  C1_5 
ROOT
ATOM      1  C1  N4B d   1      -2.255  -2.149  -1.407  0.00  0.00    -0.075 A 
ATOM      2  C2  N4B d   1      -1.510  -3.099  -2.139  0.00  0.00     0.002 A 
ATOM      3  C3  N4B d   1      -1.505  -3.057  -3.512  0.00  0.00     0.002 A 
ATOM      4  C4  N4B d   1      -2.250  -2.091  -4.171  0.00  0.00    -0.004 A 
ATOM      5  C5  N4B d   1      -2.947  -1.162  -3.456  0.00  0.00     0.002 A 
ATOM      6  C6  N4B d   1      -2.958  -1.189  -2.076  0.00  0.00     0.002 A 
ENDROOT
BRANCH   1   7
ATOM      7  C1' N4B d   1      -2.360  -2.208   0.093  0.00  0.00     0.057 C 
BRANCH   7   8
ATOM      8  C2' N4B d   1      -3.525  -1.334   0.548  0.00  0.00     0.009 C 
BRANCH   8   9
ATOM      9  C3' N4B d   1      -4.680  -2.162   1.085  0.00  0.00     0.004 C 
ATOM     10  C4' N4B d   1      -5.999  -1.780   0.481  0.00  0.00     0.003 C 
ENDBRANCH   8   9
ENDBRANCH   7   8
ENDBRANCH   1   7
TORSDOF 3
ENDMDL
