MODEL 1
REMARK minimizedAffinity 9.22898674
REMARK minimizedRMSD -1
REMARK  3 active torsions:
REMARK  status: ('A' for Active; 'I' for Inactive)
REMARK    1  A    between atoms: C3'_2  and  C2'_3 
REMARK    2  A    between atoms: C2'_3  and  C1'_4 
REMARK    3  A    between atoms: C1'_4  and  C1_5 
ROOT
ATOM      1  C1  N4B d   1      -4.509   5.282  -0.873  0.00  0.00    -0.075 A 
ATOM      2  C2  N4B d   1      -4.022   4.034  -0.427  0.00  0.00     0.002 A 
ATOM      3  C3  N4B d   1      -4.519   3.475   0.725  0.00  0.00     0.002 A 
ATOM      4  C4  N4B d   1      -5.484   4.153   1.455  0.00  0.00    -0.004 A 
ATOM      5  C5  N4B d   1      -5.967   5.346   1.004  0.00  0.00     0.002 A 
ATOM      6  C6  N4B d   1      -5.480   5.917  -0.155  0.00  0.00     0.002 A 
ENDROOT
BRANCH   1   7
ATOM      7  C1' N4B d   1      -3.935   5.973  -2.080  0.00  0.00     0.057 C 
BRANCH   7   8
ATOM      8  C2' N4B d   1      -4.982   5.993  -3.190  0.00  0.00     0.009 C 
BRANCH   8   9
ATOM      9  C3' N4B d   1      -4.347   5.983  -4.570  0.00  0.00     0.004 C 
ATOM     10  C4' N4B d   1      -5.357   5.861  -5.673  0.00  0.00     0.003 C 
ENDBRANCH   8   9
ENDBRANCH   7   8
ENDBRANCH   1   7
TORSDOF 3
ENDMDL
