MODEL 1
REMARK minimizedAffinity 9.21412945
REMARK minimizedRMSD -1
REMARK  3 active torsions:
REMARK  status: ('A' for Active; 'I' for Inactive)
REMARK    1  A    between atoms: C3'_2  and  C2'_3 
REMARK    2  A    between atoms: C2'_3  and  C1'_4 
REMARK    3  A    between atoms: C1'_4  and  C1_5 
ROOT
ATOM      1  C1  N4B d   1      -4.610   3.424   0.077  0.00  0.00    -0.075 A 
ATOM      2  C2  N4B d   1      -4.140   4.469  -0.748  0.00  0.00     0.002 A 
ATOM      3  C3  N4B d   1      -4.614   5.746  -0.576  0.00  0.00     0.002 A 
ATOM      4  C4  N4B d   1      -5.569   5.998   0.397  0.00  0.00    -0.004 A 
ATOM      5  C5  N4B d   1      -6.000   4.988   1.207  0.00  0.00     0.002 A 
ATOM      6  C6  N4B d   1      -5.529   3.700   1.048  0.00  0.00     0.002 A 
ENDROOT
BRANCH   1   7
ATOM      7  C1' N4B d   1      -4.185   1.996  -0.130  0.00  0.00     0.057 C 
BRANCH   7   8
ATOM      8  C2' N4B d   1      -5.047   1.370  -1.221  0.00  0.00     0.009 C 
BRANCH   8   9
ATOM      9  C3' N4B d   1      -4.237   0.472  -2.141  0.00  0.00     0.004 C 
ATOM     10  C4' N4B d   1      -3.704  -0.744  -1.443  0.00  0.00     0.003 C 
ENDBRANCH   8   9
ENDBRANCH   7   8
ENDBRANCH   1   7
TORSDOF 3
ENDMDL
