MODEL 1
REMARK minimizedAffinity 9.88505173
REMARK minimizedRMSD -1
REMARK  3 active torsions:
REMARK  status: ('A' for Active; 'I' for Inactive)
REMARK    1  A    between atoms: C3'_2  and  C2'_3 
REMARK    2  A    between atoms: C2'_3  and  C1'_4 
REMARK    3  A    between atoms: C1'_4  and  C1_5 
ROOT
ATOM      1  C1  N4B d   1      -0.921  -0.770  -1.975  0.00  0.00    -0.075 A 
ATOM      2  C2  N4B d   1      -0.806  -1.574  -0.820  0.00  0.00     0.002 A 
ATOM      3  C3  N4B d   1      -1.935  -1.975  -0.148  0.00  0.00     0.002 A 
ATOM      4  C4  N4B d   1      -3.182  -1.570  -0.599  0.00  0.00    -0.004 A 
ATOM      5  C5  N4B d   1      -3.286  -0.814  -1.730  0.00  0.00     0.002 A 
ATOM      6  C6  N4B d   1      -2.160  -0.408  -2.418  0.00  0.00     0.002 A 
ENDROOT
BRANCH   1   7
ATOM      7  C1' N4B d   1       0.288  -0.236  -2.694  0.00  0.00     0.057 C 
BRANCH   7   8
ATOM      8  C2' N4B d   1       1.408  -0.002  -1.685  0.00  0.00     0.009 C 
BRANCH   8   9
ATOM      9  C3' N4B d   1       2.273   1.188  -2.062  0.00  0.00     0.004 C 
ATOM     10  C4' N4B d   1       2.373   2.204  -0.964  0.00  0.00     0.003 C 
ENDBRANCH   8   9
ENDBRANCH   7   8
ENDBRANCH   1   7
TORSDOF 3
ENDMDL
