MODEL 1
REMARK minimizedAffinity 8.68727398
REMARK minimizedRMSD -1
REMARK  3 active torsions:
REMARK  status: ('A' for Active; 'I' for Inactive)
REMARK    1  A    between atoms: C3'_2  and  C2'_3 
REMARK    2  A    between atoms: C2'_3  and  C1'_4 
REMARK    3  A    between atoms: C1'_4  and  C1_5 
ROOT
ATOM      1  C1  N4B d   1      -1.492  -1.160  -1.228  0.00  0.00    -0.075 A 
ATOM      2  C2  N4B d   1      -2.090  -1.528  -0.003  0.00  0.00     0.002 A 
ATOM      3  C3  N4B d   1      -3.390  -1.171   0.262  0.00  0.00     0.002 A 
ATOM      4  C4  N4B d   1      -4.102  -0.433  -0.672  0.00  0.00    -0.004 A 
ATOM      5  C5  N4B d   1      -3.526  -0.104  -1.863  0.00  0.00     0.002 A 
ATOM      6  C6  N4B d   1      -2.222  -0.459  -2.144  0.00  0.00     0.002 A 
ENDROOT
BRANCH   1   7
ATOM      7  C1' N4B d   1      -0.047  -1.453  -1.526  0.00  0.00     0.057 C 
BRANCH   7   8
ATOM      8  C2' N4B d   1       0.535  -0.310  -2.352  0.00  0.00     0.009 C 
BRANCH   8   9
ATOM      9  C3' N4B d   1       1.888   0.139  -1.827  0.00  0.00     0.004 C 
ATOM     10  C4' N4B d   1       1.820   1.438  -1.081  0.00  0.00     0.003 C 
ENDBRANCH   8   9
ENDBRANCH   7   8
ENDBRANCH   1   7
TORSDOF 3
ENDMDL
