MODEL 1
REMARK minimizedAffinity 17.4534206
REMARK minimizedRMSD -1
REMARK  3 active torsions:
REMARK  status: ('A' for Active; 'I' for Inactive)
REMARK    1  A    between atoms: C3'_2  and  C2'_3 
REMARK    2  A    between atoms: C2'_3  and  C1'_4 
REMARK    3  A    between atoms: C1'_4  and  C1_5 
ROOT
ATOM      1  C1  N4B d   1      -2.543  -0.530  -2.756  0.00  0.00    -0.075 A 
ATOM      2  C2  N4B d   1      -1.435  -1.399  -2.868  0.00  0.00     0.002 A 
ATOM      3  C3  N4B d   1      -1.025  -2.132  -1.781  0.00  0.00     0.002 A 
ATOM      4  C4  N4B d   1      -1.693  -1.999  -0.573  0.00  0.00    -0.004 A 
ATOM      5  C5  N4B d   1      -2.778  -1.177  -0.480  0.00  0.00     0.002 A 
ATOM      6  C6  N4B d   1      -3.203  -0.437  -1.565  0.00  0.00     0.002 A 
ENDROOT
BRANCH   1   7
ATOM      7  C1' N4B d   1      -2.975   0.356  -3.893  0.00  0.00     0.057 C 
BRANCH   7   8
ATOM      8  C2' N4B d   1      -2.714   1.812  -3.520  0.00  0.00     0.009 C 
BRANCH   8   9
ATOM      9  C3' N4B d   1      -2.009   2.566  -4.634  0.00  0.00     0.004 C 
ATOM     10  C4' N4B d   1      -0.522   2.622  -4.447  0.00  0.00     0.003 C 
ENDBRANCH   8   9
ENDBRANCH   7   8
ENDBRANCH   1   7
TORSDOF 3
ENDMDL
