MODEL 1
REMARK minimizedAffinity 11.8128262
REMARK minimizedRMSD -1
REMARK  3 active torsions:
REMARK  status: ('A' for Active; 'I' for Inactive)
REMARK    1  A    between atoms: C3'_2  and  C2'_3 
REMARK    2  A    between atoms: C2'_3  and  C1'_4 
REMARK    3  A    between atoms: C1'_4  and  C1_5 
ROOT
ATOM      1  C1  N4B d   1       4.213   3.309  -0.195  0.00  0.00    -0.075 A 
ATOM      2  C2  N4B d   1       4.055   4.590   0.377  0.00  0.00     0.002 A 
ATOM      3  C3  N4B d   1       4.873   5.622  -0.014  0.00  0.00     0.002 A 
ATOM      4  C4  N4B d   1       5.863   5.393  -0.957  0.00  0.00    -0.004 A 
ATOM      5  C5  N4B d   1       5.993   4.159  -1.523  0.00  0.00     0.002 A 
ATOM      6  C6  N4B d   1       5.176   3.113  -1.143  0.00  0.00     0.002 A 
ENDROOT
BRANCH   1   7
ATOM      7  C1' N4B d   1       3.400   2.129   0.262  0.00  0.00     0.057 C 
BRANCH   7   8
ATOM      8  C2' N4B d   1       2.268   1.885  -0.732  0.00  0.00     0.009 C 
BRANCH   8   9
ATOM      9  C3' N4B d   1       2.706   0.997  -1.884  0.00  0.00     0.004 C 
ATOM     10  C4' N4B d   1       1.717  -0.088  -2.190  0.00  0.00     0.003 C 
ENDBRANCH   8   9
ENDBRANCH   7   8
ENDBRANCH   1   7
TORSDOF 3
ENDMDL
