MODEL 1
REMARK minimizedAffinity 11.7020969
REMARK minimizedRMSD -1
REMARK  3 active torsions:
REMARK  status: ('A' for Active; 'I' for Inactive)
REMARK    1  A    between atoms: C3'_2  and  C2'_3 
REMARK    2  A    between atoms: C2'_3  and  C1'_4 
REMARK    3  A    between atoms: C1'_4  and  C1_5 
ROOT
ATOM      1  C1  N4B d   1      -1.685  -2.406   2.038  0.00  0.00    -0.075 A 
ATOM      2  C2  N4B d   1      -2.630  -1.457   1.591  0.00  0.00     0.002 A 
ATOM      3  C3  N4B d   1      -2.891  -1.328   0.248  0.00  0.00     0.002 A 
ATOM      4  C4  N4B d   1      -2.208  -2.121  -0.662  0.00  0.00    -0.004 A 
ATOM      5  C5  N4B d   1      -1.316  -3.053  -0.220  0.00  0.00     0.002 A 
ATOM      6  C6  N4B d   1      -1.047  -3.196   1.127  0.00  0.00     0.002 A 
ENDROOT
BRANCH   1   7
ATOM      7  C1' N4B d   1      -1.304  -2.524   3.489  0.00  0.00     0.057 C 
BRANCH   7   8
ATOM      8  C2' N4B d   1      -2.212  -1.622   4.320  0.00  0.00     0.009 C 
BRANCH   8   9
ATOM      9  C3' N4B d   1      -2.212  -2.014   5.788  0.00  0.00     0.004 C 
ATOM     10  C4' N4B d   1      -1.933  -3.472   6.000  0.00  0.00     0.003 C 
ENDBRANCH   8   9
ENDBRANCH   7   8
ENDBRANCH   1   7
TORSDOF 3
ENDMDL
