MODEL 1
REMARK minimizedAffinity 15.4671268
REMARK minimizedRMSD -1
REMARK  3 active torsions:
REMARK  status: ('A' for Active; 'I' for Inactive)
REMARK    1  A    between atoms: C3'_2  and  C2'_3 
REMARK    2  A    between atoms: C2'_3  and  C1'_4 
REMARK    3  A    between atoms: C1'_4  and  C1_5 
ROOT
ATOM      1  C1  N4B d   1      -4.220   3.596  -4.843  0.00  0.00    -0.075 A 
ATOM      2  C2  N4B d   1      -3.774   4.552  -3.904  0.00  0.00     0.002 A 
ATOM      3  C3  N4B d   1      -4.449   5.740  -3.762  0.00  0.00     0.002 A 
ATOM      4  C4  N4B d   1      -5.556   6.000  -4.556  0.00  0.00    -0.004 A 
ATOM      5  C5  N4B d   1      -5.995   5.060  -5.442  0.00  0.00     0.002 A 
ATOM      6  C6  N4B d   1      -5.329   3.860  -5.594  0.00  0.00     0.002 A 
ENDROOT
BRANCH   1   7
ATOM      7  C1' N4B d   1      -3.465   2.319  -5.095  0.00  0.00     0.057 C 
BRANCH   7   8
ATOM      8  C2' N4B d   1      -2.247   2.268  -4.177  0.00  0.00     0.009 C 
BRANCH   8   9
ATOM      9  C3' N4B d   1      -0.946   2.241  -4.960  0.00  0.00     0.004 C 
ATOM     10  C4' N4B d   1      -0.012   3.348  -4.571  0.00  0.00     0.003 C 
ENDBRANCH   8   9
ENDBRANCH   7   8
ENDBRANCH   1   7
TORSDOF 3
ENDMDL
