MODEL 1
REMARK minimizedAffinity 7.47038507
REMARK minimizedRMSD -1
REMARK  3 active torsions:
REMARK  status: ('A' for Active; 'I' for Inactive)
REMARK    1  A    between atoms: C3'_2  and  C2'_3 
REMARK    2  A    between atoms: C2'_3  and  C1'_4 
REMARK    3  A    between atoms: C1'_4  and  C1_5 
ROOT
ATOM      1  C1  N4B d   1      -1.443  -2.520   2.814  0.00  0.00    -0.075 A 
ATOM      2  C2  N4B d   1      -0.463  -3.089   1.971  0.00  0.00     0.002 A 
ATOM      3  C3  N4B d   1      -0.667  -3.134   0.614  0.00  0.00     0.002 A 
ATOM      4  C4  N4B d   1      -1.846  -2.635   0.080  0.00  0.00    -0.004 A 
ATOM      5  C5  N4B d   1      -2.776  -2.064   0.898  0.00  0.00     0.002 A 
ATOM      6  C6  N4B d   1      -2.583  -2.009   2.264  0.00  0.00     0.002 A 
ENDROOT
BRANCH   1   7
ATOM      7  C1' N4B d   1      -1.303  -2.526   4.311  0.00  0.00     0.057 C 
BRANCH   7   8
ATOM      8  C2' N4B d   1      -2.556  -1.916   4.934  0.00  0.00     0.009 C 
BRANCH   8   9
ATOM      9  C3' N4B d   1      -2.231  -0.712   5.800  0.00  0.00     0.004 C 
ATOM     10  C4' N4B d   1      -2.650   0.585   5.174  0.00  0.00     0.003 C 
ENDBRANCH   8   9
ENDBRANCH   7   8
ENDBRANCH   1   7
TORSDOF 3
ENDMDL
