MODEL 1
REMARK minimizedAffinity 19.1336555
REMARK minimizedRMSD -1
REMARK  0 active torsions:
REMARK  status: ('A' for Active; 'I' for Inactive)
ROOT
ATOM      1  O1  BZF d   1       4.620  -0.909   0.743  0.00  0.00    -0.204 OA
ATOM      2  C2  BZF d   1       5.384  -1.909   1.313  0.00  0.00     0.174 A 
ATOM      3  C3  BZF d   1       4.621  -2.718   2.075  0.00  0.00    -0.012 A 
ATOM      4  C3A BZF d   1       3.281  -2.246   1.901  0.00  0.00    -0.107 A 
ATOM      5  C4  BZF d   1       2.072  -2.652   2.388  0.00  0.00     0.055 A 
ATOM      6  C5  BZF d   1       0.961  -1.931   2.084  0.00  0.00    -0.016 A 
ATOM      7  C6  BZF d   1       1.024  -0.798   1.299  0.00  0.00     0.022 A 
ATOM      8  C7  BZF d   1       2.200  -0.359   0.788  0.00  0.00     0.029 A 
ATOM      9  C7A BZF d   1       3.320  -1.104   1.067  0.00  0.00     0.058 A 
ENDROOT
TORSDOF 0
ENDMDL
