MODEL 1
REMARK minimizedAffinity 4.65716171
REMARK minimizedRMSD -1
REMARK  0 active torsions:
REMARK  status: ('A' for Active; 'I' for Inactive)
ROOT
ATOM      1  O1  BZF d   1       1.527  -3.781   5.258  0.00  0.00    -0.204 OA
ATOM      2  C2  BZF d   1       1.716  -4.943   5.982  0.00  0.00     0.174 A 
ATOM      3  C3  BZF d   1       1.870  -6.000   5.159  0.00  0.00    -0.012 A 
ATOM      4  C3A BZF d   1       1.863  -5.452   3.837  0.00  0.00    -0.107 A 
ATOM      5  C4  BZF d   1       1.991  -6.000   2.593  0.00  0.00     0.055 A 
ATOM      6  C5  BZF d   1       1.865  -5.199   1.502  0.00  0.00    -0.016 A 
ATOM      7  C6  BZF d   1       1.606  -3.849   1.619  0.00  0.00     0.022 A 
ATOM      8  C7  BZF d   1       1.476  -3.259   2.832  0.00  0.00     0.029 A 
ATOM      9  C7A BZF d   1       1.635  -4.060   3.937  0.00  0.00     0.058 A 
ENDROOT
TORSDOF 0
ENDMDL
