MODEL 1
REMARK minimizedAffinity 16.8741493
REMARK minimizedRMSD -1
REMARK  0 active torsions:
REMARK  status: ('A' for Active; 'I' for Inactive)
ROOT
ATOM      1  O1  BZF d   1       0.755  -1.826   4.143  0.00  0.00    -0.204 OA
ATOM      2  C2  BZF d   1       1.514  -2.929   4.483  0.00  0.00     0.174 A 
ATOM      3  C3  BZF d   1       2.391  -3.226   3.502  0.00  0.00    -0.012 A 
ATOM      4  C3A BZF d   1       2.229  -2.192   2.526  0.00  0.00    -0.107 A 
ATOM      5  C4  BZF d   1       2.831  -1.928   1.330  0.00  0.00     0.055 A 
ATOM      6  C5  BZF d   1       2.391  -0.879   0.586  0.00  0.00    -0.016 A 
ATOM      7  C6  BZF d   1       1.348  -0.078   1.005  0.00  0.00     0.022 A 
ATOM      8  C7  BZF d   1       0.723  -0.299   2.187  0.00  0.00     0.029 A 
ATOM      9  C7A BZF d   1       1.187  -1.338   2.956  0.00  0.00     0.058 A 
ENDROOT
TORSDOF 0
ENDMDL
