MODEL 1
REMARK minimizedAffinity 7.50546646
REMARK minimizedRMSD -1
REMARK  0 active torsions:
REMARK  status: ('A' for Active; 'I' for Inactive)
ROOT
ATOM      1  O1  BZF d   1       0.839  -0.050   4.983  0.00  0.00    -0.204 OA
ATOM      2  C2  BZF d   1       0.921  -1.163   5.797  0.00  0.00     0.174 A 
ATOM      3  C3  BZF d   1       1.249  -2.257   5.080  0.00  0.00    -0.012 A 
ATOM      4  C3A BZF d   1       1.471  -1.783   3.749  0.00  0.00    -0.107 A 
ATOM      5  C4  BZF d   1       1.838  -2.393   2.584  0.00  0.00     0.055 A 
ATOM      6  C5  BZF d   1       1.894  -1.657   1.442  0.00  0.00    -0.016 A 
ATOM      7  C6  BZF d   1       1.585  -0.313   1.429  0.00  0.00     0.022 A 
ATOM      8  C7  BZF d   1       1.220   0.337   2.561  0.00  0.00     0.029 A 
ATOM      9  C7A BZF d   1       1.195  -0.396   3.722  0.00  0.00     0.058 A 
ENDROOT
TORSDOF 0
ENDMDL
