MODEL 1
REMARK minimizedAffinity 14.2623892
REMARK minimizedRMSD -1
REMARK  0 active torsions:
REMARK  status: ('A' for Active; 'I' for Inactive)
ROOT
ATOM      1  O1  BZF d   1       1.028  -0.592   2.857  0.00  0.00    -0.204 OA
ATOM      2  C2  BZF d   1       1.359  -1.889   2.516  0.00  0.00     0.174 A 
ATOM      3  C3  BZF d   1       2.344  -1.906   1.595  0.00  0.00    -0.012 A 
ATOM      4  C3A BZF d   1       2.712  -0.535   1.414  0.00  0.00    -0.107 A 
ATOM      5  C4  BZF d   1       3.645   0.092   0.638  0.00  0.00     0.055 A 
ATOM      6  C5  BZF d   1       3.700   1.450   0.639  0.00  0.00    -0.016 A 
ATOM      7  C6  BZF d   1       2.835   2.211   1.397  0.00  0.00     0.022 A 
ATOM      8  C7  BZF d   1       1.896   1.634   2.186  0.00  0.00     0.029 A 
ATOM      9  C7A BZF d   1       1.860   0.262   2.213  0.00  0.00     0.058 A 
ENDROOT
TORSDOF 0
ENDMDL
