MODEL 1
REMARK minimizedAffinity 4.41121149
REMARK minimizedRMSD -1
REMARK  0 active torsions:
REMARK  status: ('A' for Active; 'I' for Inactive)
ROOT
ATOM      1  O1  BZF d   1       3.806  -0.148   0.593  0.00  0.00    -0.204 OA
ATOM      2  C2  BZF d   1       3.255   1.114   0.484  0.00  0.00     0.174 A 
ATOM      3  C3  BZF d   1       2.206   1.253   1.320  0.00  0.00    -0.012 A 
ATOM      4  C3A BZF d   1       2.152   0.030   2.061  0.00  0.00    -0.107 A 
ATOM      5  C4  BZF d   1       1.336  -0.430   3.055  0.00  0.00     0.055 A 
ATOM      6  C5  BZF d   1       1.504  -1.698   3.513  0.00  0.00    -0.016 A 
ATOM      7  C6  BZF d   1       2.472  -2.534   2.998  0.00  0.00     0.022 A 
ATOM      8  C7  BZF d   1       3.308  -2.121   2.014  0.00  0.00     0.029 A 
ATOM      9  C7A BZF d   1       3.163  -0.829   1.572  0.00  0.00     0.058 A 
ENDROOT
TORSDOF 0
ENDMDL
