MODEL 1
REMARK minimizedAffinity -3.61857009
REMARK minimizedRMSD -1
REMARK  1 active torsions:
REMARK  status: ('A' for Active; 'I' for Inactive)
REMARK    1  A    between atoms: C1_2  and  C2_3 
ROOT
ATOM      1  C2  UNL d   1       0.181  -0.158   0.268  0.00  0.00    -0.076 A 
ATOM      2  C3  UNL d   1       0.641  -1.485   0.323  0.00  0.00     0.004 A 
ATOM      3  C4  UNL d   1       1.995  -1.768   0.500  0.00  0.00    -0.003 A 
ATOM      4  C5  UNL d   1       2.909  -0.728   0.625  0.00  0.00     0.000 A 
ATOM      5  C6  UNL d   1       2.468   0.594   0.591  0.00  0.00     0.000 A 
ATOM      6  C7  UNL d   1       1.105   0.896   0.430  0.00  0.00    -0.073 A 
ATOM      7  C8  UNL d   1       0.685   2.340   0.394  0.00  0.00     0.078 C 
ENDROOT
BRANCH   1   8
ATOM      8  C1  UNL d   1      -1.295   0.088   0.047  0.00  0.00     0.053 C 
ATOM      9  C   UNL d   1      -1.692  -0.028  -1.416  0.00  0.00     0.018 C 
ENDBRANCH   1   8
TORSDOF 1
ENDMDL
