MODEL 1
REMARK minimizedAffinity -4.83414793
REMARK minimizedRMSD -1
REMARK  1 active torsions:
REMARK  status: ('A' for Active; 'I' for Inactive)
REMARK    1  A    between atoms: C1_2  and  C2_3 
ROOT
ATOM      1  C2  UNL d   1       0.091   0.205   0.110  0.00  0.00    -0.076 A 
ATOM      2  C3  UNL d   1       0.372   1.417  -0.544  0.00  0.00     0.004 A 
ATOM      3  C4  UNL d   1       1.645   1.983  -0.490  0.00  0.00    -0.003 A 
ATOM      4  C5  UNL d   1       2.657   1.345   0.218  0.00  0.00     0.000 A 
ATOM      5  C6  UNL d   1       2.401   0.133   0.858  0.00  0.00     0.000 A 
ATOM      6  C7  UNL d   1       1.127  -0.459   0.800  0.00  0.00    -0.073 A 
ATOM      7  C8  UNL d   1       0.905  -1.764   1.514  0.00  0.00     0.078 C 
ENDROOT
BRANCH   1   8
ATOM      8  C1  UNL d   1      -1.315  -0.347   0.039  0.00  0.00     0.053 C 
ATOM      9  C   UNL d   1      -2.145   0.311  -1.053  0.00  0.00     0.018 C 
ENDBRANCH   1   8
TORSDOF 1
ENDMDL
