MODEL 1
REMARK minimizedAffinity -3.77335572
REMARK minimizedRMSD -1
REMARK  1 active torsions:
REMARK  status: ('A' for Active; 'I' for Inactive)
REMARK    1  A    between atoms: C1_2  and  C2_3 
ROOT
ATOM      1  C2  UNL d   1       0.462   0.336  -0.167  0.00  0.00    -0.076 A 
ATOM      2  C3  UNL d   1       0.477  -0.429   1.013  0.00  0.00     0.004 A 
ATOM      3  C4  UNL d   1       1.612  -0.483   1.819  0.00  0.00    -0.003 A 
ATOM      4  C5  UNL d   1       2.752   0.228   1.460  0.00  0.00     0.000 A 
ATOM      5  C6  UNL d   1       2.750   1.007   0.302  0.00  0.00     0.000 A 
ATOM      6  C7  UNL d   1       1.608   1.085  -0.513  0.00  0.00    -0.073 A 
ATOM      7  C8  UNL d   1       1.663   1.935  -1.753  0.00  0.00     0.078 C 
ENDROOT
BRANCH   1   8
ATOM      8  C1  UNL d   1      -0.789   0.335  -1.016  0.00  0.00     0.053 C 
ATOM      9  C   UNL d   1      -1.868  -0.581  -0.461  0.00  0.00     0.018 C 
ENDBRANCH   1   8
TORSDOF 1
ENDMDL
