MODEL 1
REMARK minimizedAffinity 1.29895771
REMARK minimizedRMSD -1
REMARK  1 active torsions:
REMARK  status: ('A' for Active; 'I' for Inactive)
REMARK    1  A    between atoms: C1_2  and  C2_3 
ROOT
ATOM      1  C2  UNL d   1      -0.599   0.799  -0.331  0.00  0.00    -0.076 A 
ATOM      2  C3  UNL d   1      -0.349  -0.530   0.051  0.00  0.00     0.004 A 
ATOM      3  C4  UNL d   1       0.807  -0.869   0.752  0.00  0.00    -0.003 A 
ATOM      4  C5  UNL d   1       1.731   0.116   1.083  0.00  0.00     0.000 A 
ATOM      5  C6  UNL d   1       1.490   1.443   0.727  0.00  0.00     0.000 A 
ATOM      6  C7  UNL d   1       0.322   1.804   0.034  0.00  0.00    -0.073 A 
ATOM      7  C8  UNL d   1       0.116   3.248  -0.330  0.00  0.00     0.078 C 
ENDROOT
BRANCH   1   8
ATOM      8  C1  UNL d   1      -1.857   1.102  -1.114  0.00  0.00     0.053 C 
ATOM      9  C   UNL d   1      -2.006   0.219  -2.343  0.00  0.00     0.018 C 
ENDBRANCH   1   8
TORSDOF 1
ENDMDL
