MODEL 1
REMARK minimizedAffinity -3.21110845
REMARK minimizedRMSD -1
REMARK  1 active torsions:
REMARK  status: ('A' for Active; 'I' for Inactive)
REMARK    1  A    between atoms: C1_2  and  C2_3 
ROOT
ATOM      1  C2  UNL d   1      -0.039   0.234   0.468  0.00  0.00    -0.076 A 
ATOM      2  C3  UNL d   1       1.001   1.156   0.259  0.00  0.00     0.004 A 
ATOM      3  C4  UNL d   1       2.266   0.947   0.805  0.00  0.00    -0.003 A 
ATOM      4  C5  UNL d   1       2.512  -0.189   1.569  0.00  0.00     0.000 A 
ATOM      5  C6  UNL d   1       1.497  -1.124   1.771  0.00  0.00     0.000 A 
ATOM      6  C7  UNL d   1       0.220  -0.936   1.214  0.00  0.00    -0.073 A 
ATOM      7  C8  UNL d   1      -0.839  -1.972   1.469  0.00  0.00     0.078 C 
ENDROOT
BRANCH   1   8
ATOM      8  C1  UNL d   1      -1.398   0.528  -0.127  0.00  0.00     0.053 C 
ATOM      9  C   UNL d   1      -1.512   0.073  -1.573  0.00  0.00     0.018 C 
ENDBRANCH   1   8
TORSDOF 1
ENDMDL
