MODEL 1
REMARK minimizedAffinity -5.02737951
REMARK minimizedRMSD -1
REMARK  1 active torsions:
REMARK  status: ('A' for Active; 'I' for Inactive)
REMARK    1  A    between atoms: C1_2  and  C2_3 
ROOT
ATOM      1  C2  UNL d   1      -0.353   0.422   0.037  0.00  0.00    -0.076 A 
ATOM      2  C3  UNL d   1      -0.210  -0.882   0.542  0.00  0.00     0.004 A 
ATOM      3  C4  UNL d   1       1.002  -1.315   1.078  0.00  0.00    -0.003 A 
ATOM      4  C5  UNL d   1       2.090  -0.451   1.118  0.00  0.00     0.000 A 
ATOM      5  C6  UNL d   1       1.961   0.852   0.638  0.00  0.00     0.000 A 
ATOM      6  C7  UNL d   1       0.742   1.309   0.109  0.00  0.00    -0.073 A 
ATOM      7  C8  UNL d   1       0.661   2.722  -0.400  0.00  0.00     0.078 C 
ENDROOT
BRANCH   1   8
ATOM      8  C1  UNL d   1      -1.683   0.826  -0.557  0.00  0.00     0.053 C 
ATOM      9  C   UNL d   1      -2.009   0.062  -1.831  0.00  0.00     0.018 C 
ENDBRANCH   1   8
TORSDOF 1
ENDMDL
