MODEL 1
REMARK minimizedAffinity -4.94048071
REMARK minimizedRMSD -1
REMARK  1 active torsions:
REMARK  status: ('A' for Active; 'I' for Inactive)
REMARK    1  A    between atoms: C1_2  and  C2_3 
ROOT
ATOM      1  C2  UNL d   1       0.211  -0.165   0.549  0.00  0.00    -0.076 A 
ATOM      2  C3  UNL d   1       0.761  -1.455   0.643  0.00  0.00     0.004 A 
ATOM      3  C4  UNL d   1       2.109  -1.640   0.947  0.00  0.00    -0.003 A 
ATOM      4  C5  UNL d   1       2.928  -0.537   1.163  0.00  0.00     0.000 A 
ATOM      5  C6  UNL d   1       2.395   0.749   1.091  0.00  0.00     0.000 A 
ATOM      6  C7  UNL d   1       1.035   0.953   0.801  0.00  0.00    -0.073 A 
ATOM      7  C8  UNL d   1       0.515   2.363   0.730  0.00  0.00     0.078 C 
ENDROOT
BRANCH   1   8
ATOM      8  C1  UNL d   1      -1.251  -0.025   0.189  0.00  0.00     0.053 C 
ATOM      9  C   UNL d   1      -1.514  -0.279  -1.287  0.00  0.00     0.018 C 
ENDBRANCH   1   8
TORSDOF 1
ENDMDL
