MODEL 1
REMARK minimizedAffinity -0.0920990109
REMARK minimizedRMSD -1
REMARK  1 active torsions:
REMARK  status: ('A' for Active; 'I' for Inactive)
REMARK    1  A    between atoms: C1_2  and  C2_3 
ROOT
ATOM      1  C2  UNL d   1       0.920  -0.258   1.171  0.00  0.00    -0.076 A 
ATOM      2  C3  UNL d   1      -0.402  -0.604   0.842  0.00  0.00     0.004 A 
ATOM      3  C4  UNL d   1      -1.152   0.179  -0.034  0.00  0.00    -0.003 A 
ATOM      4  C5  UNL d   1      -0.591   1.320  -0.597  0.00  0.00     0.000 A 
ATOM      5  C6  UNL d   1       0.725   1.669  -0.295  0.00  0.00     0.000 A 
ATOM      6  C7  UNL d   1       1.500   0.882   0.573  0.00  0.00    -0.073 A 
ATOM      7  C8  UNL d   1       2.912   1.309   0.868  0.00  0.00     0.078 C 
ENDROOT
BRANCH   1   8
ATOM      8  C1  UNL d   1       1.676  -1.129   2.148  0.00  0.00     0.053 C 
ATOM      9  C   UNL d   1       0.951  -2.433   2.447  0.00  0.00     0.018 C 
ENDBRANCH   1   8
TORSDOF 1
ENDMDL
