MODEL 1
REMARK minimizedAffinity 20.3056469
REMARK minimizedRMSD -1
REMARK  0 active torsions:
REMARK  status: ('A' for Active; 'I' for Inactive)
ROOT
ATOM      1  C   UNL d   1       2.994  -1.701   2.471  0.00  0.00     0.124 A 
ATOM      2  C1  UNL d   1       3.522  -2.939   2.812  0.00  0.00     0.062 A 
ATOM      3  C2  UNL d   1       2.872  -3.745   3.742  0.00  0.00     0.162 A 
ATOM      4  C3  UNL d   1       1.686  -3.316   4.339  0.00  0.00    -0.034 A 
ATOM      5  C4  UNL d   1       1.162  -2.069   3.992  0.00  0.00     0.162 A 
ATOM      6  C5  UNL d   1       1.816  -1.268   3.061  0.00  0.00     0.062 A 
ATOM      7  F   UNL d   1       1.305  -0.072   2.734  0.00  0.00    -0.097 F 
ATOM      8  F1  UNL d   1       0.024  -1.626   4.546  0.00  0.00    -0.096 F 
ATOM      9  I   UNL d   1       0.712  -4.518   5.730  0.00  0.00    -0.060 I 
ATOM     10  F2  UNL d   1       3.404  -4.937   4.052  0.00  0.00    -0.096 F 
ATOM     11  F3  UNL d   1       4.661  -3.360   2.243  0.00  0.00    -0.097 F 
ATOM     12  F4  UNL d   1       3.622  -0.928   1.576  0.00  0.00    -0.092 F 
ENDROOT
TORSDOF 0
ENDMDL
