MODEL 1
REMARK minimizedAffinity 23.2920723
REMARK minimizedRMSD -1
REMARK  0 active torsions:
REMARK  status: ('A' for Active; 'I' for Inactive)
ROOT
ATOM      1  C   UNL d   1      -3.963   2.653   1.430  0.00  0.00     0.124 A 
ATOM      2  C1  UNL d   1      -4.995   3.228   0.701  0.00  0.00     0.062 A 
ATOM      3  C2  UNL d   1      -4.990   3.164  -0.690  0.00  0.00     0.162 A 
ATOM      4  C3  UNL d   1      -3.949   2.522  -1.361  0.00  0.00    -0.034 A 
ATOM      5  C4  UNL d   1      -2.915   1.947  -0.620  0.00  0.00     0.162 A 
ATOM      6  C5  UNL d   1      -2.924   2.013   0.769  0.00  0.00     0.062 A 
ATOM      7  F   UNL d   1      -1.927   1.457   1.472  0.00  0.00    -0.097 F 
ATOM      8  F1  UNL d   1      -1.899   1.322  -1.234  0.00  0.00    -0.096 F 
ATOM      9  I   UNL d   1      -3.938   2.424  -3.439  0.00  0.00    -0.060 I 
ATOM     10  F2  UNL d   1      -6.000   3.729  -1.368  0.00  0.00    -0.096 F 
ATOM     11  F3  UNL d   1      -5.999   3.848   1.337  0.00  0.00    -0.097 F 
ATOM     12  F4  UNL d   1      -3.970   2.717   2.768  0.00  0.00    -0.092 F 
ENDROOT
TORSDOF 0
ENDMDL
