MODEL 1
REMARK minimizedAffinity 8.23977566
REMARK minimizedRMSD -1
REMARK  0 active torsions:
REMARK  status: ('A' for Active; 'I' for Inactive)
ROOT
ATOM      1  C   UNL d   1       2.482   0.131   2.951  0.00  0.00     0.124 A 
ATOM      2  C1  UNL d   1       2.765  -0.063   1.606  0.00  0.00     0.062 A 
ATOM      3  C2  UNL d   1       2.688   1.002   0.713  0.00  0.00     0.162 A 
ATOM      4  C3  UNL d   1       2.327   2.272   1.163  0.00  0.00    -0.034 A 
ATOM      5  C4  UNL d   1       2.043   2.460   2.517  0.00  0.00     0.162 A 
ATOM      6  C5  UNL d   1       2.121   1.392   3.405  0.00  0.00     0.062 A 
ATOM      7  F   UNL d   1       1.847   1.582   4.704  0.00  0.00    -0.097 F 
ATOM      8  F1  UNL d   1       1.693   3.668   2.982  0.00  0.00    -0.096 F 
ATOM      9  I   UNL d   1       2.211   3.868  -0.169  0.00  0.00    -0.060 I 
ATOM     10  F2  UNL d   1       2.967   0.785  -0.581  0.00  0.00    -0.096 F 
ATOM     11  F3  UNL d   1       3.113  -1.280   1.165  0.00  0.00    -0.097 F 
ATOM     12  F4  UNL d   1       2.556  -0.896   3.807  0.00  0.00    -0.092 F 
ENDROOT
TORSDOF 0
ENDMDL
