MODEL 1
REMARK minimizedAffinity 19.2773743
REMARK minimizedRMSD -1
REMARK  0 active torsions:
REMARK  status: ('A' for Active; 'I' for Inactive)
ROOT
ATOM      1  C   UNL d   1       1.458  -0.123   1.513  0.00  0.00     0.124 A 
ATOM      2  C1  UNL d   1       0.285   0.616   1.589  0.00  0.00     0.062 A 
ATOM      3  C2  UNL d   1       0.274   1.953   1.202  0.00  0.00     0.162 A 
ATOM      4  C3  UNL d   1       1.440   2.560   0.735  0.00  0.00    -0.034 A 
ATOM      5  C4  UNL d   1       2.616   1.812   0.664  0.00  0.00     0.162 A 
ATOM      6  C5  UNL d   1       2.622   0.476   1.051  0.00  0.00     0.062 A 
ATOM      7  F   UNL d   1       3.756  -0.236   0.978  0.00  0.00    -0.097 F 
ATOM      8  F1  UNL d   1       3.754   2.364   0.220  0.00  0.00    -0.096 F 
ATOM      9  I   UNL d   1       1.427   4.559   0.156  0.00  0.00    -0.060 I 
ATOM     10  F2  UNL d   1      -0.874   2.642   1.285  0.00  0.00    -0.096 F 
ATOM     11  F3  UNL d   1      -0.840   0.040   2.036  0.00  0.00    -0.097 F 
ATOM     12  F4  UNL d   1       1.466  -1.409   1.887  0.00  0.00    -0.092 F 
ENDROOT
TORSDOF 0
ENDMDL
