MODEL 1
REMARK minimizedAffinity 20.7554798
REMARK minimizedRMSD -1
REMARK  0 active torsions:
REMARK  status: ('A' for Active; 'I' for Inactive)
ROOT
ATOM      1  C   UNL d   1       3.146  -2.587   2.185  0.00  0.00     0.124 A 
ATOM      2  C1  UNL d   1       3.669  -3.826   2.525  0.00  0.00     0.062 A 
ATOM      3  C2  UNL d   1       3.849  -4.803   1.550  0.00  0.00     0.162 A 
ATOM      4  C3  UNL d   1       3.506  -4.543   0.223  0.00  0.00    -0.034 A 
ATOM      5  C4  UNL d   1       2.980  -3.294  -0.112  0.00  0.00     0.162 A 
ATOM      6  C5  UNL d   1       2.802  -2.322   0.867  0.00  0.00     0.062 A 
ATOM      7  F   UNL d   1       2.297  -1.125   0.535  0.00  0.00    -0.097 F 
ATOM      8  F1  UNL d   1       2.640  -3.011  -1.378  0.00  0.00    -0.096 F 
ATOM      9  I   UNL d   1       3.774  -6.000  -1.239  0.00  0.00    -0.060 I 
ATOM     10  F2  UNL d   1       4.357  -5.992   1.908  0.00  0.00    -0.096 F 
ATOM     11  F3  UNL d   1       4.002  -4.085   3.798  0.00  0.00    -0.097 F 
ATOM     12  F4  UNL d   1       2.974  -1.650   3.126  0.00  0.00    -0.092 F 
ENDROOT
TORSDOF 0
ENDMDL
