MODEL 1
REMARK minimizedAffinity 17.0796566
REMARK minimizedRMSD -1
REMARK  0 active torsions:
REMARK  status: ('A' for Active; 'I' for Inactive)
ROOT
ATOM      1  C   UNL d   1       1.822   4.840   0.684  0.00  0.00     0.124 A 
ATOM      2  C1  UNL d   1       1.827   3.693   1.466  0.00  0.00     0.062 A 
ATOM      3  C2  UNL d   1       2.276   2.487   0.936  0.00  0.00     0.162 A 
ATOM      4  C3  UNL d   1       2.724   2.421  -0.384  0.00  0.00    -0.034 A 
ATOM      5  C4  UNL d   1       2.715   3.579  -1.164  0.00  0.00     0.162 A 
ATOM      6  C5  UNL d   1       2.266   4.782  -0.629  0.00  0.00     0.062 A 
ATOM      7  F   UNL d   1       2.262   5.889  -1.386  0.00  0.00    -0.097 F 
ATOM      8  F1  UNL d   1       3.140   3.551  -2.436  0.00  0.00    -0.096 F 
ATOM      9  I   UNL d   1       3.396   0.619  -1.180  0.00  0.00    -0.060 I 
ATOM     10  F2  UNL d   1       2.269   1.394   1.714  0.00  0.00    -0.096 F 
ATOM     11  F3  UNL d   1       1.398   3.746   2.735  0.00  0.00    -0.097 F 
ATOM     12  F4  UNL d   1       1.389   5.999   1.196  0.00  0.00    -0.092 F 
ENDROOT
TORSDOF 0
ENDMDL
