MODEL 1
REMARK minimizedAffinity 13.7504292
REMARK minimizedRMSD -1
REMARK  0 active torsions:
REMARK  status: ('A' for Active; 'I' for Inactive)
ROOT
ATOM      1  C   UNL d   1       3.173  -2.608   3.605  0.00  0.00     0.124 A 
ATOM      2  C1  UNL d   1       3.830  -2.016   4.675  0.00  0.00     0.062 A 
ATOM      3  C2  UNL d   1       3.631  -0.668   4.960  0.00  0.00     0.162 A 
ATOM      4  C3  UNL d   1       2.771   0.098   4.173  0.00  0.00    -0.034 A 
ATOM      5  C4  UNL d   1       2.114  -0.504   3.099  0.00  0.00     0.162 A 
ATOM      6  C5  UNL d   1       2.316  -1.852   2.818  0.00  0.00     0.062 A 
ATOM      7  F   UNL d   1       1.680  -2.422   1.784  0.00  0.00    -0.097 F 
ATOM      8  F1  UNL d   1       1.280   0.203   2.322  0.00  0.00    -0.096 F 
ATOM      9  I   UNL d   1       2.471   2.114   4.596  0.00  0.00    -0.060 I 
ATOM     10  F2  UNL d   1       4.279  -0.122   6.000  0.00  0.00    -0.096 F 
ATOM     11  F3  UNL d   1       4.659  -2.744   5.437  0.00  0.00    -0.097 F 
ATOM     12  F4  UNL d   1       3.367  -3.905   3.333  0.00  0.00    -0.092 F 
ENDROOT
TORSDOF 0
ENDMDL
