MODEL 1
REMARK minimizedAffinity 20.7671452
REMARK minimizedRMSD -1
REMARK  0 active torsions:
REMARK  status: ('A' for Active; 'I' for Inactive)
ROOT
ATOM      1  C   UNL d   1      -0.030   4.345  -0.784  0.00  0.00     0.124 A 
ATOM      2  C1  UNL d   1      -0.756   3.996   0.347  0.00  0.00     0.062 A 
ATOM      3  C2  UNL d   1      -0.114   3.845   1.572  0.00  0.00     0.162 A 
ATOM      4  C3  UNL d   1       1.263   4.045   1.674  0.00  0.00    -0.034 A 
ATOM      5  C4  UNL d   1       1.987   4.395   0.533  0.00  0.00     0.162 A 
ATOM      6  C5  UNL d   1       1.340   4.544  -0.690  0.00  0.00     0.062 A 
ATOM      7  F   UNL d   1       2.043   4.881  -1.781  0.00  0.00    -0.097 F 
ATOM      8  F1  UNL d   1       3.312   4.594   0.596  0.00  0.00    -0.096 F 
ATOM      9  I   UNL d   1       2.227   3.821   3.505  0.00  0.00    -0.060 I 
ATOM     10  F2  UNL d   1      -0.840   3.508   2.648  0.00  0.00    -0.096 F 
ATOM     11  F3  UNL d   1      -2.080   3.802   0.258  0.00  0.00    -0.097 F 
ATOM     12  F4  UNL d   1      -0.650   4.488  -1.962  0.00  0.00    -0.092 F 
ENDROOT
TORSDOF 0
ENDMDL
