MODEL 1
REMARK minimizedAffinity 11.8845167
REMARK minimizedRMSD -1
REMARK  0 active torsions:
REMARK  status: ('A' for Active; 'I' for Inactive)
ROOT
ATOM      1  C   UNL d   1       3.009  -1.692   3.935  0.00  0.00     0.124 A 
ATOM      2  C1  UNL d   1       3.393  -0.865   4.981  0.00  0.00     0.062 A 
ATOM      3  C2  UNL d   1       3.039   0.481   4.975  0.00  0.00     0.162 A 
ATOM      4  C3  UNL d   1       2.296   1.009   3.920  0.00  0.00    -0.034 A 
ATOM      5  C4  UNL d   1       1.914   0.171   2.871  0.00  0.00     0.162 A 
ATOM      6  C5  UNL d   1       2.270  -1.174   2.881  0.00  0.00     0.062 A 
ATOM      7  F   UNL d   1       1.898  -1.971   1.869  0.00  0.00    -0.097 F 
ATOM      8  F1  UNL d   1       1.199   0.646   1.840  0.00  0.00    -0.096 F 
ATOM      9  I   UNL d   1       1.765   3.021   3.908  0.00  0.00    -0.060 I 
ATOM     10  F2  UNL d   1       3.424   1.257   6.000  0.00  0.00    -0.096 F 
ATOM     11  F3  UNL d   1       4.108  -1.363   6.000  0.00  0.00    -0.097 F 
ATOM     12  F4  UNL d   1       3.352  -2.987   3.942  0.00  0.00    -0.092 F 
ENDROOT
TORSDOF 0
ENDMDL
