MODEL 1
REMARK minimizedAffinity 2.39320397
REMARK minimizedRMSD -1
REMARK  1 active torsions:
REMARK  status: ('A' for Active; 'I' for Inactive)
REMARK    1  A    between atoms: N_2  and  C1_3 
ROOT
ATOM      1  C1  UNL d   1       2.881  -3.882  -1.944  0.00  0.00     0.143 A 
ATOM      2  C2  UNL d   1       3.194  -3.699  -3.296  0.00  0.00    -0.057 A 
ATOM      3  C3  UNL d   1       3.778  -2.511  -3.751  0.00  0.00     0.033 A 
ATOM      4  C4  UNL d   1       4.034  -1.470  -2.865  0.00  0.00    -0.042 A 
ATOM      5  C5  UNL d   1       3.708  -1.620  -1.522  0.00  0.00     0.033 A 
ATOM      6  C6  UNL d   1       3.131  -2.811  -1.072  0.00  0.00    -0.057 A 
ENDROOT
BRANCH   1   7
ATOM      7  N   UNL d   1       2.209  -5.001  -1.446  0.00  0.00    -0.732 N 
ATOM      8  C   UNL d   1       0.904  -4.865  -0.835  0.00  0.00     0.284 C 
ATOM      9  H3  UNL d   1       2.301  -5.812  -2.053  0.00  0.00     0.395 HD
ENDBRANCH   1   7
TORSDOF 1
ENDMDL
