MODEL 1
REMARK minimizedAffinity 5.57849121
REMARK minimizedRMSD -1
REMARK  1 active torsions:
REMARK  status: ('A' for Active; 'I' for Inactive)
REMARK    1  A    between atoms: N_2  and  C1_3 
ROOT
ATOM      1  C1  UNL d   1       2.990  -4.663  -1.548  0.00  0.00     0.143 A 
ATOM      2  C2  UNL d   1       3.736  -4.093  -2.585  0.00  0.00    -0.057 A 
ATOM      3  C3  UNL d   1       4.497  -2.935  -2.381  0.00  0.00     0.033 A 
ATOM      4  C4  UNL d   1       4.502  -2.309  -1.140  0.00  0.00    -0.042 A 
ATOM      5  C5  UNL d   1       3.748  -2.843  -0.101  0.00  0.00     0.033 A 
ATOM      6  C6  UNL d   1       2.996  -4.003  -0.309  0.00  0.00    -0.057 A 
ENDROOT
BRANCH   1   7
ATOM      7  N   UNL d   1       2.136  -5.756  -1.714  0.00  0.00    -0.732 N 
ATOM      8  C   UNL d   1       1.490  -6.000  -2.985  0.00  0.00     0.284 C 
ATOM      9  H3  UNL d   1       2.486  -6.595  -1.258  0.00  0.00     0.395 HD
ENDBRANCH   1   7
TORSDOF 1
ENDMDL
