MODEL 1
REMARK minimizedAffinity 1.15264177
REMARK minimizedRMSD -1
REMARK  1 active torsions:
REMARK  status: ('A' for Active; 'I' for Inactive)
REMARK    1  A    between atoms: N_2  and  C1_3 
ROOT
ATOM      1  C1  UNL d   1       3.720  -4.774  -1.028  0.00  0.00     0.143 A 
ATOM      2  C2  UNL d   1       5.001  -4.593  -1.561  0.00  0.00    -0.057 A 
ATOM      3  C3  UNL d   1       5.651  -3.356  -1.484  0.00  0.00     0.033 A 
ATOM      4  C4  UNL d   1       5.018  -2.266  -0.896  0.00  0.00    -0.042 A 
ATOM      5  C5  UNL d   1       3.735  -2.415  -0.383  0.00  0.00     0.033 A 
ATOM      6  C6  UNL d   1       3.093  -3.655  -0.456  0.00  0.00    -0.057 A 
ENDROOT
BRANCH   1   7
ATOM      7  N   UNL d   1       2.981  -5.952  -1.160  0.00  0.00    -0.732 N 
ATOM      8  C   UNL d   1       1.583  -5.992  -0.788  0.00  0.00     0.284 C 
ATOM      9  H3  UNL d   1       3.196  -6.451  -2.021  0.00  0.00     0.395 HD
ENDBRANCH   1   7
TORSDOF 1
ENDMDL
