MODEL 1
REMARK minimizedAffinity -2.13423467
REMARK minimizedRMSD -1
REMARK  1 active torsions:
REMARK  status: ('A' for Active; 'I' for Inactive)
REMARK    1  A    between atoms: N_2  and  C1_3 
ROOT
ATOM      1  C1  UNL d   1       4.896  -3.742  -1.119  0.00  0.00     0.143 A 
ATOM      2  C2  UNL d   1       4.532  -2.395  -1.230  0.00  0.00    -0.057 A 
ATOM      3  C3  UNL d   1       3.864  -1.915  -2.363  0.00  0.00     0.033 A 
ATOM      4  C4  UNL d   1       3.572  -2.770  -3.421  0.00  0.00    -0.042 A 
ATOM      5  C5  UNL d   1       3.946  -4.107  -3.342  0.00  0.00     0.033 A 
ATOM      6  C6  UNL d   1       4.607  -4.582  -2.206  0.00  0.00    -0.057 A 
ENDROOT
BRANCH   1   7
ATOM      7  N   UNL d   1       5.649  -4.259  -0.062  0.00  0.00    -0.732 N 
ATOM      8  C   UNL d   1       5.582  -5.666   0.271  0.00  0.00     0.284 C 
ATOM      9  H3  UNL d   1       6.587  -3.867  -0.025  0.00  0.00     0.395 HD
ENDBRANCH   1   7
TORSDOF 1
ENDMDL
