MODEL 1
REMARK minimizedAffinity -1.86165965
REMARK minimizedRMSD -1
REMARK  1 active torsions:
REMARK  status: ('A' for Active; 'I' for Inactive)
REMARK    1  A    between atoms: N_2  and  C1_3 
ROOT
ATOM      1  C1  UNL d   1       3.571  -4.174  -1.390  0.00  0.00     0.143 A 
ATOM      2  C2  UNL d   1       2.972  -3.050  -0.813  0.00  0.00    -0.057 A 
ATOM      3  C3  UNL d   1       3.742  -2.020  -0.259  0.00  0.00     0.033 A 
ATOM      4  C4  UNL d   1       5.130  -2.112  -0.246  0.00  0.00    -0.042 A 
ATOM      5  C5  UNL d   1       5.746  -3.232  -0.791  0.00  0.00     0.033 A 
ATOM      6  C6  UNL d   1       4.972  -4.254  -1.349  0.00  0.00    -0.057 A 
ENDROOT
BRANCH   1   7
ATOM      7  N   UNL d   1       2.858  -5.277  -1.868  0.00  0.00    -0.732 N 
ATOM      8  C   UNL d   1       1.846  -5.911  -1.051  0.00  0.00     0.284 C 
ATOM      9  H3  UNL d   1       2.600  -5.177  -2.847  0.00  0.00     0.395 HD
ENDBRANCH   1   7
TORSDOF 1
ENDMDL
