MODEL 1
REMARK minimizedAffinity 7.73691273
REMARK minimizedRMSD -1
REMARK  0 active torsions:
REMARK  status: ('A' for Active; 'I' for Inactive)
ROOT
ATOM      1  C   UNL d   1      -1.882   2.003  -0.379  0.00  0.00     0.023 A 
ATOM      2  C1  UNL d   1      -1.622   0.714   0.086  0.00  0.00     0.003 A 
ATOM      3  C2  UNL d   1      -2.099  -0.393  -0.619  0.00  0.00     0.048 A 
ATOM      4  C3  UNL d   1      -2.834  -0.204  -1.788  0.00  0.00     0.023 A 
ATOM      5  C4  UNL d   1      -3.096   1.084  -2.258  0.00  0.00     0.048 A 
ATOM      6  C5  UNL d   1      -2.618   2.188  -1.549  0.00  0.00     0.003 A 
ATOM      7  I   UNL d   1      -3.545  -1.850  -2.839  0.00  0.00    -0.146 I 
ENDROOT
TORSDOF 0
ENDMDL
