MODEL 1
REMARK minimizedAffinity 7.96934319
REMARK minimizedRMSD -1
REMARK  0 active torsions:
REMARK  status: ('A' for Active; 'I' for Inactive)
ROOT
ATOM      1  C   UNL d   1       1.562  -0.378   2.627  0.00  0.00     0.023 A 
ATOM      2  C1  UNL d   1       2.679  -0.660   1.841  0.00  0.00     0.003 A 
ATOM      3  C2  UNL d   1       2.945  -1.973   1.448  0.00  0.00     0.048 A 
ATOM      4  C3  UNL d   1       2.089  -3.000   1.844  0.00  0.00     0.023 A 
ATOM      5  C4  UNL d   1       0.969  -2.723   2.630  0.00  0.00     0.048 A 
ATOM      6  C5  UNL d   1       0.708  -1.408   3.021  0.00  0.00     0.003 A 
ATOM      7  I   UNL d   1       2.483  -4.956   1.261  0.00  0.00    -0.146 I 
ENDROOT
TORSDOF 0
ENDMDL
