MODEL 1
REMARK minimizedAffinity 1.15989053
REMARK minimizedRMSD -1
REMARK  0 active torsions:
REMARK  status: ('A' for Active; 'I' for Inactive)
ROOT
ATOM      1  C   UNL d   1       2.365  -1.871   2.238  0.00  0.00     0.023 A 
ATOM      2  C1  UNL d   1       1.679  -1.463   3.382  0.00  0.00     0.003 A 
ATOM      3  C2  UNL d   1       1.263  -2.408   4.323  0.00  0.00     0.048 A 
ATOM      4  C3  UNL d   1       1.537  -3.759   4.113  0.00  0.00     0.023 A 
ATOM      5  C4  UNL d   1       2.224  -4.171   2.970  0.00  0.00     0.048 A 
ATOM      6  C5  UNL d   1       2.637  -3.223   2.032  0.00  0.00     0.003 A 
ATOM      7  I   UNL d   1       0.919  -5.167   5.511  0.00  0.00    -0.146 I 
ENDROOT
TORSDOF 0
ENDMDL
