MODEL 1
REMARK minimizedAffinity 4.64308214
REMARK minimizedRMSD -1
REMARK  0 active torsions:
REMARK  status: ('A' for Active; 'I' for Inactive)
ROOT
ATOM      1  C   UNL d   1       3.247  -4.638   4.271  0.00  0.00     0.023 A 
ATOM      2  C1  UNL d   1       2.699  -4.734   2.992  0.00  0.00     0.003 A 
ATOM      3  C2  UNL d   1       2.373  -3.577   2.282  0.00  0.00     0.048 A 
ATOM      4  C3  UNL d   1       2.598  -2.326   2.856  0.00  0.00     0.023 A 
ATOM      5  C4  UNL d   1       3.148  -2.225   4.136  0.00  0.00     0.048 A 
ATOM      6  C5  UNL d   1       3.471  -3.385   4.842  0.00  0.00     0.003 A 
ATOM      7  I   UNL d   1       2.114  -0.602   1.801  0.00  0.00    -0.146 I 
ENDROOT
TORSDOF 0
ENDMDL
