MODEL 1
REMARK minimizedAffinity 6.51366854
REMARK minimizedRMSD -1
REMARK  0 active torsions:
REMARK  status: ('A' for Active; 'I' for Inactive)
ROOT
ATOM      1  C   UNL d   1      -3.235   1.561  -3.080  0.00  0.00     0.023 A 
ATOM      2  C1  UNL d   1      -3.726   1.751  -4.372  0.00  0.00     0.003 A 
ATOM      3  C2  UNL d   1      -3.942   0.652  -5.206  0.00  0.00     0.048 A 
ATOM      4  C3  UNL d   1      -3.667  -0.633  -4.742  0.00  0.00     0.023 A 
ATOM      5  C4  UNL d   1      -3.177  -0.828  -3.449  0.00  0.00     0.048 A 
ATOM      6  C5  UNL d   1      -2.962   0.274  -2.619  0.00  0.00     0.003 A 
ATOM      7  I   UNL d   1      -3.989  -2.270  -5.981  0.00  0.00    -0.146 I 
ENDROOT
TORSDOF 0
ENDMDL
