MODEL 1
REMARK minimizedAffinity 9.62577343
REMARK minimizedRMSD -1
REMARK  0 active torsions:
REMARK  status: ('A' for Active; 'I' for Inactive)
ROOT
ATOM      1  C   UNL d   1      -3.086  -0.945  -1.855  0.00  0.00     0.023 A 
ATOM      2  C1  UNL d   1      -3.678  -1.544  -2.967  0.00  0.00     0.003 A 
ATOM      3  C2  UNL d   1      -4.108  -0.758  -4.038  0.00  0.00     0.048 A 
ATOM      4  C3  UNL d   1      -3.943   0.625  -3.991  0.00  0.00     0.023 A 
ATOM      5  C4  UNL d   1      -3.350   1.229  -2.881  0.00  0.00     0.048 A 
ATOM      6  C5  UNL d   1      -2.922   0.439  -1.812  0.00  0.00     0.003 A 
ATOM      7  I   UNL d   1      -4.582   1.797  -5.585  0.00  0.00    -0.146 I 
ENDROOT
TORSDOF 0
ENDMDL
