MODEL 1
REMARK minimizedAffinity 12.0885706
REMARK minimizedRMSD -1
REMARK  0 active torsions:
REMARK  status: ('A' for Active; 'I' for Inactive)
ROOT
ATOM      1  C   UNL d   1       1.741  -3.401   3.086  0.00  0.00     0.023 A 
ATOM      2  C1  UNL d   1       2.890  -2.913   2.464  0.00  0.00     0.003 A 
ATOM      3  C2  UNL d   1       2.990  -1.558   2.141  0.00  0.00     0.048 A 
ATOM      4  C3  UNL d   1       1.937  -0.696   2.444  0.00  0.00     0.023 A 
ATOM      5  C4  UNL d   1       0.785  -1.179   3.067  0.00  0.00     0.048 A 
ATOM      6  C5  UNL d   1       0.689  -2.535   3.387  0.00  0.00     0.003 A 
ATOM      7  I   UNL d   1       2.082   1.321   1.965  0.00  0.00    -0.146 I 
ENDROOT
TORSDOF 0
ENDMDL
