MODEL 1
REMARK minimizedAffinity -0.856278777
REMARK minimizedRMSD -1
REMARK  0 active torsions:
REMARK  status: ('A' for Active; 'I' for Inactive)
ROOT
ATOM      1  C   UNL d   1       2.591  -2.241   2.502  0.00  0.00     0.023 A 
ATOM      2  C1  UNL d   1       1.710  -1.779   3.479  0.00  0.00     0.003 A 
ATOM      3  C2  UNL d   1       1.255  -2.644   4.476  0.00  0.00     0.048 A 
ATOM      4  C3  UNL d   1       1.686  -3.970   4.491  0.00  0.00     0.023 A 
ATOM      5  C4  UNL d   1       2.568  -4.437   3.516  0.00  0.00     0.048 A 
ATOM      6  C5  UNL d   1       3.020  -3.569   2.520  0.00  0.00     0.003 A 
ATOM      7  I   UNL d   1       1.010  -5.260   5.974  0.00  0.00    -0.146 I 
ENDROOT
TORSDOF 0
ENDMDL
