MODEL 1
REMARK minimizedAffinity 5.72228432
REMARK minimizedRMSD -1
REMARK  0 active torsions:
REMARK  status: ('A' for Active; 'I' for Inactive)
ROOT
ATOM      1  C   UNL d   1      -2.347   0.815  -2.026  0.00  0.00     0.023 A 
ATOM      2  C1  UNL d   1      -2.525   1.527  -0.840  0.00  0.00     0.003 A 
ATOM      3  C2  UNL d   1      -3.572   2.444  -0.724  0.00  0.00     0.048 A 
ATOM      4  C3  UNL d   1      -4.437   2.644  -1.799  0.00  0.00     0.023 A 
ATOM      5  C4  UNL d   1      -4.263   1.934  -2.988  0.00  0.00     0.048 A 
ATOM      6  C5  UNL d   1      -3.215   1.018  -3.099  0.00  0.00     0.003 A 
ATOM      7  I   UNL d   1      -5.996   4.008  -1.630  0.00  0.00    -0.146 I 
ENDROOT
TORSDOF 0
ENDMDL
