MODEL 1
REMARK minimizedAffinity -3.15224242
REMARK minimizedRMSD -1
REMARK  0 active torsions:
REMARK  status: ('A' for Active; 'I' for Inactive)
ROOT
ATOM      1  C   UNL d   1      -1.717  -0.411   1.785  0.00  0.00     0.020 A 
ATOM      2  C1  UNL d   1      -0.639  -0.619   2.645  0.00  0.00     0.020 A 
ATOM      3  C2  UNL d   1       0.651  -0.758   2.126  0.00  0.00     0.034 A 
ATOM      4  C3  UNL d   1       0.865  -0.688   0.745  0.00  0.00     0.017 A 
ATOM      5  C4  UNL d   1      -0.218  -0.479  -0.117  0.00  0.00     0.017 A 
ATOM      6  C5  UNL d   1      -1.507  -0.341   0.408  0.00  0.00     0.034 A 
ATOM      7 Cl   UNL d   1      -0.032  -0.381  -1.832  0.00  0.00    -0.070 Cl
ATOM      8 Cl1  UNL d   1       2.486  -0.867   0.173  0.00  0.00    -0.070 Cl
ENDROOT
TORSDOF 0
ENDMDL
