MODEL 1
REMARK minimizedAffinity -0.0951547399
REMARK minimizedRMSD -1
REMARK  0 active torsions:
REMARK  status: ('A' for Active; 'I' for Inactive)
ROOT
ATOM      1  C   UNL d   1      -0.674   0.486  -0.443  0.00  0.00     0.020 A 
ATOM      2  C1  UNL d   1      -0.026  -0.068  -1.546  0.00  0.00     0.020 A 
ATOM      3  C2  UNL d   1       1.180  -0.751  -1.377  0.00  0.00     0.034 A 
ATOM      4  C3  UNL d   1       1.742  -0.882  -0.102  0.00  0.00     0.017 A 
ATOM      5  C4  UNL d   1       1.091  -0.325   1.005  0.00  0.00     0.017 A 
ATOM      6  C5  UNL d   1      -0.116   0.358   0.830  0.00  0.00     0.034 A 
ATOM      7 Cl   UNL d   1       1.723  -0.446   2.609  0.00  0.00    -0.070 Cl
ATOM      8 Cl1  UNL d   1       3.236  -1.740   0.033  0.00  0.00    -0.070 Cl
ENDROOT
TORSDOF 0
ENDMDL
