MODEL 1
REMARK minimizedAffinity -3.70424557
REMARK minimizedRMSD -1
REMARK  0 active torsions:
REMARK  status: ('A' for Active; 'I' for Inactive)
ROOT
ATOM      1  C   UNL d   1      -1.291   0.309  -0.139  0.00  0.00     0.020 A 
ATOM      2  C1  UNL d   1      -0.545   0.195  -1.311  0.00  0.00     0.020 A 
ATOM      3  C2  UNL d   1       0.783  -0.234  -1.254  0.00  0.00     0.034 A 
ATOM      4  C3  UNL d   1       1.369  -0.551  -0.022  0.00  0.00     0.017 A 
ATOM      5  C4  UNL d   1       0.618  -0.436   1.154  0.00  0.00     0.017 A 
ATOM      6  C5  UNL d   1      -0.711  -0.006   1.091  0.00  0.00     0.034 A 
ATOM      7 Cl   UNL d   1       1.272  -0.809   2.710  0.00  0.00    -0.070 Cl
ATOM      8 Cl1  UNL d   1       3.015  -1.075  -0.026  0.00  0.00    -0.070 Cl
ENDROOT
TORSDOF 0
ENDMDL
