MODEL 1
REMARK minimizedAffinity -2.98368907
REMARK minimizedRMSD -1
REMARK  0 active torsions:
REMARK  status: ('A' for Active; 'I' for Inactive)
ROOT
ATOM      1  C   UNL d   1       1.285  -0.769  -2.014  0.00  0.00     0.020 A 
ATOM      2  C1  UNL d   1       0.083  -0.150  -2.355  0.00  0.00     0.020 A 
ATOM      3  C2  UNL d   1      -0.659   0.519  -1.379  0.00  0.00     0.034 A 
ATOM      4  C3  UNL d   1      -0.201   0.569  -0.058  0.00  0.00     0.017 A 
ATOM      5  C4  UNL d   1       1.006  -0.054   0.283  0.00  0.00     0.017 A 
ATOM      6  C5  UNL d   1       1.745  -0.721  -0.698  0.00  0.00     0.034 A 
ATOM      7 Cl   UNL d   1       1.636  -0.035   1.893  0.00  0.00    -0.070 Cl
ATOM      8 Cl1  UNL d   1      -1.169   1.413   1.098  0.00  0.00    -0.070 Cl
ENDROOT
TORSDOF 0
ENDMDL
