MODEL 1
REMARK minimizedAffinity -2.01004505
REMARK minimizedRMSD -1
REMARK  0 active torsions:
REMARK  status: ('A' for Active; 'I' for Inactive)
ROOT
ATOM      1  C   UNL d   1      -0.263  -0.121  -2.073  0.00  0.00     0.020 A 
ATOM      2  C1  UNL d   1      -0.891   0.489  -0.988  0.00  0.00     0.020 A 
ATOM      3  C2  UNL d   1      -0.292   0.457   0.273  0.00  0.00     0.034 A 
ATOM      4  C3  UNL d   1       0.938  -0.186   0.452  0.00  0.00     0.017 A 
ATOM      5  C4  UNL d   1       1.568  -0.798  -0.638  0.00  0.00     0.017 A 
ATOM      6  C5  UNL d   1       0.964  -0.763  -1.898  0.00  0.00     0.034 A 
ATOM      7 Cl   UNL d   1       3.087  -1.610  -0.495  0.00  0.00    -0.070 Cl
ATOM      8 Cl1  UNL d   1       1.621  -0.186   2.039  0.00  0.00    -0.070 Cl
ENDROOT
TORSDOF 0
ENDMDL
