MODEL 1
REMARK minimizedAffinity -1.41276968
REMARK minimizedRMSD -1
REMARK  0 active torsions:
REMARK  status: ('A' for Active; 'I' for Inactive)
ROOT
ATOM      1  C   UNL d   1       1.474  -0.645   1.589  0.00  0.00     0.020 A 
ATOM      2  C1  UNL d   1       0.546  -1.061   2.543  0.00  0.00     0.020 A 
ATOM      3  C2  UNL d   1      -0.817  -0.840   2.333  0.00  0.00     0.034 A 
ATOM      4  C3  UNL d   1      -1.255  -0.202   1.167  0.00  0.00     0.017 A 
ATOM      5  C4  UNL d   1      -0.322   0.215   0.210  0.00  0.00     0.017 A 
ATOM      6  C5  UNL d   1       1.041  -0.008   0.426  0.00  0.00     0.034 A 
ATOM      7 Cl   UNL d   1      -0.787   1.009  -1.253  0.00  0.00    -0.070 Cl
ATOM      8 Cl1  UNL d   1      -2.955   0.038   0.972  0.00  0.00    -0.070 Cl
ENDROOT
TORSDOF 0
ENDMDL
