MODEL 1
REMARK minimizedAffinity -1.70990765
REMARK minimizedRMSD -1
REMARK  0 active torsions:
REMARK  status: ('A' for Active; 'I' for Inactive)
ROOT
ATOM      1  C   UNL d   1      -0.587  -0.722   2.563  0.00  0.00     0.020 A 
ATOM      2  C1  UNL d   1      -1.662  -0.136   1.896  0.00  0.00     0.020 A 
ATOM      3  C2  UNL d   1      -1.542   0.208   0.548  0.00  0.00     0.034 A 
ATOM      4  C3  UNL d   1      -0.345  -0.033  -0.137  0.00  0.00     0.017 A 
ATOM      5  C4  UNL d   1       0.733  -0.621   0.534  0.00  0.00     0.017 A 
ATOM      6  C5  UNL d   1       0.607  -0.964   1.884  0.00  0.00     0.034 A 
ATOM      7 Cl   UNL d   1       2.241  -0.949  -0.243  0.00  0.00    -0.070 Cl
ATOM      8 Cl1  UNL d   1      -0.268   0.419  -1.803  0.00  0.00    -0.070 Cl
ENDROOT
TORSDOF 0
ENDMDL
