MODEL 1
REMARK minimizedAffinity -4.22898245
REMARK minimizedRMSD -1
REMARK  0 active torsions:
REMARK  status: ('A' for Active; 'I' for Inactive)
ROOT
ATOM      1  C   UNL d   1      -0.229   2.357  -2.471  0.00  0.00     0.020 A 
ATOM      2  C1  UNL d   1      -1.206   2.523  -1.490  0.00  0.00     0.020 A 
ATOM      3  C2  UNL d   1      -1.181   1.733  -0.339  0.00  0.00     0.034 A 
ATOM      4  C3  UNL d   1      -0.178   0.773  -0.166  0.00  0.00     0.017 A 
ATOM      5  C4  UNL d   1       0.802   0.606  -1.152  0.00  0.00     0.017 A 
ATOM      6  C5  UNL d   1       0.772   1.400  -2.303  0.00  0.00     0.034 A 
ATOM      7 Cl   UNL d   1       2.071  -0.558  -1.010  0.00  0.00    -0.070 Cl
ATOM      8 Cl1  UNL d   1      -0.208  -0.169   1.282  0.00  0.00    -0.070 Cl
ENDROOT
TORSDOF 0
ENDMDL
