MODEL 1
REMARK minimizedAffinity -2.83273792
REMARK minimizedRMSD -1
REMARK  0 active torsions:
REMARK  status: ('A' for Active; 'I' for Inactive)
ROOT
ATOM      1  C   UNL d   1      -1.480  -0.219   2.042  0.00  0.00     0.020 A 
ATOM      2  C1  UNL d   1      -0.340  -0.729   2.661  0.00  0.00     0.020 A 
ATOM      3  C2  UNL d   1       0.794  -1.026   1.901  0.00  0.00     0.034 A 
ATOM      4  C3  UNL d   1       0.789  -0.813   0.518  0.00  0.00     0.017 A 
ATOM      5  C4  UNL d   1      -0.356  -0.301  -0.103  0.00  0.00     0.017 A 
ATOM      6  C5  UNL d   1      -1.488  -0.005   0.663  0.00  0.00     0.034 A 
ATOM      7 Cl   UNL d   1      -0.436  -0.012  -1.805  0.00  0.00    -0.070 Cl
ATOM      8 Cl1  UNL d   1       2.226  -1.203  -0.359  0.00  0.00    -0.070 Cl
ENDROOT
TORSDOF 0
ENDMDL
