MODEL 1
REMARK minimizedAffinity 0.891854942
REMARK minimizedRMSD -1
REMARK  0 active torsions:
REMARK  status: ('A' for Active; 'I' for Inactive)
ROOT
ATOM      1  C   UNL d   1       1.668  -1.199   2.687  0.00  0.00     0.020 A 
ATOM      2  C1  UNL d   1       2.808  -1.267   1.887  0.00  0.00     0.020 A 
ATOM      3  C2  UNL d   1       2.684  -1.303   0.497  0.00  0.00     0.034 A 
ATOM      4  C3  UNL d   1       1.418  -1.269  -0.098  0.00  0.00     0.017 A 
ATOM      5  C4  UNL d   1       0.274  -1.200   0.705  0.00  0.00     0.017 A 
ATOM      6  C5  UNL d   1       0.404  -1.165   2.097  0.00  0.00     0.034 A 
ATOM      7 Cl   UNL d   1      -1.322  -1.155   0.044  0.00  0.00    -0.070 Cl
ATOM      8 Cl1  UNL d   1       1.339  -1.316  -1.824  0.00  0.00    -0.070 Cl
ENDROOT
TORSDOF 0
ENDMDL
