MODEL 1
REMARK minimizedAffinity -5.12575626
REMARK minimizedRMSD -1
REMARK  0 active torsions:
REMARK  status: ('A' for Active; 'I' for Inactive)
ROOT
ATOM      1  C   UNL d   1       2.023  -0.636   1.491  0.00  0.00     0.020 A 
ATOM      2  C1  UNL d   1       1.223  -0.905   2.601  0.00  0.00     0.020 A 
ATOM      3  C2  UNL d   1      -0.163  -0.754   2.515  0.00  0.00     0.034 A 
ATOM      4  C3  UNL d   1      -0.753  -0.334   1.317  0.00  0.00     0.017 A 
ATOM      5  C4  UNL d   1       0.051  -0.065   0.204  0.00  0.00     0.017 A 
ATOM      6  C5  UNL d   1       1.438  -0.217   0.295  0.00  0.00     0.034 A 
ATOM      7 Cl   UNL d   1      -0.603   0.458  -1.308  0.00  0.00    -0.070 Cl
ATOM      8 Cl1  UNL d   1      -2.472  -0.170   1.282  0.00  0.00    -0.070 Cl
ENDROOT
TORSDOF 0
ENDMDL
