MODEL 1
REMARK minimizedAffinity 35.2058067
REMARK minimizedRMSD -1
REMARK  0 active torsions:
REMARK  status: ('A' for Active; 'I' for Inactive)
ROOT
ATOM      1  C   UNL d   1       1.131  -3.594  -1.229  0.00  0.00     0.124 A 
ATOM      2  C1  UNL d   1       1.492  -2.900  -0.082  0.00  0.00     0.062 A 
ATOM      3  C2  UNL d   1       2.647  -3.248   0.612  0.00  0.00     0.162 A 
ATOM      4  C3  UNL d   1       3.452  -4.294   0.161  0.00  0.00    -0.034 A 
ATOM      5  C4  UNL d   1       3.082  -4.987  -0.993  0.00  0.00     0.162 A 
ATOM      6  C5  UNL d   1       1.927  -4.636  -1.684  0.00  0.00     0.062 A 
ATOM      7  F   UNL d   1       1.580  -5.307  -2.792  0.00  0.00    -0.097 F 
ATOM      8  F1  UNL d   1       3.833  -5.998  -1.456  0.00  0.00    -0.096 F 
ATOM      9  I   UNL d   1       5.180  -4.817   1.196  0.00  0.00    -0.060 I 
ATOM     10  F2  UNL d   1       2.971  -2.561   1.718  0.00  0.00    -0.096 F 
ATOM     11  F3  UNL d   1       0.725  -1.893   0.360  0.00  0.00    -0.097 F 
ATOM     12  F4  UNL d   1       0.019  -3.258  -1.894  0.00  0.00    -0.092 F 
ENDROOT
TORSDOF 0
ENDMDL
