MODEL 1
REMARK minimizedAffinity 21.7063923
REMARK minimizedRMSD -1
REMARK  0 active torsions:
REMARK  status: ('A' for Active; 'I' for Inactive)
ROOT
ATOM      1  C   UNL d   1      -1.921   1.735  -1.519  0.00  0.00     0.124 A 
ATOM      2  C1  UNL d   1      -1.921   2.007  -2.880  0.00  0.00     0.062 A 
ATOM      3  C2  UNL d   1      -0.975   2.874  -3.420  0.00  0.00     0.162 A 
ATOM      4  C3  UNL d   1      -0.021   3.476  -2.600  0.00  0.00    -0.034 A 
ATOM      5  C4  UNL d   1      -0.029   3.198  -1.231  0.00  0.00     0.162 A 
ATOM      6  C5  UNL d   1      -0.975   2.331  -0.696  0.00  0.00     0.062 A 
ATOM      7  F   UNL d   1      -0.974   2.070   0.619  0.00  0.00    -0.097 F 
ATOM      8  F1  UNL d   1       0.875   3.759  -0.414  0.00  0.00    -0.096 F 
ATOM      9  I   UNL d   1       1.394   4.773  -3.404  0.00  0.00    -0.060 I 
ATOM     10  F2  UNL d   1      -0.999   3.118  -4.739  0.00  0.00    -0.096 F 
ATOM     11  F3  UNL d   1      -2.834   1.434  -3.677  0.00  0.00    -0.097 F 
ATOM     12  F4  UNL d   1      -2.832   0.902  -1.001  0.00  0.00    -0.092 F 
ENDROOT
TORSDOF 0
ENDMDL
