MODEL 1
REMARK minimizedAffinity 32.1651039
REMARK minimizedRMSD -1
REMARK  0 active torsions:
REMARK  status: ('A' for Active; 'I' for Inactive)
ROOT
ATOM      1  C   UNL d   1       1.495  -3.351  -1.208  0.00  0.00     0.124 A 
ATOM      2  C1  UNL d   1       2.169  -4.504  -1.586  0.00  0.00     0.062 A 
ATOM      3  C2  UNL d   1       3.336  -4.880  -0.927  0.00  0.00     0.162 A 
ATOM      4  C3  UNL d   1       3.837  -4.103   0.117  0.00  0.00    -0.034 A 
ATOM      5  C4  UNL d   1       3.154  -2.944   0.490  0.00  0.00     0.162 A 
ATOM      6  C5  UNL d   1       1.988  -2.572  -0.171  0.00  0.00     0.062 A 
ATOM      7  F   UNL d   1       1.339  -1.458   0.196  0.00  0.00    -0.097 F 
ATOM      8  F1  UNL d   1       3.608  -2.173   1.490  0.00  0.00    -0.096 F 
ATOM      9  I   UNL d   1       5.582  -4.661   1.103  0.00  0.00    -0.060 I 
ATOM     10  F2  UNL d   1       3.966  -6.000  -1.314  0.00  0.00    -0.096 F 
ATOM     11  F3  UNL d   1       1.695  -5.258  -2.588  0.00  0.00    -0.097 F 
ATOM     12  F4  UNL d   1       0.372  -2.991  -1.843  0.00  0.00    -0.092 F 
ENDROOT
TORSDOF 0
ENDMDL
