MODEL 1
REMARK minimizedAffinity 26.6136761
REMARK minimizedRMSD -1
REMARK  0 active torsions:
REMARK  status: ('A' for Active; 'I' for Inactive)
ROOT
ATOM      1  C   UNL d   1      -0.578   3.196  -1.153  0.00  0.00     0.124 A 
ATOM      2  C1  UNL d   1      -1.065   3.490  -2.419  0.00  0.00     0.062 A 
ATOM      3  C2  UNL d   1      -0.326   4.290  -3.285  0.00  0.00     0.162 A 
ATOM      4  C3  UNL d   1       0.909   4.802  -2.888  0.00  0.00    -0.034 A 
ATOM      5  C4  UNL d   1       1.392   4.503  -1.613  0.00  0.00     0.162 A 
ATOM      6  C5  UNL d   1       0.649   3.703  -0.751  0.00  0.00     0.062 A 
ATOM      7  F   UNL d   1       1.122   3.420   0.471  0.00  0.00    -0.097 F 
ATOM      8  F1  UNL d   1       2.576   4.979  -1.200  0.00  0.00    -0.096 F 
ATOM      9  I   UNL d   1       2.018   6.000  -4.180  0.00  0.00    -0.060 I 
ATOM     10  F2  UNL d   1      -0.821   4.558  -4.503  0.00  0.00    -0.096 F 
ATOM     11  F3  UNL d   1      -2.252   3.002  -2.809  0.00  0.00    -0.097 F 
ATOM     12  F4  UNL d   1      -1.292   2.426  -0.322  0.00  0.00    -0.092 F 
ENDROOT
TORSDOF 0
ENDMDL
