MODEL 1
REMARK minimizedAffinity 25.0015659
REMARK minimizedRMSD -1
REMARK  0 active torsions:
REMARK  status: ('A' for Active; 'I' for Inactive)
ROOT
ATOM      1  C   UNL d   1      -1.311  -1.952   4.377  0.00  0.00     0.124 A 
ATOM      2  C1  UNL d   1      -0.692  -3.135   4.000  0.00  0.00     0.062 A 
ATOM      3  C2  UNL d   1       0.455  -3.105   3.211  0.00  0.00     0.162 A 
ATOM      4  C3  UNL d   1       0.991  -1.887   2.794  0.00  0.00    -0.034 A 
ATOM      5  C4  UNL d   1       0.362  -0.700   3.177  0.00  0.00     0.162 A 
ATOM      6  C5  UNL d   1      -0.784  -0.736   3.965  0.00  0.00     0.062 A 
ATOM      7  F   UNL d   1      -1.381   0.409   4.328  0.00  0.00    -0.097 F 
ATOM      8  F1  UNL d   1       0.850   0.489   2.794  0.00  0.00    -0.096 F 
ATOM      9  I   UNL d   1       2.705  -1.837   1.615  0.00  0.00    -0.060 I 
ATOM     10  F2  UNL d   1       1.032  -4.265   2.862  0.00  0.00    -0.096 F 
ATOM     11  F3  UNL d   1      -1.199  -4.312   4.395  0.00  0.00    -0.097 F 
ATOM     12  F4  UNL d   1      -2.415  -1.984   5.135  0.00  0.00    -0.092 F 
ENDROOT
TORSDOF 0
ENDMDL
