MODEL 1
REMARK minimizedAffinity 32.2351189
REMARK minimizedRMSD -1
REMARK  0 active torsions:
REMARK  status: ('A' for Active; 'I' for Inactive)
ROOT
ATOM      1  C   UNL d   1      -2.989   4.094  -2.737  0.00  0.00     0.124 A 
ATOM      2  C1  UNL d   1      -4.214   4.743  -2.815  0.00  0.00     0.062 A 
ATOM      3  C2  UNL d   1      -4.791   5.287  -1.671  0.00  0.00     0.162 A 
ATOM      4  C3  UNL d   1      -4.144   5.186  -0.439  0.00  0.00    -0.034 A 
ATOM      5  C4  UNL d   1      -2.913   4.531  -0.369  0.00  0.00     0.162 A 
ATOM      6  C5  UNL d   1      -2.340   3.989  -1.515  0.00  0.00     0.062 A 
ATOM      7  F   UNL d   1      -1.157   3.362  -1.439  0.00  0.00    -0.097 F 
ATOM      8  F1  UNL d   1      -2.263   4.415   0.798  0.00  0.00    -0.096 F 
ATOM      9  I   UNL d   1      -5.003   5.998   1.273  0.00  0.00    -0.060 I 
ATOM     10  F2  UNL d   1      -5.975   5.909  -1.775  0.00  0.00    -0.096 F 
ATOM     11  F3  UNL d   1      -4.844   4.845  -3.994  0.00  0.00    -0.097 F 
ATOM     12  F4  UNL d   1      -2.437   3.570  -3.839  0.00  0.00    -0.092 F 
ENDROOT
TORSDOF 0
ENDMDL
