MODEL 1
REMARK minimizedAffinity 28.36166
REMARK minimizedRMSD -1
REMARK  0 active torsions:
REMARK  status: ('A' for Active; 'I' for Inactive)
ROOT
ATOM      1  C   UNL d   1       0.658   3.066  -0.517  0.00  0.00     0.124 A 
ATOM      2  C1  UNL d   1      -0.370   2.219  -0.125  0.00  0.00     0.062 A 
ATOM      3  C2  UNL d   1      -1.424   1.950  -0.993  0.00  0.00     0.162 A 
ATOM      4  C3  UNL d   1      -1.456   2.527  -2.262  0.00  0.00    -0.034 A 
ATOM      5  C4  UNL d   1      -0.419   3.378  -2.649  0.00  0.00     0.162 A 
ATOM      6  C5  UNL d   1       0.633   3.644  -1.778  0.00  0.00     0.062 A 
ATOM      7  F   UNL d   1       1.625   4.462  -2.158  0.00  0.00    -0.097 F 
ATOM      8  F1  UNL d   1      -0.418   3.950  -3.862  0.00  0.00    -0.096 F 
ATOM      9  I   UNL d   1      -3.030   2.127  -3.563  0.00  0.00    -0.060 I 
ATOM     10  F2  UNL d   1      -2.404   1.128  -0.587  0.00  0.00    -0.096 F 
ATOM     11  F3  UNL d   1      -0.348   1.660   1.094  0.00  0.00    -0.097 F 
ATOM     12  F4  UNL d   1       1.671   3.324   0.321  0.00  0.00    -0.092 F 
ENDROOT
TORSDOF 0
ENDMDL
