MODEL 1
REMARK minimizedAffinity 26.4893703
REMARK minimizedRMSD -1
REMARK  0 active torsions:
REMARK  status: ('A' for Active; 'I' for Inactive)
ROOT
ATOM      1  C   UNL d   1      -0.293   3.384  -1.774  0.00  0.00     0.124 A 
ATOM      2  C1  UNL d   1      -0.945   3.358  -2.999  0.00  0.00     0.062 A 
ATOM      3  C2  UNL d   1      -0.457   4.104  -4.068  0.00  0.00     0.162 A 
ATOM      4  C3  UNL d   1       0.691   4.882  -3.917  0.00  0.00    -0.034 A 
ATOM      5  C4  UNL d   1       1.341   4.904  -2.682  0.00  0.00     0.162 A 
ATOM      6  C5  UNL d   1       0.849   4.156  -1.616  0.00  0.00     0.062 A 
ATOM      7  F   UNL d   1       1.481   4.183  -0.434  0.00  0.00    -0.097 F 
ATOM      8  F1  UNL d   1       2.447   5.641  -2.502  0.00  0.00    -0.096 F 
ATOM      9  I   UNL d   1       1.424   5.999  -5.513  0.00  0.00    -0.060 I 
ATOM     10  F2  UNL d   1      -1.107   4.060  -5.240  0.00  0.00    -0.096 F 
ATOM     11  F3  UNL d   1      -2.049   2.613  -3.153  0.00  0.00    -0.097 F 
ATOM     12  F4  UNL d   1      -0.765   2.666  -0.747  0.00  0.00    -0.092 F 
ENDROOT
TORSDOF 0
ENDMDL
