MODEL 1
REMARK minimizedAffinity 36.5992813
REMARK minimizedRMSD -1
REMARK  0 active torsions:
REMARK  status: ('A' for Active; 'I' for Inactive)
ROOT
ATOM      1  C   UNL d   1       3.625  -4.291  -2.392  0.00  0.00     0.124 A 
ATOM      2  C1  UNL d   1       2.246  -4.143  -2.450  0.00  0.00     0.062 A 
ATOM      3  C2  UNL d   1       1.664  -3.408  -3.479  0.00  0.00     0.162 A 
ATOM      4  C3  UNL d   1       2.460  -2.817  -4.460  0.00  0.00    -0.034 A 
ATOM      5  C4  UNL d   1       3.846  -2.970  -4.395  0.00  0.00     0.162 A 
ATOM      6  C5  UNL d   1       4.423  -3.705  -3.364  0.00  0.00     0.062 A 
ATOM      7  F   UNL d   1       5.756  -3.848  -3.310  0.00  0.00    -0.097 F 
ATOM      8  F1  UNL d   1       4.641  -2.415  -5.321  0.00  0.00    -0.096 F 
ATOM      9  I   UNL d   1       1.593  -1.718  -6.000  0.00  0.00    -0.060 I 
ATOM     10  F2  UNL d   1       0.329  -3.281  -3.510  0.00  0.00    -0.096 F 
ATOM     11  F3  UNL d   1       1.473  -4.707  -1.512  0.00  0.00    -0.097 F 
ATOM     12  F4  UNL d   1       4.183  -4.998  -1.401  0.00  0.00    -0.092 F 
ENDROOT
TORSDOF 0
ENDMDL
