MODEL 1
REMARK minimizedAffinity 35.568676
REMARK minimizedRMSD -1
REMARK  0 active torsions:
REMARK  status: ('A' for Active; 'I' for Inactive)
ROOT
ATOM      1  C   UNL d   1      -1.043   2.509  -2.019  0.00  0.00     0.124 A 
ATOM      2  C1  UNL d   1      -1.464   2.867  -3.292  0.00  0.00     0.062 A 
ATOM      3  C2  UNL d   1      -0.794   3.864  -3.996  0.00  0.00     0.162 A 
ATOM      4  C3  UNL d   1       0.305   4.509  -3.429  0.00  0.00    -0.034 A 
ATOM      5  C4  UNL d   1       0.722   4.143  -2.148  0.00  0.00     0.162 A 
ATOM      6  C5  UNL d   1       0.049   3.147  -1.448  0.00  0.00     0.062 A 
ATOM      7  F   UNL d   1       0.458   2.802  -0.218  0.00  0.00    -0.097 F 
ATOM      8  F1  UNL d   1       1.775   4.743  -1.573  0.00  0.00    -0.096 F 
ATOM      9  I   UNL d   1       1.309   5.999  -4.479  0.00  0.00    -0.060 I 
ATOM     10  F2  UNL d   1      -1.222   4.190  -5.225  0.00  0.00    -0.096 F 
ATOM     11  F3  UNL d   1      -2.519   2.253  -3.846  0.00  0.00    -0.097 F 
ATOM     12  F4  UNL d   1      -1.689   1.550  -1.344  0.00  0.00    -0.092 F 
ENDROOT
TORSDOF 0
ENDMDL
