MODEL 1
REMARK minimizedAffinity 24.5576382
REMARK minimizedRMSD -1
REMARK  0 active torsions:
REMARK  status: ('A' for Active; 'I' for Inactive)
ROOT
ATOM      1  C   UNL d   1      -0.381   3.339  -2.405  0.00  0.00     0.124 A 
ATOM      2  C1  UNL d   1       0.754   3.584  -1.644  0.00  0.00     0.062 A 
ATOM      3  C2  UNL d   1       0.849   3.084  -0.349  0.00  0.00     0.162 A 
ATOM      4  C3  UNL d   1      -0.194   2.334   0.195  0.00  0.00    -0.034 A 
ATOM      5  C4  UNL d   1      -1.332   2.093  -0.576  0.00  0.00     0.162 A 
ATOM      6  C5  UNL d   1      -1.423   2.594  -1.871  0.00  0.00     0.062 A 
ATOM      7  F   UNL d   1      -2.520   2.357  -2.604  0.00  0.00    -0.097 F 
ATOM      8  F1  UNL d   1      -2.353   1.375  -0.085  0.00  0.00    -0.096 F 
ATOM      9  I   UNL d   1      -0.055   1.585   2.132  0.00  0.00    -0.060 I 
ATOM     10  F2  UNL d   1       1.957   3.336   0.364  0.00  0.00    -0.096 F 
ATOM     11  F3  UNL d   1       1.761   4.305  -2.158  0.00  0.00    -0.097 F 
ATOM     12  F4  UNL d   1      -0.471   3.822  -3.651  0.00  0.00    -0.092 F 
ENDROOT
TORSDOF 0
ENDMDL
