MODEL 1
REMARK minimizedAffinity 26.0966454
REMARK minimizedRMSD -1
REMARK  0 active torsions:
REMARK  status: ('A' for Active; 'I' for Inactive)
ROOT
ATOM      1  C   UNL d   1       3.689  -4.565  -2.388  0.00  0.00     0.124 A 
ATOM      2  C1  UNL d   1       4.556  -4.018  -3.324  0.00  0.00     0.062 A 
ATOM      3  C2  UNL d   1       4.063  -3.224  -4.355  0.00  0.00     0.162 A 
ATOM      4  C3  UNL d   1       2.695  -2.971  -4.456  0.00  0.00    -0.034 A 
ATOM      5  C4  UNL d   1       1.829  -3.525  -3.511  0.00  0.00     0.162 A 
ATOM      6  C5  UNL d   1       2.327  -4.318  -2.482  0.00  0.00     0.062 A 
ATOM      7  F   UNL d   1       1.487  -4.845  -1.579  0.00  0.00    -0.097 F 
ATOM      8  F1  UNL d   1       0.508  -3.301  -3.578  0.00  0.00    -0.096 F 
ATOM      9  I   UNL d   1       1.954  -1.784  -5.996  0.00  0.00    -0.060 I 
ATOM     10  F2  UNL d   1       4.924  -2.709  -5.245  0.00  0.00    -0.096 F 
ATOM     11  F3  UNL d   1       5.873  -4.256  -3.235  0.00  0.00    -0.097 F 
ATOM     12  F4  UNL d   1       4.166  -5.329  -1.397  0.00  0.00    -0.092 F 
ENDROOT
TORSDOF 0
ENDMDL
