MODEL 1
REMARK minimizedAffinity 27.5105267
REMARK minimizedRMSD -1
REMARK  0 active torsions:
REMARK  status: ('A' for Active; 'I' for Inactive)
ROOT
ATOM      1  C   UNL d   1       3.371  -4.594  -2.380  0.00  0.00     0.124 A 
ATOM      2  C1  UNL d   1       2.000  -4.445  -2.542  0.00  0.00     0.062 A 
ATOM      3  C2  UNL d   1       1.500  -3.657  -3.575  0.00  0.00     0.162 A 
ATOM      4  C3  UNL d   1       2.370  -3.013  -4.454  0.00  0.00    -0.034 A 
ATOM      5  C4  UNL d   1       3.747  -3.167  -4.284  0.00  0.00     0.162 A 
ATOM      6  C5  UNL d   1       4.242  -3.956  -3.251  0.00  0.00     0.062 A 
ATOM      7  F   UNL d   1       5.567  -4.099  -3.096  0.00  0.00    -0.097 F 
ATOM      8  F1  UNL d   1       4.612  -2.562  -5.112  0.00  0.00    -0.096 F 
ATOM      9  I   UNL d   1       1.625  -1.835  -6.000  0.00  0.00    -0.060 I 
ATOM     10  F2  UNL d   1       0.171  -3.531  -3.708  0.00  0.00    -0.096 F 
ATOM     11  F3  UNL d   1       1.156  -5.060  -1.702  0.00  0.00    -0.097 F 
ATOM     12  F4  UNL d   1       3.850  -5.352  -1.385  0.00  0.00    -0.092 F 
ENDROOT
TORSDOF 0
ENDMDL
