MODEL 1
REMARK minimizedAffinity 15.55476
REMARK minimizedRMSD -1
REMARK  0 active torsions:
REMARK  status: ('A' for Active; 'I' for Inactive)
ROOT
ATOM      1  C   UNL d   1       1.422  -3.081  -3.962  0.00  0.00     0.124 A 
ATOM      2  C1  UNL d   1       1.813  -3.863  -2.885  0.00  0.00     0.062 A 
ATOM      3  C2  UNL d   1       3.119  -4.336  -2.800  0.00  0.00     0.162 A 
ATOM      4  C3  UNL d   1       4.045  -4.026  -3.796  0.00  0.00    -0.034 A 
ATOM      5  C4  UNL d   1       3.644  -3.239  -4.878  0.00  0.00     0.162 A 
ATOM      6  C5  UNL d   1       2.337  -2.769  -4.957  0.00  0.00     0.062 A 
ATOM      7  F   UNL d   1       1.962  -2.013  -5.999  0.00  0.00    -0.097 F 
ATOM      8  F1  UNL d   1       4.509  -2.922  -5.853  0.00  0.00    -0.096 F 
ATOM      9  I   UNL d   1       6.000  -4.731  -3.674  0.00  0.00    -0.060 I 
ATOM     10  F2  UNL d   1       3.469  -5.090  -1.748  0.00  0.00    -0.096 F 
ATOM     11  F3  UNL d   1       0.929  -4.166  -1.922  0.00  0.00    -0.097 F 
ATOM     12  F4  UNL d   1       0.164  -2.628  -4.041  0.00  0.00    -0.092 F 
ENDROOT
TORSDOF 0
ENDMDL
