MODEL 1
REMARK minimizedAffinity 37.0015526
REMARK minimizedRMSD -1
REMARK  0 active torsions:
REMARK  status: ('A' for Active; 'I' for Inactive)
ROOT
ATOM      1  C   UNL d   1       3.651  -4.463  -2.143  0.00  0.00     0.124 A 
ATOM      2  C1  UNL d   1       2.285  -4.363  -2.366  0.00  0.00     0.062 A 
ATOM      3  C2  UNL d   1       1.801  -3.592  -3.419  0.00  0.00     0.162 A 
ATOM      4  C3  UNL d   1       2.685  -2.914  -4.258  0.00  0.00    -0.034 A 
ATOM      5  C4  UNL d   1       4.058  -3.019  -4.028  0.00  0.00     0.162 A 
ATOM      6  C5  UNL d   1       4.536  -3.791  -2.974  0.00  0.00     0.062 A 
ATOM      7  F   UNL d   1       5.857  -3.887  -2.761  0.00  0.00    -0.097 F 
ATOM      8  F1  UNL d   1       4.936  -2.381  -4.816  0.00  0.00    -0.096 F 
ATOM      9  I   UNL d   1       1.967  -1.760  -5.834  0.00  0.00    -0.060 I 
ATOM     10  F2  UNL d   1       0.476  -3.513  -3.610  0.00  0.00    -0.096 F 
ATOM     11  F3  UNL d   1       1.427  -5.011  -1.564  0.00  0.00    -0.097 F 
ATOM     12  F4  UNL d   1       4.113  -5.206  -1.129  0.00  0.00    -0.092 F 
ENDROOT
TORSDOF 0
ENDMDL
