MODEL 1
REMARK minimizedAffinity 17.2087917
REMARK minimizedRMSD -1
REMARK  0 active torsions:
REMARK  status: ('A' for Active; 'I' for Inactive)
ROOT
ATOM      1  C   UNL d   1      -0.899   4.164  -2.657  0.00  0.00     0.124 A 
ATOM      2  C1  UNL d   1      -0.092   4.575  -1.605  0.00  0.00     0.062 A 
ATOM      3  C2  UNL d   1      -0.017   3.813  -0.443  0.00  0.00     0.162 A 
ATOM      4  C3  UNL d   1      -0.750   2.632  -0.326  0.00  0.00    -0.034 A 
ATOM      5  C4  UNL d   1      -1.560   2.226  -1.388  0.00  0.00     0.162 A 
ATOM      6  C5  UNL d   1      -1.632   2.991  -2.548  0.00  0.00     0.062 A 
ATOM      7  F   UNL d   1      -2.412   2.593  -3.563  0.00  0.00    -0.097 F 
ATOM      8  F1  UNL d   1      -2.278   1.096  -1.309  0.00  0.00    -0.096 F 
ATOM      9  I   UNL d   1      -0.640   1.490   1.411  0.00  0.00    -0.060 I 
ATOM     10  F2  UNL d   1       0.771   4.234   0.558  0.00  0.00    -0.096 F 
ATOM     11  F3  UNL d   1       0.616   5.708  -1.708  0.00  0.00    -0.097 F 
ATOM     12  F4  UNL d   1      -0.971   4.899  -3.774  0.00  0.00    -0.092 F 
ENDROOT
TORSDOF 0
ENDMDL
