MODEL 1
REMARK minimizedAffinity 19.5887756
REMARK minimizedRMSD -1
REMARK  0 active torsions:
REMARK  status: ('A' for Active; 'I' for Inactive)
ROOT
ATOM      1  C   UNL d   1      -0.243   0.881   3.200  0.00  0.00     0.124 A 
ATOM      2  C1  UNL d   1      -1.425   1.539   3.509  0.00  0.00     0.062 A 
ATOM      3  C2  UNL d   1      -2.564   1.331   2.737  0.00  0.00     0.162 A 
ATOM      4  C3  UNL d   1      -2.527   0.460   1.648  0.00  0.00    -0.034 A 
ATOM      5  C4  UNL d   1      -1.334  -0.197   1.343  0.00  0.00     0.162 A 
ATOM      6  C5  UNL d   1      -0.198   0.014   2.118  0.00  0.00     0.062 A 
ATOM      7  F   UNL d   1       0.943  -0.623   1.818  0.00  0.00    -0.097 F 
ATOM      8  F1  UNL d   1      -1.263  -1.042   0.303  0.00  0.00    -0.096 F 
ATOM      9  I   UNL d   1      -4.228   0.146   0.491  0.00  0.00    -0.060 I 
ATOM     10  F2  UNL d   1      -3.693   1.981   3.058  0.00  0.00    -0.096 F 
ATOM     11  F3  UNL d   1      -1.471   2.379   4.554  0.00  0.00    -0.097 F 
ATOM     12  F4  UNL d   1       0.852   1.084   3.945  0.00  0.00    -0.092 F 
ENDROOT
TORSDOF 0
ENDMDL
