MODEL 1
REMARK minimizedAffinity -1.78433514
REMARK minimizedRMSD -1
REMARK  0 active torsions:
REMARK  status: ('A' for Active; 'I' for Inactive)
ROOT
ATOM      1  C   UNL d   1      -0.118   1.055  -0.821  0.00  0.00    -0.002 A 
ATOM      2  C1  UNL d   1      -1.324   0.403  -0.606  0.00  0.00     0.010 A 
ATOM      3  C2  UNL d   1      -1.503  -0.408   0.517  0.00  0.00     0.041 A 
ATOM      4  C3  UNL d   1      -0.440  -0.552   1.430  0.00  0.00    -0.075 A 
ATOM      5  S   UNL d   1      -0.431  -1.492   2.875  0.00  0.00     0.015 SA
ATOM      6  C4  UNL d   1       1.173  -1.050   3.242  0.00  0.00     0.022 A 
ATOM      7  C5  UNL d   1       1.705  -0.206   2.295  0.00  0.00     0.026 A 
ATOM      8  C6  UNL d   1       0.784   0.095   1.236  0.00  0.00    -0.082 A 
ATOM      9  C7  UNL d   1       0.935   0.909   0.087  0.00  0.00     0.045 A 
ENDROOT
TORSDOF 0
ENDMDL
