MODEL 1
REMARK minimizedAffinity 1.51181877
REMARK minimizedRMSD -1
REMARK  0 active torsions:
REMARK  status: ('A' for Active; 'I' for Inactive)
ROOT
ATOM      1  C   UNL d   1      -0.766  -1.002   2.550  0.00  0.00    -0.002 A 
ATOM      2  C1  UNL d   1       0.547  -1.413   2.370  0.00  0.00     0.010 A 
ATOM      3  C2  UNL d   1       1.186  -1.232   1.141  0.00  0.00     0.041 A 
ATOM      4  C3  UNL d   1       0.476  -0.623   0.087  0.00  0.00    -0.075 A 
ATOM      5  S   UNL d   1       1.054  -0.298  -1.504  0.00  0.00     0.015 SA
ATOM      6  C4  UNL d   1      -0.428   0.396  -1.981  0.00  0.00     0.022 A 
ATOM      7  C5  UNL d   1      -1.352   0.387  -0.964  0.00  0.00     0.026 A 
ATOM      8  C6  UNL d   1      -0.847  -0.200   0.245  0.00  0.00    -0.082 A 
ATOM      9  C7  UNL d   1      -1.466  -0.398   1.503  0.00  0.00     0.045 A 
ENDROOT
TORSDOF 0
ENDMDL
