MODEL 1
REMARK minimizedAffinity -1.38549554
REMARK minimizedRMSD -1
REMARK  0 active torsions:
REMARK  status: ('A' for Active; 'I' for Inactive)
ROOT
ATOM      1  C   UNL d   1      -1.996   0.309  -0.104  0.00  0.00    -0.002 A 
ATOM      2  C1  UNL d   1      -2.301  -0.237   1.134  0.00  0.00     0.010 A 
ATOM      3  C2  UNL d   1      -1.290  -0.733   1.960  0.00  0.00     0.041 A 
ATOM      4  C3  UNL d   1       0.046  -0.669   1.516  0.00  0.00    -0.075 A 
ATOM      5  S   UNL d   1       1.448  -1.215   2.357  0.00  0.00     0.015 SA
ATOM      6  C4  UNL d   1       2.485  -0.735   1.092  0.00  0.00     0.022 A 
ATOM      7  C5  UNL d   1       1.795  -0.171   0.046  0.00  0.00     0.026 A 
ATOM      8  C6  UNL d   1       0.378  -0.123   0.272  0.00  0.00    -0.082 A 
ATOM      9  C7  UNL d   1      -0.670   0.371  -0.542  0.00  0.00     0.045 A 
ENDROOT
TORSDOF 0
ENDMDL
