MODEL 1
REMARK minimizedAffinity -1.81232774
REMARK minimizedRMSD -1
REMARK  0 active torsions:
REMARK  status: ('A' for Active; 'I' for Inactive)
ROOT
ATOM      1  C   UNL d   1       1.345  -1.164   2.095  0.00  0.00    -0.002 A 
ATOM      2  C1  UNL d   1      -0.018  -0.978   2.276  0.00  0.00     0.010 A 
ATOM      3  C2  UNL d   1      -0.751  -0.188   1.388  0.00  0.00     0.041 A 
ATOM      4  C3  UNL d   1      -0.085   0.416   0.304  0.00  0.00    -0.075 A 
ATOM      5  S   UNL d   1      -0.779   1.424  -0.910  0.00  0.00     0.015 SA
ATOM      6  C4  UNL d   1       0.718   1.631  -1.699  0.00  0.00     0.022 A 
ATOM      7  C5  UNL d   1       1.733   0.955  -1.065  0.00  0.00     0.026 A 
ATOM      8  C6  UNL d   1       1.286   0.243   0.100  0.00  0.00    -0.082 A 
ATOM      9  C7  UNL d   1       2.002  -0.563   1.018  0.00  0.00     0.045 A 
ENDROOT
TORSDOF 0
ENDMDL
