MODEL 1
REMARK minimizedAffinity -2.22177935
REMARK minimizedRMSD -1
REMARK  0 active torsions:
REMARK  status: ('A' for Active; 'I' for Inactive)
ROOT
ATOM      1  C2' OXE d   1      -0.154  -1.634  -0.440  0.00  0.00     0.078 C 
ATOM      2  C1' OXE d   1       1.903  -0.042   0.615  0.00  0.00     0.078 C 
ATOM      3  C1  OXE d   1       0.580   0.620   0.324  0.00  0.00    -0.078 A 
ATOM      4  C2  OXE d   1      -0.406  -0.156  -0.236  0.00  0.00    -0.078 A 
ATOM      5  C3  OXE d   1      -1.663   0.392  -0.473  0.00  0.00     0.003 A 
ATOM      6  C4  OXE d   1      -1.885   1.762  -0.291  0.00  0.00    -0.002 A 
ATOM      7  C5  OXE d   1      -0.882   2.579   0.241  0.00  0.00    -0.002 A 
ATOM      8  C6  OXE d   1       0.340   2.017   0.593  0.00  0.00     0.003 A 
ENDROOT
TORSDOF 0
ENDMDL
