MODEL 1
REMARK minimizedAffinity -4.74625349
REMARK minimizedRMSD -1
REMARK  0 active torsions:
REMARK  status: ('A' for Active; 'I' for Inactive)
ROOT
ATOM      1  C2' OXE d   1       0.320  -0.493   0.518  0.00  0.00     0.078 C 
ATOM      2  C1' OXE d   1      -1.272   0.318  -1.647  0.00  0.00     0.078 C 
ATOM      3  C1  OXE d   1      -0.917  -1.144  -1.544  0.00  0.00    -0.078 A 
ATOM      4  C2  OXE d   1      -0.098  -1.524  -0.507  0.00  0.00    -0.078 A 
ATOM      5  C3  OXE d   1       0.216  -2.869  -0.334  0.00  0.00     0.003 A 
ATOM      6  C4  OXE d   1      -0.167  -3.815  -1.293  0.00  0.00    -0.002 A 
ATOM      7  C5  OXE d   1      -0.968  -3.443  -2.378  0.00  0.00    -0.002 A 
ATOM      8  C6  OXE d   1      -1.386  -2.122  -2.495  0.00  0.00     0.003 A 
ENDROOT
TORSDOF 0
ENDMDL
