MODEL 1
REMARK minimizedAffinity -5.45714426
REMARK minimizedRMSD -1
REMARK  0 active torsions:
REMARK  status: ('A' for Active; 'I' for Inactive)
ROOT
ATOM      1  C2' OXE d   1       0.033  -0.870  -0.375  0.00  0.00     0.078 C 
ATOM      2  C1' OXE d   1       2.649  -0.248   0.430  0.00  0.00     0.078 C 
ATOM      3  C1  OXE d   1       1.643   0.874   0.383  0.00  0.00    -0.078 A 
ATOM      4  C2  OXE d   1       0.377   0.569  -0.056  0.00  0.00    -0.078 A 
ATOM      5  C3  OXE d   1      -0.605   1.556  -0.066  0.00  0.00     0.003 A 
ATOM      6  C4  OXE d   1      -0.276   2.886   0.220  0.00  0.00    -0.002 A 
ATOM      7  C5  OXE d   1       1.017   3.225   0.632  0.00  0.00    -0.002 A 
ATOM      8  C6  OXE d   1       1.975   2.226   0.759  0.00  0.00     0.003 A 
ENDROOT
TORSDOF 0
ENDMDL
