MODEL 1
REMARK minimizedAffinity -3.50284624
REMARK minimizedRMSD -1
REMARK  0 active torsions:
REMARK  status: ('A' for Active; 'I' for Inactive)
ROOT
ATOM      1  C2' OXE d   1      -0.006  -2.183  -1.402  0.00  0.00     0.078 C 
ATOM      2  C1' OXE d   1       1.785  -1.295   0.569  0.00  0.00     0.078 C 
ATOM      3  C1  OXE d   1       0.734  -0.327   0.086  0.00  0.00    -0.078 A 
ATOM      4  C2  OXE d   1      -0.109  -0.755  -0.911  0.00  0.00    -0.078 A 
ATOM      5  C3  OXE d   1      -1.131   0.079  -1.354  0.00  0.00     0.003 A 
ATOM      6  C4  OXE d   1      -1.213   1.402  -0.902  0.00  0.00    -0.002 A 
ATOM      7  C5  OXE d   1      -0.340   1.870   0.085  0.00  0.00    -0.002 A 
ATOM      8  C6  OXE d   1       0.610   1.007   0.620  0.00  0.00     0.003 A 
ENDROOT
TORSDOF 0
ENDMDL
