MODEL 1
REMARK minimizedAffinity -1.76415241
REMARK minimizedRMSD -1
REMARK  0 active torsions:
REMARK  status: ('A' for Active; 'I' for Inactive)
ROOT
ATOM      1  C2' OXE d   1      -0.542  -0.230  -0.342  0.00  0.00     0.078 C 
ATOM      2  C1' OXE d   1       0.290  -0.238  -3.023  0.00  0.00     0.078 C 
ATOM      3  C1  OXE d   1      -0.335  -1.497  -2.476  0.00  0.00    -0.078 A 
ATOM      4  C2  OXE d   1      -0.696  -1.500  -1.151  0.00  0.00    -0.078 A 
ATOM      5  C3  OXE d   1      -1.327  -2.617  -0.610  0.00  0.00     0.003 A 
ATOM      6  C4  OXE d   1      -1.457  -3.791  -1.362  0.00  0.00    -0.002 A 
ATOM      7  C5  OXE d   1      -1.059  -3.823  -2.703  0.00  0.00    -0.002 A 
ATOM      8  C6  OXE d   1      -0.536  -2.674  -3.286  0.00  0.00     0.003 A 
ENDROOT
TORSDOF 0
ENDMDL
