MODEL 1
REMARK minimizedAffinity -4.41726065
REMARK minimizedRMSD -1
REMARK  0 active torsions:
REMARK  status: ('A' for Active; 'I' for Inactive)
ROOT
ATOM      1  C2' OXE d   1      -0.830   2.622   0.917  0.00  0.00     0.078 C 
ATOM      2  C1' OXE d   1      -3.084   0.957   0.758  0.00  0.00     0.078 C 
ATOM      3  C1  OXE d   1      -1.743   0.362   0.404  0.00  0.00    -0.078 A 
ATOM      4  C2  OXE d   1      -0.653   1.197   0.440  0.00  0.00    -0.078 A 
ATOM      5  C3  OXE d   1       0.615   0.687   0.176  0.00  0.00     0.003 A 
ATOM      6  C4  OXE d   1       0.769  -0.630  -0.275  0.00  0.00    -0.002 A 
ATOM      7  C5  OXE d   1      -0.334  -1.486  -0.357  0.00  0.00    -0.002 A 
ATOM      8  C6  OXE d   1      -1.589  -1.019   0.019  0.00  0.00     0.003 A 
ENDROOT
TORSDOF 0
ENDMDL
