MODEL 1
REMARK minimizedAffinity -4.96796608
REMARK minimizedRMSD -1
REMARK  0 active torsions:
REMARK  status: ('A' for Active; 'I' for Inactive)
ROOT
ATOM      1  C2' OXE d   1      -2.148   0.714   1.547  0.00  0.00     0.078 C 
ATOM      2  C1' OXE d   1      -0.364  -0.727  -0.072  0.00  0.00     0.078 C 
ATOM      3  C1  OXE d   1      -0.177   0.767   0.024  0.00  0.00    -0.078 A 
ATOM      4  C2  OXE d   1      -1.083   1.470   0.781  0.00  0.00    -0.078 A 
ATOM      5  C3  OXE d   1      -0.924   2.842   0.948  0.00  0.00     0.003 A 
ATOM      6  C4  OXE d   1       0.058   3.535   0.229  0.00  0.00    -0.002 A 
ATOM      7  C5  OXE d   1       0.966   2.843  -0.579  0.00  0.00    -0.002 A 
ATOM      8  C6  OXE d   1       0.890   1.457  -0.658  0.00  0.00     0.003 A 
ENDROOT
TORSDOF 0
ENDMDL
