MODEL 1
REMARK minimizedAffinity -4.06497097
REMARK minimizedRMSD -1
REMARK  0 active torsions:
REMARK  status: ('A' for Active; 'I' for Inactive)
ROOT
ATOM      1  C2' OXE d   1      -1.676   0.194   1.896  0.00  0.00     0.078 C 
ATOM      2  C1' OXE d   1      -0.443  -1.337  -0.108  0.00  0.00     0.078 C 
ATOM      3  C1  OXE d   1      -0.570   0.149  -0.336  0.00  0.00    -0.078 A 
ATOM      4  C2  OXE d   1      -1.216   0.883   0.629  0.00  0.00    -0.078 A 
ATOM      5  C3  OXE d   1      -1.313   2.265   0.494  0.00  0.00     0.003 A 
ATOM      6  C4  OXE d   1      -0.894   2.893  -0.685  0.00  0.00    -0.002 A 
ATOM      7  C5  OXE d   1      -0.269   2.158  -1.698  0.00  0.00    -0.002 A 
ATOM      8  C6  OXE d   1      -0.062   0.794  -1.521  0.00  0.00     0.003 A 
ENDROOT
TORSDOF 0
ENDMDL
