MODEL 1
REMARK minimizedAffinity -5.34165668
REMARK minimizedRMSD -1
REMARK  0 active torsions:
REMARK  status: ('A' for Active; 'I' for Inactive)
ROOT
ATOM      1  C2' OXE d   1      -2.236   0.658   0.631  0.00  0.00     0.078 C 
ATOM      2  C1' OXE d   1      -0.075  -1.059   0.122  0.00  0.00     0.078 C 
ATOM      3  C1  OXE d   1       0.178   0.427   0.062  0.00  0.00    -0.078 A 
ATOM      4  C2  OXE d   1      -0.896   1.259   0.267  0.00  0.00    -0.078 A 
ATOM      5  C3  OXE d   1      -0.707   2.638   0.277  0.00  0.00     0.003 A 
ATOM      6  C4  OXE d   1       0.534   3.186  -0.071  0.00  0.00    -0.002 A 
ATOM      7  C5  OXE d   1       1.631   2.356  -0.322  0.00  0.00    -0.002 A 
ATOM      8  C6  OXE d   1       1.481   0.978  -0.218  0.00  0.00     0.003 A 
ENDROOT
TORSDOF 0
ENDMDL
