MODEL 1
REMARK minimizedAffinity -5.93697071
REMARK minimizedRMSD -1
REMARK  0 active torsions:
REMARK  status: ('A' for Active; 'I' for Inactive)
ROOT
ATOM      1  C2' OXE d   1      -1.634   1.285   0.453  0.00  0.00     0.078 C 
ATOM      2  C1' OXE d   1       0.103  -0.835  -0.156  0.00  0.00     0.078 C 
ATOM      3  C1  OXE d   1       0.716   0.480   0.257  0.00  0.00    -0.078 A 
ATOM      4  C2  OXE d   1      -0.140   1.525   0.508  0.00  0.00    -0.078 A 
ATOM      5  C3  OXE d   1       0.370   2.744   0.946  0.00  0.00     0.003 A 
ATOM      6  C4  OXE d   1       1.752   2.961   0.985  0.00  0.00    -0.002 A 
ATOM      7  C5  OXE d   1       2.642   1.921   0.695  0.00  0.00    -0.002 A 
ATOM      8  C6  OXE d   1       2.141   0.665   0.371  0.00  0.00     0.003 A 
ENDROOT
TORSDOF 0
ENDMDL
