MODEL 1
REMARK minimizedAffinity -2.53448749
REMARK minimizedRMSD -1
REMARK  0 active torsions:
REMARK  status: ('A' for Active; 'I' for Inactive)
ROOT
ATOM      1  C2' OXE d   1       1.397  -1.438   0.593  0.00  0.00     0.078 C 
ATOM      2  C1' OXE d   1       3.010   0.853   0.771  0.00  0.00     0.078 C 
ATOM      3  C1  OXE d   1       1.513   1.043   0.778  0.00  0.00    -0.078 A 
ATOM      4  C2  OXE d   1       0.733  -0.080   0.644  0.00  0.00    -0.078 A 
ATOM      5  C3  OXE d   1      -0.654   0.034   0.700  0.00  0.00     0.003 A 
ATOM      6  C4  OXE d   1      -1.261   1.295   0.737  0.00  0.00    -0.002 A 
ATOM      7  C5  OXE d   1      -0.483   2.454   0.834  0.00  0.00    -0.002 A 
ATOM      8  C6  OXE d   1       0.901   2.343   0.898  0.00  0.00     0.003 A 
ENDROOT
TORSDOF 0
ENDMDL
