MODEL 1
REMARK minimizedAffinity -4.20230913
REMARK minimizedRMSD -1
REMARK  0 active torsions:
REMARK  status: ('A' for Active; 'I' for Inactive)
ROOT
ATOM      1  C2' OXE d   1      -2.227   0.390   0.856  0.00  0.00     0.078 C 
ATOM      2  C1' OXE d   1      -0.191  -0.920  -0.566  0.00  0.00     0.078 C 
ATOM      3  C1  OXE d   1       0.013   0.535  -0.226  0.00  0.00    -0.078 A 
ATOM      4  C2  OXE d   1      -1.009   1.180   0.429  0.00  0.00    -0.078 A 
ATOM      5  C3  OXE d   1      -0.850   2.509   0.815  0.00  0.00     0.003 A 
ATOM      6  C4  OXE d   1       0.275   3.235   0.407  0.00  0.00    -0.002 A 
ATOM      7  C5  OXE d   1       1.309   2.608  -0.295  0.00  0.00    -0.002 A 
ATOM      8  C6  OXE d   1       1.213   1.251  -0.582  0.00  0.00     0.003 A 
ENDROOT
TORSDOF 0
ENDMDL
