MODEL 1
REMARK minimizedAffinity -5.86731815
REMARK minimizedRMSD -1
REMARK  0 active torsions:
REMARK  status: ('A' for Active; 'I' for Inactive)
ROOT
ATOM      1  C2' OXE d   1       0.458  -0.852   0.484  0.00  0.00     0.078 C 
ATOM      2  C1' OXE d   1      -1.402   1.244   0.325  0.00  0.00     0.078 C 
ATOM      3  C1  OXE d   1       0.052   1.606   0.503  0.00  0.00    -0.078 A 
ATOM      4  C2  OXE d   1       0.950   0.573   0.626  0.00  0.00    -0.078 A 
ATOM      5  C3  OXE d   1       2.309   0.850   0.737  0.00  0.00     0.003 A 
ATOM      6  C4  OXE d   1       2.754   2.170   0.877  0.00  0.00    -0.002 A 
ATOM      7  C5  OXE d   1       1.852   3.236   0.794  0.00  0.00    -0.002 A 
ATOM      8  C6  OXE d   1       0.506   2.973   0.565  0.00  0.00     0.003 A 
ENDROOT
TORSDOF 0
ENDMDL
