MODEL 1
REMARK minimizedAffinity 0.790784061
REMARK minimizedRMSD -1
REMARK  0 active torsions:
REMARK  status: ('A' for Active; 'I' for Inactive)
ROOT
ATOM      1  C2' OXE d   1      -0.982   3.130   2.687  0.00  0.00     0.078 C 
ATOM      2  C1' OXE d   1       0.352   3.723   0.290  0.00  0.00     0.078 C 
ATOM      3  C1  OXE d   1      -0.180   2.323   0.471  0.00  0.00    -0.078 A 
ATOM      4  C2  OXE d   1      -0.791   2.029   1.666  0.00  0.00    -0.078 A 
ATOM      5  C3  OXE d   1      -1.348   0.769   1.864  0.00  0.00     0.003 A 
ATOM      6  C4  OXE d   1      -1.157  -0.247   0.918  0.00  0.00    -0.002 A 
ATOM      7  C5  OXE d   1      -0.504   0.021  -0.289  0.00  0.00    -0.002 A 
ATOM      8  C6  OXE d   1      -0.048   1.310  -0.546  0.00  0.00     0.003 A 
ENDROOT
TORSDOF 0
ENDMDL
