MODEL 1
REMARK minimizedAffinity 7.79469061
REMARK minimizedRMSD -1
REMARK  0 active torsions:
REMARK  status: ('A' for Active; 'I' for Inactive)
ROOT
ATOM      1  C2' OXE d   1       1.218  -1.380  -0.042  0.00  0.00     0.078 C 
ATOM      2  C1' OXE d   1      -1.295  -2.606   0.201  0.00  0.00     0.078 C 
ATOM      3  C1  OXE d   1      -0.460  -2.946  -1.008  0.00  0.00    -0.078 A 
ATOM      4  C2  OXE d   1       0.748  -2.306  -1.143  0.00  0.00    -0.078 A 
ATOM      5  C3  OXE d   1       1.582  -2.625  -2.211  0.00  0.00     0.003 A 
ATOM      6  C4  OXE d   1       1.135  -3.475  -3.230  0.00  0.00    -0.002 A 
ATOM      7  C5  OXE d   1      -0.109  -4.107  -3.132  0.00  0.00    -0.002 A 
ATOM      8  C6  OXE d   1      -0.899  -3.887  -2.009  0.00  0.00     0.003 A 
ENDROOT
TORSDOF 0
ENDMDL
