MODEL 1
REMARK minimizedAffinity 5.82803726
REMARK minimizedRMSD -1
REMARK  0 active torsions:
REMARK  status: ('A' for Active; 'I' for Inactive)
ROOT
ATOM      1  C2' OXE d   1       1.695  -0.044   0.666  0.00  0.00     0.078 C 
ATOM      2  C1' OXE d   1       3.187   1.652  -1.000  0.00  0.00     0.078 C 
ATOM      3  C1  OXE d   1       1.945   2.214  -0.355  0.00  0.00    -0.078 A 
ATOM      4  C2  OXE d   1       1.195   1.364   0.421  0.00  0.00    -0.078 A 
ATOM      5  C3  OXE d   1       0.070   1.846   1.083  0.00  0.00     0.003 A 
ATOM      6  C4  OXE d   1      -0.390   3.147   0.843  0.00  0.00    -0.002 A 
ATOM      7  C5  OXE d   1       0.336   4.017   0.024  0.00  0.00    -0.002 A 
ATOM      8  C6  OXE d   1       1.527   3.581  -0.547  0.00  0.00     0.003 A 
ENDROOT
TORSDOF 0
ENDMDL
