MODEL 1
REMARK minimizedAffinity -1.22507989
REMARK minimizedRMSD -1
REMARK  0 active torsions:
REMARK  status: ('A' for Active; 'I' for Inactive)
ROOT
ATOM      1  C2' OXE d   1       0.053  -1.148   0.013  0.00  0.00     0.078 C 
ATOM      2  C1' OXE d   1       2.094   0.749   0.354  0.00  0.00     0.078 C 
ATOM      3  C1  OXE d   1       0.671   1.247   0.310  0.00  0.00    -0.078 A 
ATOM      4  C2  OXE d   1      -0.318   0.317   0.096  0.00  0.00    -0.078 A 
ATOM      5  C3  OXE d   1      -1.652   0.715   0.102  0.00  0.00     0.003 A 
ATOM      6  C4  OXE d   1      -1.986   2.073   0.169  0.00  0.00    -0.002 A 
ATOM      7  C5  OXE d   1      -0.992   3.041   0.347  0.00  0.00    -0.002 A 
ATOM      8  C6  OXE d   1       0.335   2.641   0.462  0.00  0.00     0.003 A 
ENDROOT
TORSDOF 0
ENDMDL
