MODEL 1
REMARK minimizedAffinity -2.29974079
REMARK minimizedRMSD -1
REMARK  0 active torsions:
REMARK  status: ('A' for Active; 'I' for Inactive)
ROOT
ATOM      1  C   UNL d   1       0.467  -3.463  -2.038  0.00  0.00     0.078 C 
ATOM      2  C1  UNL d   1       0.113  -3.229  -0.600  0.00  0.00    -0.077 A 
ATOM      3  C2  UNL d   1       0.780  -3.908   0.427  0.00  0.00    -0.001 A 
ATOM      4  C3  UNL d   1       0.433  -3.687   1.761  0.00  0.00     0.003 A 
ATOM      5  C4  UNL d   1      -0.583  -2.788   2.080  0.00  0.00    -0.005 A 
ATOM      6  C5  UNL d   1      -1.254  -2.110   1.065  0.00  0.00     0.003 A 
ATOM      7  C6  UNL d   1      -0.908  -2.329  -0.270  0.00  0.00    -0.001 A 
ENDROOT
TORSDOF 0
ENDMDL
