MODEL 1
REMARK minimizedAffinity -2.39079309
REMARK minimizedRMSD -1
REMARK  0 active torsions:
REMARK  status: ('A' for Active; 'I' for Inactive)
ROOT
ATOM      1  C   UNL d   1      -0.737  -2.541   0.498  0.00  0.00     0.078 C 
ATOM      2  C1  UNL d   1      -0.188  -2.510  -0.897  0.00  0.00    -0.077 A 
ATOM      3  C2  UNL d   1      -0.024  -1.299  -1.580  0.00  0.00    -0.001 A 
ATOM      4  C3  UNL d   1       0.480  -1.285  -2.882  0.00  0.00     0.003 A 
ATOM      5  C4  UNL d   1       0.822  -2.480  -3.512  0.00  0.00    -0.005 A 
ATOM      6  C5  UNL d   1       0.660  -3.690  -2.841  0.00  0.00     0.003 A 
ATOM      7  C6  UNL d   1       0.157  -3.706  -1.539  0.00  0.00    -0.001 A 
ENDROOT
TORSDOF 0
ENDMDL
