MODEL 1
REMARK minimizedAffinity 0.0119656995
REMARK minimizedRMSD -1
REMARK  0 active torsions:
REMARK  status: ('A' for Active; 'I' for Inactive)
ROOT
ATOM      1  C   UNL d   1      -1.443  -1.094   3.812  0.00  0.00     0.078 C 
ATOM      2  C1  UNL d   1      -1.203  -1.382   2.360  0.00  0.00    -0.077 A 
ATOM      3  C2  UNL d   1      -0.667  -2.608   1.947  0.00  0.00    -0.001 A 
ATOM      4  C3  UNL d   1      -0.440  -2.859   0.593  0.00  0.00     0.003 A 
ATOM      5  C4  UNL d   1      -0.744  -1.888  -0.359  0.00  0.00    -0.005 A 
ATOM      6  C5  UNL d   1      -1.275  -0.664   0.043  0.00  0.00     0.003 A 
ATOM      7  C6  UNL d   1      -1.503  -0.412   1.396  0.00  0.00    -0.001 A 
ENDROOT
TORSDOF 0
ENDMDL
