MODEL 1
REMARK minimizedAffinity 3.23574519
REMARK minimizedRMSD -1
REMARK  0 active torsions:
REMARK  status: ('A' for Active; 'I' for Inactive)
ROOT
ATOM      1  C   UNL d   1      -0.790   1.531  -1.308  0.00  0.00     0.078 C 
ATOM      2  C1  UNL d   1      -1.582   2.756  -0.960  0.00  0.00    -0.077 A 
ATOM      3  C2  UNL d   1      -1.271   3.518   0.173  0.00  0.00    -0.001 A 
ATOM      4  C3  UNL d   1      -2.022   4.651   0.489  0.00  0.00     0.003 A 
ATOM      5  C4  UNL d   1      -3.090   5.032  -0.321  0.00  0.00    -0.005 A 
ATOM      6  C5  UNL d   1      -3.408   4.279  -1.450  0.00  0.00     0.003 A 
ATOM      7  C6  UNL d   1      -2.658   3.146  -1.768  0.00  0.00    -0.001 A 
ENDROOT
TORSDOF 0
ENDMDL
