MODEL 1
REMARK minimizedAffinity -5.20483351
REMARK minimizedRMSD -1
REMARK  0 active torsions:
REMARK  status: ('A' for Active; 'I' for Inactive)
ROOT
ATOM      1  C   UNL d   1      -1.080  -1.852   2.839  0.00  0.00     0.078 C 
ATOM      2  C1  UNL d   1      -0.548  -2.289   1.507  0.00  0.00    -0.077 A 
ATOM      3  C2  UNL d   1       0.118  -3.512   1.363  0.00  0.00    -0.001 A 
ATOM      4  C3  UNL d   1       0.617  -3.902   0.119  0.00  0.00     0.003 A 
ATOM      5  C4  UNL d   1       0.455  -3.074  -0.990  0.00  0.00    -0.005 A 
ATOM      6  C5  UNL d   1      -0.205  -1.854  -0.856  0.00  0.00     0.003 A 
ATOM      7  C6  UNL d   1      -0.704  -1.463   0.387  0.00  0.00    -0.001 A 
ENDROOT
TORSDOF 0
ENDMDL
