MODEL 1
REMARK minimizedAffinity 0.184998214
REMARK minimizedRMSD -1
REMARK  0 active torsions:
REMARK  status: ('A' for Active; 'I' for Inactive)
ROOT
ATOM      1  C   UNL d   1       0.753  -2.304  -3.571  0.00  0.00     0.078 C 
ATOM      2  C1  UNL d   1       0.492  -2.680  -2.143  0.00  0.00    -0.077 A 
ATOM      3  C2  UNL d   1       0.124  -1.714  -1.199  0.00  0.00    -0.001 A 
ATOM      4  C3  UNL d   1      -0.106  -2.077   0.129  0.00  0.00     0.003 A 
ATOM      5  C4  UNL d   1       0.031  -3.406   0.526  0.00  0.00    -0.005 A 
ATOM      6  C5  UNL d   1       0.399  -4.374  -0.406  0.00  0.00     0.003 A 
ATOM      7  C6  UNL d   1       0.629  -4.013  -1.735  0.00  0.00    -0.001 A 
ENDROOT
TORSDOF 0
ENDMDL
