MODEL 1
REMARK minimizedAffinity 6.20709801
REMARK minimizedRMSD -1
REMARK  0 active torsions:
REMARK  status: ('A' for Active; 'I' for Inactive)
ROOT
ATOM      1  C   UNL d   1       0.685  -2.510  -2.085  0.00  0.00     0.078 C 
ATOM      2  C1  UNL d   1      -0.056  -2.823  -0.819  0.00  0.00    -0.077 A 
ATOM      3  C2  UNL d   1      -1.451  -2.944  -0.812  0.00  0.00    -0.001 A 
ATOM      4  C3  UNL d   1      -2.129  -3.226   0.375  0.00  0.00     0.003 A 
ATOM      5  C4  UNL d   1      -1.420  -3.387   1.564  0.00  0.00    -0.005 A 
ATOM      6  C5  UNL d   1      -0.032  -3.265   1.567  0.00  0.00     0.003 A 
ATOM      7  C6  UNL d   1       0.647  -2.984   0.381  0.00  0.00    -0.001 A 
ENDROOT
TORSDOF 0
ENDMDL
