MODEL 1
REMARK minimizedAffinity 2.78964972
REMARK minimizedRMSD -1
REMARK  0 active torsions:
REMARK  status: ('A' for Active; 'I' for Inactive)
ROOT
ATOM      1  C   UNL d   1      -0.475  -3.201   0.028  0.00  0.00     0.078 C 
ATOM      2  C1  UNL d   1      -0.188  -2.440  -1.231  0.00  0.00    -0.077 A 
ATOM      3  C2  UNL d   1      -0.406  -3.018  -2.488  0.00  0.00    -0.001 A 
ATOM      4  C3  UNL d   1      -0.125  -2.302  -3.653  0.00  0.00     0.003 A 
ATOM      5  C4  UNL d   1       0.378  -1.004  -3.572  0.00  0.00    -0.005 A 
ATOM      6  C5  UNL d   1       0.601  -0.422  -2.326  0.00  0.00     0.003 A 
ATOM      7  C6  UNL d   1       0.320  -1.137  -1.160  0.00  0.00    -0.001 A 
ENDROOT
TORSDOF 0
ENDMDL
