MODEL 1
REMARK minimizedAffinity 3.05826712
REMARK minimizedRMSD -1
REMARK  0 active torsions:
REMARK  status: ('A' for Active; 'I' for Inactive)
ROOT
ATOM      1  C   UNL d   1       0.326  -2.584  -2.953  0.00  0.00     0.078 C 
ATOM      2  C1  UNL d   1      -0.079  -2.112  -1.588  0.00  0.00    -0.077 A 
ATOM      3  C2  UNL d   1      -0.351  -3.024  -0.561  0.00  0.00    -0.001 A 
ATOM      4  C3  UNL d   1      -0.736  -2.571   0.701  0.00  0.00     0.003 A 
ATOM      5  C4  UNL d   1      -0.854  -1.205   0.949  0.00  0.00    -0.005 A 
ATOM      6  C5  UNL d   1      -0.587  -0.290  -0.068  0.00  0.00     0.003 A 
ATOM      7  C6  UNL d   1      -0.202  -0.741  -1.331  0.00  0.00    -0.001 A 
ENDROOT
TORSDOF 0
ENDMDL
