MODEL 1
REMARK minimizedAffinity 1.67025006
REMARK minimizedRMSD -1
REMARK  0 active torsions:
REMARK  status: ('A' for Active; 'I' for Inactive)
ROOT
ATOM      1  C   UNL d   1       1.149   0.489  -0.866  0.00  0.00     0.078 C 
ATOM      2  C1  UNL d   1       0.681  -0.898  -1.190  0.00  0.00    -0.077 A 
ATOM      3  C2  UNL d   1       0.120  -1.719  -0.204  0.00  0.00    -0.001 A 
ATOM      4  C3  UNL d   1      -0.303  -3.011  -0.518  0.00  0.00     0.003 A 
ATOM      5  C4  UNL d   1      -0.169  -3.495  -1.817  0.00  0.00    -0.005 A 
ATOM      6  C5  UNL d   1       0.390  -2.686  -2.805  0.00  0.00     0.003 A 
ATOM      7  C6  UNL d   1       0.813  -1.393  -2.493  0.00  0.00    -0.001 A 
ENDROOT
TORSDOF 0
ENDMDL
