MODEL 1
REMARK minimizedAffinity 5.4173274
REMARK minimizedRMSD -1
REMARK  0 active torsions:
REMARK  status: ('A' for Active; 'I' for Inactive)
ROOT
ATOM      1  C   UNL d   1       0.651  -1.787  -2.051  0.00  0.00     0.078 C 
ATOM      2  C1  UNL d   1       1.412  -0.699  -1.354  0.00  0.00    -0.077 A 
ATOM      3  C2  UNL d   1       1.094   0.649  -1.558  0.00  0.00    -0.001 A 
ATOM      4  C3  UNL d   1       1.817   1.651  -0.910  0.00  0.00     0.003 A 
ATOM      5  C4  UNL d   1       2.865   1.316  -0.054  0.00  0.00    -0.005 A 
ATOM      6  C5  UNL d   1       3.190  -0.023   0.154  0.00  0.00     0.003 A 
ATOM      7  C6  UNL d   1       2.468  -1.026  -0.493  0.00  0.00    -0.001 A 
ENDROOT
TORSDOF 0
ENDMDL
