MODEL 1
REMARK minimizedAffinity 3.4194932
REMARK minimizedRMSD -1
REMARK  0 active torsions:
REMARK  status: ('A' for Active; 'I' for Inactive)
ROOT
ATOM      1  C   UNL d   1       1.116  -1.494  -3.211  0.00  0.00     0.078 C 
ATOM      2  C1  UNL d   1       1.795  -0.644  -2.179  0.00  0.00    -0.077 A 
ATOM      3  C2  UNL d   1       3.058  -0.988  -1.680  0.00  0.00    -0.001 A 
ATOM      4  C3  UNL d   1       3.674  -0.193  -0.712  0.00  0.00     0.003 A 
ATOM      5  C4  UNL d   1       3.035   0.949  -0.233  0.00  0.00    -0.005 A 
ATOM      6  C5  UNL d   1       1.777   1.297  -0.722  0.00  0.00     0.003 A 
ATOM      7  C6  UNL d   1       1.159   0.504  -1.690  0.00  0.00    -0.001 A 
ENDROOT
TORSDOF 0
ENDMDL
