MODEL 1
REMARK minimizedAffinity 4.55768681
REMARK minimizedRMSD -1
REMARK  0 active torsions:
REMARK  status: ('A' for Active; 'I' for Inactive)
ROOT
ATOM      1  C   UNL d   1       1.471  -1.813  -3.437  0.00  0.00     0.078 C 
ATOM      2  C1  UNL d   1       2.005  -0.851  -2.418  0.00  0.00    -0.077 A 
ATOM      3  C2  UNL d   1       1.166   0.080  -1.795  0.00  0.00    -0.001 A 
ATOM      4  C3  UNL d   1       1.678   0.976  -0.855  0.00  0.00     0.003 A 
ATOM      5  C4  UNL d   1       3.033   0.949  -0.530  0.00  0.00    -0.005 A 
ATOM      6  C5  UNL d   1       3.877   0.027  -1.146  0.00  0.00     0.003 A 
ATOM      7  C6  UNL d   1       3.366  -0.869  -2.086  0.00  0.00    -0.001 A 
ENDROOT
TORSDOF 0
ENDMDL
