MODEL 1
REMARK minimizedAffinity 6.50785828
REMARK minimizedRMSD -1
REMARK  0 active torsions:
REMARK  status: ('A' for Active; 'I' for Inactive)
ROOT
ATOM      1  C   UNL d   1       1.635   0.652  -1.441  0.00  0.00     0.078 C 
ATOM      2  C1  UNL d   1       0.966  -0.571  -1.994  0.00  0.00    -0.077 A 
ATOM      3  C2  UNL d   1       0.241  -1.434  -1.163  0.00  0.00    -0.001 A 
ATOM      4  C3  UNL d   1      -0.368  -2.575  -1.690  0.00  0.00     0.003 A 
ATOM      5  C4  UNL d   1      -0.257  -2.863  -3.048  0.00  0.00    -0.005 A 
ATOM      6  C5  UNL d   1       0.465  -2.012  -3.882  0.00  0.00     0.003 A 
ATOM      7  C6  UNL d   1       1.075  -0.871  -3.358  0.00  0.00    -0.001 A 
ENDROOT
TORSDOF 0
ENDMDL
