MODEL 1
REMARK minimizedAffinity -0.58554101
REMARK minimizedRMSD -1
REMARK  0 active torsions:
REMARK  status: ('A' for Active; 'I' for Inactive)
ROOT
ATOM      1  C   UNL d   1      -1.881   0.201  -0.026  0.00  0.00     0.078 C 
ATOM      2  C1  UNL d   1      -1.669  -1.254   0.269  0.00  0.00    -0.077 A 
ATOM      3  C2  UNL d   1      -0.801  -1.664   1.288  0.00  0.00    -0.001 A 
ATOM      4  C3  UNL d   1      -0.606  -3.022   1.546  0.00  0.00     0.003 A 
ATOM      5  C4  UNL d   1      -1.275  -3.981   0.788  0.00  0.00    -0.005 A 
ATOM      6  C5  UNL d   1      -2.139  -3.583  -0.230  0.00  0.00     0.003 A 
ATOM      7  C6  UNL d   1      -2.335  -2.225  -0.489  0.00  0.00    -0.001 A 
ENDROOT
TORSDOF 0
ENDMDL
