MODEL 1
REMARK minimizedAffinity 12.4788818
REMARK minimizedRMSD -1
REMARK  0 active torsions:
REMARK  status: ('A' for Active; 'I' for Inactive)
ROOT
ATOM      1  C   UNL d   1       3.981  -2.111   0.711  0.00  0.00     0.078 C 
ATOM      2  C1  UNL d   1       3.205  -1.050  -0.010  0.00  0.00    -0.077 A 
ATOM      3  C2  UNL d   1       3.615   0.288   0.017  0.00  0.00    -0.001 A 
ATOM      4  C3  UNL d   1       2.877   1.266  -0.651  0.00  0.00     0.003 A 
ATOM      5  C4  UNL d   1       1.723   0.917  -1.350  0.00  0.00    -0.005 A 
ATOM      6  C5  UNL d   1       1.305  -0.412  -1.380  0.00  0.00     0.003 A 
ATOM      7  C6  UNL d   1       2.042  -1.392  -0.713  0.00  0.00    -0.001 A 
ENDROOT
TORSDOF 0
ENDMDL
