MODEL 1
REMARK minimizedAffinity 0.413474292
REMARK minimizedRMSD -1
REMARK  0 active torsions:
REMARK  status: ('A' for Active; 'I' for Inactive)
ROOT
ATOM      1  C   UNL d   1      -1.197   0.325  -0.359  0.00  0.00     0.078 C 
ATOM      2  C1  UNL d   1      -1.635  -1.007   0.174  0.00  0.00    -0.077 A 
ATOM      3  C2  UNL d   1      -0.785  -1.778   0.975  0.00  0.00    -0.001 A 
ATOM      4  C3  UNL d   1      -1.203  -3.020   1.457  0.00  0.00     0.003 A 
ATOM      5  C4  UNL d   1      -2.472  -3.502   1.141  0.00  0.00    -0.005 A 
ATOM      6  C5  UNL d   1      -3.324  -2.743   0.342  0.00  0.00     0.003 A 
ATOM      7  C6  UNL d   1      -2.908  -1.501  -0.140  0.00  0.00    -0.001 A 
ENDROOT
TORSDOF 0
ENDMDL
