MODEL 1
REMARK minimizedAffinity -1.41626203
REMARK minimizedRMSD -1
REMARK  0 active torsions:
REMARK  status: ('A' for Active; 'I' for Inactive)
ROOT
ATOM      1  C   UNL d   1      -3.399   4.970  -3.086  0.00  0.00     0.078 C 
ATOM      2  C1  UNL d   1      -3.143   4.978  -1.608  0.00  0.00    -0.077 A 
ATOM      3  C2  UNL d   1      -3.648   5.999  -0.794  0.00  0.00    -0.001 A 
ATOM      4  C3  UNL d   1      -3.394   5.998   0.578  0.00  0.00     0.003 A 
ATOM      5  C4  UNL d   1      -2.634   4.980   1.149  0.00  0.00    -0.005 A 
ATOM      6  C5  UNL d   1      -2.125   3.960   0.346  0.00  0.00     0.003 A 
ATOM      7  C6  UNL d   1      -2.378   3.959  -1.026  0.00  0.00    -0.001 A 
ENDROOT
TORSDOF 0
ENDMDL
