MODEL 1
REMARK minimizedAffinity -2.79426765
REMARK minimizedRMSD -1
REMARK  0 active torsions:
REMARK  status: ('A' for Active; 'I' for Inactive)
ROOT
ATOM      1  O1  BZF d   1       4.983  -4.091  -5.999  0.00  0.00    -0.204 OA
ATOM      2  C2  BZF d   1       4.124  -4.850  -5.227  0.00  0.00     0.174 A 
ATOM      3  C3  BZF d   1       3.813  -4.205  -4.084  0.00  0.00    -0.012 A 
ATOM      4  C3A BZF d   1       4.447  -2.927  -4.188  0.00  0.00    -0.107 A 
ATOM      5  C4  BZF d   1       4.494  -1.833  -3.372  0.00  0.00     0.055 A 
ATOM      6  C5  BZF d   1       5.262  -0.772  -3.734  0.00  0.00    -0.016 A 
ATOM      7  C6  BZF d   1       6.000  -0.773  -4.899  0.00  0.00     0.022 A 
ATOM      8  C7  BZF d   1       5.982  -1.834  -5.743  0.00  0.00     0.029 A 
ATOM      9  C7A BZF d   1       5.180  -2.894  -5.397  0.00  0.00     0.058 A 
ENDROOT
TORSDOF 0
ENDMDL
