MODEL 1
REMARK minimizedAffinity 9.79796124
REMARK minimizedRMSD -1
REMARK  0 active torsions:
REMARK  status: ('A' for Active; 'I' for Inactive)
ROOT
ATOM      1  O1  BZF d   1      -4.457   1.265  -3.450  0.00  0.00    -0.204 OA
ATOM      2  C2  BZF d   1      -4.715   2.606  -3.239  0.00  0.00     0.174 A 
ATOM      3  C3  BZF d   1      -3.633   3.226  -2.724  0.00  0.00    -0.012 A 
ATOM      4  C3A BZF d   1      -2.608   2.229  -2.692  0.00  0.00    -0.107 A 
ATOM      5  C4  BZF d   1      -1.300   2.240  -2.298  0.00  0.00     0.055 A 
ATOM      6  C5  BZF d   1      -0.593   1.080  -2.325  0.00  0.00    -0.016 A 
ATOM      7  C6  BZF d   1      -1.162  -0.108  -2.735  0.00  0.00     0.022 A 
ATOM      8  C7  BZF d   1      -2.454  -0.167  -3.139  0.00  0.00     0.029 A 
ATOM      9  C7A BZF d   1      -3.162   1.010  -3.144  0.00  0.00     0.058 A 
ENDROOT
TORSDOF 0
ENDMDL
