MODEL 1
REMARK minimizedAffinity -3.791821
REMARK minimizedRMSD -1
REMARK  0 active torsions:
REMARK  status: ('A' for Active; 'I' for Inactive)
ROOT
ATOM      1  O1  BZF d   1       2.393  -3.953  -5.889  0.00  0.00    -0.204 OA
ATOM      2  C2  BZF d   1       1.540  -2.976  -5.411  0.00  0.00     0.174 A 
ATOM      3  C3  BZF d   1       2.237  -1.956  -4.870  0.00  0.00    -0.012 A 
ATOM      4  C3A BZF d   1       3.612  -2.275  -5.100  0.00  0.00    -0.107 A 
ATOM      5  C4  BZF d   1       4.785  -1.640  -4.808  0.00  0.00     0.055 A 
ATOM      6  C5  BZF d   1       5.961  -2.255  -5.104  0.00  0.00    -0.016 A 
ATOM      7  C6  BZF d   1       6.000  -3.504  -5.687  0.00  0.00     0.022 A 
ATOM      8  C7  BZF d   1       4.863  -4.171  -6.000  0.00  0.00     0.029 A 
ATOM      9  C7A BZF d   1       3.673  -3.539  -5.732  0.00  0.00     0.058 A 
ENDROOT
TORSDOF 0
ENDMDL
