MODEL 1
REMARK minimizedAffinity 2.39979267
REMARK minimizedRMSD -1
REMARK  0 active torsions:
REMARK  status: ('A' for Active; 'I' for Inactive)
ROOT
ATOM      1  O1  BZF d   1       4.690  -4.466  -6.000  0.00  0.00    -0.204 OA
ATOM      2  C2  BZF d   1       5.713  -3.537  -5.999  0.00  0.00     0.174 A 
ATOM      3  C3  BZF d   1       5.223  -2.286  -5.875  0.00  0.00    -0.012 A 
ATOM      4  C3A BZF d   1       3.813  -2.450  -5.700  0.00  0.00    -0.107 A 
ATOM      5  C4  BZF d   1       2.783  -1.574  -5.508  0.00  0.00     0.055 A 
ATOM      6  C5  BZF d   1       1.512  -2.053  -5.447  0.00  0.00    -0.016 A 
ATOM      7  C6  BZF d   1       1.235  -3.398  -5.577  0.00  0.00     0.022 A 
ATOM      8  C7  BZF d   1       2.225  -4.305  -5.764  0.00  0.00     0.029 A 
ATOM      9  C7A BZF d   1       3.512  -3.829  -5.793  0.00  0.00     0.058 A 
ENDROOT
TORSDOF 0
ENDMDL
