MODEL 1
REMARK minimizedAffinity 12.2687378
REMARK minimizedRMSD -1
REMARK  0 active torsions:
REMARK  status: ('A' for Active; 'I' for Inactive)
ROOT
ATOM      1  O1  BZF d   1      -4.339   1.542  -3.379  0.00  0.00    -0.204 OA
ATOM      2  C2  BZF d   1      -4.581   2.829  -2.938  0.00  0.00     0.174 A 
ATOM      3  C3  BZF d   1      -3.482   3.351  -2.358  0.00  0.00    -0.012 A 
ATOM      4  C3A BZF d   1      -2.462   2.361  -2.524  0.00  0.00    -0.107 A 
ATOM      5  C4  BZF d   1      -1.144   2.302  -2.173  0.00  0.00     0.055 A 
ATOM      6  C5  BZF d   1      -0.446   1.162  -2.416  0.00  0.00    -0.016 A 
ATOM      7  C6  BZF d   1      -1.034   0.061  -3.003  0.00  0.00     0.022 A 
ATOM      8  C7  BZF d   1      -2.338   0.074  -3.374  0.00  0.00     0.029 A 
ATOM      9  C7A BZF d   1      -3.038   1.236  -3.159  0.00  0.00     0.058 A 
ENDROOT
TORSDOF 0
ENDMDL
