MODEL 1
REMARK minimizedAffinity 5.36591959
REMARK minimizedRMSD -1
REMARK  0 active torsions:
REMARK  status: ('A' for Active; 'I' for Inactive)
ROOT
ATOM      1  O1  BZF d   1      -3.612   2.416  -1.910  0.00  0.00    -0.204 OA
ATOM      2  C2  BZF d   1      -4.101   1.774  -3.031  0.00  0.00     0.174 A 
ATOM      3  C3  BZF d   1      -3.092   1.371  -3.830  0.00  0.00    -0.012 A 
ATOM      4  C3A BZF d   1      -1.895   1.706  -3.121  0.00  0.00    -0.107 A 
ATOM      5  C4  BZF d   1      -0.567   1.541  -3.392  0.00  0.00     0.055 A 
ATOM      6  C5  BZF d   1       0.351   2.045  -2.526  0.00  0.00    -0.016 A 
ATOM      7  C6  BZF d   1      -0.023   2.722  -1.384  0.00  0.00     0.022 A 
ATOM      8  C7  BZF d   1      -1.329   2.905  -1.070  0.00  0.00     0.029 A 
ATOM      9  C7A BZF d   1      -2.259   2.369  -1.927  0.00  0.00     0.058 A 
ENDROOT
TORSDOF 0
ENDMDL
