MODEL 1
REMARK minimizedAffinity 15.8597755
REMARK minimizedRMSD -1
REMARK  0 active torsions:
REMARK  status: ('A' for Active; 'I' for Inactive)
ROOT
ATOM      1  O1  BZF d   1      -3.541   3.605  -4.713  0.00  0.00    -0.204 OA
ATOM      2  C2  BZF d   1      -4.492   4.401  -4.103  0.00  0.00     0.174 A 
ATOM      3  C3  BZF d   1      -4.893   3.858  -2.936  0.00  0.00    -0.012 A 
ATOM      4  C3A BZF d   1      -4.080   2.693  -2.764  0.00  0.00    -0.107 A 
ATOM      5  C4  BZF d   1      -3.995   1.743  -1.787  0.00  0.00     0.055 A 
ATOM      6  C5  BZF d   1      -3.147   0.695  -1.956  0.00  0.00    -0.016 A 
ATOM      7  C6  BZF d   1      -2.374   0.563  -3.091  0.00  0.00     0.022 A 
ATOM      8  C7  BZF d   1      -2.419   1.482  -4.085  0.00  0.00     0.029 A 
ATOM      9  C7A BZF d   1      -3.251   2.560  -3.902  0.00  0.00     0.058 A 
ENDROOT
TORSDOF 0
ENDMDL
