MODEL 1
REMARK minimizedAffinity 2.83178687
REMARK minimizedRMSD -1
REMARK  0 active torsions:
REMARK  status: ('A' for Active; 'I' for Inactive)
ROOT
ATOM      1  O1  BZF d   1       2.728  -4.196  -3.761  0.00  0.00    -0.204 OA
ATOM      2  C2  BZF d   1       2.530  -2.858  -4.042  0.00  0.00     0.174 A 
ATOM      3  C3  BZF d   1       3.498  -2.392  -4.857  0.00  0.00    -0.012 A 
ATOM      4  C3A BZF d   1       4.303  -3.531  -5.174  0.00  0.00    -0.107 A 
ATOM      5  C4  BZF d   1       5.409  -3.711  -5.956  0.00  0.00     0.055 A 
ATOM      6  C5  BZF d   1       5.998  -4.936  -5.995  0.00  0.00    -0.016 A 
ATOM      7  C6  BZF d   1       5.511  -5.999  -5.263  0.00  0.00     0.022 A 
ATOM      8  C7  BZF d   1       4.414  -5.870  -4.478  0.00  0.00     0.029 A 
ATOM      9  C7A BZF d   1       3.798  -4.643  -4.462  0.00  0.00     0.058 A 
ENDROOT
TORSDOF 0
ENDMDL
