MODEL 1
REMARK minimizedAffinity 0.936656058
REMARK minimizedRMSD -1
REMARK  0 active torsions:
REMARK  status: ('A' for Active; 'I' for Inactive)
ROOT
ATOM      1  O1  BZF d   1       4.148  -5.220  -4.540  0.00  0.00    -0.204 OA
ATOM      2  C2  BZF d   1       5.149  -5.978  -5.117  0.00  0.00     0.174 A 
ATOM      3  C3  BZF d   1       6.000  -5.196  -5.813  0.00  0.00    -0.012 A 
ATOM      4  C3A BZF d   1       5.552  -3.857  -5.585  0.00  0.00    -0.107 A 
ATOM      5  C4  BZF d   1       6.000  -2.634  -5.998  0.00  0.00     0.055 A 
ATOM      6  C5  BZF d   1       5.294  -1.523  -5.659  0.00  0.00    -0.016 A 
ATOM      7  C6  BZF d   1       4.135  -1.599  -4.915  0.00  0.00     0.022 A 
ATOM      8  C7  BZF d   1       3.654  -2.789  -4.479  0.00  0.00     0.029 A 
ATOM      9  C7A BZF d   1       4.383  -3.910  -4.792  0.00  0.00     0.058 A 
ENDROOT
TORSDOF 0
ENDMDL
