MODEL 1
REMARK minimizedAffinity 7.48955536
REMARK minimizedRMSD -1
REMARK  0 active torsions:
REMARK  status: ('A' for Active; 'I' for Inactive)
ROOT
ATOM      1  O1  BZF d   1      -5.507   3.136  -4.099  0.00  0.00    -0.204 OA
ATOM      2  C2  BZF d   1      -5.710   3.953  -3.003  0.00  0.00     0.174 A 
ATOM      3  C3  BZF d   1      -4.891   3.606  -1.990  0.00  0.00    -0.012 A 
ATOM      4  C3A BZF d   1      -4.064   2.563  -2.514  0.00  0.00    -0.107 A 
ATOM      5  C4  BZF d   1      -3.044   1.821  -1.991  0.00  0.00     0.055 A 
ATOM      6  C5  BZF d   1      -2.495   0.831  -2.743  0.00  0.00    -0.016 A 
ATOM      7  C6  BZF d   1      -2.944   0.552  -4.017  0.00  0.00     0.022 A 
ATOM      8  C7  BZF d   1      -3.950   1.264  -4.580  0.00  0.00     0.029 A 
ATOM      9  C7A BZF d   1      -4.485   2.287  -3.836  0.00  0.00     0.058 A 
ENDROOT
TORSDOF 0
ENDMDL
