MODEL 1
REMARK minimizedAffinity 8.54332638
REMARK minimizedRMSD -1
REMARK  0 active torsions:
REMARK  status: ('A' for Active; 'I' for Inactive)
ROOT
ATOM      1  O1  BZF d   1      -2.270   1.248  -4.074  0.00  0.00    -0.204 OA
ATOM      2  C2  BZF d   1      -2.111   0.272  -3.110  0.00  0.00     0.174 A 
ATOM      3  C3  BZF d   1      -2.848   0.555  -2.016  0.00  0.00    -0.012 A 
ATOM      4  C3A BZF d   1      -3.580   1.737  -2.352  0.00  0.00    -0.107 A 
ATOM      5  C4  BZF d   1      -4.495   2.497  -1.680  0.00  0.00     0.055 A 
ATOM      6  C5  BZF d   1      -4.967   3.630  -2.262  0.00  0.00    -0.016 A 
ATOM      7  C6  BZF d   1      -4.542   4.037  -3.510  0.00  0.00     0.022 A 
ATOM      8  C7  BZF d   1      -3.639   3.314  -4.217  0.00  0.00     0.029 A 
ATOM      9  C7A BZF d   1      -3.186   2.150  -3.645  0.00  0.00     0.058 A 
ENDROOT
TORSDOF 0
ENDMDL
