MODEL 1
REMARK minimizedAffinity 17.179615
REMARK minimizedRMSD -1
REMARK  0 active torsions:
REMARK  status: ('A' for Active; 'I' for Inactive)
ROOT
ATOM      1  C2' OXE d   1      -3.691  -1.828   5.440  0.00  0.00     0.078 C 
ATOM      2  C1' OXE d   1      -2.953   0.836   5.927  0.00  0.00     0.078 C 
ATOM      3  C1  OXE d   1      -3.172   0.417   4.495  0.00  0.00    -0.078 A 
ATOM      4  C2  OXE d   1      -3.487  -0.900   4.262  0.00  0.00    -0.078 A 
ATOM      5  C3  OXE d   1      -3.753  -1.327   2.964  0.00  0.00     0.003 A 
ATOM      6  C4  OXE d   1      -3.553  -0.464   1.880  0.00  0.00    -0.002 A 
ATOM      7  C5  OXE d   1      -3.193   0.871   2.091  0.00  0.00    -0.002 A 
ATOM      8  C6  OXE d   1      -3.041   1.338   3.392  0.00  0.00     0.003 A 
ENDROOT
TORSDOF 0
ENDMDL
