MODEL 1
REMARK minimizedAffinity 13.516386
REMARK minimizedRMSD -1
REMARK  0 active torsions:
REMARK  status: ('A' for Active; 'I' for Inactive)
ROOT
ATOM      1  C2' OXE d   1       1.267   0.453  -3.195  0.00  0.00     0.078 C 
ATOM      2  C1' OXE d   1       2.857   1.067  -0.965  0.00  0.00     0.078 C 
ATOM      3  C1  OXE d   1       2.479  -0.377  -1.183  0.00  0.00    -0.078 A 
ATOM      4  C2  OXE d   1       1.663  -0.662  -2.251  0.00  0.00    -0.078 A 
ATOM      5  C3  OXE d   1       1.329  -1.984  -2.530  0.00  0.00     0.003 A 
ATOM      6  C4  OXE d   1       1.690  -3.008  -1.646  0.00  0.00    -0.002 A 
ATOM      7  C5  OXE d   1       2.489  -2.734  -0.531  0.00  0.00    -0.002 A 
ATOM      8  C6  OXE d   1       2.926  -1.433  -0.309  0.00  0.00     0.003 A 
ENDROOT
TORSDOF 0
ENDMDL
