MODEL 1
REMARK minimizedAffinity -1.45931125
REMARK minimizedRMSD -1
REMARK  0 active torsions:
REMARK  status: ('A' for Active; 'I' for Inactive)
ROOT
ATOM      1  C2' OXE d   1      -5.791  -3.042   4.842  0.00  0.00     0.078 C 
ATOM      2  C1' OXE d   1      -5.996  -1.993   2.247  0.00  0.00     0.078 C 
ATOM      3  C1  OXE d   1      -5.500  -3.409   2.396  0.00  0.00    -0.078 A 
ATOM      4  C2  OXE d   1      -5.359  -3.898   3.672  0.00  0.00    -0.078 A 
ATOM      5  C3  OXE d   1      -4.957  -5.217   3.864  0.00  0.00     0.003 A 
ATOM      6  C4  OXE d   1      -4.549  -6.000   2.777  0.00  0.00    -0.002 A 
ATOM      7  C5  OXE d   1      -4.648  -5.507   1.471  0.00  0.00    -0.002 A 
ATOM      8  C6  OXE d   1      -5.160  -4.232   1.261  0.00  0.00     0.003 A 
ENDROOT
TORSDOF 0
ENDMDL
