MODEL 1
REMARK minimizedAffinity 12.9410057
REMARK minimizedRMSD -1
REMARK  0 active torsions:
REMARK  status: ('A' for Active; 'I' for Inactive)
ROOT
ATOM      1  C2' OXE d   1       1.479   0.459  -2.994  0.00  0.00     0.078 C 
ATOM      2  C1' OXE d   1       3.196   0.852  -0.807  0.00  0.00     0.078 C 
ATOM      3  C1  OXE d   1       2.744  -0.557  -1.103  0.00  0.00    -0.078 A 
ATOM      4  C2  OXE d   1       1.868  -0.733  -2.147  0.00  0.00    -0.078 A 
ATOM      5  C3  OXE d   1       1.463  -2.018  -2.497  0.00  0.00     0.003 A 
ATOM      6  C4  OXE d   1       1.818  -3.115  -1.702  0.00  0.00    -0.002 A 
ATOM      7  C5  OXE d   1       2.679  -2.951  -0.611  0.00  0.00    -0.002 A 
ATOM      8  C6  OXE d   1       3.184  -1.688  -0.324  0.00  0.00     0.003 A 
ENDROOT
TORSDOF 0
ENDMDL
