MODEL 1
REMARK minimizedAffinity 10.0573778
REMARK minimizedRMSD -1
REMARK  0 active torsions:
REMARK  status: ('A' for Active; 'I' for Inactive)
ROOT
ATOM      1  C2' OXE d   1       1.775   1.122  -3.043  0.00  0.00     0.078 C 
ATOM      2  C1' OXE d   1       2.934   1.140  -0.486  0.00  0.00     0.078 C 
ATOM      3  C1  OXE d   1       2.682  -0.198  -1.135  0.00  0.00    -0.078 A 
ATOM      4  C2  OXE d   1       2.072  -0.199  -2.366  0.00  0.00    -0.078 A 
ATOM      5  C3  OXE d   1       1.866  -1.403  -3.033  0.00  0.00     0.003 A 
ATOM      6  C4  OXE d   1       2.134  -2.621  -2.396  0.00  0.00    -0.002 A 
ATOM      7  C5  OXE d   1       2.719  -2.644  -1.125  0.00  0.00    -0.002 A 
ATOM      8  C6  OXE d   1       3.038  -1.443  -0.500  0.00  0.00     0.003 A 
ENDROOT
TORSDOF 0
ENDMDL
