MODEL 1
REMARK minimizedAffinity 12.6197081
REMARK minimizedRMSD -1
REMARK  0 active torsions:
REMARK  status: ('A' for Active; 'I' for Inactive)
ROOT
ATOM      1  C2' OXE d   1       2.581   0.782  -1.118  0.00  0.00     0.078 C 
ATOM      2  C1' OXE d   1       1.413   0.012  -3.552  0.00  0.00     0.078 C 
ATOM      3  C1  OXE d   1       1.779  -1.075  -2.573  0.00  0.00    -0.078 A 
ATOM      4  C2  OXE d   1       2.393  -0.692  -1.404  0.00  0.00    -0.078 A 
ATOM      5  C3  OXE d   1       2.701  -1.650  -0.443  0.00  0.00     0.003 A 
ATOM      6  C4  OXE d   1       2.533  -3.012  -0.719  0.00  0.00    -0.002 A 
ATOM      7  C5  OXE d   1       1.947  -3.426  -1.920  0.00  0.00    -0.002 A 
ATOM      8  C6  OXE d   1       1.526  -2.470  -2.838  0.00  0.00     0.003 A 
ENDROOT
TORSDOF 0
ENDMDL
