MODEL 1
REMARK minimizedAffinity 8.5627079
REMARK minimizedRMSD -1
REMARK  0 active torsions:
REMARK  status: ('A' for Active; 'I' for Inactive)
ROOT
ATOM      1  C2' OXE d   1       2.942  -2.590  -0.599  0.00  0.00     0.078 C 
ATOM      2  C1' OXE d   1       2.063  -3.116  -3.212  0.00  0.00     0.078 C 
ATOM      3  C1  OXE d   1       2.065  -1.681  -2.746  0.00  0.00    -0.078 A 
ATOM      4  C2  OXE d   1       2.453  -1.438  -1.450  0.00  0.00    -0.078 A 
ATOM      5  C3  OXE d   1       2.525  -0.128  -0.987  0.00  0.00     0.003 A 
ATOM      6  C4  OXE d   1       2.061   0.930  -1.777  0.00  0.00    -0.002 A 
ATOM      7  C5  OXE d   1       1.625   0.700  -3.086  0.00  0.00    -0.002 A 
ATOM      8  C6  OXE d   1       1.660  -0.591  -3.599  0.00  0.00     0.003 A 
ENDROOT
TORSDOF 0
ENDMDL
