MODEL 1
REMARK minimizedAffinity 10.2599039
REMARK minimizedRMSD -1
REMARK  0 active torsions:
REMARK  status: ('A' for Active; 'I' for Inactive)
ROOT
ATOM      1  C2' OXE d   1      -2.217   1.858   3.197  0.00  0.00     0.078 C 
ATOM      2  C1' OXE d   1      -2.219   1.710   6.000  0.00  0.00     0.078 C 
ATOM      3  C1  OXE d   1      -0.895   1.582   5.290  0.00  0.00    -0.078 A 
ATOM      4  C2  OXE d   1      -0.909   1.608   3.916  0.00  0.00    -0.078 A 
ATOM      5  C3  OXE d   1       0.290   1.548   3.213  0.00  0.00     0.003 A 
ATOM      6  C4  OXE d   1       1.495   1.307   3.885  0.00  0.00    -0.002 A 
ATOM      7  C5  OXE d   1       1.526   1.238   5.282  0.00  0.00    -0.002 A 
ATOM      8  C6  OXE d   1       0.349   1.415   6.000  0.00  0.00     0.003 A 
ENDROOT
TORSDOF 0
ENDMDL
