MODEL 1
REMARK minimizedAffinity 1.89191663
REMARK minimizedRMSD -1
REMARK  0 active torsions:
REMARK  status: ('A' for Active; 'I' for Inactive)
ROOT
ATOM      1  C2' OXE d   1       4.682  -4.918  -0.078  0.00  0.00     0.078 C 
ATOM      2  C1' OXE d   1       2.328  -3.405   0.150  0.00  0.00     0.078 C 
ATOM      3  C1  OXE d   1       2.762  -3.828  -1.231  0.00  0.00    -0.078 A 
ATOM      4  C2  OXE d   1       3.939  -4.529  -1.338  0.00  0.00    -0.078 A 
ATOM      5  C3  OXE d   1       4.357  -4.991  -2.582  0.00  0.00     0.003 A 
ATOM      6  C4  OXE d   1       3.670  -4.618  -3.744  0.00  0.00    -0.002 A 
ATOM      7  C5  OXE d   1       2.489  -3.871  -3.662  0.00  0.00    -0.002 A 
ATOM      8  C6  OXE d   1       2.000  -3.506  -2.413  0.00  0.00     0.003 A 
ENDROOT
TORSDOF 0
ENDMDL
