MODEL 1
REMARK minimizedAffinity 1.02285218
REMARK minimizedRMSD -1
REMARK  0 active torsions:
REMARK  status: ('A' for Active; 'I' for Inactive)
ROOT
ATOM      1  C2' OXE d   1       4.747  -5.017  -0.298  0.00  0.00     0.078 C 
ATOM      2  C1' OXE d   1       3.207  -2.683  -0.050  0.00  0.00     0.078 C 
ATOM      3  C1  OXE d   1       3.189  -3.400  -1.377  0.00  0.00    -0.078 A 
ATOM      4  C2  OXE d   1       3.982  -4.515  -1.504  0.00  0.00    -0.078 A 
ATOM      5  C3  OXE d   1       3.961  -5.245  -2.689  0.00  0.00     0.003 A 
ATOM      6  C4  OXE d   1       3.259  -4.769  -3.803  0.00  0.00    -0.002 A 
ATOM      7  C5  OXE d   1       2.476  -3.613  -3.707  0.00  0.00    -0.002 A 
ATOM      8  C6  OXE d   1       2.397  -2.943  -2.492  0.00  0.00     0.003 A 
ENDROOT
TORSDOF 0
ENDMDL
