MODEL 1
REMARK minimizedAffinity 12.357214
REMARK minimizedRMSD -1
REMARK  0 active torsions:
REMARK  status: ('A' for Active; 'I' for Inactive)
ROOT
ATOM      1  C2' OXE d   1      -3.774  -0.072   1.899  0.00  0.00     0.078 C 
ATOM      2  C1' OXE d   1      -3.478  -2.061   3.858  0.00  0.00     0.078 C 
ATOM      3  C1  OXE d   1      -3.378  -0.621   4.296  0.00  0.00    -0.078 A 
ATOM      4  C2  OXE d   1      -3.478   0.344   3.323  0.00  0.00    -0.078 A 
ATOM      5  C3  OXE d   1      -3.447   1.689   3.681  0.00  0.00     0.003 A 
ATOM      6  C4  OXE d   1      -3.163   2.066   4.999  0.00  0.00    -0.002 A 
ATOM      7  C5  OXE d   1      -3.018   1.098   5.999  0.00  0.00    -0.002 A 
ATOM      8  C6  OXE d   1      -3.165  -0.246   5.672  0.00  0.00     0.003 A 
ENDROOT
TORSDOF 0
ENDMDL
