MODEL 1
REMARK minimizedAffinity 13.7440557
REMARK minimizedRMSD -1
REMARK  0 active torsions:
REMARK  status: ('A' for Active; 'I' for Inactive)
ROOT
ATOM      1  C2' OXE d   1       0.926   1.583   3.574  0.00  0.00     0.078 C 
ATOM      2  C1' OXE d   1      -0.427   2.176   5.961  0.00  0.00     0.078 C 
ATOM      3  C1  OXE d   1      -1.255   1.797   4.759  0.00  0.00    -0.078 A 
ATOM      4  C2  OXE d   1      -0.588   1.554   3.583  0.00  0.00    -0.078 A 
ATOM      5  C3  OXE d   1      -1.299   1.147   2.458  0.00  0.00     0.003 A 
ATOM      6  C4  OXE d   1      -2.699   1.132   2.472  0.00  0.00    -0.002 A 
ATOM      7  C5  OXE d   1      -3.401   1.415   3.648  0.00  0.00    -0.002 A 
ATOM      8  C6  OXE d   1      -2.693   1.707   4.810  0.00  0.00     0.003 A 
ENDROOT
TORSDOF 0
ENDMDL
