MODEL 1
REMARK minimizedAffinity 20.0788651
REMARK minimizedRMSD -1
REMARK  0 active torsions:
REMARK  status: ('A' for Active; 'I' for Inactive)
ROOT
ATOM      1  C2' OXE d   1      -2.226   2.251   3.222  0.00  0.00     0.078 C 
ATOM      2  C1' OXE d   1      -2.117   2.638   6.000  0.00  0.00     0.078 C 
ATOM      3  C1  OXE d   1      -0.851   2.215   5.299  0.00  0.00    -0.078 A 
ATOM      4  C2  OXE d   1      -0.925   1.982   3.946  0.00  0.00    -0.078 A 
ATOM      5  C3  OXE d   1       0.227   1.643   3.241  0.00  0.00     0.003 A 
ATOM      6  C4  OXE d   1       1.424   1.387   3.920  0.00  0.00    -0.002 A 
ATOM      7  C5  OXE d   1       1.511   1.579   5.303  0.00  0.00    -0.002 A 
ATOM      8  C6  OXE d   1       0.396   2.033   5.999  0.00  0.00     0.003 A 
ENDROOT
TORSDOF 0
ENDMDL
