MODEL 1
REMARK minimizedAffinity 8.67688656
REMARK minimizedRMSD -1
REMARK  0 active torsions:
REMARK  status: ('A' for Active; 'I' for Inactive)
ROOT
ATOM      1  C2' OXE d   1      -3.653   0.086   1.923  0.00  0.00     0.078 C 
ATOM      2  C1' OXE d   1      -3.958   1.903   4.041  0.00  0.00     0.078 C 
ATOM      3  C1  OXE d   1      -2.599   1.279   3.839  0.00  0.00    -0.078 A 
ATOM      4  C2  OXE d   1      -2.471   0.356   2.830  0.00  0.00    -0.078 A 
ATOM      5  C3  OXE d   1      -1.227  -0.209   2.566  0.00  0.00     0.003 A 
ATOM      6  C4  OXE d   1      -0.142   0.039   3.416  0.00  0.00    -0.002 A 
ATOM      7  C5  OXE d   1      -0.261   0.946   4.474  0.00  0.00    -0.002 A 
ATOM      8  C6  OXE d   1      -1.469   1.606   4.673  0.00  0.00     0.003 A 
ENDROOT
TORSDOF 0
ENDMDL
