MODEL 1
REMARK minimizedAffinity 6.41009951
REMARK minimizedRMSD -1
REMARK  0 active torsions:
REMARK  status: ('A' for Active; 'I' for Inactive)
ROOT
ATOM      1  C2' OXE d   1       6.000  -4.642  -4.228  0.00  0.00     0.078 C 
ATOM      2  C1' OXE d   1       5.102  -5.180  -1.623  0.00  0.00     0.078 C 
ATOM      3  C1  OXE d   1       4.107  -4.618  -2.608  0.00  0.00    -0.078 A 
ATOM      4  C2  OXE d   1       4.567  -4.313  -3.867  0.00  0.00    -0.078 A 
ATOM      5  C3  OXE d   1       3.679  -3.843  -4.830  0.00  0.00     0.003 A 
ATOM      6  C4  OXE d   1       2.358  -3.533  -4.485  0.00  0.00    -0.002 A 
ATOM      7  C5  OXE d   1       1.880  -3.798  -3.198  0.00  0.00    -0.002 A 
ATOM      8  C6  OXE d   1       2.728  -4.379  -2.261  0.00  0.00     0.003 A 
ENDROOT
TORSDOF 0
ENDMDL
