MODEL 1
REMARK minimizedAffinity 7.587111
REMARK minimizedRMSD -1
REMARK  0 active torsions:
REMARK  status: ('A' for Active; 'I' for Inactive)
ROOT
ATOM      1  C2' OXE d   1       2.519   1.149  -0.146  0.00  0.00     0.078 C 
ATOM      2  C1' OXE d   1       2.007   2.128   2.435  0.00  0.00     0.078 C 
ATOM      3  C1  OXE d   1       1.703   3.032   1.266  0.00  0.00    -0.078 A 
ATOM      4  C2  OXE d   1       2.000   2.562   0.010  0.00  0.00    -0.078 A 
ATOM      5  C3  OXE d   1       1.689   3.334  -1.106  0.00  0.00     0.003 A 
ATOM      6  C4  OXE d   1       1.219   4.644  -0.953  0.00  0.00    -0.002 A 
ATOM      7  C5  OXE d   1       0.946   5.157   0.320  0.00  0.00    -0.002 A 
ATOM      8  C6  OXE d   1       1.142   4.350   1.436  0.00  0.00     0.003 A 
ENDROOT
TORSDOF 0
ENDMDL
