MODEL 1
REMARK minimizedAffinity 14.9290028
REMARK minimizedRMSD -1
REMARK  0 active torsions:
REMARK  status: ('A' for Active; 'I' for Inactive)
ROOT
ATOM      1  C2' OXE d   1       0.143   1.508   5.056  0.00  0.00     0.078 C 
ATOM      2  C1' OXE d   1      -1.105   3.303   3.295  0.00  0.00     0.078 C 
ATOM      3  C1  OXE d   1      -1.981   2.523   4.243  0.00  0.00    -0.078 A 
ATOM      4  C2  OXE d   1      -1.367   1.612   5.068  0.00  0.00    -0.078 A 
ATOM      5  C3  OXE d   1      -2.122   0.906   6.000  0.00  0.00     0.003 A 
ATOM      6  C4  OXE d   1      -3.519   1.001   5.998  0.00  0.00    -0.002 A 
ATOM      7  C5  OXE d   1      -4.169   1.893   5.138  0.00  0.00    -0.002 A 
ATOM      8  C6  OXE d   1      -3.413   2.691   4.285  0.00  0.00     0.003 A 
ENDROOT
TORSDOF 0
ENDMDL
