MODEL 1
REMARK minimizedAffinity 7.77516174
REMARK minimizedRMSD -1
REMARK  0 active torsions:
REMARK  status: ('A' for Active; 'I' for Inactive)
ROOT
ATOM      1  C2' OXE d   1      -3.004   1.696   3.703  0.00  0.00     0.078 C 
ATOM      2  C1' OXE d   1      -3.145   0.087   5.999  0.00  0.00     0.078 C 
ATOM      3  C1  OXE d   1      -3.582  -0.518   4.688  0.00  0.00    -0.078 A 
ATOM      4  C2  OXE d   1      -3.554   0.291   3.578  0.00  0.00    -0.078 A 
ATOM      5  C3  OXE d   1      -3.894  -0.233   2.334  0.00  0.00     0.003 A 
ATOM      6  C4  OXE d   1      -4.411  -1.530   2.229  0.00  0.00    -0.002 A 
ATOM      7  C5  OXE d   1      -4.485  -2.358   3.354  0.00  0.00    -0.002 A 
ATOM      8  C6  OXE d   1      -4.035  -1.883   4.581  0.00  0.00     0.003 A 
ENDROOT
TORSDOF 0
ENDMDL
