MODEL 1
REMARK minimizedAffinity 1.84341633
REMARK minimizedRMSD -1
REMARK  1 active torsions:
REMARK  status: ('A' for Active; 'I' for Inactive)
REMARK    1  A    between atoms: C1_2  and  C2_3 
ROOT
ATOM      1  C2  UNL d   1       2.465  -1.115  -0.515  0.00  0.00    -0.073 A 
ATOM      2  C3  UNL d   1       1.248  -1.700  -0.148  0.00  0.00    -0.002 A 
ATOM      3  C4  UNL d   1       0.314  -0.978   0.595  0.00  0.00     0.004 A 
ATOM      4  C5  UNL d   1       0.583   0.338   0.973  0.00  0.00    -0.004 A 
ATOM      5  C6  UNL d   1       1.789   0.944   0.606  0.00  0.00    -0.075 A 
ATOM      6  C7  UNL d   1       2.095   2.357   1.006  0.00  0.00     0.076 C 
ATOM      7  C8  UNL d   1       2.723   0.211  -0.139  0.00  0.00     0.001 A 
ENDROOT
BRANCH   1   8
ATOM      8  C1  UNL d   1       3.474  -1.889  -1.324  0.00  0.00     0.053 C 
ATOM      9  C   UNL d   1       4.772  -1.118  -1.503  0.00  0.00     0.018 C 
ENDBRANCH   1   8
TORSDOF 1
ENDMDL
