MODEL 1
REMARK minimizedAffinity -0.182536855
REMARK minimizedRMSD -1
REMARK  1 active torsions:
REMARK  status: ('A' for Active; 'I' for Inactive)
REMARK    1  A    between atoms: C1_2  and  C2_3 
ROOT
ATOM      1  C2  UNL d   1       3.920  -0.052  -1.608  0.00  0.00    -0.073 A 
ATOM      2  C3  UNL d   1       3.752  -1.427  -1.811  0.00  0.00    -0.002 A 
ATOM      3  C4  UNL d   1       2.760  -2.125  -1.122  0.00  0.00     0.004 A 
ATOM      4  C5  UNL d   1       1.921  -1.456  -0.231  0.00  0.00    -0.004 A 
ATOM      5  C6  UNL d   1       2.065  -0.080  -0.024  0.00  0.00    -0.075 A 
ATOM      6  C7  UNL d   1       1.172   0.654   0.933  0.00  0.00     0.076 C 
ATOM      7  C8  UNL d   1       3.066   0.613  -0.717  0.00  0.00     0.001 A 
ENDROOT
BRANCH   1   8
ATOM      8  C1  UNL d   1       4.986   0.707  -2.355  0.00  0.00     0.053 C 
ATOM      9  C   UNL d   1       5.937  -0.222  -3.093  0.00  0.00     0.018 C 
ENDBRANCH   1   8
TORSDOF 1
ENDMDL
