MODEL 1
REMARK minimizedAffinity 1.04924929
REMARK minimizedRMSD -1
REMARK  1 active torsions:
REMARK  status: ('A' for Active; 'I' for Inactive)
REMARK    1  A    between atoms: C1_2  and  C2_3 
ROOT
ATOM      1  C2  UNL d   1       2.939  -0.611  -1.030  0.00  0.00    -0.073 A 
ATOM      2  C3  UNL d   1       2.176   0.513  -1.364  0.00  0.00    -0.002 A 
ATOM      3  C4  UNL d   1       1.036   0.836  -0.627  0.00  0.00     0.004 A 
ATOM      4  C5  UNL d   1       0.652   0.044   0.455  0.00  0.00    -0.004 A 
ATOM      5  C6  UNL d   1       1.409  -1.077   0.812  0.00  0.00    -0.075 A 
ATOM      6  C7  UNL d   1       1.008  -1.941   1.972  0.00  0.00     0.076 C 
ATOM      7  C8  UNL d   1       2.550  -1.396   0.065  0.00  0.00     0.001 A 
ENDROOT
BRANCH   1   8
ATOM      8  C1  UNL d   1       4.175  -0.960  -1.819  0.00  0.00     0.053 C 
ATOM      9  C   UNL d   1       4.764   0.253  -2.522  0.00  0.00     0.018 C 
ENDBRANCH   1   8
TORSDOF 1
ENDMDL
