MODEL 1
REMARK minimizedAffinity 1.02116179
REMARK minimizedRMSD -1
REMARK  1 active torsions:
REMARK  status: ('A' for Active; 'I' for Inactive)
REMARK    1  A    between atoms: C1_2  and  C2_3 
ROOT
ATOM      1  C2  UNL d   1       2.395  -0.866  -0.507  0.00  0.00    -0.073 A 
ATOM      2  C3  UNL d   1       1.105  -1.347  -0.255  0.00  0.00    -0.002 A 
ATOM      3  C4  UNL d   1       0.298  -0.731   0.703  0.00  0.00     0.004 A 
ATOM      4  C5  UNL d   1       0.768   0.374   1.412  0.00  0.00    -0.004 A 
ATOM      5  C6  UNL d   1       2.050   0.876   1.166  0.00  0.00    -0.075 A 
ATOM      6  C7  UNL d   1       2.572   2.063   1.921  0.00  0.00     0.076 C 
ATOM      7  C8  UNL d   1       2.855   0.251   0.204  0.00  0.00     0.001 A 
ENDROOT
BRANCH   1   8
ATOM      8  C1  UNL d   1       3.267  -1.524  -1.544  0.00  0.00     0.053 C 
ATOM      9  C   UNL d   1       4.512  -0.704  -1.844  0.00  0.00     0.018 C 
ENDBRANCH   1   8
TORSDOF 1
ENDMDL
