MODEL 1
REMARK minimizedAffinity 4.07036257
REMARK minimizedRMSD -1
REMARK  1 active torsions:
REMARK  status: ('A' for Active; 'I' for Inactive)
REMARK    1  A    between atoms: C1_2  and  C2_3 
ROOT
ATOM      1  C2  UNL d   1       3.867   0.116  -2.144  0.00  0.00    -0.073 A 
ATOM      2  C3  UNL d   1       3.832  -1.283  -2.176  0.00  0.00    -0.002 A 
ATOM      3  C4  UNL d   1       2.940  -1.984  -1.363  0.00  0.00     0.004 A 
ATOM      4  C5  UNL d   1       2.071  -1.296  -0.516  0.00  0.00    -0.004 A 
ATOM      5  C6  UNL d   1       2.084   0.102  -0.479  0.00  0.00    -0.075 A 
ATOM      6  C7  UNL d   1       1.158   0.858   0.428  0.00  0.00     0.076 C 
ATOM      7  C8  UNL d   1       2.984   0.799  -1.296  0.00  0.00     0.001 A 
ENDROOT
BRANCH   1   8
ATOM      8  C1  UNL d   1       4.824   0.878  -3.024  0.00  0.00     0.053 C 
ATOM      9  C   UNL d   1       5.998   0.019  -3.466  0.00  0.00     0.018 C 
ENDBRANCH   1   8
TORSDOF 1
ENDMDL
