MODEL 1
REMARK minimizedAffinity -0.650114
REMARK minimizedRMSD -1
REMARK  1 active torsions:
REMARK  status: ('A' for Active; 'I' for Inactive)
REMARK    1  A    between atoms: C1_2  and  C2_3 
ROOT
ATOM      1  C2  UNL d   1       0.148  -0.735   1.468  0.00  0.00    -0.073 A 
ATOM      2  C3  UNL d   1       0.710   0.508   1.781  0.00  0.00    -0.002 A 
ATOM      3  C4  UNL d   1       1.790   0.998   1.046  0.00  0.00     0.004 A 
ATOM      4  C5  UNL d   1       2.314   0.256  -0.012  0.00  0.00    -0.004 A 
ATOM      5  C6  UNL d   1       1.758  -0.983  -0.348  0.00  0.00    -0.075 A 
ATOM      6  C7  UNL d   1       2.311  -1.795  -1.482  0.00  0.00     0.076 C 
ATOM      7  C8  UNL d   1       0.676  -1.470   0.397  0.00  0.00     0.001 A 
ENDROOT
BRANCH   1   8
ATOM      8  C1  UNL d   1      -1.022  -1.266   2.255  0.00  0.00     0.053 C 
ATOM      9  C   UNL d   1      -1.656  -0.194   3.127  0.00  0.00     0.018 C 
ENDBRANCH   1   8
TORSDOF 1
ENDMDL
