MODEL 1
REMARK minimizedAffinity 0.155026555
REMARK minimizedRMSD -1
REMARK  1 active torsions:
REMARK  status: ('A' for Active; 'I' for Inactive)
REMARK    1  A    between atoms: C1_2  and  C2_3 
ROOT
ATOM      1  C2  UNL d   1      -0.408  -0.554   1.772  0.00  0.00    -0.073 A 
ATOM      2  C3  UNL d   1       0.315  -1.749   1.677  0.00  0.00    -0.002 A 
ATOM      3  C4  UNL d   1       1.539  -1.780   1.007  0.00  0.00     0.004 A 
ATOM      4  C5  UNL d   1       2.055  -0.619   0.433  0.00  0.00    -0.004 A 
ATOM      5  C6  UNL d   1       1.353   0.587   0.527  0.00  0.00    -0.075 A 
ATOM      6  C7  UNL d   1       1.894   1.845  -0.087  0.00  0.00     0.076 C 
ATOM      7  C8  UNL d   1       0.123   0.610   1.199  0.00  0.00     0.001 A 
ENDROOT
BRANCH   1   8
ATOM      8  C1  UNL d   1      -1.727  -0.514   2.499  0.00  0.00     0.053 C 
ATOM      9  C   UNL d   1      -2.686  -1.584   2.001  0.00  0.00     0.018 C 
ENDBRANCH   1   8
TORSDOF 1
ENDMDL
