MODEL 1
REMARK minimizedAffinity 8.21972942
REMARK minimizedRMSD -1
REMARK  1 active torsions:
REMARK  status: ('A' for Active; 'I' for Inactive)
REMARK    1  A    between atoms: C1_2  and  C2_3 
ROOT
ATOM      1  C2  UNL d   1      -0.852   4.120  -2.818  0.00  0.00    -0.073 A 
ATOM      2  C3  UNL d   1       0.403   4.706  -3.014  0.00  0.00    -0.002 A 
ATOM      3  C4  UNL d   1       1.452   3.960  -3.553  0.00  0.00     0.004 A 
ATOM      4  C5  UNL d   1       1.255   2.625  -3.907  0.00  0.00    -0.004 A 
ATOM      5  C6  UNL d   1       0.004   2.025  -3.729  0.00  0.00    -0.075 A 
ATOM      6  C7  UNL d   1      -0.223   0.590  -4.103  0.00  0.00     0.076 C 
ATOM      7  C8  UNL d   1      -1.043   2.780  -3.185  0.00  0.00     0.001 A 
ENDROOT
BRANCH   1   8
ATOM      8  C1  UNL d   1      -1.990   4.923  -2.242  0.00  0.00     0.053 C 
ATOM      9  C   UNL d   1      -1.501   5.998  -1.284  0.00  0.00     0.018 C 
ENDBRANCH   1   8
TORSDOF 1
ENDMDL
