MODEL 1
REMARK minimizedAffinity 0.456918478
REMARK minimizedRMSD -1
REMARK  1 active torsions:
REMARK  status: ('A' for Active; 'I' for Inactive)
REMARK    1  A    between atoms: C1_2  and  C2_3 
ROOT
ATOM      1  C2  UNL d   1       3.125  -0.183  -0.996  0.00  0.00    -0.073 A 
ATOM      2  C3  UNL d   1       3.314   1.200  -0.890  0.00  0.00    -0.002 A 
ATOM      3  C4  UNL d   1       2.571   1.945   0.026  0.00  0.00     0.004 A 
ATOM      4  C5  UNL d   1       1.638   1.316   0.851  0.00  0.00    -0.004 A 
ATOM      5  C6  UNL d   1       1.444  -0.067   0.768  0.00  0.00    -0.075 A 
ATOM      6  C7  UNL d   1       0.443  -0.759   1.647  0.00  0.00     0.076 C 
ATOM      7  C8  UNL d   1       2.192  -0.808  -0.157  0.00  0.00     0.001 A 
ENDROOT
BRANCH   1   8
ATOM      8  C1  UNL d   1       3.929  -0.992  -1.980  0.00  0.00     0.053 C 
ATOM      9  C   UNL d   1       5.078  -0.191  -2.572  0.00  0.00     0.018 C 
ENDBRANCH   1   8
TORSDOF 1
ENDMDL
