MODEL 1
REMARK minimizedAffinity -0.0331722647
REMARK minimizedRMSD -1
REMARK  1 active torsions:
REMARK  status: ('A' for Active; 'I' for Inactive)
REMARK    1  A    between atoms: C1_2  and  C2_3 
ROOT
ATOM      1  C2  UNL d   1       0.798  -0.796   1.056  0.00  0.00    -0.073 A 
ATOM      2  C3  UNL d   1       0.773   0.595   0.904  0.00  0.00    -0.002 A 
ATOM      3  C4  UNL d   1       1.742   1.236   0.131  0.00  0.00     0.004 A 
ATOM      4  C5  UNL d   1       2.739   0.495  -0.503  0.00  0.00    -0.004 A 
ATOM      5  C6  UNL d   1       2.773  -0.897  -0.373  0.00  0.00    -0.075 A 
ATOM      6  C7  UNL d   1       3.840  -1.709  -1.046  0.00  0.00     0.076 C 
ATOM      7  C8  UNL d   1       1.798  -1.534   0.408  0.00  0.00     0.001 A 
ENDROOT
BRANCH   1   8
ATOM      8  C1  UNL d   1      -0.250  -1.494   1.884  0.00  0.00     0.053 C 
ATOM      9  C   UNL d   1      -1.475  -0.622   2.107  0.00  0.00     0.018 C 
ENDBRANCH   1   8
TORSDOF 1
ENDMDL
