MODEL 1
REMARK minimizedAffinity -0.675303698
REMARK minimizedRMSD -1
REMARK  1 active torsions:
REMARK  status: ('A' for Active; 'I' for Inactive)
REMARK    1  A    between atoms: C1_2  and  C2_3 
ROOT
ATOM      1  C2  UNL d   1       3.277  -0.106  -1.583  0.00  0.00    -0.073 A 
ATOM      2  C3  UNL d   1       2.840  -1.434  -1.649  0.00  0.00    -0.002 A 
ATOM      3  C4  UNL d   1       1.964  -1.936  -0.685  0.00  0.00     0.004 A 
ATOM      4  C5  UNL d   1       1.511  -1.115   0.348  0.00  0.00    -0.004 A 
ATOM      5  C6  UNL d   1       1.928   0.218   0.424  0.00  0.00    -0.075 A 
ATOM      6  C7  UNL d   1       1.452   1.113   1.530  0.00  0.00     0.076 C 
ATOM      7  C8  UNL d   1       2.810   0.714  -0.546  0.00  0.00     0.001 A 
ENDROOT
BRANCH   1   8
ATOM      8  C1  UNL d   1       4.218   0.442  -2.624  0.00  0.00     0.053 C 
ATOM      9  C   UNL d   1       5.374  -0.506  -2.904  0.00  0.00     0.018 C 
ENDBRANCH   1   8
TORSDOF 1
ENDMDL
