MODEL 1
REMARK minimizedAffinity 1.56221366
REMARK minimizedRMSD -1
REMARK  1 active torsions:
REMARK  status: ('A' for Active; 'I' for Inactive)
REMARK    1  A    between atoms: C1_2  and  C2_3 
ROOT
ATOM      1  C2  UNL d   1       2.490   0.729  -0.875  0.00  0.00    -0.073 A 
ATOM      2  C3  UNL d   1       3.315  -0.259  -1.424  0.00  0.00    -0.002 A 
ATOM      3  C4  UNL d   1       3.070  -1.608  -1.161  0.00  0.00     0.004 A 
ATOM      4  C5  UNL d   1       1.996  -1.981  -0.354  0.00  0.00    -0.004 A 
ATOM      5  C6  UNL d   1       1.153  -1.009   0.195  0.00  0.00    -0.075 A 
ATOM      6  C7  UNL d   1      -0.005  -1.394   1.067  0.00  0.00     0.076 C 
ATOM      7  C8  UNL d   1       1.408   0.343  -0.072  0.00  0.00     0.001 A 
ENDROOT
BRANCH   1   8
ATOM      8  C1  UNL d   1       2.747   2.186  -1.161  0.00  0.00     0.053 C 
ATOM      9  C   UNL d   1       2.348   3.076   0.005  0.00  0.00     0.018 C 
ENDBRANCH   1   8
TORSDOF 1
ENDMDL
