MODEL 1
REMARK minimizedAffinity 2.01389337
REMARK minimizedRMSD -1
REMARK  1 active torsions:
REMARK  status: ('A' for Active; 'I' for Inactive)
REMARK    1  A    between atoms: C1_2  and  C2_3 
ROOT
ATOM      1  C2  UNL d   1      -0.535  -0.668   1.785  0.00  0.00    -0.073 A 
ATOM      2  C3  UNL d   1      -0.127  -1.706   0.938  0.00  0.00    -0.002 A 
ATOM      3  C4  UNL d   1       1.102  -1.637   0.282  0.00  0.00     0.004 A 
ATOM      4  C5  UNL d   1       1.938  -0.536   0.469  0.00  0.00    -0.004 A 
ATOM      5  C6  UNL d   1       1.553   0.505   1.320  0.00  0.00    -0.075 A 
ATOM      6  C7  UNL d   1       2.440   1.697   1.531  0.00  0.00     0.076 C 
ATOM      7  C8  UNL d   1       0.316   0.430   1.974  0.00  0.00     0.001 A 
ENDROOT
BRANCH   1   8
ATOM      8  C1  UNL d   1      -1.859  -0.741   2.501  0.00  0.00     0.053 C 
ATOM      9  C   UNL d   1      -2.807  -1.733   1.847  0.00  0.00     0.018 C 
ENDBRANCH   1   8
TORSDOF 1
ENDMDL
