MODEL 1
REMARK minimizedAffinity -0.233187348
REMARK minimizedRMSD -1
REMARK  1 active torsions:
REMARK  status: ('A' for Active; 'I' for Inactive)
REMARK    1  A    between atoms: C1_2  and  C2_3 
ROOT
ATOM      1  C2  UNL d   1       2.539  -0.828  -1.016  0.00  0.00    -0.073 A 
ATOM      2  C3  UNL d   1       1.879  -1.693  -0.136  0.00  0.00    -0.002 A 
ATOM      3  C4  UNL d   1       1.079  -1.183   0.887  0.00  0.00     0.004 A 
ATOM      4  C5  UNL d   1       0.925   0.195   1.038  0.00  0.00    -0.004 A 
ATOM      5  C6  UNL d   1       1.568   1.076   0.162  0.00  0.00    -0.075 A 
ATOM      6  C7  UNL d   1       1.415   2.561   0.312  0.00  0.00     0.076 C 
ATOM      7  C8  UNL d   1       2.371   0.556  -0.862  0.00  0.00     0.001 A 
ENDROOT
BRANCH   1   8
ATOM      8  C1  UNL d   1       3.398  -1.374  -2.126  0.00  0.00     0.053 C 
ATOM      9  C   UNL d   1       4.499  -0.404  -2.524  0.00  0.00     0.018 C 
ENDBRANCH   1   8
TORSDOF 1
ENDMDL
