MODEL 1
REMARK minimizedAffinity -3.72938085
REMARK minimizedRMSD -1
REMARK  1 active torsions:
REMARK  status: ('A' for Active; 'I' for Inactive)
REMARK    1  A    between atoms: C1_2  and  C2_3 
ROOT
ATOM      1  C2  UNL d   1       2.397   0.169  -0.819  0.00  0.00    -0.073 A 
ATOM      2  C3  UNL d   1       2.453  -1.214  -0.608  0.00  0.00    -0.002 A 
ATOM      3  C4  UNL d   1       3.426  -1.986  -1.244  0.00  0.00     0.004 A 
ATOM      4  C5  UNL d   1       4.356  -1.384  -2.092  0.00  0.00    -0.004 A 
ATOM      5  C6  UNL d   1       4.324  -0.002  -2.307  0.00  0.00    -0.075 A 
ATOM      6  C7  UNL d   1       5.316   0.660  -3.217  0.00  0.00     0.076 C 
ATOM      7  C8  UNL d   1       3.342   0.766  -1.666  0.00  0.00     0.001 A 
ENDROOT
BRANCH   1   8
ATOM      8  C1  UNL d   1       1.353   1.007  -0.129  0.00  0.00     0.053 C 
ATOM      9  C   UNL d   1       0.616   0.227   0.949  0.00  0.00     0.018 C 
ENDBRANCH   1   8
TORSDOF 1
ENDMDL
