MODEL 1
REMARK minimizedAffinity 1.62284517
REMARK minimizedRMSD -1
REMARK  0 active torsions:
REMARK  status: ('A' for Active; 'I' for Inactive)
ROOT
ATOM      1  C   UNL d   1      -1.292  -0.236  -2.251  0.00  0.00     0.020 A 
ATOM      2  C1  UNL d   1      -0.224  -0.228  -1.355  0.00  0.00     0.020 A 
ATOM      3  C2  UNL d   1       0.143   0.958  -0.717  0.00  0.00     0.034 A 
ATOM      4  C3  UNL d   1      -0.559   2.142  -0.973  0.00  0.00     0.017 A 
ATOM      5  C4  UNL d   1      -1.631   2.133  -1.873  0.00  0.00     0.017 A 
ATOM      6  C5  UNL d   1      -1.994   0.942  -2.510  0.00  0.00     0.034 A 
ATOM      7 Cl   UNL d   1      -2.544   3.553  -2.241  0.00  0.00    -0.070 Cl
ATOM      8 Cl1  UNL d   1      -0.051   3.572  -0.148  0.00  0.00    -0.070 Cl
ENDROOT
TORSDOF 0
ENDMDL
