MODEL 1
REMARK minimizedAffinity -0.118374303
REMARK minimizedRMSD -1
REMARK  0 active torsions:
REMARK  status: ('A' for Active; 'I' for Inactive)
ROOT
ATOM      1  C   UNL d   1      -0.210   5.229  -0.645  0.00  0.00     0.020 A 
ATOM      2  C1  UNL d   1       0.550   4.113  -0.296  0.00  0.00     0.020 A 
ATOM      3  C2  UNL d   1       0.111   2.834  -0.642  0.00  0.00     0.034 A 
ATOM      4  C3  UNL d   1      -1.090   2.666  -1.340  0.00  0.00     0.017 A 
ATOM      5  C4  UNL d   1      -1.852   3.786  -1.691  0.00  0.00     0.017 A 
ATOM      6  C5  UNL d   1      -1.409   5.066  -1.341  0.00  0.00     0.034 A 
ATOM      7 Cl   UNL d   1      -3.345   3.659  -2.553  0.00  0.00    -0.070 Cl
ATOM      8 Cl1  UNL d   1      -1.571   1.054  -1.737  0.00  0.00    -0.070 Cl
ENDROOT
TORSDOF 0
ENDMDL
