MODEL 1
REMARK minimizedAffinity 7.95265532
REMARK minimizedRMSD -1
REMARK  0 active torsions:
REMARK  status: ('A' for Active; 'I' for Inactive)
ROOT
ATOM      1  C   UNL d   1      -5.989   0.054  -4.110  0.00  0.00     0.020 A 
ATOM      2  C1  UNL d   1      -5.991   0.262  -5.489  0.00  0.00     0.020 A 
ATOM      3  C2  UNL d   1      -5.994   1.562  -5.999  0.00  0.00     0.034 A 
ATOM      4  C3  UNL d   1      -5.995   2.659  -5.129  0.00  0.00     0.017 A 
ATOM      5  C4  UNL d   1      -5.993   2.449  -3.746  0.00  0.00     0.017 A 
ATOM      6  C5  UNL d   1      -5.989   1.145  -3.241  0.00  0.00     0.034 A 
ATOM      7 Cl   UNL d   1      -5.994   3.753  -2.610  0.00  0.00    -0.070 Cl
ATOM      8 Cl1  UNL d   1      -5.999   4.239  -5.829  0.00  0.00    -0.070 Cl
ENDROOT
TORSDOF 0
ENDMDL
