MODEL 1
REMARK minimizedAffinity 4.31635857
REMARK minimizedRMSD -1
REMARK  0 active torsions:
REMARK  status: ('A' for Active; 'I' for Inactive)
ROOT
ATOM      1  C   UNL d   1      -0.051   5.782  -3.461  0.00  0.00     0.020 A 
ATOM      2  C1  UNL d   1      -1.279   5.240  -3.081  0.00  0.00     0.020 A 
ATOM      3  C2  UNL d   1      -1.401   4.576  -1.859  0.00  0.00     0.034 A 
ATOM      4  C3  UNL d   1      -0.294   4.452  -1.012  0.00  0.00     0.017 A 
ATOM      5  C4  UNL d   1       0.938   4.995  -1.393  0.00  0.00     0.017 A 
ATOM      6  C5  UNL d   1       1.055   5.659  -2.618  0.00  0.00     0.034 A 
ATOM      7 Cl   UNL d   1       2.348   4.882  -0.401  0.00  0.00    -0.070 Cl
ATOM      8 Cl1  UNL d   1      -0.518   3.618   0.485  0.00  0.00    -0.070 Cl
ENDROOT
TORSDOF 0
ENDMDL
