MODEL 1
REMARK minimizedAffinity 4.87703133
REMARK minimizedRMSD -1
REMARK  0 active torsions:
REMARK  status: ('A' for Active; 'I' for Inactive)
ROOT
ATOM      1  C   UNL d   1       1.935   2.649   3.039  0.00  0.00     0.020 A 
ATOM      2  C1  UNL d   1       2.662   3.487   2.196  0.00  0.00     0.020 A 
ATOM      3  C2  UNL d   1       2.209   3.737   0.899  0.00  0.00     0.034 A 
ATOM      4  C3  UNL d   1       1.025   3.147   0.441  0.00  0.00     0.017 A 
ATOM      5  C4  UNL d   1       0.295   2.306   1.289  0.00  0.00     0.017 A 
ATOM      6  C5  UNL d   1       0.754   2.060   2.587  0.00  0.00     0.034 A 
ATOM      7 Cl   UNL d   1      -1.175   1.543   0.796  0.00  0.00    -0.070 Cl
ATOM      8 Cl1  UNL d   1       0.523   3.500  -1.174  0.00  0.00    -0.070 Cl
ENDROOT
TORSDOF 0
ENDMDL
