MODEL 1
REMARK minimizedAffinity 1.94685054
REMARK minimizedRMSD -1
REMARK  0 active torsions:
REMARK  status: ('A' for Active; 'I' for Inactive)
ROOT
ATOM      1  C   UNL d   1       0.378  -1.147  -0.990  0.00  0.00     0.020 A 
ATOM      2  C1  UNL d   1       1.280  -1.928  -0.268  0.00  0.00     0.020 A 
ATOM      3  C2  UNL d   1       1.280  -3.316  -0.422  0.00  0.00     0.034 A 
ATOM      4  C3  UNL d   1       0.378  -3.927  -1.300  0.00  0.00     0.017 A 
ATOM      5  C4  UNL d   1      -0.527  -3.142  -2.024  0.00  0.00     0.017 A 
ATOM      6  C5  UNL d   1      -0.523  -1.753  -1.866  0.00  0.00     0.034 A 
ATOM      7 Cl   UNL d   1      -1.670  -3.824  -3.126  0.00  0.00    -0.070 Cl
ATOM      8 Cl1  UNL d   1       0.435  -5.648  -1.442  0.00  0.00    -0.070 Cl
ENDROOT
TORSDOF 0
ENDMDL
