MODEL 1
REMARK minimizedAffinity 12.7396135
REMARK minimizedRMSD -1
REMARK  0 active torsions:
REMARK  status: ('A' for Active; 'I' for Inactive)
ROOT
ATOM      1  C   UNL d   1       0.410   2.427   2.742  0.00  0.00     0.020 A 
ATOM      2  C1  UNL d   1       1.292   3.343   3.315  0.00  0.00     0.020 A 
ATOM      3  C2  UNL d   1       1.738   4.440   2.574  0.00  0.00     0.034 A 
ATOM      4  C3  UNL d   1       1.304   4.622   1.256  0.00  0.00     0.017 A 
ATOM      5  C4  UNL d   1       0.419   3.702   0.682  0.00  0.00     0.017 A 
ATOM      6  C5  UNL d   1      -0.025   2.606   1.429  0.00  0.00     0.034 A 
ATOM      7 Cl   UNL d   1      -0.161   3.860  -0.938  0.00  0.00    -0.070 Cl
ATOM      8 Cl1  UNL d   1       1.897   6.000   0.398  0.00  0.00    -0.070 Cl
ENDROOT
TORSDOF 0
ENDMDL
