MODEL 1
REMARK minimizedAffinity 9.78369331
REMARK minimizedRMSD -1
REMARK  0 active torsions:
REMARK  status: ('A' for Active; 'I' for Inactive)
ROOT
ATOM      1  C   UNL d   1       4.792  -2.194  -0.406  0.00  0.00     0.020 A 
ATOM      2  C1  UNL d   1       4.090  -2.202  -1.611  0.00  0.00     0.020 A 
ATOM      3  C2  UNL d   1       3.968  -3.387  -2.340  0.00  0.00     0.034 A 
ATOM      4  C3  UNL d   1       4.550  -4.569  -1.865  0.00  0.00     0.017 A 
ATOM      5  C4  UNL d   1       5.254  -4.559  -0.655  0.00  0.00     0.017 A 
ATOM      6  C5  UNL d   1       5.373  -3.370   0.070  0.00  0.00     0.034 A 
ATOM      7 Cl   UNL d   1       5.999  -5.977  -0.005  0.00  0.00    -0.070 Cl
ATOM      8 Cl1  UNL d   1       4.360  -5.998  -2.817  0.00  0.00    -0.070 Cl
ENDROOT
TORSDOF 0
ENDMDL
