MODEL 1
REMARK minimizedAffinity 4.09090853
REMARK minimizedRMSD -1
REMARK  0 active torsions:
REMARK  status: ('A' for Active; 'I' for Inactive)
ROOT
ATOM      1  C   UNL d   1      -0.629   5.236  -0.448  0.00  0.00     0.020 A 
ATOM      2  C1  UNL d   1      -0.641   4.392  -1.558  0.00  0.00     0.020 A 
ATOM      3  C2  UNL d   1      -0.457   3.017  -1.392  0.00  0.00     0.034 A 
ATOM      4  C3  UNL d   1      -0.260   2.483  -0.114  0.00  0.00     0.017 A 
ATOM      5  C4  UNL d   1      -0.249   3.331   1.000  0.00  0.00     0.017 A 
ATOM      6  C5  UNL d   1      -0.434   4.706   0.828  0.00  0.00     0.034 A 
ATOM      7 Cl   UNL d   1      -0.012   2.745   2.608  0.00  0.00    -0.070 Cl
ATOM      8 Cl1  UNL d   1      -0.040   0.774   0.017  0.00  0.00    -0.070 Cl
ENDROOT
TORSDOF 0
ENDMDL
