MODEL 1
REMARK minimizedAffinity -3.46527815
REMARK minimizedRMSD -1
REMARK  1 active torsions:
REMARK  status: ('A' for Active; 'I' for Inactive)
REMARK    1  A    between atoms: C1_2  and  C2_3 
ROOT
ATOM      1  C2  UNL d   1       0.332  -0.074  -0.085  0.00  0.00    -0.076 A 
ATOM      2  C3  UNL d   1      -0.126  -1.041  -0.997  0.00  0.00     0.004 A 
ATOM      3  C4  UNL d   1       0.378  -1.099  -2.295  0.00  0.00    -0.003 A 
ATOM      4  C5  UNL d   1       1.349  -0.191  -2.703  0.00  0.00     0.000 A 
ATOM      5  C6  UNL d   1       1.828   0.763  -1.806  0.00  0.00     0.000 A 
ATOM      6  C7  UNL d   1       1.342   0.825  -0.489  0.00  0.00    -0.073 A 
ATOM      7  C8  UNL d   1       1.890   1.879   0.434  0.00  0.00     0.078 C 
ENDROOT
BRANCH   1   8
ATOM      8  C1  UNL d   1      -0.271  -0.042   1.301  0.00  0.00     0.053 C 
ATOM      9  C   UNL d   1      -1.788   0.050   1.274  0.00  0.00     0.018 C 
ENDBRANCH   1   8
TORSDOF 1
ENDMDL
