MODEL 1
REMARK minimizedAffinity -3.80900002
REMARK minimizedRMSD -1
REMARK  1 active torsions:
REMARK  status: ('A' for Active; 'I' for Inactive)
REMARK    1  A    between atoms: C1_2  and  C2_3 
ROOT
ATOM      1  C2  UNL d   1      -0.741   0.494   1.224  0.00  0.00    -0.076 A 
ATOM      2  C3  UNL d   1      -0.327   1.778   0.829  0.00  0.00     0.004 A 
ATOM      3  C4  UNL d   1       0.635   1.946  -0.166  0.00  0.00    -0.003 A 
ATOM      4  C5  UNL d   1       1.196   0.834  -0.783  0.00  0.00     0.000 A 
ATOM      5  C6  UNL d   1       0.784  -0.447  -0.415  0.00  0.00     0.000 A 
ATOM      6  C7  UNL d   1      -0.196  -0.634   0.575  0.00  0.00    -0.073 A 
ATOM      7  C8  UNL d   1      -0.599  -2.037   0.936  0.00  0.00     0.078 C 
ENDROOT
BRANCH   1   8
ATOM      8  C1  UNL d   1      -1.768   0.373   2.328  0.00  0.00     0.053 C 
ATOM      9  C   UNL d   1      -3.195   0.418   1.804  0.00  0.00     0.018 C 
ENDBRANCH   1   8
TORSDOF 1
ENDMDL
