MODEL 1
REMARK minimizedAffinity -3.5386312
REMARK minimizedRMSD -1
REMARK  1 active torsions:
REMARK  status: ('A' for Active; 'I' for Inactive)
REMARK    1  A    between atoms: C1_2  and  C2_3 
ROOT
ATOM      1  C2  UNL d   1       0.795  -1.145  -0.828  0.00  0.00    -0.076 A 
ATOM      2  C3  UNL d   1       0.329  -0.902   0.476  0.00  0.00     0.004 A 
ATOM      3  C4  UNL d   1       0.436   0.363   1.052  0.00  0.00    -0.003 A 
ATOM      4  C5  UNL d   1       1.012   1.405   0.334  0.00  0.00     0.000 A 
ATOM      5  C6  UNL d   1       1.465   1.186  -0.966  0.00  0.00     0.000 A 
ATOM      6  C7  UNL d   1       1.349  -0.079  -1.568  0.00  0.00    -0.073 A 
ATOM      7  C8  UNL d   1       1.859  -0.260  -2.972  0.00  0.00     0.078 C 
ENDROOT
BRANCH   1   8
ATOM      8  C1  UNL d   1       0.676  -2.543  -1.391  0.00  0.00     0.053 C 
ATOM      9  C   UNL d   1       0.514  -3.596  -0.306  0.00  0.00     0.018 C 
ENDBRANCH   1   8
TORSDOF 1
ENDMDL
