MODEL 1
REMARK minimizedAffinity -3.40742683
REMARK minimizedRMSD -1
REMARK  1 active torsions:
REMARK  status: ('A' for Active; 'I' for Inactive)
REMARK    1  A    between atoms: C1_2  and  C2_3 
ROOT
ATOM      1  C2  UNL d   1      -0.073   0.157   0.133  0.00  0.00    -0.076 A 
ATOM      2  C3  UNL d   1       0.061   1.429  -0.452  0.00  0.00     0.004 A 
ATOM      3  C4  UNL d   1       0.871   1.623  -1.569  0.00  0.00    -0.003 A 
ATOM      4  C5  UNL d   1       1.560   0.549  -2.121  0.00  0.00     0.000 A 
ATOM      5  C6  UNL d   1       1.426  -0.722  -1.565  0.00  0.00     0.000 A 
ATOM      6  C7  UNL d   1       0.600  -0.939  -0.448  0.00  0.00    -0.073 A 
ATOM      7  C8  UNL d   1       0.497  -2.330   0.114  0.00  0.00     0.078 C 
ENDROOT
BRANCH   1   8
ATOM      8  C1  UNL d   1      -0.944   0.012   1.360  0.00  0.00     0.053 C 
ATOM      9  C   UNL d   1      -1.708   1.286   1.686  0.00  0.00     0.018 C 
ENDBRANCH   1   8
TORSDOF 1
ENDMDL
