MODEL 1
REMARK minimizedAffinity -3.23116064
REMARK minimizedRMSD -1
REMARK  1 active torsions:
REMARK  status: ('A' for Active; 'I' for Inactive)
REMARK    1  A    between atoms: C1_2  and  C2_3 
ROOT
ATOM      1  C2  UNL d   1       0.496  -0.754  -0.978  0.00  0.00    -0.076 A 
ATOM      2  C3  UNL d   1       0.133  -0.162   0.245  0.00  0.00     0.004 A 
ATOM      3  C4  UNL d   1       0.863   0.902   0.771  0.00  0.00    -0.003 A 
ATOM      4  C5  UNL d   1       1.968   1.392   0.084  0.00  0.00     0.000 A 
ATOM      5  C6  UNL d   1       2.332   0.829  -1.139  0.00  0.00     0.000 A 
ATOM      6  C7  UNL d   1       1.597  -0.234  -1.692  0.00  0.00    -0.073 A 
ATOM      7  C8  UNL d   1       2.038  -0.807  -3.010  0.00  0.00     0.078 C 
ENDROOT
BRANCH   1   8
ATOM      8  C1  UNL d   1      -0.317  -1.923  -1.486  0.00  0.00     0.053 C 
ATOM      9  C   UNL d   1       0.074  -3.236  -0.824  0.00  0.00     0.018 C 
ENDBRANCH   1   8
TORSDOF 1
ENDMDL
