MODEL 1
REMARK minimizedAffinity -4.95849085
REMARK minimizedRMSD -1
REMARK  1 active torsions:
REMARK  status: ('A' for Active; 'I' for Inactive)
REMARK    1  A    between atoms: C1_2  and  C2_3 
ROOT
ATOM      1  C2  UNL d   1       0.331  -0.575  -0.048  0.00  0.00    -0.076 A 
ATOM      2  C3  UNL d   1       0.694   0.746  -0.362  0.00  0.00     0.004 A 
ATOM      3  C4  UNL d   1       1.425   1.035  -1.513  0.00  0.00    -0.003 A 
ATOM      4  C5  UNL d   1       1.804   0.008  -2.369  0.00  0.00     0.000 A 
ATOM      5  C6  UNL d   1       1.437  -1.307  -2.083  0.00  0.00     0.000 A 
ATOM      6  C7  UNL d   1       0.687  -1.614  -0.935  0.00  0.00    -0.073 A 
ATOM      7  C8  UNL d   1       0.325  -3.050  -0.671  0.00  0.00     0.078 C 
ENDROOT
BRANCH   1   8
ATOM      8  C1  UNL d   1      -0.438  -0.831   1.229  0.00  0.00     0.053 C 
ATOM      9  C   UNL d   1      -1.486   0.236   1.502  0.00  0.00     0.018 C 
ENDBRANCH   1   8
TORSDOF 1
ENDMDL
