MODEL 1
REMARK minimizedAffinity -4.34652901
REMARK minimizedRMSD -1
REMARK  1 active torsions:
REMARK  status: ('A' for Active; 'I' for Inactive)
REMARK    1  A    between atoms: C1_2  and  C2_3 
ROOT
ATOM      1  C2  UNL d   1       1.258  -0.110  -0.727  0.00  0.00    -0.076 A 
ATOM      2  C3  UNL d   1       1.159   1.152  -0.115  0.00  0.00     0.004 A 
ATOM      3  C4  UNL d   1       0.149   1.426   0.805  0.00  0.00    -0.003 A 
ATOM      4  C5  UNL d   1      -0.778   0.442   1.130  0.00  0.00     0.000 A 
ATOM      5  C6  UNL d   1      -0.684  -0.821   0.546  0.00  0.00     0.000 A 
ATOM      6  C7  UNL d   1       0.337  -1.119  -0.371  0.00  0.00    -0.073 A 
ATOM      7  C8  UNL d   1       0.387  -2.495  -0.975  0.00  0.00     0.078 C 
ENDROOT
BRANCH   1   8
ATOM      8  C1  UNL d   1       2.358  -0.340  -1.738  0.00  0.00     0.053 C 
ATOM      9  C   UNL d   1       1.822  -0.532  -3.149  0.00  0.00     0.018 C 
ENDBRANCH   1   8
TORSDOF 1
ENDMDL
