MODEL 1
REMARK minimizedAffinity -1.93292964
REMARK minimizedRMSD -1
REMARK  1 active torsions:
REMARK  status: ('A' for Active; 'I' for Inactive)
REMARK    1  A    between atoms: C1_2  and  C2_3 
ROOT
ATOM      1  C2  UNL d   1      -0.465  -0.061  -0.121  0.00  0.00    -0.076 A 
ATOM      2  C3  UNL d   1      -1.325   0.955  -0.573  0.00  0.00     0.004 A 
ATOM      3  C4  UNL d   1      -2.430   1.347   0.179  0.00  0.00    -0.003 A 
ATOM      4  C5  UNL d   1      -2.694   0.729   1.397  0.00  0.00     0.000 A 
ATOM      5  C6  UNL d   1      -1.841  -0.268   1.870  0.00  0.00     0.000 A 
ATOM      6  C7  UNL d   1      -0.713  -0.663   1.131  0.00  0.00    -0.073 A 
ATOM      7  C8  UNL d   1       0.169  -1.748   1.685  0.00  0.00     0.078 C 
ENDROOT
BRANCH   1   8
ATOM      8  C1  UNL d   1       0.703  -0.463  -0.993  0.00  0.00     0.053 C 
ATOM      9  C   UNL d   1       1.803   0.588  -1.014  0.00  0.00     0.018 C 
ENDBRANCH   1   8
TORSDOF 1
ENDMDL
