MODEL 1
REMARK minimizedAffinity -4.40818453
REMARK minimizedRMSD -1
REMARK  1 active torsions:
REMARK  status: ('A' for Active; 'I' for Inactive)
REMARK    1  A    between atoms: C1_2  and  C2_3 
ROOT
ATOM      1  C2  UNL d   1       0.693   0.501  -0.584  0.00  0.00    -0.076 A 
ATOM      2  C3  UNL d   1       0.352   1.792  -0.143  0.00  0.00     0.004 A 
ATOM      3  C4  UNL d   1      -0.695   1.990   0.755  0.00  0.00    -0.003 A 
ATOM      4  C5  UNL d   1      -1.418   0.901   1.228  0.00  0.00     0.000 A 
ATOM      5  C6  UNL d   1      -1.083  -0.388   0.814  0.00  0.00     0.000 A 
ATOM      6  C7  UNL d   1      -0.020  -0.607  -0.079  0.00  0.00    -0.073 A 
ATOM      7  C8  UNL d   1       0.293  -2.017  -0.496  0.00  0.00     0.078 C 
ENDROOT
BRANCH   1   8
ATOM      8  C1  UNL d   1       1.820   0.350  -1.580  0.00  0.00     0.053 C 
ATOM      9  C   UNL d   1       1.320   0.220  -3.011  0.00  0.00     0.018 C 
ENDBRANCH   1   8
TORSDOF 1
ENDMDL
