MODEL 1
REMARK minimizedAffinity -4.33678627
REMARK minimizedRMSD -1
REMARK  1 active torsions:
REMARK  status: ('A' for Active; 'I' for Inactive)
REMARK    1  A    between atoms: C1_2  and  C2_3 
ROOT
ATOM      1  C2  UNL d   1       0.082   0.103   0.108  0.00  0.00    -0.076 A 
ATOM      2  C3  UNL d   1      -0.155  -0.948  -0.796  0.00  0.00     0.004 A 
ATOM      3  C4  UNL d   1       0.369  -0.915  -2.087  0.00  0.00    -0.003 A 
ATOM      4  C5  UNL d   1       1.139   0.169  -2.496  0.00  0.00     0.000 A 
ATOM      5  C6  UNL d   1       1.398   1.211  -1.607  0.00  0.00     0.000 A 
ATOM      6  C7  UNL d   1       0.891   1.186  -0.296  0.00  0.00    -0.073 A 
ATOM      7  C8  UNL d   1       1.197   2.340   0.619  0.00  0.00     0.078 C 
ENDROOT
BRANCH   1   8
ATOM      8  C1  UNL d   1      -0.535   0.025   1.486  0.00  0.00     0.053 C 
ATOM      9  C   UNL d   1      -2.054   0.101   1.450  0.00  0.00     0.018 C 
ENDBRANCH   1   8
TORSDOF 1
ENDMDL
