MODEL 1
REMARK minimizedAffinity -3.25189662
REMARK minimizedRMSD -1
REMARK  1 active torsions:
REMARK  status: ('A' for Active; 'I' for Inactive)
REMARK    1  A    between atoms: C1_2  and  C2_3 
ROOT
ATOM      1  C2  UNL d   1      -1.480   1.562   2.128  0.00  0.00    -0.076 A 
ATOM      2  C3  UNL d   1      -0.211   1.973   1.683  0.00  0.00     0.004 A 
ATOM      3  C4  UNL d   1       0.606   1.113   0.951  0.00  0.00    -0.003 A 
ATOM      4  C5  UNL d   1       0.166  -0.172   0.651  0.00  0.00     0.000 A 
ATOM      5  C6  UNL d   1      -1.097  -0.590   1.069  0.00  0.00     0.000 A 
ATOM      6  C7  UNL d   1      -1.939   0.270   1.794  0.00  0.00    -0.073 A 
ATOM      7  C8  UNL d   1      -3.288  -0.235   2.225  0.00  0.00     0.078 C 
ENDROOT
BRANCH   1   8
ATOM      8  C1  UNL d   1      -2.310   2.530   2.942  0.00  0.00     0.053 C 
ATOM      9  C   UNL d   1      -3.103   3.492   2.071  0.00  0.00     0.018 C 
ENDBRANCH   1   8
TORSDOF 1
ENDMDL
