MODEL 1
REMARK minimizedAffinity -3.51843405
REMARK minimizedRMSD -1
REMARK  1 active torsions:
REMARK  status: ('A' for Active; 'I' for Inactive)
REMARK    1  A    between atoms: C1_2  and  C2_3 
ROOT
ATOM      1  C2  UNL d   1       0.378  -0.382  -0.087  0.00  0.00    -0.076 A 
ATOM      2  C3  UNL d   1       0.761   0.922  -0.448  0.00  0.00     0.004 A 
ATOM      3  C4  UNL d   1       1.742   1.140  -1.414  0.00  0.00    -0.003 A 
ATOM      4  C5  UNL d   1       2.356   0.058  -2.035  0.00  0.00     0.000 A 
ATOM      5  C6  UNL d   1       1.976  -1.242  -1.702  0.00  0.00     0.000 A 
ATOM      6  C7  UNL d   1       0.977  -1.479  -0.742  0.00  0.00    -0.073 A 
ATOM      7  C8  UNL d   1       0.611  -2.901  -0.417  0.00  0.00     0.078 C 
ENDROOT
BRANCH   1   8
ATOM      8  C1  UNL d   1      -0.672  -0.557   0.987  0.00  0.00     0.053 C 
ATOM      9  C   UNL d   1      -0.889   0.709   1.801  0.00  0.00     0.018 C 
ENDBRANCH   1   8
TORSDOF 1
ENDMDL
