MODEL 1
REMARK minimizedAffinity -4.25701809
REMARK minimizedRMSD -1
REMARK  1 active torsions:
REMARK  status: ('A' for Active; 'I' for Inactive)
REMARK    1  A    between atoms: C1_2  and  C2_3 
ROOT
ATOM      1  C2  UNL d   1       0.790  -0.709  -0.343  0.00  0.00    -0.076 A 
ATOM      2  C3  UNL d   1       1.110   0.628  -0.639  0.00  0.00     0.004 A 
ATOM      3  C4  UNL d   1       2.052   0.941  -1.617  0.00  0.00    -0.003 A 
ATOM      4  C5  UNL d   1       2.690  -0.077  -2.316  0.00  0.00     0.000 A 
ATOM      5  C6  UNL d   1       2.372  -1.409  -2.049  0.00  0.00     0.000 A 
ATOM      6  C7  UNL d   1       1.413  -1.741  -1.077  0.00  0.00    -0.073 A 
ATOM      7  C8  UNL d   1       1.114  -3.194  -0.825  0.00  0.00     0.078 C 
ENDROOT
BRANCH   1   8
ATOM      8  C1  UNL d   1      -0.220  -0.988   0.747  0.00  0.00     0.053 C 
ATOM      9  C   UNL d   1      -1.135   0.197   1.011  0.00  0.00     0.018 C 
ENDBRANCH   1   8
TORSDOF 1
ENDMDL
