MODEL 1
REMARK minimizedAffinity -6.05757427
REMARK minimizedRMSD -1
REMARK  1 active torsions:
REMARK  status: ('A' for Active; 'I' for Inactive)
REMARK    1  A    between atoms: C1_2  and  C2_3 
ROOT
ATOM      1  C2  UNL d   1       0.562  -1.433  -0.971  0.00  0.00    -0.076 A 
ATOM      2  C3  UNL d   1      -0.061  -1.437   0.289  0.00  0.00     0.004 A 
ATOM      3  C4  UNL d   1      -0.399  -0.244   0.926  0.00  0.00    -0.003 A 
ATOM      4  C5  UNL d   1      -0.119   0.972   0.313  0.00  0.00     0.000 A 
ATOM      5  C6  UNL d   1       0.482   0.994  -0.945  0.00  0.00     0.000 A 
ATOM      6  C7  UNL d   1       0.814  -0.200  -1.608  0.00  0.00    -0.073 A 
ATOM      7  C8  UNL d   1       1.467  -0.117  -2.960  0.00  0.00     0.078 C 
ENDROOT
BRANCH   1   8
ATOM      8  C1  UNL d   1       0.929  -2.758  -1.601  0.00  0.00     0.053 C 
ATOM      9  C   UNL d   1       2.402  -3.095  -1.430  0.00  0.00     0.018 C 
ENDBRANCH   1   8
TORSDOF 1
ENDMDL
