MODEL 1
REMARK minimizedAffinity -2.41466832
REMARK minimizedRMSD -1
REMARK  0 active torsions:
REMARK  status: ('A' for Active; 'I' for Inactive)
ROOT
ATOM      1  C   UNL d   1       4.200   5.486  -2.146  0.00  0.00     0.023 A 
ATOM      2  C1  UNL d   1       5.481   5.783  -2.611  0.00  0.00     0.003 A 
ATOM      3  C2  UNL d   1       5.999   5.106  -3.716  0.00  0.00     0.048 A 
ATOM      4  C3  UNL d   1       5.230   4.133  -4.353  0.00  0.00     0.023 A 
ATOM      5  C4  UNL d   1       3.947   3.832  -3.892  0.00  0.00     0.048 A 
ATOM      6  C5  UNL d   1       3.434   4.511  -2.786  0.00  0.00     0.003 A 
ATOM      7  I   UNL d   1       5.998   3.124  -6.000  0.00  0.00    -0.146 I 
ENDROOT
TORSDOF 0
ENDMDL
