MODEL 1
REMARK minimizedAffinity -0.240726978
REMARK minimizedRMSD -1
REMARK  0 active torsions:
REMARK  status: ('A' for Active; 'I' for Inactive)
ROOT
ATOM      1  C   UNL d   1       5.982   4.253  -4.704  0.00  0.00     0.023 A 
ATOM      2  C1  UNL d   1       4.906   3.379  -4.858  0.00  0.00     0.003 A 
ATOM      3  C2  UNL d   1       3.841   3.414  -3.954  0.00  0.00     0.048 A 
ATOM      4  C3  UNL d   1       3.859   4.326  -2.900  0.00  0.00     0.023 A 
ATOM      5  C4  UNL d   1       4.933   5.204  -2.743  0.00  0.00     0.048 A 
ATOM      6  C5  UNL d   1       5.995   5.165  -3.648  0.00  0.00     0.003 A 
ATOM      7  I   UNL d   1       2.276   4.380  -1.555  0.00  0.00    -0.146 I 
ENDROOT
TORSDOF 0
ENDMDL
