MODEL 1
REMARK minimizedAffinity -0.943004131
REMARK minimizedRMSD -1
REMARK  0 active torsions:
REMARK  status: ('A' for Active; 'I' for Inactive)
ROOT
ATOM      1  C   UNL d   1       4.610   5.763  -1.600  0.00  0.00     0.023 A 
ATOM      2  C1  UNL d   1       3.619   4.964  -2.170  0.00  0.00     0.003 A 
ATOM      3  C2  UNL d   1       3.815   4.401  -3.433  0.00  0.00     0.048 A 
ATOM      4  C3  UNL d   1       5.005   4.640  -4.120  0.00  0.00     0.023 A 
ATOM      5  C4  UNL d   1       6.000   5.438  -3.552  0.00  0.00     0.048 A 
ATOM      6  C5  UNL d   1       5.799   6.000  -2.290  0.00  0.00     0.003 A 
ATOM      7  I   UNL d   1       5.299   3.804  -5.999  0.00  0.00    -0.146 I 
ENDROOT
TORSDOF 0
ENDMDL
