MODEL 1
REMARK minimizedAffinity 6.82773638
REMARK minimizedRMSD -1
REMARK  0 active torsions:
REMARK  status: ('A' for Active; 'I' for Inactive)
ROOT
ATOM      1  C   UNL d   1       5.957   5.689  -4.071  0.00  0.00     0.023 A 
ATOM      2  C1  UNL d   1       4.856   5.013  -4.599  0.00  0.00     0.003 A 
ATOM      3  C2  UNL d   1       3.797   4.645  -3.767  0.00  0.00     0.048 A 
ATOM      4  C3  UNL d   1       3.844   4.957  -2.408  0.00  0.00     0.023 A 
ATOM      5  C4  UNL d   1       4.943   5.633  -1.876  0.00  0.00     0.048 A 
ATOM      6  C5  UNL d   1       6.000   5.998  -2.712  0.00  0.00     0.003 A 
ATOM      7  I   UNL d   1       2.268   4.410  -1.168  0.00  0.00    -0.146 I 
ENDROOT
TORSDOF 0
ENDMDL
