MODEL 1
REMARK minimizedAffinity 3.26889539
REMARK minimizedRMSD -1
REMARK  0 active torsions:
REMARK  status: ('A' for Active; 'I' for Inactive)
ROOT
ATOM      1  C   UNL d   1       5.998   5.674  -3.925  0.00  0.00     0.023 A 
ATOM      2  C1  UNL d   1       5.902   5.996  -2.571  0.00  0.00     0.003 A 
ATOM      3  C2  UNL d   1       4.844   5.499  -1.807  0.00  0.00     0.048 A 
ATOM      4  C3  UNL d   1       3.886   4.680  -2.403  0.00  0.00     0.023 A 
ATOM      5  C4  UNL d   1       3.978   4.354  -3.757  0.00  0.00     0.048 A 
ATOM      6  C5  UNL d   1       5.037   4.854  -4.517  0.00  0.00     0.003 A 
ATOM      7  I   UNL d   1       2.311   3.939  -1.268  0.00  0.00    -0.146 I 
ENDROOT
TORSDOF 0
ENDMDL
