MODEL 1
REMARK minimizedAffinity 0.072616443
REMARK minimizedRMSD -1
REMARK  0 active torsions:
REMARK  status: ('A' for Active; 'I' for Inactive)
ROOT
ATOM      1  C   UNL d   1       3.790   4.887  -1.718  0.00  0.00     0.023 A 
ATOM      2  C1  UNL d   1       4.981   5.614  -1.733  0.00  0.00     0.003 A 
ATOM      3  C2  UNL d   1       5.616   5.890  -2.945  0.00  0.00     0.048 A 
ATOM      4  C3  UNL d   1       5.055   5.438  -4.139  0.00  0.00     0.023 A 
ATOM      5  C4  UNL d   1       3.863   4.711  -4.128  0.00  0.00     0.048 A 
ATOM      6  C5  UNL d   1       3.232   4.436  -2.914  0.00  0.00     0.003 A 
ATOM      7  I   UNL d   1       5.999   5.848  -5.944  0.00  0.00    -0.146 I 
ENDROOT
TORSDOF 0
ENDMDL
