MODEL 1
REMARK minimizedAffinity -1.39037764
REMARK minimizedRMSD -1
REMARK  0 active torsions:
REMARK  status: ('A' for Active; 'I' for Inactive)
ROOT
ATOM      1  C   UNL d   1       4.747   4.007  -5.996  0.00  0.00     0.023 A 
ATOM      2  C1  UNL d   1       5.632   3.338  -5.150  0.00  0.00     0.003 A 
ATOM      3  C2  UNL d   1       5.993   3.905  -3.926  0.00  0.00     0.048 A 
ATOM      4  C3  UNL d   1       5.464   5.140  -3.553  0.00  0.00     0.023 A 
ATOM      5  C4  UNL d   1       4.578   5.813  -4.396  0.00  0.00     0.048 A 
ATOM      6  C5  UNL d   1       4.221   5.242  -5.620  0.00  0.00     0.003 A 
ATOM      7  I   UNL d   1       5.999   5.986  -1.732  0.00  0.00    -0.146 I 
ENDROOT
TORSDOF 0
ENDMDL
