MODEL 1
REMARK minimizedAffinity 0.622908413
REMARK minimizedRMSD -1
REMARK  0 active torsions:
REMARK  status: ('A' for Active; 'I' for Inactive)
ROOT
ATOM      1  C   UNL d   1       6.000   5.348  -3.822  0.00  0.00     0.023 A 
ATOM      2  C1  UNL d   1       5.999   6.000  -2.588  0.00  0.00     0.003 A 
ATOM      3  C2  UNL d   1       4.892   5.897  -1.744  0.00  0.00     0.048 A 
ATOM      4  C3  UNL d   1       3.789   5.141  -2.138  0.00  0.00     0.023 A 
ATOM      5  C4  UNL d   1       3.786   4.487  -3.371  0.00  0.00     0.048 A 
ATOM      6  C5  UNL d   1       4.894   4.593  -4.213  0.00  0.00     0.003 A 
ATOM      7  I   UNL d   1       2.140   4.986  -0.882  0.00  0.00    -0.146 I 
ENDROOT
TORSDOF 0
ENDMDL
