MODEL 1
REMARK minimizedAffinity 2.40409184
REMARK minimizedRMSD -1
REMARK  0 active torsions:
REMARK  status: ('A' for Active; 'I' for Inactive)
ROOT
ATOM      1  C   UNL d   1       4.571   5.581  -3.932  0.00  0.00     0.023 A 
ATOM      2  C1  UNL d   1       3.190   5.577  -4.132  0.00  0.00     0.003 A 
ATOM      3  C2  UNL d   1       2.341   5.090  -3.136  0.00  0.00     0.048 A 
ATOM      4  C3  UNL d   1       2.879   4.609  -1.943  0.00  0.00     0.023 A 
ATOM      5  C4  UNL d   1       4.260   4.612  -1.738  0.00  0.00     0.048 A 
ATOM      6  C5  UNL d   1       5.105   5.099  -2.737  0.00  0.00     0.003 A 
ATOM      7  I   UNL d   1       1.617   3.884  -0.459  0.00  0.00    -0.146 I 
ENDROOT
TORSDOF 0
ENDMDL
