MODEL 1
REMARK minimizedAffinity 7.98503065
REMARK minimizedRMSD -1
REMARK  0 active torsions:
REMARK  status: ('A' for Active; 'I' for Inactive)
ROOT
ATOM      1  C   UNL d   1       3.036   5.008  -1.035  0.00  0.00     0.023 A 
ATOM      2  C1  UNL d   1       4.229   5.695  -0.813  0.00  0.00     0.003 A 
ATOM      3  C2  UNL d   1       5.081   5.980  -1.882  0.00  0.00     0.048 A 
ATOM      4  C3  UNL d   1       4.733   5.576  -3.170  0.00  0.00     0.023 A 
ATOM      5  C4  UNL d   1       3.540   4.890  -3.397  0.00  0.00     0.048 A 
ATOM      6  C5  UNL d   1       2.691   4.606  -2.325  0.00  0.00     0.003 A 
ATOM      7  I   UNL d   1       6.000   6.000  -4.763  0.00  0.00    -0.146 I 
ENDROOT
TORSDOF 0
ENDMDL
