MODEL 1
REMARK minimizedAffinity 3.83410811
REMARK minimizedRMSD -1
REMARK  0 active torsions:
REMARK  status: ('A' for Active; 'I' for Inactive)
ROOT
ATOM      1  C   UNL d   1       4.288   4.634  -5.403  0.00  0.00     0.023 A 
ATOM      2  C1  UNL d   1       3.585   5.565  -4.638  0.00  0.00     0.003 A 
ATOM      3  C2  UNL d   1       4.075   5.958  -3.391  0.00  0.00     0.048 A 
ATOM      4  C3  UNL d   1       5.268   5.416  -2.915  0.00  0.00     0.023 A 
ATOM      5  C4  UNL d   1       5.976   4.485  -3.677  0.00  0.00     0.048 A 
ATOM      6  C5  UNL d   1       5.482   4.095  -4.923  0.00  0.00     0.003 A 
ATOM      7  I   UNL d   1       5.999   6.000  -1.058  0.00  0.00    -0.146 I 
ENDROOT
TORSDOF 0
ENDMDL
