MODEL 1
REMARK minimizedAffinity 1.40087819
REMARK minimizedRMSD -1
REMARK  0 active torsions:
REMARK  status: ('A' for Active; 'I' for Inactive)
ROOT
ATOM      1  C   UNL d   1       4.455   5.612  -1.956  0.00  0.00     0.023 A 
ATOM      2  C1  UNL d   1       5.722   5.655  -2.537  0.00  0.00     0.003 A 
ATOM      3  C2  UNL d   1       6.000   4.885  -3.668  0.00  0.00     0.048 A 
ATOM      4  C3  UNL d   1       5.005   4.073  -4.213  0.00  0.00     0.023 A 
ATOM      5  C4  UNL d   1       3.735   4.027  -3.635  0.00  0.00     0.048 A 
ATOM      6  C5  UNL d   1       3.463   4.799  -2.504  0.00  0.00     0.003 A 
ATOM      7  I   UNL d   1       5.415   2.926  -5.896  0.00  0.00    -0.146 I 
ENDROOT
TORSDOF 0
ENDMDL
