MODEL 1
REMARK minimizedAffinity 6.76912832
REMARK minimizedRMSD -1
REMARK  0 active torsions:
REMARK  status: ('A' for Active; 'I' for Inactive)
ROOT
ATOM      1  C   UNL d   1       5.988   4.125  -3.960  0.00  0.00     0.023 A 
ATOM      2  C1  UNL d   1       4.790   3.429  -4.120  0.00  0.00     0.003 A 
ATOM      3  C2  UNL d   1       3.601   3.957  -3.613  0.00  0.00     0.048 A 
ATOM      4  C3  UNL d   1       3.617   5.182  -2.948  0.00  0.00     0.023 A 
ATOM      5  C4  UNL d   1       4.813   5.883  -2.786  0.00  0.00     0.048 A 
ATOM      6  C5  UNL d   1       6.000   5.350  -3.294  0.00  0.00     0.003 A 
ATOM      7  I   UNL d   1       1.849   5.971  -2.193  0.00  0.00    -0.146 I 
ENDROOT
TORSDOF 0
ENDMDL
