MODEL 1
REMARK minimizedAffinity -1.88741994
REMARK minimizedRMSD -1
REMARK  0 active torsions:
REMARK  status: ('A' for Active; 'I' for Inactive)
ROOT
ATOM      1  C   UNL d   1       4.432   4.325  -5.581  0.00  0.00     0.023 A 
ATOM      2  C1  UNL d   1       5.545   3.746  -4.972  0.00  0.00     0.003 A 
ATOM      3  C2  UNL d   1       5.996   4.224  -3.740  0.00  0.00     0.048 A 
ATOM      4  C3  UNL d   1       5.329   5.281  -3.122  0.00  0.00     0.023 A 
ATOM      5  C4  UNL d   1       4.215   5.864  -3.728  0.00  0.00     0.048 A 
ATOM      6  C5  UNL d   1       3.768   5.383  -4.960  0.00  0.00     0.003 A 
ATOM      7  I   UNL d   1       5.999   5.995  -1.289  0.00  0.00    -0.146 I 
ENDROOT
TORSDOF 0
ENDMDL
