MODEL 1
REMARK minimizedAffinity -3.50956249
REMARK minimizedRMSD -1
REMARK  0 active torsions:
REMARK  status: ('A' for Active; 'I' for Inactive)
ROOT
ATOM      1  C   UNL d   1       4.866   4.291  -6.000  0.00  0.00     0.023 A 
ATOM      2  C1  UNL d   1       5.669   5.425  -5.874  0.00  0.00     0.003 A 
ATOM      3  C2  UNL d   1       5.991   5.917  -4.608  0.00  0.00     0.048 A 
ATOM      4  C3  UNL d   1       5.509   5.269  -3.471  0.00  0.00     0.023 A 
ATOM      5  C4  UNL d   1       4.707   4.133  -3.592  0.00  0.00     0.048 A 
ATOM      6  C5  UNL d   1       4.386   3.646  -4.860  0.00  0.00     0.003 A 
ATOM      7  I   UNL d   1       5.988   6.000  -1.585  0.00  0.00    -0.146 I 
ENDROOT
TORSDOF 0
ENDMDL
