MODEL 1
REMARK minimizedAffinity 9.2669735
REMARK minimizedRMSD -1
REMARK  0 active torsions:
REMARK  status: ('A' for Active; 'I' for Inactive)
ROOT
ATOM      1  C   UNL d   1       4.868   5.999  -1.802  0.00  0.00     0.023 A 
ATOM      2  C1  UNL d   1       3.735   5.666  -2.545  0.00  0.00     0.003 A 
ATOM      3  C2  UNL d   1       3.732   4.518  -3.339  0.00  0.00     0.048 A 
ATOM      4  C3  UNL d   1       4.864   3.705  -3.385  0.00  0.00     0.023 A 
ATOM      5  C4  UNL d   1       6.000   4.034  -2.642  0.00  0.00     0.048 A 
ATOM      6  C5  UNL d   1       5.999   5.184  -1.851  0.00  0.00     0.003 A 
ATOM      7  I   UNL d   1       4.861   1.995  -4.565  0.00  0.00    -0.146 I 
ENDROOT
TORSDOF 0
ENDMDL
