MODEL 1
REMARK minimizedAffinity -1.95885968
REMARK minimizedRMSD -1
REMARK  0 active torsions:
REMARK  status: ('A' for Active; 'I' for Inactive)
ROOT
ATOM      1  C   UNL d   1       4.938   4.263  -5.964  0.00  0.00     0.023 A 
ATOM      2  C1  UNL d   1       4.418   5.497  -5.573  0.00  0.00     0.003 A 
ATOM      3  C2  UNL d   1       4.687   5.997  -4.297  0.00  0.00     0.048 A 
ATOM      4  C3  UNL d   1       5.476   5.258  -3.417  0.00  0.00     0.023 A 
ATOM      5  C4  UNL d   1       5.999   4.022  -3.804  0.00  0.00     0.048 A 
ATOM      6  C5  UNL d   1       5.727   3.526  -5.080  0.00  0.00     0.003 A 
ATOM      7  I   UNL d   1       5.878   5.999  -1.517  0.00  0.00    -0.146 I 
ENDROOT
TORSDOF 0
ENDMDL
