MODEL 1
REMARK minimizedAffinity 4.37017584
REMARK minimizedRMSD -1
REMARK  0 active torsions:
REMARK  status: ('A' for Active; 'I' for Inactive)
ROOT
ATOM      1  C   UNL d   1       5.444  -2.711   6.000  0.00  0.00     0.020 A 
ATOM      2  C1  UNL d   1       5.470  -3.744   5.064  0.00  0.00     0.020 A 
ATOM      3  C2  UNL d   1       4.441  -3.862   4.127  0.00  0.00     0.034 A 
ATOM      4  C3  UNL d   1       3.383  -2.946   4.124  0.00  0.00     0.017 A 
ATOM      5  C4  UNL d   1       3.358  -1.910   5.064  0.00  0.00     0.017 A 
ATOM      6  C5  UNL d   1       4.391  -1.796   6.000  0.00  0.00     0.034 A 
ATOM      7 Cl   UNL d   1       2.086  -0.741   5.122  0.00  0.00    -0.070 Cl
ATOM      8 Cl1  UNL d   1       2.145  -3.153   2.936  0.00  0.00    -0.070 Cl
ENDROOT
TORSDOF 0
ENDMDL
