MODEL 1
REMARK minimizedAffinity 2.4873805
REMARK minimizedRMSD -1
REMARK  0 active torsions:
REMARK  status: ('A' for Active; 'I' for Inactive)
ROOT
ATOM      1  C   UNL d   1      -1.340  -2.381  -0.981  0.00  0.00     0.020 A 
ATOM      2  C1  UNL d   1      -0.143  -2.438  -0.268  0.00  0.00     0.020 A 
ATOM      3  C2  UNL d   1       1.075  -2.305  -0.937  0.00  0.00     0.034 A 
ATOM      4  C3  UNL d   1       1.100  -2.115  -2.323  0.00  0.00     0.017 A 
ATOM      5  C4  UNL d   1      -0.101  -2.058  -3.038  0.00  0.00     0.017 A 
ATOM      6  C5  UNL d   1      -1.319  -2.192  -2.364  0.00  0.00     0.034 A 
ATOM      7 Cl   UNL d   1      -0.151  -1.826  -4.750  0.00  0.00    -0.070 Cl
ATOM      8 Cl1  UNL d   1       2.643  -1.957  -3.085  0.00  0.00    -0.070 Cl
ENDROOT
TORSDOF 0
ENDMDL
