MODEL 1
REMARK minimizedAffinity -0.418721229
REMARK minimizedRMSD -1
REMARK  0 active torsions:
REMARK  status: ('A' for Active; 'I' for Inactive)
ROOT
ATOM      1  C   UNL d   1      -2.291  -2.298  -0.720  0.00  0.00     0.020 A 
ATOM      2  C1  UNL d   1      -1.335  -2.841   0.137  0.00  0.00     0.020 A 
ATOM      3  C2  UNL d   1      -0.014  -2.987  -0.293  0.00  0.00     0.034 A 
ATOM      4  C3  UNL d   1       0.354  -2.591  -1.584  0.00  0.00     0.017 A 
ATOM      5  C4  UNL d   1      -0.607  -2.046  -2.444  0.00  0.00     0.017 A 
ATOM      6  C5  UNL d   1      -1.928  -1.902  -2.008  0.00  0.00     0.034 A 
ATOM      7 Cl   UNL d   1      -0.229  -1.534  -4.050  0.00  0.00    -0.070 Cl
ATOM      8 Cl1  UNL d   1       2.004  -2.801  -2.049  0.00  0.00    -0.070 Cl
ENDROOT
TORSDOF 0
ENDMDL
