MODEL 1
REMARK minimizedAffinity -0.194986403
REMARK minimizedRMSD -1
REMARK  0 active torsions:
REMARK  status: ('A' for Active; 'I' for Inactive)
ROOT
ATOM      1  C   UNL d   1      -1.015  -1.557  -1.568  0.00  0.00     0.020 A 
ATOM      2  C1  UNL d   1      -1.900  -2.632  -1.641  0.00  0.00     0.020 A 
ATOM      3  C2  UNL d   1      -1.517  -3.809  -2.289  0.00  0.00     0.034 A 
ATOM      4  C3  UNL d   1      -0.246  -3.913  -2.866  0.00  0.00     0.017 A 
ATOM      5  C4  UNL d   1       0.641  -2.833  -2.792  0.00  0.00     0.017 A 
ATOM      6  C5  UNL d   1       0.253  -1.658  -2.142  0.00  0.00     0.034 A 
ATOM      7 Cl   UNL d   1       2.226  -2.887  -3.480  0.00  0.00    -0.070 Cl
ATOM      8 Cl1  UNL d   1       0.161  -5.397  -3.651  0.00  0.00    -0.070 Cl
ENDROOT
TORSDOF 0
ENDMDL
