MODEL 1
REMARK minimizedAffinity 0.47153157
REMARK minimizedRMSD -1
REMARK  0 active torsions:
REMARK  status: ('A' for Active; 'I' for Inactive)
ROOT
ATOM      1  C   UNL d   1       5.502  -1.964   5.047  0.00  0.00     0.020 A 
ATOM      2  C1  UNL d   1       5.995  -2.944   5.907  0.00  0.00     0.020 A 
ATOM      3  C2  UNL d   1       5.354  -4.182   5.996  0.00  0.00     0.034 A 
ATOM      4  C3  UNL d   1       4.216  -4.442   5.222  0.00  0.00     0.017 A 
ATOM      5  C4  UNL d   1       3.723  -3.457   4.359  0.00  0.00     0.017 A 
ATOM      6  C5  UNL d   1       4.369  -2.220   4.274  0.00  0.00     0.034 A 
ATOM      7 Cl   UNL d   1       2.324  -3.705   3.374  0.00  0.00    -0.070 Cl
ATOM      8 Cl1  UNL d   1       3.474  -5.994   5.382  0.00  0.00    -0.070 Cl
ENDROOT
TORSDOF 0
ENDMDL
