MODEL 1
REMARK minimizedAffinity 5.43726254
REMARK minimizedRMSD -1
REMARK  0 active torsions:
REMARK  status: ('A' for Active; 'I' for Inactive)
ROOT
ATOM      1  C   UNL d   1       5.998   4.143  -3.315  0.00  0.00     0.020 A 
ATOM      2  C1  UNL d   1       5.880   5.445  -2.831  0.00  0.00     0.020 A 
ATOM      3  C2  UNL d   1       4.616   5.999  -2.619  0.00  0.00     0.034 A 
ATOM      4  C3  UNL d   1       3.465   5.251  -2.891  0.00  0.00     0.017 A 
ATOM      5  C4  UNL d   1       3.585   3.944  -3.377  0.00  0.00     0.017 A 
ATOM      6  C5  UNL d   1       4.853   3.394  -3.587  0.00  0.00     0.034 A 
ATOM      7 Cl   UNL d   1       2.211   2.958  -3.736  0.00  0.00    -0.070 Cl
ATOM      8 Cl1  UNL d   1       1.934   5.999  -2.606  0.00  0.00    -0.070 Cl
ENDROOT
TORSDOF 0
ENDMDL
