MODEL 1
REMARK minimizedAffinity 10.0395374
REMARK minimizedRMSD -1
REMARK  0 active torsions:
REMARK  status: ('A' for Active; 'I' for Inactive)
ROOT
ATOM      1  C   UNL d   1      -0.663  -2.250  -2.620  0.00  0.00     0.020 A 
ATOM      2  C1  UNL d   1      -0.740  -2.048  -1.243  0.00  0.00     0.020 A 
ATOM      3  C2  UNL d   1       0.418  -2.096  -0.465  0.00  0.00     0.034 A 
ATOM      4  C3  UNL d   1       1.659  -2.346  -1.063  0.00  0.00     0.017 A 
ATOM      5  C4  UNL d   1       1.735  -2.548  -2.446  0.00  0.00     0.017 A 
ATOM      6  C5  UNL d   1       0.571  -2.499  -3.220  0.00  0.00     0.034 A 
ATOM      7 Cl   UNL d   1       3.229  -2.861  -3.256  0.00  0.00    -0.070 Cl
ATOM      8 Cl1  UNL d   1       3.050  -2.391  -0.040  0.00  0.00    -0.070 Cl
ENDROOT
TORSDOF 0
ENDMDL
