MODEL 1
REMARK minimizedAffinity 1.36363125
REMARK minimizedRMSD -1
REMARK  0 active torsions:
REMARK  status: ('A' for Active; 'I' for Inactive)
ROOT
ATOM      1  C   UNL d   1       5.985   5.304  -5.246  0.00  0.00     0.020 A 
ATOM      2  C1  UNL d   1       4.785   5.489  -5.933  0.00  0.00     0.020 A 
ATOM      3  C2  UNL d   1       3.600   5.699  -5.225  0.00  0.00     0.034 A 
ATOM      4  C3  UNL d   1       3.612   5.724  -3.825  0.00  0.00     0.017 A 
ATOM      5  C4  UNL d   1       4.816   5.538  -3.137  0.00  0.00     0.017 A 
ATOM      6  C5  UNL d   1       6.000   5.329  -3.851  0.00  0.00     0.034 A 
ATOM      7 Cl   UNL d   1       4.910   5.557  -1.411  0.00  0.00    -0.070 Cl
ATOM      8 Cl1  UNL d   1       2.109   5.988  -3.014  0.00  0.00    -0.070 Cl
ENDROOT
TORSDOF 0
ENDMDL
