MODEL 1
REMARK minimizedAffinity 9.34104633
REMARK minimizedRMSD -1
REMARK  0 active torsions:
REMARK  status: ('A' for Active; 'I' for Inactive)
ROOT
ATOM      1  C   UNL d   1       6.000   5.243  -2.523  0.00  0.00     0.020 A 
ATOM      2  C1  UNL d   1       5.117   5.461  -1.465  0.00  0.00     0.020 A 
ATOM      3  C2  UNL d   1       3.764   5.689  -1.721  0.00  0.00     0.034 A 
ATOM      4  C3  UNL d   1       3.288   5.700  -3.038  0.00  0.00     0.017 A 
ATOM      5  C4  UNL d   1       4.175   5.481  -4.098  0.00  0.00     0.017 A 
ATOM      6  C5  UNL d   1       5.529   5.253  -3.836  0.00  0.00     0.034 A 
ATOM      7 Cl   UNL d   1       3.663   5.480  -5.749  0.00  0.00    -0.070 Cl
ATOM      8 Cl1  UNL d   1       1.602   5.989  -3.281  0.00  0.00    -0.070 Cl
ENDROOT
TORSDOF 0
ENDMDL
