MODEL 1
REMARK minimizedAffinity 12.5999393
REMARK minimizedRMSD -1
REMARK  0 active torsions:
REMARK  status: ('A' for Active; 'I' for Inactive)
ROOT
ATOM      1  C   UNL d   1      -0.686  -1.640  -0.889  0.00  0.00     0.020 A 
ATOM      2  C1  UNL d   1      -0.544  -1.444  -2.262  0.00  0.00     0.020 A 
ATOM      3  C2  UNL d   1       0.722  -1.219  -2.807  0.00  0.00     0.034 A 
ATOM      4  C3  UNL d   1       1.850  -1.188  -1.979  0.00  0.00     0.017 A 
ATOM      5  C4  UNL d   1       1.706  -1.385  -0.601  0.00  0.00     0.017 A 
ATOM      6  C5  UNL d   1       0.436  -1.611  -0.060  0.00  0.00     0.034 A 
ATOM      7 Cl   UNL d   1       3.050  -1.362   0.485  0.00  0.00    -0.070 Cl
ATOM      8 Cl1  UNL d   1       3.384  -0.905  -2.721  0.00  0.00    -0.070 Cl
ENDROOT
TORSDOF 0
ENDMDL
