MODEL 1
REMARK minimizedAffinity 2.60319757
REMARK minimizedRMSD -1
REMARK  0 active torsions:
REMARK  status: ('A' for Active; 'I' for Inactive)
ROOT
ATOM      1  C   UNL d   1       5.875   5.614  -5.271  0.00  0.00     0.020 A 
ATOM      2  C1  UNL d   1       4.623   5.990  -5.757  0.00  0.00     0.020 A 
ATOM      3  C2  UNL d   1       3.493   5.863  -4.946  0.00  0.00     0.034 A 
ATOM      4  C3  UNL d   1       3.612   5.358  -3.647  0.00  0.00     0.017 A 
ATOM      5  C4  UNL d   1       4.869   4.979  -3.161  0.00  0.00     0.017 A 
ATOM      6  C5  UNL d   1       5.997   5.109  -3.976  0.00  0.00     0.034 A 
ATOM      7 Cl   UNL d   1       5.094   4.347  -1.568  0.00  0.00    -0.070 Cl
ATOM      8 Cl1  UNL d   1       2.172   5.228  -2.700  0.00  0.00    -0.070 Cl
ENDROOT
TORSDOF 0
ENDMDL
