MODEL 1
REMARK minimizedAffinity -1.05062044
REMARK minimizedRMSD -1
REMARK  0 active torsions:
REMARK  status: ('A' for Active; 'I' for Inactive)
ROOT
ATOM      1  C   UNL d   1       5.960   4.253  -2.198  0.00  0.00     0.020 A 
ATOM      2  C1  UNL d   1       5.321   5.492  -2.164  0.00  0.00     0.020 A 
ATOM      3  C2  UNL d   1       4.721   6.000  -3.318  0.00  0.00     0.034 A 
ATOM      4  C3  UNL d   1       4.759   5.269  -4.511  0.00  0.00     0.017 A 
ATOM      5  C4  UNL d   1       5.400   4.026  -4.544  0.00  0.00     0.017 A 
ATOM      6  C5  UNL d   1       5.999   3.521  -3.386  0.00  0.00     0.034 A 
ATOM      7 Cl   UNL d   1       5.488   3.066  -5.979  0.00  0.00    -0.070 Cl
ATOM      8 Cl1  UNL d   1       3.996   5.959  -5.900  0.00  0.00    -0.070 Cl
ENDROOT
TORSDOF 0
ENDMDL
