MODEL 1
REMARK minimizedAffinity 4.50654221
REMARK minimizedRMSD -1
REMARK  0 active torsions:
REMARK  status: ('A' for Active; 'I' for Inactive)
ROOT
ATOM      1  C   UNL d   1      -0.927  -1.952   0.281  0.00  0.00     0.020 A 
ATOM      2  C1  UNL d   1      -1.184  -3.289   0.579  0.00  0.00     0.020 A 
ATOM      3  C2  UNL d   1      -0.969  -4.274  -0.387  0.00  0.00     0.034 A 
ATOM      4  C3  UNL d   1      -0.495  -3.923  -1.657  0.00  0.00     0.017 A 
ATOM      5  C4  UNL d   1      -0.238  -2.580  -1.955  0.00  0.00     0.017 A 
ATOM      6  C5  UNL d   1      -0.455  -1.598  -0.983  0.00  0.00     0.034 A 
ATOM      7 Cl   UNL d   1       0.348  -2.069  -3.499  0.00  0.00    -0.070 Cl
ATOM      8 Cl1  UNL d   1      -0.252  -5.192  -2.803  0.00  0.00    -0.070 Cl
ENDROOT
TORSDOF 0
ENDMDL
