MODEL 1
REMARK minimizedAffinity 6.01648045
REMARK minimizedRMSD -1
REMARK  0 active torsions:
REMARK  status: ('A' for Active; 'I' for Inactive)
ROOT
ATOM      1  C   UNL d   1      -1.674  -2.180  -1.713  0.00  0.00     0.020 A 
ATOM      2  C1  UNL d   1      -0.470  -1.966  -1.043  0.00  0.00     0.020 A 
ATOM      3  C2  UNL d   1      -0.375  -2.230   0.325  0.00  0.00     0.034 A 
ATOM      4  C3  UNL d   1      -1.486  -2.710   1.027  0.00  0.00     0.017 A 
ATOM      5  C4  UNL d   1      -2.694  -2.925   0.354  0.00  0.00     0.017 A 
ATOM      6  C5  UNL d   1      -2.783  -2.659  -1.016  0.00  0.00     0.034 A 
ATOM      7 Cl   UNL d   1      -4.108  -3.515   1.154  0.00  0.00    -0.070 Cl
ATOM      8 Cl1  UNL d   1      -1.297  -3.015   2.718  0.00  0.00    -0.070 Cl
ENDROOT
TORSDOF 0
ENDMDL
