MODEL 1
REMARK minimizedAffinity 1.28655863
REMARK minimizedRMSD -1
REMARK  0 active torsions:
REMARK  status: ('A' for Active; 'I' for Inactive)
ROOT
ATOM      1  C   UNL d   1       3.653  -1.776   2.029  0.00  0.00     0.020 A 
ATOM      2  C1  UNL d   1       4.450  -2.871   1.698  0.00  0.00     0.020 A 
ATOM      3  C2  UNL d   1       5.122  -3.574   2.700  0.00  0.00     0.034 A 
ATOM      4  C3  UNL d   1       4.999  -3.182   4.038  0.00  0.00     0.017 A 
ATOM      5  C4  UNL d   1       4.198  -2.083   4.369  0.00  0.00     0.017 A 
ATOM      6  C5  UNL d   1       3.527  -1.383   3.361  0.00  0.00     0.034 A 
ATOM      7 Cl   UNL d   1       3.997  -1.540   5.998  0.00  0.00    -0.070 Cl
ATOM      8 Cl1  UNL d   1       5.858  -4.097   5.226  0.00  0.00    -0.070 Cl
ENDROOT
TORSDOF 0
ENDMDL
