MODEL 1
REMARK minimizedAffinity 4.38460684
REMARK minimizedRMSD -1
REMARK  0 active torsions:
REMARK  status: ('A' for Active; 'I' for Inactive)
ROOT
ATOM      1  C   UNL d   1      -1.646  -2.406  -1.982  0.00  0.00     0.020 A 
ATOM      2  C1  UNL d   1      -1.667  -2.034  -0.638  0.00  0.00     0.020 A 
ATOM      3  C2  UNL d   1      -0.486  -1.645  -0.003  0.00  0.00     0.034 A 
ATOM      4  C3  UNL d   1       0.721  -1.627  -0.711  0.00  0.00     0.017 A 
ATOM      5  C4  UNL d   1       0.741  -2.001  -2.060  0.00  0.00     0.017 A 
ATOM      6  C5  UNL d   1      -0.445  -2.389  -2.691  0.00  0.00     0.034 A 
ATOM      7 Cl   UNL d   1       2.192  -2.004  -2.999  0.00  0.00    -0.070 Cl
ATOM      8 Cl1  UNL d   1       2.143  -1.135   0.138  0.00  0.00    -0.070 Cl
ENDROOT
TORSDOF 0
ENDMDL
