MODEL 1
REMARK minimizedAffinity 4.72779369
REMARK minimizedRMSD -1
REMARK  0 active torsions:
REMARK  status: ('A' for Active; 'I' for Inactive)
ROOT
ATOM      1  C   UNL d   1      -0.255  -2.471  -0.863  0.00  0.00     0.020 A 
ATOM      2  C1  UNL d   1      -0.296  -3.840  -0.598  0.00  0.00     0.020 A 
ATOM      3  C2  UNL d   1      -0.099  -4.757  -1.632  0.00  0.00     0.034 A 
ATOM      4  C3  UNL d   1       0.141  -4.307  -2.936  0.00  0.00     0.017 A 
ATOM      5  C4  UNL d   1       0.182  -2.934  -3.200  0.00  0.00     0.017 A 
ATOM      6  C5  UNL d   1      -0.016  -2.019  -2.161  0.00  0.00     0.034 A 
ATOM      7 Cl   UNL d   1       0.473  -2.303  -4.783  0.00  0.00    -0.070 Cl
ATOM      8 Cl1  UNL d   1       0.376  -5.498  -4.166  0.00  0.00    -0.070 Cl
ENDROOT
TORSDOF 0
ENDMDL
