MODEL 1
REMARK minimizedAffinity 7.37448215
REMARK minimizedRMSD -1
REMARK  0 active torsions:
REMARK  status: ('A' for Active; 'I' for Inactive)
ROOT
ATOM      1  C   UNL d   1       5.870   5.528  -4.900  0.00  0.00     0.020 A 
ATOM      2  C1  UNL d   1       4.622   5.615  -5.516  0.00  0.00     0.020 A 
ATOM      3  C2  UNL d   1       3.469   5.760  -4.741  0.00  0.00     0.034 A 
ATOM      4  C3  UNL d   1       3.562   5.818  -3.345  0.00  0.00     0.017 A 
ATOM      5  C4  UNL d   1       4.816   5.731  -2.728  0.00  0.00     0.017 A 
ATOM      6  C5  UNL d   1       5.966   5.586  -3.510  0.00  0.00     0.034 A 
ATOM      7 Cl   UNL d   1       5.010   5.795  -1.012  0.00  0.00    -0.070 Cl
ATOM      8 Cl1  UNL d   1       2.096   5.999  -2.449  0.00  0.00    -0.070 Cl
ENDROOT
TORSDOF 0
ENDMDL
