MODEL 1
REMARK minimizedAffinity -0.0238025896
REMARK minimizedRMSD -1
REMARK  0 active torsions:
REMARK  status: ('A' for Active; 'I' for Inactive)
ROOT
ATOM      1  C   UNL d   1       5.626  -2.997   4.530  0.00  0.00     0.020 A 
ATOM      2  C1  UNL d   1       5.550  -2.180   5.657  0.00  0.00     0.020 A 
ATOM      3  C2  UNL d   1       4.340  -1.574   6.000  0.00  0.00     0.034 A 
ATOM      4  C3  UNL d   1       3.200  -1.783   5.214  0.00  0.00     0.017 A 
ATOM      5  C4  UNL d   1       3.277  -2.603   4.083  0.00  0.00     0.017 A 
ATOM      6  C5  UNL d   1       4.492  -3.208   3.744  0.00  0.00     0.034 A 
ATOM      7 Cl   UNL d   1       1.914  -2.909   3.065  0.00  0.00    -0.070 Cl
ATOM      8 Cl1  UNL d   1       1.737  -1.002   5.697  0.00  0.00    -0.070 Cl
ENDROOT
TORSDOF 0
ENDMDL
