MODEL 1
REMARK minimizedAffinity 6.00129938
REMARK minimizedRMSD -1
REMARK  0 active torsions:
REMARK  status: ('A' for Active; 'I' for Inactive)
ROOT
ATOM      1  C   UNL d   1      -0.496  -2.151  -1.900  0.00  0.00     0.020 A 
ATOM      2  C1  UNL d   1       0.320  -1.388  -1.065  0.00  0.00     0.020 A 
ATOM      3  C2  UNL d   1      -0.030  -1.204   0.274  0.00  0.00     0.034 A 
ATOM      4  C3  UNL d   1      -1.198  -1.782   0.783  0.00  0.00     0.017 A 
ATOM      5  C4  UNL d   1      -2.017  -2.548  -0.056  0.00  0.00     0.017 A 
ATOM      6  C5  UNL d   1      -1.661  -2.730  -1.396  0.00  0.00     0.034 A 
ATOM      7 Cl   UNL d   1      -3.474  -3.293   0.499  0.00  0.00    -0.070 Cl
ATOM      8 Cl1  UNL d   1      -1.569  -1.512   2.449  0.00  0.00    -0.070 Cl
ENDROOT
TORSDOF 0
ENDMDL
