MODEL 1
REMARK minimizedAffinity -3.81693912
REMARK minimizedRMSD -1
REMARK  0 active torsions:
REMARK  status: ('A' for Active; 'I' for Inactive)
ROOT
ATOM      1  C4' PXY d   1       4.913  -2.626   5.996  0.00  0.00     0.077 C 
ATOM      2  C1' PXY d   1       6.000  -5.061   0.867  0.00  0.00     0.077 C 
ATOM      3  C1  PXY d   1       5.720  -4.412   2.208  0.00  0.00    -0.082 A 
ATOM      4  C2  PXY d   1       5.569  -5.169   3.282  0.00  0.00     0.003 A 
ATOM      5  C3  PXY d   1       5.284  -4.600   4.497  0.00  0.00     0.003 A 
ATOM      6  C4  PXY d   1       5.206  -3.238   4.623  0.00  0.00    -0.082 A 
ATOM      7  C5  PXY d   1       5.370  -2.459   3.533  0.00  0.00     0.003 A 
ATOM      8  C6  PXY d   1       5.617  -3.058   2.302  0.00  0.00     0.003 A 
ENDROOT
TORSDOF 0
ENDMDL
