MODEL 1
REMARK minimizedAffinity -2.3118875
REMARK minimizedRMSD -1
REMARK  0 active torsions:
REMARK  status: ('A' for Active; 'I' for Inactive)
ROOT
ATOM      1  C4' PXY d   1       5.999  -4.543   0.580  0.00  0.00     0.077 C 
ATOM      2  C1' PXY d   1       5.604  -2.514   5.979  0.00  0.00     0.077 C 
ATOM      3  C1  PXY d   1       5.714  -3.057   4.567  0.00  0.00    -0.082 A 
ATOM      4  C2  PXY d   1       5.632  -2.227   3.540  0.00  0.00     0.003 A 
ATOM      5  C3  PXY d   1       5.698  -2.705   2.256  0.00  0.00     0.003 A 
ATOM      6  C4  PXY d   1       5.903  -4.039   2.023  0.00  0.00    -0.082 A 
ATOM      7  C5  PXY d   1       5.998  -4.890   3.066  0.00  0.00     0.003 A 
ATOM      8  C6  PXY d   1       5.888  -4.390   4.361  0.00  0.00     0.003 A 
ENDROOT
TORSDOF 0
ENDMDL
