MODEL 1
REMARK minimizedAffinity -1.38875735
REMARK minimizedRMSD -1
REMARK  0 active torsions:
REMARK  status: ('A' for Active; 'I' for Inactive)
ROOT
ATOM      1  C4' PXY d   1       4.969  -6.000   5.659  0.00  0.00     0.077 C 
ATOM      2  C1' PXY d   1       5.999  -2.688   1.035  0.00  0.00     0.077 C 
ATOM      3  C1  PXY d   1       5.728  -3.567   2.240  0.00  0.00    -0.082 A 
ATOM      4  C2  PXY d   1       5.243  -3.028   3.346  0.00  0.00     0.003 A 
ATOM      5  C3  PXY d   1       5.022  -3.803   4.456  0.00  0.00     0.003 A 
ATOM      6  C4  PXY d   1       5.250  -5.152   4.415  0.00  0.00    -0.082 A 
ATOM      7  C5  PXY d   1       5.735  -5.711   3.286  0.00  0.00     0.003 A 
ATOM      8  C6  PXY d   1       5.991  -4.901   2.184  0.00  0.00     0.003 A 
ENDROOT
TORSDOF 0
ENDMDL
