MODEL 1
REMARK minimizedAffinity -3.52750945
REMARK minimizedRMSD -1
REMARK  0 active torsions:
REMARK  status: ('A' for Active; 'I' for Inactive)
ROOT
ATOM      1  C4' PXY d   1       3.636  -5.285   6.000  0.00  0.00     0.077 C 
ATOM      2  C1' PXY d   1       6.000  -2.000   1.872  0.00  0.00     0.077 C 
ATOM      3  C1  PXY d   1       5.386  -2.854   2.964  0.00  0.00    -0.082 A 
ATOM      4  C2  PXY d   1       5.051  -4.108   2.703  0.00  0.00     0.003 A 
ATOM      5  C3  PXY d   1       4.465  -4.884   3.670  0.00  0.00     0.003 A 
ATOM      6  C4  PXY d   1       4.268  -4.389   4.931  0.00  0.00    -0.082 A 
ATOM      7  C5  PXY d   1       4.617  -3.115   5.208  0.00  0.00     0.003 A 
ATOM      8  C6  PXY d   1       5.172  -2.330   4.201  0.00  0.00     0.003 A 
ENDROOT
TORSDOF 0
ENDMDL
