MODEL 1
REMARK minimizedAffinity -3.40134215
REMARK minimizedRMSD -1
REMARK  0 active torsions:
REMARK  status: ('A' for Active; 'I' for Inactive)
ROOT
ATOM      1  C4' PXY d   1       5.750  -1.587   1.874  0.00  0.00     0.077 C 
ATOM      2  C1' PXY d   1       5.999  -5.995   5.606  0.00  0.00     0.077 C 
ATOM      3  C1  PXY d   1       5.939  -4.846   4.618  0.00  0.00    -0.082 A 
ATOM      4  C2  PXY d   1       5.956  -3.600   5.061  0.00  0.00     0.003 A 
ATOM      5  C3  PXY d   1       5.870  -2.550   4.184  0.00  0.00     0.003 A 
ATOM      6  C4  PXY d   1       5.819  -2.778   2.834  0.00  0.00    -0.082 A 
ATOM      7  C5  PXY d   1       5.811  -4.046   2.373  0.00  0.00     0.003 A 
ATOM      8  C6  PXY d   1       5.858  -5.099   3.283  0.00  0.00     0.003 A 
ENDROOT
TORSDOF 0
ENDMDL
