MODEL 1
REMARK minimizedAffinity -3.78643537
REMARK minimizedRMSD -1
REMARK  0 active torsions:
REMARK  status: ('A' for Active; 'I' for Inactive)
ROOT
ATOM      1  C4' PXY d   1       5.999  -5.266   1.153  0.00  0.00     0.077 C 
ATOM      2  C1' PXY d   1       5.426  -1.853   5.783  0.00  0.00     0.077 C 
ATOM      3  C1  PXY d   1       5.579  -2.758   4.577  0.00  0.00    -0.082 A 
ATOM      4  C2  PXY d   1       5.865  -2.233   3.397  0.00  0.00     0.003 A 
ATOM      5  C3  PXY d   1       5.976  -3.033   2.289  0.00  0.00     0.003 A 
ATOM      6  C4  PXY d   1       5.845  -4.392   2.400  0.00  0.00    -0.082 A 
ATOM      7  C5  PXY d   1       5.564  -4.937   3.603  0.00  0.00     0.003 A 
ATOM      8  C6  PXY d   1       5.415  -4.102   4.707  0.00  0.00     0.003 A 
ENDROOT
TORSDOF 0
ENDMDL
