MODEL 1
REMARK minimizedAffinity -2.78513408
REMARK minimizedRMSD -1
REMARK  0 active torsions:
REMARK  status: ('A' for Active; 'I' for Inactive)
ROOT
ATOM      1  C4' PXY d   1       4.943  -2.292   6.000  0.00  0.00     0.077 C 
ATOM      2  C1' PXY d   1       6.000  -5.240   1.141  0.00  0.00     0.077 C 
ATOM      3  C1  PXY d   1       5.714  -4.476   2.419  0.00  0.00    -0.082 A 
ATOM      4  C2  PXY d   1       5.947  -3.174   2.469  0.00  0.00     0.003 A 
ATOM      5  C3  PXY d   1       5.724  -2.474   3.626  0.00  0.00     0.003 A 
ATOM      6  C4  PXY d   1       5.208  -3.102   4.728  0.00  0.00    -0.082 A 
ATOM      7  C5  PXY d   1       4.958  -4.428   4.682  0.00  0.00     0.003 A 
ATOM      8  C6  PXY d   1       5.229  -5.128   3.510  0.00  0.00     0.003 A 
ENDROOT
TORSDOF 0
ENDMDL
