MODEL 1
REMARK minimizedAffinity -3.96627641
REMARK minimizedRMSD -1
REMARK  0 active torsions:
REMARK  status: ('A' for Active; 'I' for Inactive)
ROOT
ATOM      1  C4' PXY d   1       5.100  -5.231   5.983  0.00  0.00     0.077 C 
ATOM      2  C1' PXY d   1       6.000  -2.270   1.101  0.00  0.00     0.077 C 
ATOM      3  C1  PXY d   1       5.762  -3.058   2.374  0.00  0.00    -0.082 A 
ATOM      4  C2  PXY d   1       5.346  -2.431   3.463  0.00  0.00     0.003 A 
ATOM      5  C3  PXY d   1       5.157  -3.122   4.632  0.00  0.00     0.003 A 
ATOM      6  C4  PXY d   1       5.344  -4.478   4.673  0.00  0.00    -0.082 A 
ATOM      7  C5  PXY d   1       5.758  -5.126   3.564  0.00  0.00     0.003 A 
ATOM      8  C6  PXY d   1       5.984  -4.400   2.398  0.00  0.00     0.003 A 
ENDROOT
TORSDOF 0
ENDMDL
