MODEL 1
REMARK minimizedAffinity -2.06014013
REMARK minimizedRMSD -1
REMARK  0 active torsions:
REMARK  status: ('A' for Active; 'I' for Inactive)
ROOT
ATOM      1  C4' PXY d   1       5.902  -1.865   1.957  0.00  0.00     0.077 C 
ATOM      2  C1' PXY d   1       5.360  -5.987   5.974  0.00  0.00     0.077 C 
ATOM      3  C1  PXY d   1       5.494  -4.898   4.927  0.00  0.00    -0.082 A 
ATOM      4  C2  PXY d   1       5.842  -5.218   3.691  0.00  0.00     0.003 A 
ATOM      5  C3  PXY d   1       5.999  -4.243   2.740  0.00  0.00     0.003 A 
ATOM      6  C4  PXY d   1       5.745  -2.932   3.044  0.00  0.00    -0.082 A 
ATOM      7  C5  PXY d   1       5.380  -2.599   4.299  0.00  0.00     0.003 A 
ATOM      8  C6  PXY d   1       5.266  -3.599   5.261  0.00  0.00     0.003 A 
ENDROOT
TORSDOF 0
ENDMDL
