MODEL 1
REMARK minimizedAffinity -3.29463482
REMARK minimizedRMSD -1
REMARK  0 active torsions:
REMARK  status: ('A' for Active; 'I' for Inactive)
ROOT
ATOM      1  C4' PXY d   1       5.797  -2.532   5.974  0.00  0.00     0.077 C 
ATOM      2  C1' PXY d   1       6.000  -4.503   0.544  0.00  0.00     0.077 C 
ATOM      3  C1  PXY d   1       5.941  -3.997   1.972  0.00  0.00    -0.082 A 
ATOM      4  C2  PXY d   1       5.997  -2.696   2.208  0.00  0.00     0.003 A 
ATOM      5  C3  PXY d   1       5.977  -2.223   3.495  0.00  0.00     0.003 A 
ATOM      6  C4  PXY d   1       5.844  -3.087   4.548  0.00  0.00    -0.082 A 
ATOM      7  C5  PXY d   1       5.775  -4.415   4.315  0.00  0.00     0.003 A 
ATOM      8  C6  PXY d   1       5.839  -4.878   3.004  0.00  0.00     0.003 A 
ENDROOT
TORSDOF 0
ENDMDL
