MODEL 1
REMARK minimizedAffinity -3.02177477
REMARK minimizedRMSD -1
REMARK  0 active torsions:
REMARK  status: ('A' for Active; 'I' for Inactive)
ROOT
ATOM      1  C4' PXY d   1       6.000  -4.909   0.837  0.00  0.00     0.077 C 
ATOM      2  C1' PXY d   1       5.774  -2.312   5.996  0.00  0.00     0.077 C 
ATOM      3  C1  PXY d   1       5.828  -2.983   4.638  0.00  0.00    -0.082 A 
ATOM      4  C2  PXY d   1       5.918  -4.301   4.563  0.00  0.00     0.003 A 
ATOM      5  C3  PXY d   1       6.000  -4.921   3.343  0.00  0.00     0.003 A 
ATOM      6  C4  PXY d   1       5.934  -4.190   2.187  0.00  0.00    -0.082 A 
ATOM      7  C5  PXY d   1       5.831  -2.846   2.256  0.00  0.00     0.003 A 
ATOM      8  C6  PXY d   1       5.791  -2.231   3.504  0.00  0.00     0.003 A 
ENDROOT
TORSDOF 0
ENDMDL
