MODEL 1
REMARK minimizedAffinity -3.69172573
REMARK minimizedRMSD -1
REMARK  0 active torsions:
REMARK  status: ('A' for Active; 'I' for Inactive)
ROOT
ATOM      1  C4' PXY d   1       6.000  -4.499   0.393  0.00  0.00     0.077 C 
ATOM      2  C1' PXY d   1       4.999  -3.415   5.983  0.00  0.00     0.077 C 
ATOM      3  C1  PXY d   1       5.268  -3.710   4.520  0.00  0.00    -0.082 A 
ATOM      4  C2  PXY d   1       5.261  -2.721   3.641  0.00  0.00     0.003 A 
ATOM      5  C3  PXY d   1       5.471  -2.975   2.310  0.00  0.00     0.003 A 
ATOM      6  C4  PXY d   1       5.743  -4.246   1.881  0.00  0.00    -0.082 A 
ATOM      7  C5  PXY d   1       5.762  -5.259   2.773  0.00  0.00     0.003 A 
ATOM      8  C6  PXY d   1       5.506  -4.987   4.114  0.00  0.00     0.003 A 
ENDROOT
TORSDOF 0
ENDMDL
