MODEL 1
REMARK minimizedAffinity -3.26767826
REMARK minimizedRMSD -1
REMARK  0 active torsions:
REMARK  status: ('A' for Active; 'I' for Inactive)
ROOT
ATOM      1  C4' PXY d   1       5.615  -2.166   5.985  0.00  0.00     0.077 C 
ATOM      2  C1' PXY d   1       6.000  -4.850   0.880  0.00  0.00     0.077 C 
ATOM      3  C1  PXY d   1       5.894  -4.157   2.224  0.00  0.00    -0.082 A 
ATOM      4  C2  PXY d   1       5.825  -2.837   2.276  0.00  0.00     0.003 A 
ATOM      5  C3  PXY d   1       5.761  -2.192   3.484  0.00  0.00     0.003 A 
ATOM      6  C4  PXY d   1       5.714  -2.909   4.650  0.00  0.00    -0.082 A 
ATOM      7  C5  PXY d   1       5.773  -4.257   4.606  0.00  0.00     0.003 A 
ATOM      8  C6  PXY d   1       5.879  -4.890   3.371  0.00  0.00     0.003 A 
ENDROOT
TORSDOF 0
ENDMDL
