MODEL 1
REMARK minimizedAffinity -2.6273706
REMARK minimizedRMSD -1
REMARK  0 active torsions:
REMARK  status: ('A' for Active; 'I' for Inactive)
ROOT
ATOM      1  C4' PXY d   1       4.611  -2.465   5.990  0.00  0.00     0.077 C 
ATOM      2  C1' PXY d   1       5.999  -5.999   1.632  0.00  0.00     0.077 C 
ATOM      3  C1  PXY d   1       5.628  -5.081   2.780  0.00  0.00    -0.082 A 
ATOM      4  C2  PXY d   1       5.709  -3.770   2.622  0.00  0.00     0.003 A 
ATOM      5  C3  PXY d   1       5.407  -2.927   3.660  0.00  0.00     0.003 A 
ATOM      6  C4  PXY d   1       4.967  -3.429   4.855  0.00  0.00    -0.082 A 
ATOM      7  C5  PXY d   1       4.871  -4.765   5.021  0.00  0.00     0.003 A 
ATOM      8  C6  PXY d   1       5.222  -5.606   3.968  0.00  0.00     0.003 A 
ENDROOT
TORSDOF 0
ENDMDL
