MODEL 1
REMARK minimizedAffinity -3.65770221
REMARK minimizedRMSD -1
REMARK  0 active torsions:
REMARK  status: ('A' for Active; 'I' for Inactive)
ROOT
ATOM      1  C4' PXY d   1       5.626  -5.247   6.000  0.00  0.00     0.077 C 
ATOM      2  C1' PXY d   1       5.999  -1.878   1.317  0.00  0.00     0.077 C 
ATOM      3  C1  PXY d   1       5.906  -2.752   2.552  0.00  0.00    -0.082 A 
ATOM      4  C2  PXY d   1       5.996  -4.066   2.433  0.00  0.00     0.003 A 
ATOM      5  C3  PXY d   1       5.881  -4.873   3.535  0.00  0.00     0.003 A 
ATOM      6  C4  PXY d   1       5.725  -4.326   4.781  0.00  0.00    -0.082 A 
ATOM      7  C5  PXY d   1       5.643  -2.985   4.913  0.00  0.00     0.003 A 
ATOM      8  C6  PXY d   1       5.720  -2.186   3.776  0.00  0.00     0.003 A 
ENDROOT
TORSDOF 0
ENDMDL
