MODEL 1
REMARK minimizedAffinity -2.2143476
REMARK minimizedRMSD -1
REMARK  0 active torsions:
REMARK  status: ('A' for Active; 'I' for Inactive)
ROOT
ATOM      1  C4' PXY d   1       4.496  -6.000   5.958  0.00  0.00     0.077 C 
ATOM      2  C1' PXY d   1       5.997  -2.198   1.870  0.00  0.00     0.077 C 
ATOM      3  C1  PXY d   1       5.602  -3.185   2.951  0.00  0.00    -0.082 A 
ATOM      4  C2  PXY d   1       5.986  -4.448   2.855  0.00  0.00     0.003 A 
ATOM      5  C3  PXY d   1       5.610  -5.361   3.806  0.00  0.00     0.003 A 
ATOM      6  C4  PXY d   1       4.880  -4.966   4.895  0.00  0.00    -0.082 A 
ATOM      7  C5  PXY d   1       4.494  -3.678   5.006  0.00  0.00     0.003 A 
ATOM      8  C6  PXY d   1       4.850  -2.775   4.008  0.00  0.00     0.003 A 
ENDROOT
TORSDOF 0
ENDMDL
