MODEL 1
REMARK minimizedAffinity -2.35562539
REMARK minimizedRMSD -1
REMARK  0 active torsions:
REMARK  status: ('A' for Active; 'I' for Inactive)
ROOT
ATOM      1  C4' PXY d   1       5.523  -4.268   5.975  0.00  0.00     0.077 C 
ATOM      2  C1' PXY d   1       6.000  -1.788   0.775  0.00  0.00     0.077 C 
ATOM      3  C1  PXY d   1       5.878  -2.427   2.144  0.00  0.00    -0.082 A 
ATOM      4  C2  PXY d   1       6.000  -3.739   2.267  0.00  0.00     0.003 A 
ATOM      5  C3  PXY d   1       5.861  -4.337   3.493  0.00  0.00     0.003 A 
ATOM      6  C4  PXY d   1       5.648  -3.578   4.614  0.00  0.00    -0.082 A 
ATOM      7  C5  PXY d   1       5.534  -2.238   4.498  0.00  0.00     0.003 A 
ATOM      8  C6  PXY d   1       5.637  -1.655   3.239  0.00  0.00     0.003 A 
ENDROOT
TORSDOF 0
ENDMDL
