MODEL 1
REMARK minimizedAffinity -1.96002579
REMARK minimizedRMSD -1
REMARK  0 active torsions:
REMARK  status: ('A' for Active; 'I' for Inactive)
ROOT
ATOM      1  C4' PXY d   1       5.111  -2.292   6.000  0.00  0.00     0.077 C 
ATOM      2  C1' PXY d   1       5.997  -5.282   1.133  0.00  0.00     0.077 C 
ATOM      3  C1  PXY d   1       5.773  -4.489   2.405  0.00  0.00    -0.082 A 
ATOM      4  C2  PXY d   1       5.348  -5.107   3.495  0.00  0.00     0.003 A 
ATOM      5  C3  PXY d   1       5.110  -4.400   4.645  0.00  0.00     0.003 A 
ATOM      6  C4  PXY d   1       5.359  -3.054   4.696  0.00  0.00    -0.082 A 
ATOM      7  C5  PXY d   1       5.803  -2.418   3.591  0.00  0.00     0.003 A 
ATOM      8  C6  PXY d   1       6.000  -3.147   2.421  0.00  0.00     0.003 A 
ENDROOT
TORSDOF 0
ENDMDL
