MODEL 1
REMARK minimizedAffinity -3.94573569
REMARK minimizedRMSD -1
REMARK  0 active torsions:
REMARK  status: ('A' for Active; 'I' for Inactive)
ROOT
ATOM      1  C4' PXY d   1       4.519  -5.977   5.849  0.00  0.00     0.077 C 
ATOM      2  C1' PXY d   1       5.999  -2.775   1.269  0.00  0.00     0.077 C 
ATOM      3  C1  PXY d   1       5.616  -3.606   2.478  0.00  0.00    -0.082 A 
ATOM      4  C2  PXY d   1       5.469  -4.915   2.353  0.00  0.00     0.003 A 
ATOM      5  C3  PXY d   1       5.091  -5.676   3.428  0.00  0.00     0.003 A 
ATOM      6  C4  PXY d   1       4.914  -5.100   4.658  0.00  0.00    -0.082 A 
ATOM      7  C5  PXY d   1       5.073  -3.767   4.796  0.00  0.00     0.003 A 
ATOM      8  C6  PXY d   1       5.416  -3.005   3.683  0.00  0.00     0.003 A 
ENDROOT
TORSDOF 0
ENDMDL
