MODEL 1
REMARK minimizedAffinity -3.37652087
REMARK minimizedRMSD -1
REMARK  0 active torsions:
REMARK  status: ('A' for Active; 'I' for Inactive)
ROOT
ATOM      1  C4' PXY d   1       4.314  -5.700   5.999  0.00  0.00     0.077 C 
ATOM      2  C1' PXY d   1       6.000  -1.511   2.390  0.00  0.00     0.077 C 
ATOM      3  C1  PXY d   1       5.559  -2.601   3.346  0.00  0.00    -0.082 A 
ATOM      4  C2  PXY d   1       5.693  -3.871   2.997  0.00  0.00     0.003 A 
ATOM      5  C3  PXY d   1       5.270  -4.869   3.837  0.00  0.00     0.003 A 
ATOM      6  C4  PXY d   1       4.754  -4.566   5.069  0.00  0.00    -0.082 A 
ATOM      7  C5  PXY d   1       4.625  -3.274   5.436  0.00  0.00     0.003 A 
ATOM      8  C6  PXY d   1       5.022  -2.274   4.553  0.00  0.00     0.003 A 
ENDROOT
TORSDOF 0
ENDMDL
