MODEL 1
REMARK minimizedAffinity -4.73595524
REMARK minimizedRMSD -1
REMARK  1 active torsions:
REMARK  status: ('A' for Active; 'I' for Inactive)
REMARK    1  A    between atoms: C3_4  and  O_7 
ROOT
ATOM      1  C   UNL d   1      -0.289  -0.384   0.166  0.00  0.00    -0.033 A 
ATOM      2  C1  UNL d   1      -1.653  -0.507   0.435  0.00  0.00     0.039 A 
ATOM      3  C2  UNL d   1      -2.096  -0.660   1.750  0.00  0.00    -0.080 A 
ATOM      4  C3  UNL d   1      -1.166  -0.686   2.785  0.00  0.00     0.150 A 
ATOM      5  C4  UNL d   1       0.194  -0.559   2.525  0.00  0.00    -0.007 A 
ATOM      6  C5  UNL d   1       0.635  -0.408   1.211  0.00  0.00     0.039 A 
ENDROOT
BRANCH   4   7
ATOM      7  O   UNL d   1      -1.551  -0.837   4.085  0.00  0.00    -0.526 OA
ATOM      8  H5  UNL d   1      -2.516  -0.941   4.110  0.00  0.00     0.418 HD
ENDBRANCH   4   7
TORSDOF 1
ENDMDL
