MODEL 1
REMARK minimizedAffinity -1.758798
REMARK minimizedRMSD -1
REMARK  1 active torsions:
REMARK  status: ('A' for Active; 'I' for Inactive)
REMARK    1  A    between atoms: C3_4  and  O_7 
ROOT
ATOM      1  C   UNL d   1      -0.686   0.455   1.290  0.00  0.00    -0.033 A 
ATOM      2  C1  UNL d   1      -1.542   0.575   0.194  0.00  0.00     0.039 A 
ATOM      3  C2  UNL d   1      -1.078   0.287  -1.091  0.00  0.00    -0.080 A 
ATOM      4  C3  UNL d   1       0.242  -0.119  -1.266  0.00  0.00     0.150 A 
ATOM      5  C4  UNL d   1       1.099  -0.244  -0.178  0.00  0.00    -0.007 A 
ATOM      6  C5  UNL d   1       0.634   0.045   1.104  0.00  0.00     0.039 A 
ENDROOT
BRANCH   4   7
ATOM      7  O   UNL d   1       0.741  -0.406  -2.502  0.00  0.00    -0.526 OA
ATOM      8  H5  UNL d   1       0.044  -0.248  -3.160  0.00  0.00     0.418 HD
ENDBRANCH   4   7
TORSDOF 1
ENDMDL
