MODEL 1
REMARK minimizedAffinity -4.7229929
REMARK minimizedRMSD -1
REMARK  1 active torsions:
REMARK  status: ('A' for Active; 'I' for Inactive)
REMARK    1  A    between atoms: C3_4  and  O_7 
ROOT
ATOM      1  C   UNL d   1      -2.298   0.314   3.176  0.00  0.00    -0.033 A 
ATOM      2  C1  UNL d   1      -3.009   0.481   1.986  0.00  0.00     0.039 A 
ATOM      3  C2  UNL d   1      -2.347   0.409   0.759  0.00  0.00    -0.080 A 
ATOM      4  C3  UNL d   1      -0.976   0.168   0.736  0.00  0.00     0.150 A 
ATOM      5  C4  UNL d   1      -0.262  -0.003   1.918  0.00  0.00    -0.007 A 
ATOM      6  C5  UNL d   1      -0.925   0.070   3.142  0.00  0.00     0.039 A 
ENDROOT
BRANCH   4   7
ATOM      7  O   UNL d   1      -0.285   0.094  -0.437  0.00  0.00    -0.526 OA
ATOM      8  H5  UNL d   1      -0.902   0.260  -1.169  0.00  0.00     0.418 HD
ENDBRANCH   4   7
TORSDOF 1
ENDMDL
