MODEL 1
REMARK minimizedAffinity 0.303050101
REMARK minimizedRMSD -1
REMARK  1 active torsions:
REMARK  status: ('A' for Active; 'I' for Inactive)
REMARK    1  A    between atoms: C3_4  and  O_7 
ROOT
ATOM      1  C   UNL d   1       1.481   0.473   0.757  0.00  0.00    -0.033 A 
ATOM      2  C1  UNL d   1       0.460   0.573   1.704  0.00  0.00     0.039 A 
ATOM      3  C2  UNL d   1      -0.872   0.650   1.290  0.00  0.00    -0.080 A 
ATOM      4  C3  UNL d   1      -1.168   0.624  -0.070  0.00  0.00     0.150 A 
ATOM      5  C4  UNL d   1      -0.155   0.520  -1.018  0.00  0.00    -0.007 A 
ATOM      6  C5  UNL d   1       1.174   0.445  -0.603  0.00  0.00     0.039 A 
ENDROOT
BRANCH   4   7
ATOM      7  O   UNL d   1      -2.452   0.701  -0.521  0.00  0.00    -0.526 OA
ATOM      8  H5  UNL d   1      -3.042   0.797   0.245  0.00  0.00     0.418 HD
ENDBRANCH   4   7
TORSDOF 1
ENDMDL
