MODEL 1
REMARK minimizedAffinity -5.46146584
REMARK minimizedRMSD -1
REMARK  1 active torsions:
REMARK  status: ('A' for Active; 'I' for Inactive)
REMARK    1  A    between atoms: C3_4  and  O_7 
ROOT
ATOM      1  C   UNL d   1      -1.254  -0.180   2.696  0.00  0.00    -0.033 A 
ATOM      2  C1  UNL d   1      -2.142  -0.264   1.622  0.00  0.00     0.039 A 
ATOM      3  C2  UNL d   1      -1.670  -0.153   0.313  0.00  0.00    -0.080 A 
ATOM      4  C3  UNL d   1      -0.309   0.041   0.092  0.00  0.00     0.150 A 
ATOM      5  C4  UNL d   1       0.582   0.121   1.157  0.00  0.00    -0.007 A 
ATOM      6  C5  UNL d   1       0.108   0.011   2.463  0.00  0.00     0.039 A 
ENDROOT
BRANCH   4   7
ATOM      7  O   UNL d   1       0.198   0.160  -1.168  0.00  0.00    -0.526 OA
ATOM      8  H5  UNL d   1      -0.537   0.113  -1.802  0.00  0.00     0.418 HD
ENDBRANCH   4   7
TORSDOF 1
ENDMDL
