MODEL 1
REMARK minimizedAffinity -3.17632055
REMARK minimizedRMSD -1
REMARK  1 active torsions:
REMARK  status: ('A' for Active; 'I' for Inactive)
REMARK    1  A    between atoms: C3_4  and  O_7 
ROOT
ATOM      1  C   UNL d   1      -0.063   0.191   2.216  0.00  0.00    -0.033 A 
ATOM      2  C1  UNL d   1       0.395   0.123   0.898  0.00  0.00     0.039 A 
ATOM      3  C2  UNL d   1      -0.491   0.323  -0.162  0.00  0.00    -0.080 A 
ATOM      4  C3  UNL d   1      -1.831   0.591   0.108  0.00  0.00     0.150 A 
ATOM      5  C4  UNL d   1      -2.293   0.663   1.418  0.00  0.00    -0.007 A 
ATOM      6  C5  UNL d   1      -1.407   0.462   2.475  0.00  0.00     0.039 A 
ENDROOT
BRANCH   4   7
ATOM      7  O   UNL d   1      -2.734   0.788  -0.894  0.00  0.00    -0.526 OA
ATOM      8  H5  UNL d   1      -2.278   0.680  -1.745  0.00  0.00     0.418 HD
ENDBRANCH   4   7
TORSDOF 1
ENDMDL
