MODEL 1
REMARK minimizedAffinity -0.178140357
REMARK minimizedRMSD -1
REMARK  1 active torsions:
REMARK  status: ('A' for Active; 'I' for Inactive)
REMARK    1  A    between atoms: C3_4  and  O_7 
ROOT
ATOM      1  C   UNL d   1       0.726  -0.750  -3.450  0.00  0.00    -0.033 A 
ATOM      2  C1  UNL d   1      -0.024   0.324  -2.969  0.00  0.00     0.039 A 
ATOM      3  C2  UNL d   1      -0.048   0.605  -1.601  0.00  0.00    -0.080 A 
ATOM      4  C3  UNL d   1       0.683  -0.195  -0.727  0.00  0.00     0.150 A 
ATOM      5  C4  UNL d   1       1.436  -1.265  -1.200  0.00  0.00    -0.007 A 
ATOM      6  C5  UNL d   1       1.458  -1.544  -2.565  0.00  0.00     0.039 A 
ENDROOT
BRANCH   4   7
ATOM      7  O   UNL d   1       0.687   0.037   0.617  0.00  0.00    -0.526 OA
ATOM      8  H5  UNL d   1       0.100   0.789   0.801  0.00  0.00     0.418 HD
ENDBRANCH   4   7
TORSDOF 1
ENDMDL
