MODEL 1
REMARK minimizedAffinity -3.14715767
REMARK minimizedRMSD -1
REMARK  1 active torsions:
REMARK  status: ('A' for Active; 'I' for Inactive)
REMARK    1  A    between atoms: C3_4  and  O_7 
ROOT
ATOM      1  C   UNL d   1       1.035   0.239  -1.837  0.00  0.00    -0.033 A 
ATOM      2  C1  UNL d   1      -0.118  -0.031  -1.098  0.00  0.00     0.039 A 
ATOM      3  C2  UNL d   1      -0.922  -1.124  -1.428  0.00  0.00    -0.080 A 
ATOM      4  C3  UNL d   1      -0.561  -1.939  -2.498  0.00  0.00     0.150 A 
ATOM      5  C4  UNL d   1       0.589  -1.678  -3.236  0.00  0.00    -0.007 A 
ATOM      6  C5  UNL d   1       1.389  -0.586  -2.906  0.00  0.00     0.039 A 
ENDROOT
BRANCH   4   7
ATOM      7  O   UNL d   1      -1.316  -3.014  -2.861  0.00  0.00    -0.526 OA
ATOM      8  H5  UNL d   1      -2.094  -3.054  -2.280  0.00  0.00     0.418 HD
ENDBRANCH   4   7
TORSDOF 1
ENDMDL
