MODEL 1
REMARK minimizedAffinity -4.67257786
REMARK minimizedRMSD -1
REMARK  1 active torsions:
REMARK  status: ('A' for Active; 'I' for Inactive)
REMARK    1  A    between atoms: C3_4  and  O_7 
ROOT
ATOM      1  C   UNL d   1      -1.448  -0.250   2.729  0.00  0.00    -0.033 A 
ATOM      2  C1  UNL d   1      -2.301  -0.126   1.631  0.00  0.00     0.039 A 
ATOM      3  C2  UNL d   1      -1.773   0.004   0.345  0.00  0.00    -0.080 A 
ATOM      4  C3  UNL d   1      -0.392   0.007   0.171  0.00  0.00     0.150 A 
ATOM      5  C4  UNL d   1       0.464  -0.120   1.260  0.00  0.00    -0.007 A 
ATOM      6  C5  UNL d   1      -0.065  -0.249   2.543  0.00  0.00     0.039 A 
ENDROOT
BRANCH   4   7
ATOM      7  O   UNL d   1       0.170   0.136  -1.064  0.00  0.00    -0.526 OA
ATOM      8  H5  UNL d   1      -0.542   0.244  -1.717  0.00  0.00     0.418 HD
ENDBRANCH   4   7
TORSDOF 1
ENDMDL
