MODEL 1
REMARK minimizedAffinity -1.93258142
REMARK minimizedRMSD -1
REMARK  1 active torsions:
REMARK  status: ('A' for Active; 'I' for Inactive)
REMARK    1  A    between atoms: C3_4  and  O_7 
ROOT
ATOM      1  C   UNL d   1       0.492   0.552  -1.152  0.00  0.00    -0.033 A 
ATOM      2  C1  UNL d   1       1.641   0.818  -0.405  0.00  0.00     0.039 A 
ATOM      3  C2  UNL d   1       1.639   0.619   0.977  0.00  0.00    -0.080 A 
ATOM      4  C3  UNL d   1       0.484   0.153   1.598  0.00  0.00     0.150 A 
ATOM      5  C4  UNL d   1      -0.663  -0.118   0.859  0.00  0.00    -0.007 A 
ATOM      6  C5  UNL d   1      -0.660   0.083  -0.520  0.00  0.00     0.039 A 
ENDROOT
BRANCH   4   7
ATOM      7  O   UNL d   1       0.432  -0.053   2.945  0.00  0.00    -0.526 OA
ATOM      8  H5  UNL d   1       1.288   0.203   3.328  0.00  0.00     0.418 HD
ENDBRANCH   4   7
TORSDOF 1
ENDMDL
