MODEL 1
REMARK minimizedAffinity -4.05145502
REMARK minimizedRMSD -1
REMARK  1 active torsions:
REMARK  status: ('A' for Active; 'I' for Inactive)
REMARK    1  A    between atoms: C3_4  and  O_7 
ROOT
ATOM      1  C   UNL d   1       0.657  -0.093   1.937  0.00  0.00    -0.033 A 
ATOM      2  C1  UNL d   1      -0.586   0.331   2.410  0.00  0.00     0.039 A 
ATOM      3  C2  UNL d   1      -1.553   0.797   1.518  0.00  0.00    -0.080 A 
ATOM      4  C3  UNL d   1      -1.266   0.833   0.156  0.00  0.00     0.150 A 
ATOM      5  C4  UNL d   1      -0.031   0.408  -0.323  0.00  0.00    -0.007 A 
ATOM      6  C5  UNL d   1       0.934  -0.056   0.570  0.00  0.00     0.039 A 
ENDROOT
BRANCH   4   7
ATOM      7  O   UNL d   1      -2.177   1.284  -0.752  0.00  0.00    -0.526 OA
ATOM      8  H5  UNL d   1      -2.973   1.571  -0.274  0.00  0.00     0.418 HD
ENDBRANCH   4   7
TORSDOF 1
ENDMDL
