MODEL 1
REMARK minimizedAffinity 12.9686718
REMARK minimizedRMSD -1
REMARK  0 active torsions:
REMARK  status: ('A' for Active; 'I' for Inactive)
ROOT
ATOM      1  O1  BZF d   1       0.217   1.500   0.709  0.00  0.00    -0.204 OA
ATOM      2  C2  BZF d   1       1.513   1.142   0.389  0.00  0.00     0.174 A 
ATOM      3  C3  BZF d   1       1.607  -0.189   0.195  0.00  0.00    -0.012 A 
ATOM      4  C3A BZF d   1       0.270  -0.683   0.316  0.00  0.00    -0.107 A 
ATOM      5  C4  BZF d   1      -0.285  -1.926   0.210  0.00  0.00     0.055 A 
ATOM      6  C5  BZF d   1      -1.613  -2.080   0.456  0.00  0.00    -0.016 A 
ATOM      7  C6  BZF d   1      -2.413  -1.015   0.815  0.00  0.00     0.022 A 
ATOM      8  C7  BZF d   1      -1.909   0.238   0.928  0.00  0.00     0.029 A 
ATOM      9  C7A BZF d   1      -0.574   0.402   0.648  0.00  0.00     0.058 A 
ENDROOT
TORSDOF 0
ENDMDL
