MODEL 1
REMARK minimizedAffinity 24.221756
REMARK minimizedRMSD -1
REMARK  0 active torsions:
REMARK  status: ('A' for Active; 'I' for Inactive)
ROOT
ATOM      1  O1  BZF d   1       0.479  -1.860   3.520  0.00  0.00    -0.204 OA
ATOM      2  C2  BZF d   1       1.349  -2.589   4.308  0.00  0.00     0.174 A 
ATOM      3  C3  BZF d   1       2.542  -2.733   3.695  0.00  0.00    -0.012 A 
ATOM      4  C3A BZF d   1       2.439  -1.974   2.487  0.00  0.00    -0.107 A 
ATOM      5  C4  BZF d   1       3.304  -1.717   1.463  0.00  0.00     0.055 A 
ATOM      6  C5  BZF d   1       2.869  -0.998   0.395  0.00  0.00    -0.016 A 
ATOM      7  C6  BZF d   1       1.576  -0.525   0.316  0.00  0.00     0.022 A 
ATOM      8  C7  BZF d   1       0.682  -0.750   1.310  0.00  0.00     0.029 A 
ATOM      9  C7A BZF d   1       1.128  -1.449   2.405  0.00  0.00     0.058 A 
ENDROOT
TORSDOF 0
ENDMDL
