MODEL 1
REMARK minimizedAffinity -0.395152152
REMARK minimizedRMSD -1
REMARK  0 active torsions:
REMARK  status: ('A' for Active; 'I' for Inactive)
ROOT
ATOM      1  O1  BZF d   1       3.239  -0.281   0.188  0.00  0.00    -0.204 OA
ATOM      2  C2  BZF d   1       3.817   0.873  -0.306  0.00  0.00     0.174 A 
ATOM      3  C3  BZF d   1       2.881   1.816  -0.535  0.00  0.00    -0.012 A 
ATOM      4  C3A BZF d   1       1.652   1.246  -0.074  0.00  0.00    -0.107 A 
ATOM      5  C4  BZF d   1       0.366   1.704  -0.020  0.00  0.00     0.055 A 
ATOM      6  C5  BZF d   1      -0.614   0.871   0.418  0.00  0.00    -0.016 A 
ATOM      7  C6  BZF d   1      -0.346  -0.425   0.805  0.00  0.00     0.022 A 
ATOM      8  C7  BZF d   1       0.915  -0.923   0.774  0.00  0.00     0.029 A 
ATOM      9  C7A BZF d   1       1.912  -0.073   0.363  0.00  0.00     0.058 A 
ENDROOT
TORSDOF 0
ENDMDL
