MODEL 1
REMARK minimizedAffinity 14.0303774
REMARK minimizedRMSD -1
REMARK  0 active torsions:
REMARK  status: ('A' for Active; 'I' for Inactive)
ROOT
ATOM      1  O1  BZF d   1      -6.000  -1.801  -5.337  0.00  0.00    -0.204 OA
ATOM      2  C2  BZF d   1      -5.250  -2.949  -5.172  0.00  0.00     0.174 A 
ATOM      3  C3  BZF d   1      -4.306  -2.772  -4.225  0.00  0.00    -0.012 A 
ATOM      4  C3A BZF d   1      -4.537  -1.460  -3.704  0.00  0.00    -0.107 A 
ATOM      5  C4  BZF d   1      -3.934  -0.717  -2.729  0.00  0.00     0.055 A 
ATOM      6  C5  BZF d   1      -4.354   0.557  -2.515  0.00  0.00    -0.016 A 
ATOM      7  C6  BZF d   1      -5.368   1.123  -3.261  0.00  0.00     0.022 A 
ATOM      8  C7  BZF d   1      -5.999   0.424  -4.235  0.00  0.00     0.029 A 
ATOM      9  C7A BZF d   1      -5.599  -0.876  -4.431  0.00  0.00     0.058 A 
ENDROOT
TORSDOF 0
ENDMDL
