MODEL 1
REMARK minimizedAffinity 1.15771592
REMARK minimizedRMSD -1
REMARK  0 active torsions:
REMARK  status: ('A' for Active; 'I' for Inactive)
ROOT
ATOM      1  O1  BZF d   1      -4.240   0.755  -4.006  0.00  0.00    -0.204 OA
ATOM      2  C2  BZF d   1      -5.123   0.968  -2.965  0.00  0.00     0.174 A 
ATOM      3  C3  BZF d   1      -5.980  -0.066  -2.846  0.00  0.00    -0.012 A 
ATOM      4  C3A BZF d   1      -5.551  -1.024  -3.818  0.00  0.00    -0.107 A 
ATOM      5  C4  BZF d   1      -5.996  -2.267  -4.171  0.00  0.00     0.055 A 
ATOM      6  C5  BZF d   1      -5.402  -2.909  -5.211  0.00  0.00    -0.016 A 
ATOM      7  C6  BZF d   1      -4.366  -2.338  -5.921  0.00  0.00     0.022 A 
ATOM      8  C7  BZF d   1      -3.888  -1.110  -5.605  0.00  0.00     0.029 A 
ATOM      9  C7A BZF d   1      -4.464  -0.472  -4.534  0.00  0.00     0.058 A 
ENDROOT
TORSDOF 0
ENDMDL
