MODEL 1
REMARK minimizedAffinity 2.56007338
REMARK minimizedRMSD -1
REMARK  0 active torsions:
REMARK  status: ('A' for Active; 'I' for Inactive)
ROOT
ATOM      1  O1  BZF d   1      -0.064  -2.567   0.515  0.00  0.00    -0.204 OA
ATOM      2  C2  BZF d   1       1.072  -2.199   1.210  0.00  0.00     0.174 A 
ATOM      3  C3  BZF d   1       0.930  -0.966   1.738  0.00  0.00    -0.012 A 
ATOM      4  C3A BZF d   1      -0.411  -0.575   1.427  0.00  0.00    -0.107 A 
ATOM      5  C4  BZF d   1      -1.149   0.542   1.697  0.00  0.00     0.055 A 
ATOM      6  C5  BZF d   1      -2.405   0.642   1.187  0.00  0.00    -0.016 A 
ATOM      7  C6  BZF d   1      -2.951  -0.351   0.400  0.00  0.00     0.022 A 
ATOM      8  C7  BZF d   1      -2.258  -1.479   0.109  0.00  0.00     0.029 A 
ATOM      9  C7A BZF d   1      -1.001  -1.598   0.650  0.00  0.00     0.058 A 
ENDROOT
TORSDOF 0
ENDMDL
