MODEL 1
REMARK minimizedAffinity 7.61621952
REMARK minimizedRMSD -1
REMARK  0 active torsions:
REMARK  status: ('A' for Active; 'I' for Inactive)
ROOT
ATOM      1  O1  BZF d   1       1.690  -0.396   0.955  0.00  0.00    -0.204 OA
ATOM      2  C2  BZF d   1       2.528  -1.491   0.862  0.00  0.00     0.174 A 
ATOM      3  C3  BZF d   1       1.819  -2.618   0.646  0.00  0.00    -0.012 A 
ATOM      4  C3A BZF d   1       0.461  -2.188   0.508  0.00  0.00    -0.107 A 
ATOM      5  C4  BZF d   1      -0.711  -2.845   0.265  0.00  0.00     0.055 A 
ATOM      6  C5  BZF d   1      -1.874  -2.142   0.264  0.00  0.00    -0.016 A 
ATOM      7  C6  BZF d   1      -1.902  -0.784   0.507  0.00  0.00     0.022 A 
ATOM      8  C7  BZF d   1      -0.764  -0.088   0.749  0.00  0.00     0.029 A 
ATOM      9  C7A BZF d   1       0.416  -0.790   0.718  0.00  0.00     0.058 A 
ENDROOT
TORSDOF 0
ENDMDL
