MODEL 1
REMARK minimizedAffinity 16.0199776
REMARK minimizedRMSD -1
REMARK  0 active torsions:
REMARK  status: ('A' for Active; 'I' for Inactive)
ROOT
ATOM      1  O1  BZF d   1       5.168   2.720  -2.994  0.00  0.00    -0.204 OA
ATOM      2  C2  BZF d   1       4.572   1.501  -2.733  0.00  0.00     0.174 A 
ATOM      3  C3  BZF d   1       4.080   1.469  -1.478  0.00  0.00    -0.012 A 
ATOM      4  C3A BZF d   1       4.306   2.779  -0.951  0.00  0.00    -0.107 A 
ATOM      5  C4  BZF d   1       4.024   3.371   0.247  0.00  0.00     0.055 A 
ATOM      6  C5  BZF d   1       4.444   4.644   0.470  0.00  0.00    -0.016 A 
ATOM      7  C6  BZF d   1       5.152   5.352  -0.479  0.00  0.00     0.022 A 
ATOM      8  C7  BZF d   1       5.451   4.809  -1.684  0.00  0.00     0.029 A 
ATOM      9  C7A BZF d   1       5.000   3.534  -1.925  0.00  0.00     0.058 A 
ENDROOT
TORSDOF 0
ENDMDL
