MODEL 1
REMARK minimizedAffinity 14.706399
REMARK minimizedRMSD -1
REMARK  0 active torsions:
REMARK  status: ('A' for Active; 'I' for Inactive)
ROOT
ATOM      1  O1  BZF d   1      -0.281  -0.388   2.727  0.00  0.00    -0.204 OA
ATOM      2  C2  BZF d   1       0.738  -1.320   2.766  0.00  0.00     0.174 A 
ATOM      3  C3  BZF d   1       0.445  -2.381   1.987  0.00  0.00    -0.012 A 
ATOM      4  C3A BZF d   1      -0.795  -2.052   1.353  0.00  0.00    -0.107 A 
ATOM      5  C4  BZF d   1      -1.589  -2.701   0.452  0.00  0.00     0.055 A 
ATOM      6  C5  BZF d   1      -2.772  -2.139   0.090  0.00  0.00    -0.016 A 
ATOM      7  C6  BZF d   1      -3.194  -0.934   0.612  0.00  0.00     0.022 A 
ATOM      8  C7  BZF d   1      -2.437  -0.250   1.505  0.00  0.00     0.029 A 
ATOM      9  C7A BZF d   1      -1.226  -0.800   1.848  0.00  0.00     0.058 A 
ENDROOT
TORSDOF 0
ENDMDL
