MODEL 1
REMARK minimizedAffinity 8.89989471
REMARK minimizedRMSD -1
REMARK  0 active torsions:
REMARK  status: ('A' for Active; 'I' for Inactive)
ROOT
ATOM      1  O1  BZF d   1      -0.500  -2.511   1.073  0.00  0.00    -0.204 OA
ATOM      2  C2  BZF d   1       0.680  -2.150   1.695  0.00  0.00     0.174 A 
ATOM      3  C3  BZF d   1       0.727  -0.817   1.894  0.00  0.00    -0.012 A 
ATOM      4  C3A BZF d   1      -0.540  -0.325   1.447  0.00  0.00    -0.107 A 
ATOM      5  C4  BZF d   1      -1.102   0.919   1.403  0.00  0.00     0.055 A 
ATOM      6  C5  BZF d   1      -2.329   1.070   0.839  0.00  0.00    -0.016 A 
ATOM      7  C6  BZF d   1      -3.019   0.002   0.306  0.00  0.00     0.022 A 
ATOM      8  C7  BZF d   1      -2.505  -1.252   0.330  0.00  0.00     0.029 A 
ATOM      9  C7A BZF d   1      -1.280  -1.413   0.929  0.00  0.00     0.058 A 
ENDROOT
TORSDOF 0
ENDMDL
