MODEL 1
REMARK minimizedAffinity 3.49636626
REMARK minimizedRMSD -1
REMARK  0 active torsions:
REMARK  status: ('A' for Active; 'I' for Inactive)
ROOT
ATOM      1  O1  BZF d   1       1.895  -1.369   0.298  0.00  0.00    -0.204 OA
ATOM      2  C2  BZF d   1       1.426  -2.543   0.854  0.00  0.00     0.174 A 
ATOM      3  C3  BZF d   1       0.160  -2.392   1.295  0.00  0.00    -0.012 A 
ATOM      4  C3A BZF d   1      -0.216  -1.065   0.912  0.00  0.00    -0.107 A 
ATOM      5  C4  BZF d   1      -1.361  -0.336   1.056  0.00  0.00     0.055 A 
ATOM      6  C5  BZF d   1      -1.378   0.957   0.635  0.00  0.00    -0.016 A 
ATOM      7  C6  BZF d   1      -0.268   1.552   0.073  0.00  0.00     0.022 A 
ATOM      8  C7  BZF d   1       0.889   0.866  -0.095  0.00  0.00     0.029 A 
ATOM      9  C7A BZF d   1       0.900  -0.449   0.298  0.00  0.00     0.058 A 
ENDROOT
TORSDOF 0
ENDMDL
