MODEL 1
REMARK minimizedAffinity 12.0754271
REMARK minimizedRMSD -1
REMARK  0 active torsions:
REMARK  status: ('A' for Active; 'I' for Inactive)
ROOT
ATOM      1  O1  BZF d   1       1.885   1.105   0.300  0.00  0.00    -0.204 OA
ATOM      2  C2  BZF d   1       2.944   1.987   0.399  0.00  0.00     0.174 A 
ATOM      3  C3  BZF d   1       4.114   1.321   0.482  0.00  0.00    -0.012 A 
ATOM      4  C3A BZF d   1       3.772  -0.060   0.338  0.00  0.00    -0.107 A 
ATOM      5  C4  BZF d   1       4.505  -1.212   0.318  0.00  0.00     0.055 A 
ATOM      6  C5  BZF d   1       3.860  -2.405   0.235  0.00  0.00    -0.016 A 
ATOM      7  C6  BZF d   1       2.484  -2.483   0.174  0.00  0.00     0.022 A 
ATOM      8  C7  BZF d   1       1.714  -1.368   0.184  0.00  0.00     0.029 A 
ATOM      9  C7A BZF d   1       2.365  -0.160   0.236  0.00  0.00     0.058 A 
ENDROOT
TORSDOF 0
ENDMDL
