MODEL 1
REMARK minimizedAffinity -0.0693519861
REMARK minimizedRMSD -1
REMARK  0 active torsions:
REMARK  status: ('A' for Active; 'I' for Inactive)
ROOT
ATOM      1  O1  BZF d   1       0.178  -0.888   1.359  0.00  0.00    -0.204 OA
ATOM      2  C2  BZF d   1      -0.476  -2.062   1.039  0.00  0.00     0.174 A 
ATOM      3  C3  BZF d   1      -1.351  -1.864   0.032  0.00  0.00    -0.012 A 
ATOM      4  C3A BZF d   1      -1.170  -0.500  -0.360  0.00  0.00    -0.107 A 
ATOM      5  C4  BZF d   1      -1.742   0.285  -1.320  0.00  0.00     0.055 A 
ATOM      6  C5  BZF d   1      -1.395   1.597  -1.394  0.00  0.00    -0.016 A 
ATOM      7  C6  BZF d   1      -0.485   2.157  -0.523  0.00  0.00     0.022 A 
ATOM      8  C7  BZF d   1       0.113   1.418   0.443  0.00  0.00     0.029 A 
ATOM      9  C7A BZF d   1      -0.211   0.084   0.500  0.00  0.00     0.058 A 
ENDROOT
TORSDOF 0
ENDMDL
