MODEL 1
REMARK minimizedAffinity 3.72489691
REMARK minimizedRMSD -1
REMARK  0 active torsions:
REMARK  status: ('A' for Active; 'I' for Inactive)
ROOT
ATOM      1  O1  BZF d   1      -0.273  -0.731   3.894  0.00  0.00    -0.204 OA
ATOM      2  C2  BZF d   1       0.687  -1.624   3.462  0.00  0.00     0.174 A 
ATOM      3  C3  BZF d   1       0.531  -1.898   2.150  0.00  0.00    -0.012 A 
ATOM      4  C3A BZF d   1      -0.541  -1.056   1.716  0.00  0.00    -0.107 A 
ATOM      5  C4  BZF d   1      -1.152  -0.860   0.510  0.00  0.00     0.055 A 
ATOM      6  C5  BZF d   1      -2.217  -0.020   0.438  0.00  0.00    -0.016 A 
ATOM      7  C6  BZF d   1      -2.701   0.636   1.551  0.00  0.00     0.022 A 
ATOM      8  C7  BZF d   1      -2.126   0.478   2.767  0.00  0.00     0.029 A 
ATOM      9  C7A BZF d   1      -1.028  -0.345   2.837  0.00  0.00     0.058 A 
ENDROOT
TORSDOF 0
ENDMDL
