MODEL 1
REMARK minimizedAffinity 11.7480898
REMARK minimizedRMSD -1
REMARK  0 active torsions:
REMARK  status: ('A' for Active; 'I' for Inactive)
ROOT
ATOM      1  O1  BZF d   1       0.398  -2.626   1.581  0.00  0.00    -0.204 OA
ATOM      2  C2  BZF d   1       1.199  -1.713   2.239  0.00  0.00     0.174 A 
ATOM      3  C3  BZF d   1       0.614  -0.499   2.272  0.00  0.00    -0.012 A 
ATOM      4  C3A BZF d   1      -0.672  -0.684   1.673  0.00  0.00    -0.107 A 
ATOM      5  C4  BZF d   1      -1.724   0.152   1.431  0.00  0.00     0.055 A 
ATOM      6  C5  BZF d   1      -2.807  -0.326   0.762  0.00  0.00    -0.016 A 
ATOM      7  C6  BZF d   1      -2.868  -1.630   0.317  0.00  0.00     0.022 A 
ATOM      8  C7  BZF d   1      -1.851  -2.498   0.537  0.00  0.00     0.029 A 
ATOM      9  C7A BZF d   1      -0.770  -2.027   1.242  0.00  0.00     0.058 A 
ENDROOT
TORSDOF 0
ENDMDL
