MODEL 1
REMARK minimizedAffinity 4.78015661
REMARK minimizedRMSD -1
REMARK  0 active torsions:
REMARK  status: ('A' for Active; 'I' for Inactive)
ROOT
ATOM      1  O1  BZF d   1       4.614   2.229   0.238  0.00  0.00    -0.204 OA
ATOM      2  C2  BZF d   1       3.783   1.608   1.150  0.00  0.00     0.174 A 
ATOM      3  C3  BZF d   1       2.800   0.933   0.519  0.00  0.00    -0.012 A 
ATOM      4  C3A BZF d   1       3.086   1.069  -0.876  0.00  0.00    -0.107 A 
ATOM      5  C4  BZF d   1       2.478   0.606  -2.008  0.00  0.00     0.055 A 
ATOM      6  C5  BZF d   1       2.967   0.980  -3.220  0.00  0.00    -0.016 A 
ATOM      7  C6  BZF d   1       4.057   1.818  -3.336  0.00  0.00     0.022 A 
ATOM      8  C7  BZF d   1       4.695   2.299  -2.242  0.00  0.00     0.029 A 
ATOM      9  C7A BZF d   1       4.224   1.897  -1.016  0.00  0.00     0.058 A 
ENDROOT
TORSDOF 0
ENDMDL
