MODEL 1
REMARK minimizedAffinity 1.07831764
REMARK minimizedRMSD -1
REMARK  0 active torsions:
REMARK  status: ('A' for Active; 'I' for Inactive)
ROOT
ATOM      1  O1  BZF d   1       3.812   1.600   2.048  0.00  0.00    -0.204 OA
ATOM      2  C2  BZF d   1       4.098   1.041   0.817  0.00  0.00     0.174 A 
ATOM      3  C3  BZF d   1       4.634   1.959  -0.013  0.00  0.00    -0.012 A 
ATOM      4  C3A BZF d   1       4.771   3.145   0.776  0.00  0.00    -0.107 A 
ATOM      5  C4  BZF d   1       5.256   4.395   0.516  0.00  0.00     0.055 A 
ATOM      6  C5  BZF d   1       5.180   5.347   1.483  0.00  0.00    -0.016 A 
ATOM      7  C6  BZF d   1       4.621   5.086   2.717  0.00  0.00     0.022 A 
ATOM      8  C7  BZF d   1       4.131   3.860   3.023  0.00  0.00     0.029 A 
ATOM      9  C7A BZF d   1       4.236   2.886   2.060  0.00  0.00     0.058 A 
ENDROOT
TORSDOF 0
ENDMDL
