MODEL 1
REMARK minimizedAffinity 12.480814
REMARK minimizedRMSD -1
REMARK  0 active torsions:
REMARK  status: ('A' for Active; 'I' for Inactive)
ROOT
ATOM      1  O1  BZF d   1      -0.209  -2.584   0.435  0.00  0.00    -0.204 OA
ATOM      2  C2  BZF d   1       0.763  -2.238   1.353  0.00  0.00     0.174 A 
ATOM      3  C3  BZF d   1       0.515  -1.021   1.877  0.00  0.00    -0.012 A 
ATOM      4  C3A BZF d   1      -0.737  -0.617   1.316  0.00  0.00    -0.107 A 
ATOM      5  C4  BZF d   1      -1.519   0.493   1.465  0.00  0.00     0.055 A 
ATOM      6  C5  BZF d   1      -2.648   0.610   0.718  0.00  0.00    -0.016 A 
ATOM      7  C6  BZF d   1      -3.022  -0.359  -0.190  0.00  0.00     0.022 A 
ATOM      8  C7  BZF d   1      -2.282  -1.480  -0.369  0.00  0.00     0.029 A 
ATOM      9  C7A BZF d   1      -1.158  -1.617   0.409  0.00  0.00     0.058 A 
ENDROOT
TORSDOF 0
ENDMDL
