MODEL 1
REMARK minimizedAffinity 6.92302084
REMARK minimizedRMSD -1
REMARK  2 active torsions:
REMARK  status: ('A' for Active; 'I' for Inactive)
REMARK    1  A    between atoms: C2'_3  and  C1'_4 
REMARK    2  A    between atoms: C1'_4  and  C1_5 
ROOT
ATOM      1  C1  I4B d   1       4.367  -4.009   3.734  0.00  0.00    -0.075 A 
ATOM      2  C2  I4B d   1       5.120  -2.866   3.627  0.00  0.00     0.003 A 
ATOM      3  C3  I4B d   1       5.922  -2.436   4.712  0.00  0.00     0.002 A 
ATOM      4  C4  I4B d   1       5.903  -3.147   5.895  0.00  0.00    -0.004 A 
ATOM      5  C5  I4B d   1       5.157  -4.318   5.994  0.00  0.00     0.002 A 
ATOM      6  C6  I4B d   1       4.394  -4.759   4.903  0.00  0.00     0.003 A 
ENDROOT
BRANCH   1   7
ATOM      7  C1' I4B d   1       3.506  -4.415   2.581  0.00  0.00     0.060 C 
BRANCH   7   8
ATOM      8  C2' I4B d   1       3.361  -3.219   1.662  0.00  0.00    -0.013 C 
ATOM      9  C4' I4B d   1       3.943  -3.502   0.303  0.00  0.00     0.013 C 
ATOM     10  C3' I4B d   1       1.902  -2.883   1.568  0.00  0.00     0.013 C 
ENDBRANCH   7   8
ENDBRANCH   1   7
TORSDOF 2
ENDMDL
