MODEL 1
REMARK minimizedAffinity 4.29252577
REMARK minimizedRMSD -1
REMARK  2 active torsions:
REMARK  status: ('A' for Active; 'I' for Inactive)
REMARK    1  A    between atoms: C2'_3  and  C1'_4 
REMARK    2  A    between atoms: C1'_4  and  C1_5 
ROOT
ATOM      1  C1  I4B d   1       3.464  -1.613  -0.257  0.00  0.00    -0.075 A 
ATOM      2  C2  I4B d   1       3.506  -2.975  -0.087  0.00  0.00     0.003 A 
ATOM      3  C3  I4B d   1       4.728  -3.617   0.226  0.00  0.00     0.002 A 
ATOM      4  C4  I4B d   1       5.886  -2.870   0.310  0.00  0.00    -0.004 A 
ATOM      5  C5  I4B d   1       5.838  -1.487   0.160  0.00  0.00     0.002 A 
ATOM      6  C6  I4B d   1       4.617  -0.853  -0.113  0.00  0.00     0.003 A 
ENDROOT
BRANCH   1   7
ATOM      7  C1' I4B d   1       2.162  -0.972  -0.620  0.00  0.00     0.060 C 
BRANCH   7   8
ATOM      8  C2' I4B d   1       2.445   0.117  -1.636  0.00  0.00    -0.013 C 
ATOM      9  C4' I4B d   1       1.179   0.579  -2.306  0.00  0.00     0.013 C 
ATOM     10  C3' I4B d   1       3.126   1.248  -0.924  0.00  0.00     0.013 C 
ENDBRANCH   7   8
ENDBRANCH   1   7
TORSDOF 2
ENDMDL
