MODEL 1
REMARK minimizedAffinity 0.575921357
REMARK minimizedRMSD -1
REMARK  2 active torsions:
REMARK  status: ('A' for Active; 'I' for Inactive)
REMARK    1  A    between atoms: C2'_3  and  C1'_4 
REMARK    2  A    between atoms: C1'_4  and  C1_5 
ROOT
ATOM      1  C1  I4B d   1       3.688  -3.438   2.774  0.00  0.00    -0.075 A 
ATOM      2  C2  I4B d   1       2.747  -2.529   3.191  0.00  0.00     0.003 A 
ATOM      3  C3  I4B d   1       1.619  -2.248   2.383  0.00  0.00     0.002 A 
ATOM      4  C4  I4B d   1       1.498  -2.857   1.150  0.00  0.00    -0.004 A 
ATOM      5  C5  I4B d   1       2.441  -3.795   0.739  0.00  0.00     0.002 A 
ATOM      6  C6  I4B d   1       3.536  -4.097   1.561  0.00  0.00     0.003 A 
ENDROOT
BRANCH   1   7
ATOM      7  C1' I4B d   1       4.884  -3.686   3.638  0.00  0.00     0.060 C 
BRANCH   7   8
ATOM      8  C2' I4B d   1       4.551  -3.218   5.040  0.00  0.00    -0.013 C 
ATOM      9  C4' I4B d   1       4.484  -4.377   5.999  0.00  0.00     0.013 C 
ATOM     10  C3' I4B d   1       5.598  -2.229   5.458  0.00  0.00     0.013 C 
ENDBRANCH   7   8
ENDBRANCH   1   7
TORSDOF 2
ENDMDL
