MODEL 1
REMARK minimizedAffinity -2.26579952
REMARK minimizedRMSD -1
REMARK  2 active torsions:
REMARK  status: ('A' for Active; 'I' for Inactive)
REMARK    1  A    between atoms: C2'_3  and  C1'_4 
REMARK    2  A    between atoms: C1'_4  and  C1_5 
ROOT
ATOM      1  C1  I4B d   1       3.401  -1.928  -0.179  0.00  0.00    -0.075 A 
ATOM      2  C2  I4B d   1       4.161  -3.071  -0.157  0.00  0.00     0.003 A 
ATOM      3  C3  I4B d   1       3.713  -4.211   0.555  0.00  0.00     0.002 A 
ATOM      4  C4  I4B d   1       2.532  -4.147   1.266  0.00  0.00    -0.004 A 
ATOM      5  C5  I4B d   1       1.752  -2.995   1.223  0.00  0.00     0.002 A 
ATOM      6  C6  I4B d   1       2.183  -1.883   0.486  0.00  0.00     0.003 A 
ENDROOT
BRANCH   1   7
ATOM      7  C1' I4B d   1       3.920  -0.732  -0.913  0.00  0.00     0.060 C 
BRANCH   7   8
ATOM      8  C2' I4B d   1       2.833   0.324  -0.912  0.00  0.00    -0.013 C 
ATOM      9  C4' I4B d   1       3.378   1.666  -0.500  0.00  0.00     0.013 C 
ATOM     10  C3' I4B d   1       2.240   0.379  -2.288  0.00  0.00     0.013 C 
ENDBRANCH   7   8
ENDBRANCH   1   7
TORSDOF 2
ENDMDL
