MODEL 1
REMARK minimizedAffinity 1.82930505
REMARK minimizedRMSD -1
REMARK  2 active torsions:
REMARK  status: ('A' for Active; 'I' for Inactive)
REMARK    1  A    between atoms: C2'_3  and  C1'_4 
REMARK    2  A    between atoms: C1'_4  and  C1_5 
ROOT
ATOM      1  C1  I4B d   1       3.308  -3.552   3.844  0.00  0.00    -0.075 A 
ATOM      2  C2  I4B d   1       3.426  -2.693   4.908  0.00  0.00     0.003 A 
ATOM      3  C3  I4B d   1       4.274  -3.017   5.995  0.00  0.00     0.002 A 
ATOM      4  C4  I4B d   1       4.941  -4.226   6.000  0.00  0.00    -0.004 A 
ATOM      5  C5  I4B d   1       4.837  -5.085   4.910  0.00  0.00     0.002 A 
ATOM      6  C6  I4B d   1       4.025  -4.741   3.819  0.00  0.00     0.003 A 
ENDROOT
BRANCH   1   7
ATOM      7  C1' I4B d   1       2.378  -3.194   2.728  0.00  0.00     0.060 C 
BRANCH   7   8
ATOM      8  C2' I4B d   1       1.022  -2.888   3.330  0.00  0.00    -0.013 C 
ATOM      9  C4' I4B d   1       0.489  -1.571   2.833  0.00  0.00     0.013 C 
ATOM     10  C3' I4B d   1       0.095  -4.014   2.980  0.00  0.00     0.013 C 
ENDBRANCH   7   8
ENDBRANCH   1   7
TORSDOF 2
ENDMDL
