MODEL 1
REMARK minimizedAffinity 0.0477022193
REMARK minimizedRMSD -1
REMARK  2 active torsions:
REMARK  status: ('A' for Active; 'I' for Inactive)
REMARK    1  A    between atoms: C2'_3  and  C1'_4 
REMARK    2  A    between atoms: C1'_4  and  C1_5 
ROOT
ATOM      1  C1  I4B d   1       0.642  -1.812   1.591  0.00  0.00    -0.075 A 
ATOM      2  C2  I4B d   1      -0.146  -1.934   2.708  0.00  0.00     0.003 A 
ATOM      3  C3  I4B d   1      -0.199  -3.162   3.412  0.00  0.00     0.002 A 
ATOM      4  C4  I4B d   1       0.508  -4.248   2.939  0.00  0.00    -0.004 A 
ATOM      5  C5  I4B d   1       1.325  -4.115   1.819  0.00  0.00     0.002 A 
ATOM      6  C6  I4B d   1       1.402  -2.887   1.148  0.00  0.00     0.003 A 
ENDROOT
BRANCH   1   7
ATOM      7  C1' I4B d   1       0.649  -0.511   0.853  0.00  0.00     0.060 C 
BRANCH   7   8
ATOM      8  C2' I4B d   1       1.353  -0.729  -0.471  0.00  0.00    -0.013 C 
ATOM      9  C4' I4B d   1       0.466  -0.355  -1.629  0.00  0.00     0.013 C 
ATOM     10  C3' I4B d   1       2.611   0.088  -0.465  0.00  0.00     0.013 C 
ENDBRANCH   7   8
ENDBRANCH   1   7
TORSDOF 2
ENDMDL
