MODEL 1
REMARK minimizedAffinity 0.283696741
REMARK minimizedRMSD -1
REMARK  0 active torsions:
REMARK  status: ('A' for Active; 'I' for Inactive)
ROOT
ATOM      1  C   UNL d   1      -1.315   2.658   0.086  0.00  0.00     0.023 A 
ATOM      2  C1  UNL d   1      -2.106   2.684   1.235  0.00  0.00     0.003 A 
ATOM      3  C2  UNL d   1      -2.127   1.584   2.095  0.00  0.00     0.048 A 
ATOM      4  C3  UNL d   1      -1.354   0.462   1.800  0.00  0.00     0.023 A 
ATOM      5  C4  UNL d   1      -0.561   0.431   0.652  0.00  0.00     0.048 A 
ATOM      6  C5  UNL d   1      -0.544   1.533  -0.205  0.00  0.00     0.003 A 
ATOM      7  I   UNL d   1      -1.383  -1.177   3.078  0.00  0.00    -0.146 I 
ENDROOT
TORSDOF 0
ENDMDL
