MODEL 1
REMARK minimizedAffinity -0.35278666
REMARK minimizedRMSD -1
REMARK  0 active torsions:
REMARK  status: ('A' for Active; 'I' for Inactive)
ROOT
ATOM      1  C   UNL d   1      -2.137   2.289   1.497  0.00  0.00     0.023 A 
ATOM      2  C1  UNL d   1      -1.489   1.334   2.280  0.00  0.00     0.003 A 
ATOM      3  C2  UNL d   1      -0.413   0.614   1.758  0.00  0.00     0.048 A 
ATOM      4  C3  UNL d   1       0.011   0.854   0.451  0.00  0.00     0.023 A 
ATOM      5  C4  UNL d   1      -0.634   1.810  -0.336  0.00  0.00     0.048 A 
ATOM      6  C5  UNL d   1      -1.710   2.527   0.190  0.00  0.00     0.003 A 
ATOM      7  I   UNL d   1       1.612  -0.217  -0.329  0.00  0.00    -0.146 I 
ENDROOT
TORSDOF 0
ENDMDL
