MODEL 1
REMARK minimizedAffinity 0.432844847
REMARK minimizedRMSD -1
REMARK  0 active torsions:
REMARK  status: ('A' for Active; 'I' for Inactive)
ROOT
ATOM      1  C   UNL d   1      -1.190   2.364   2.616  0.00  0.00     0.023 A 
ATOM      2  C1  UNL d   1      -0.907   1.019   2.375  0.00  0.00     0.003 A 
ATOM      3  C2  UNL d   1      -1.785   0.245   1.614  0.00  0.00     0.048 A 
ATOM      4  C3  UNL d   1      -2.944   0.821   1.096  0.00  0.00     0.023 A 
ATOM      5  C4  UNL d   1      -3.231   2.167   1.334  0.00  0.00     0.048 A 
ATOM      6  C5  UNL d   1      -2.350   2.937   2.096  0.00  0.00     0.003 A 
ATOM      7  I   UNL d   1      -4.252  -0.329  -0.037  0.00  0.00    -0.146 I 
ENDROOT
TORSDOF 0
ENDMDL
