MODEL 1
REMARK minimizedAffinity 8.71662712
REMARK minimizedRMSD -1
REMARK  0 active torsions:
REMARK  status: ('A' for Active; 'I' for Inactive)
ROOT
ATOM      1  C   UNL d   1      -2.525   2.393   1.770  0.00  0.00     0.023 A 
ATOM      2  C1  UNL d   1      -1.325   1.786   2.140  0.00  0.00     0.003 A 
ATOM      3  C2  UNL d   1      -0.397   1.418   1.163  0.00  0.00     0.048 A 
ATOM      4  C3  UNL d   1      -0.675   1.662  -0.181  0.00  0.00     0.023 A 
ATOM      5  C4  UNL d   1      -1.875   2.270  -0.556  0.00  0.00     0.048 A 
ATOM      6  C5  UNL d   1      -2.800   2.635   0.424  0.00  0.00     0.003 A 
ATOM      7  I   UNL d   1       0.704   1.117  -1.637  0.00  0.00    -0.146 I 
ENDROOT
TORSDOF 0
ENDMDL
