MODEL 1
REMARK minimizedAffinity 4.98469162
REMARK minimizedRMSD -1
REMARK  0 active torsions:
REMARK  status: ('A' for Active; 'I' for Inactive)
ROOT
ATOM      1  C   UNL d   1      -1.856   1.349   2.862  0.00  0.00     0.023 A 
ATOM      2  C1  UNL d   1      -0.533   0.956   2.660  0.00  0.00     0.003 A 
ATOM      3  C2  UNL d   1       0.087   1.194   1.432  0.00  0.00     0.048 A 
ATOM      4  C3  UNL d   1      -0.621   1.828   0.411  0.00  0.00     0.023 A 
ATOM      5  C4  UNL d   1      -1.944   2.224   0.609  0.00  0.00     0.048 A 
ATOM      6  C5  UNL d   1      -2.561   1.982   1.838  0.00  0.00     0.003 A 
ATOM      7  I   UNL d   1       0.301   2.184  -1.418  0.00  0.00    -0.146 I 
ENDROOT
TORSDOF 0
ENDMDL
