MODEL 1
REMARK minimizedAffinity 11.1846161
REMARK minimizedRMSD -1
REMARK  0 active torsions:
REMARK  status: ('A' for Active; 'I' for Inactive)
ROOT
ATOM      1  C   UNL d   1       2.143  -1.263  -5.710  0.00  0.00     0.023 A 
ATOM      2  C1  UNL d   1       3.377  -0.616  -5.634  0.00  0.00     0.003 A 
ATOM      3  C2  UNL d   1       4.482  -1.277  -5.095  0.00  0.00     0.048 A 
ATOM      4  C3  UNL d   1       4.347  -2.587  -4.634  0.00  0.00     0.023 A 
ATOM      5  C4  UNL d   1       3.115  -3.238  -4.708  0.00  0.00     0.048 A 
ATOM      6  C5  UNL d   1       2.012  -2.572  -5.248  0.00  0.00     0.003 A 
ATOM      7  I   UNL d   1       5.990  -3.574  -3.831  0.00  0.00    -0.146 I 
ENDROOT
TORSDOF 0
ENDMDL
