MODEL 1
REMARK minimizedAffinity -0.0496622063
REMARK minimizedRMSD -1
REMARK  0 active torsions:
REMARK  status: ('A' for Active; 'I' for Inactive)
ROOT
ATOM      1  C   UNL d   1      -2.379   2.154   1.515  0.00  0.00     0.023 A 
ATOM      2  C1  UNL d   1      -2.251   2.240   0.128  0.00  0.00     0.003 A 
ATOM      3  C2  UNL d   1      -1.137   1.687  -0.507  0.00  0.00     0.048 A 
ATOM      4  C3  UNL d   1      -0.156   1.048   0.250  0.00  0.00     0.023 A 
ATOM      5  C4  UNL d   1      -0.280   0.959   1.637  0.00  0.00     0.048 A 
ATOM      6  C5  UNL d   1      -1.395   1.514   2.268  0.00  0.00     0.003 A 
ATOM      7  I   UNL d   1       1.503   0.224  -0.693  0.00  0.00    -0.146 I 
ENDROOT
TORSDOF 0
ENDMDL
