MODEL 1
REMARK minimizedAffinity 5.72018814
REMARK minimizedRMSD -1
REMARK  0 active torsions:
REMARK  status: ('A' for Active; 'I' for Inactive)
ROOT
ATOM      1  C   UNL d   1      -2.561   2.107   2.350  0.00  0.00     0.023 A 
ATOM      2  C1  UNL d   1      -2.897   2.454   1.042  0.00  0.00     0.003 A 
ATOM      3  C2  UNL d   1      -2.026   2.153  -0.007  0.00  0.00     0.048 A 
ATOM      4  C3  UNL d   1      -0.821   1.504   0.259  0.00  0.00     0.023 A 
ATOM      5  C4  UNL d   1      -0.481   1.153   1.567  0.00  0.00     0.048 A 
ATOM      6  C5  UNL d   1      -1.355   1.457   2.613  0.00  0.00     0.003 A 
ATOM      7  I   UNL d   1       0.477   1.054  -1.301  0.00  0.00    -0.146 I 
ENDROOT
TORSDOF 0
ENDMDL
