MODEL 1
REMARK minimizedAffinity 7.41682577
REMARK minimizedRMSD -1
REMARK  0 active torsions:
REMARK  status: ('A' for Active; 'I' for Inactive)
ROOT
ATOM      1  C   UNL d   1      -2.229   2.311  -0.645  0.00  0.00     0.023 A 
ATOM      2  C1  UNL d   1      -2.958   2.539   0.522  0.00  0.00     0.003 A 
ATOM      3  C2  UNL d   1      -2.307   2.582   1.757  0.00  0.00     0.048 A 
ATOM      4  C3  UNL d   1      -0.926   2.397   1.817  0.00  0.00     0.023 A 
ATOM      5  C4  UNL d   1      -0.192   2.170   0.652  0.00  0.00     0.048 A 
ATOM      6  C5  UNL d   1      -0.847   2.127  -0.580  0.00  0.00     0.003 A 
ATOM      7  I   UNL d   1       0.046   2.460   3.653  0.00  0.00    -0.146 I 
ENDROOT
TORSDOF 0
ENDMDL
