MODEL 1
REMARK minimizedAffinity 7.03288746
REMARK minimizedRMSD -1
REMARK  0 active torsions:
REMARK  status: ('A' for Active; 'I' for Inactive)
ROOT
ATOM      1  C   UNL d   1       5.991  -3.388   1.148  0.00  0.00     0.023 A 
ATOM      2  C1  UNL d   1       5.780  -4.765   1.223  0.00  0.00     0.003 A 
ATOM      3  C2  UNL d   1       5.556  -5.503   0.058  0.00  0.00     0.048 A 
ATOM      4  C3  UNL d   1       5.544  -4.857  -1.178  0.00  0.00     0.023 A 
ATOM      5  C4  UNL d   1       5.756  -3.479  -1.257  0.00  0.00     0.048 A 
ATOM      6  C5  UNL d   1       5.979  -2.746  -0.090  0.00  0.00     0.003 A 
ATOM      7  I   UNL d   1       5.211  -5.952  -2.912  0.00  0.00    -0.146 I 
ENDROOT
TORSDOF 0
ENDMDL
