MODEL 1
REMARK minimizedAffinity 8.27209091
REMARK minimizedRMSD -1
REMARK  0 active torsions:
REMARK  status: ('A' for Active; 'I' for Inactive)
ROOT
ATOM      1  C   UNL d   1      -0.984  -0.821  -2.671  0.00  0.00     0.023 A 
ATOM      2  C1  UNL d   1       0.026  -0.086  -2.050  0.00  0.00     0.003 A 
ATOM      3  C2  UNL d   1      -0.298   0.867  -1.082  0.00  0.00     0.048 A 
ATOM      4  C3  UNL d   1      -1.633   1.079  -0.739  0.00  0.00     0.023 A 
ATOM      5  C4  UNL d   1      -2.646   0.344  -1.358  0.00  0.00     0.048 A 
ATOM      6  C5  UNL d   1      -2.318  -0.607  -2.325  0.00  0.00     0.003 A 
ATOM      7  I   UNL d   1      -2.117   2.496   0.702  0.00  0.00    -0.146 I 
ENDROOT
TORSDOF 0
ENDMDL
