MODEL 1
REMARK minimizedAffinity 11.0175352
REMARK minimizedRMSD -1
REMARK  0 active torsions:
REMARK  status: ('A' for Active; 'I' for Inactive)
ROOT
ATOM      1  C   UNL d   1      -3.418   1.923   1.105  0.00  0.00     0.023 A 
ATOM      2  C1  UNL d   1      -2.986   1.072   2.122  0.00  0.00     0.003 A 
ATOM      3  C2  UNL d   1      -1.713   1.230   2.674  0.00  0.00     0.048 A 
ATOM      4  C3  UNL d   1      -0.877   2.243   2.205  0.00  0.00     0.023 A 
ATOM      5  C4  UNL d   1      -1.305   3.097   1.188  0.00  0.00     0.048 A 
ATOM      6  C5  UNL d   1      -2.578   2.934   0.638  0.00  0.00     0.003 A 
ATOM      7  I   UNL d   1       1.017   2.481   3.025  0.00  0.00    -0.146 I 
ENDROOT
TORSDOF 0
ENDMDL
