MODEL 1
REMARK minimizedAffinity 8.71959782
REMARK minimizedRMSD -1
REMARK  0 active torsions:
REMARK  status: ('A' for Active; 'I' for Inactive)
ROOT
ATOM      1  C   UNL d   1      -3.188   2.482   0.849  0.00  0.00     0.023 A 
ATOM      2  C1  UNL d   1      -2.140   3.375   0.623  0.00  0.00     0.003 A 
ATOM      3  C2  UNL d   1      -0.950   3.253   1.343  0.00  0.00     0.048 A 
ATOM      4  C3  UNL d   1      -0.813   2.236   2.287  0.00  0.00     0.023 A 
ATOM      5  C4  UNL d   1      -1.859   1.340   2.516  0.00  0.00     0.048 A 
ATOM      6  C5  UNL d   1      -3.047   1.466   1.795  0.00  0.00     0.003 A 
ATOM      7  I   UNL d   1       0.957   2.053   3.360  0.00  0.00    -0.146 I 
ENDROOT
TORSDOF 0
ENDMDL
