MODEL 1
REMARK minimizedAffinity 4.41351604
REMARK minimizedRMSD -1
REMARK  0 active torsions:
REMARK  status: ('A' for Active; 'I' for Inactive)
ROOT
ATOM      1  C   UNL d   1       4.655  -1.258   0.368  0.00  0.00     0.023 A 
ATOM      2  C1  UNL d   1       5.789  -2.008   0.680  0.00  0.00     0.003 A 
ATOM      3  C2  UNL d   1       5.655  -3.315   1.153  0.00  0.00     0.048 A 
ATOM      4  C3  UNL d   1       4.384  -3.867   1.311  0.00  0.00     0.023 A 
ATOM      5  C4  UNL d   1       3.247  -3.120   1.000  0.00  0.00     0.048 A 
ATOM      6  C5  UNL d   1       3.385  -1.814   0.528  0.00  0.00     0.003 A 
ATOM      7  I   UNL d   1       4.182  -5.812   2.015  0.00  0.00    -0.146 I 
ENDROOT
TORSDOF 0
ENDMDL
