MODEL 1
REMARK minimizedAffinity 2.81971693
REMARK minimizedRMSD -1
REMARK  0 active torsions:
REMARK  status: ('A' for Active; 'I' for Inactive)
ROOT
ATOM      1  C   UNL d   1       5.930  -1.905   0.749  0.00  0.00     0.023 A 
ATOM      2  C1  UNL d   1       4.690  -1.269   0.795  0.00  0.00     0.003 A 
ATOM      3  C2  UNL d   1       3.515  -2.024   0.768  0.00  0.00     0.048 A 
ATOM      4  C3  UNL d   1       3.589  -3.414   0.695  0.00  0.00     0.023 A 
ATOM      5  C4  UNL d   1       4.828  -4.055   0.649  0.00  0.00     0.048 A 
ATOM      6  C5  UNL d   1       5.999  -3.296   0.676  0.00  0.00     0.003 A 
ATOM      7  I   UNL d   1       1.842  -4.540   0.655  0.00  0.00    -0.146 I 
ENDROOT
TORSDOF 0
ENDMDL
