MODEL 1
REMARK minimizedAffinity -1.08803475
REMARK minimizedRMSD -1
REMARK  1 active torsions:
REMARK  status: ('A' for Active; 'I' for Inactive)
REMARK    1  A    between atoms: C1_2  and  C2_3 
ROOT
ATOM      1  C2  UNL d   1       4.618  -3.531   4.093  0.00  0.00    -0.081 A 
ATOM      2  C3  UNL d   1       5.853  -3.945   3.579  0.00  0.00     0.006 A 
ATOM      3  C4  UNL d   1       5.999  -4.211   2.216  0.00  0.00     0.002 A 
ATOM      4  C5  UNL d   1       4.916  -4.061   1.343  0.00  0.00    -0.080 A 
ATOM      5  C6  UNL d   1       5.068  -4.314  -0.128  0.00  0.00     0.076 C 
ATOM      6  C7  UNL d   1       3.678  -3.664   1.859  0.00  0.00     0.002 A 
ATOM      7  C8  UNL d   1       3.531  -3.399   3.222  0.00  0.00     0.006 A 
ENDROOT
BRANCH   1   8
ATOM      8  C1  UNL d   1       4.473  -3.181   5.552  0.00  0.00     0.054 C 
ATOM      9  C   UNL d   1       5.557  -2.210   5.998  0.00  0.00     0.018 C 
ENDBRANCH   1   8
TORSDOF 1
ENDMDL
