MODEL 1
REMARK minimizedAffinity 6.35941267
REMARK minimizedRMSD -1
REMARK  1 active torsions:
REMARK  status: ('A' for Active; 'I' for Inactive)
REMARK    1  A    between atoms: C1_2  and  C2_3 
ROOT
ATOM      1  C2  UNL d   1       4.339  -3.835   4.706  0.00  0.00    -0.081 A 
ATOM      2  C3  UNL d   1       5.634  -3.323   4.556  0.00  0.00     0.006 A 
ATOM      3  C4  UNL d   1       5.999  -2.650   3.388  0.00  0.00     0.002 A 
ATOM      4  C5  UNL d   1       5.074  -2.469   2.355  0.00  0.00    -0.080 A 
ATOM      5  C6  UNL d   1       5.445  -1.721   1.108  0.00  0.00     0.076 C 
ATOM      6  C7  UNL d   1       3.786  -2.995   2.496  0.00  0.00     0.002 A 
ATOM      7  C8  UNL d   1       3.420  -3.669   3.664  0.00  0.00     0.006 A 
ENDROOT
BRANCH   1   8
ATOM      8  C1  UNL d   1       3.923  -4.505   5.990  0.00  0.00     0.054 C 
ATOM      9  C   UNL d   1       4.317  -5.975   6.000  0.00  0.00     0.018 C 
ENDBRANCH   1   8
TORSDOF 1
ENDMDL
