MODEL 1
REMARK minimizedAffinity -4.21710777
REMARK minimizedRMSD -1
REMARK  1 active torsions:
REMARK  status: ('A' for Active; 'I' for Inactive)
REMARK    1  A    between atoms: C1_2  and  C2_3 
ROOT
ATOM      1  C2  UNL d   1       5.485  -4.299   1.269  0.00  0.00    -0.081 A 
ATOM      2  C3  UNL d   1       5.999  -3.024   1.538  0.00  0.00     0.006 A 
ATOM      3  C4  UNL d   1       5.921  -2.486   2.824  0.00  0.00     0.002 A 
ATOM      4  C5  UNL d   1       5.335  -3.214   3.865  0.00  0.00    -0.080 A 
ATOM      5  C6  UNL d   1       5.271  -2.660   5.257  0.00  0.00     0.076 C 
ATOM      6  C7  UNL d   1       4.805  -4.480   3.593  0.00  0.00     0.002 A 
ATOM      7  C8  UNL d   1       4.882  -5.019   2.306  0.00  0.00     0.006 A 
ENDROOT
BRANCH   1   8
ATOM      8  C1  UNL d   1       5.625  -4.909  -0.102  0.00  0.00     0.054 C 
ATOM      9  C   UNL d   1       4.842  -4.120  -1.141  0.00  0.00     0.018 C 
ENDBRANCH   1   8
TORSDOF 1
ENDMDL
