MODEL 1
REMARK minimizedAffinity -1.00740218
REMARK minimizedRMSD -1
REMARK  1 active torsions:
REMARK  status: ('A' for Active; 'I' for Inactive)
REMARK    1  A    between atoms: C1_2  and  C2_3 
ROOT
ATOM      1  C2  UNL d   1       5.941  -4.260  -3.730  0.00  0.00    -0.081 A 
ATOM      2  C3  UNL d   1       5.888  -3.170  -2.853  0.00  0.00     0.006 A 
ATOM      3  C4  UNL d   1       5.895  -3.373  -1.470  0.00  0.00     0.002 A 
ATOM      4  C5  UNL d   1       5.962  -4.667  -0.943  0.00  0.00    -0.080 A 
ATOM      5  C6  UNL d   1       6.000  -4.897   0.538  0.00  0.00     0.076 C 
ATOM      6  C7  UNL d   1       5.997  -5.756  -1.820  0.00  0.00     0.002 A 
ATOM      7  C8  UNL d   1       5.990  -5.554  -3.202  0.00  0.00     0.006 A 
ENDROOT
BRANCH   1   8
ATOM      8  C1  UNL d   1       6.000  -4.041  -5.221  0.00  0.00     0.054 C 
ATOM      9  C   UNL d   1       5.107  -2.884  -5.646  0.00  0.00     0.018 C 
ENDBRANCH   1   8
TORSDOF 1
ENDMDL
