MODEL 1
REMARK minimizedAffinity -1.3035146
REMARK minimizedRMSD -1
REMARK  1 active torsions:
REMARK  status: ('A' for Active; 'I' for Inactive)
REMARK    1  A    between atoms: C1_2  and  C2_3 
ROOT
ATOM      1  C2  UNL d   1       5.960  -4.713   4.051  0.00  0.00    -0.081 A 
ATOM      2  C3  UNL d   1       5.976  -3.415   3.526  0.00  0.00     0.006 A 
ATOM      3  C4  UNL d   1       5.999  -3.210   2.145  0.00  0.00     0.002 A 
ATOM      4  C5  UNL d   1       5.999  -4.299   1.266  0.00  0.00    -0.080 A 
ATOM      5  C6  UNL d   1       5.993  -4.093  -0.220  0.00  0.00     0.076 C 
ATOM      6  C7  UNL d   1       6.000  -5.596   1.791  0.00  0.00     0.002 A 
ATOM      7  C8  UNL d   1       5.977  -5.801   3.172  0.00  0.00     0.006 A 
ENDROOT
BRANCH   1   8
ATOM      8  C1  UNL d   1       5.869  -4.936   5.539  0.00  0.00     0.054 C 
ATOM      9  C   UNL d   1       4.726  -5.879   5.889  0.00  0.00     0.018 C 
ENDBRANCH   1   8
TORSDOF 1
ENDMDL
