MODEL 1
REMARK minimizedAffinity 0.63689822
REMARK minimizedRMSD -1
REMARK  1 active torsions:
REMARK  status: ('A' for Active; 'I' for Inactive)
REMARK    1  A    between atoms: C1_2  and  C2_3 
ROOT
ATOM      1  C2  UNL d   1       5.140  -4.288  -3.956  0.00  0.00    -0.081 A 
ATOM      2  C3  UNL d   1       4.805  -3.012  -3.487  0.00  0.00     0.006 A 
ATOM      3  C4  UNL d   1       5.070  -2.652  -2.163  0.00  0.00     0.002 A 
ATOM      4  C5  UNL d   1       5.680  -3.558  -1.290  0.00  0.00    -0.080 A 
ATOM      5  C6  UNL d   1       5.998  -3.175   0.125  0.00  0.00     0.076 C 
ATOM      6  C7  UNL d   1       5.999  -4.839  -1.754  0.00  0.00     0.002 A 
ATOM      7  C8  UNL d   1       5.734  -5.199  -3.077  0.00  0.00     0.006 A 
ENDROOT
BRANCH   1   8
ATOM      8  C1  UNL d   1       4.915  -4.656  -5.400  0.00  0.00     0.054 C 
ATOM      9  C   UNL d   1       5.619  -5.958  -5.755  0.00  0.00     0.018 C 
ENDBRANCH   1   8
TORSDOF 1
ENDMDL
