MODEL 1
REMARK minimizedAffinity 4.29272223
REMARK minimizedRMSD -1
REMARK  1 active torsions:
REMARK  status: ('A' for Active; 'I' for Inactive)
REMARK    1  A    between atoms: C1_2  and  C2_3 
ROOT
ATOM      1  C2  UNL d   1       5.955  -4.217  -2.665  0.00  0.00    -0.081 A 
ATOM      2  C3  UNL d   1       5.975  -5.419  -1.947  0.00  0.00     0.006 A 
ATOM      3  C4  UNL d   1       5.999  -5.409  -0.551  0.00  0.00     0.002 A 
ATOM      4  C5  UNL d   1       5.996  -4.199   0.151  0.00  0.00    -0.080 A 
ATOM      5  C6  UNL d   1       5.992  -4.175   1.650  0.00  0.00     0.076 C 
ATOM      6  C7  UNL d   1       5.994  -2.998  -0.567  0.00  0.00     0.002 A 
ATOM      7  C8  UNL d   1       5.970  -3.007  -1.963  0.00  0.00     0.006 A 
ENDROOT
BRANCH   1   8
ATOM      8  C1  UNL d   1       5.863  -4.225  -4.170  0.00  0.00     0.054 C 
ATOM      9  C   UNL d   1       5.872  -5.644  -4.718  0.00  0.00     0.018 C 
ENDBRANCH   1   8
TORSDOF 1
ENDMDL
