MODEL 1
REMARK minimizedAffinity 0.0234470349
REMARK minimizedRMSD -1
REMARK  1 active torsions:
REMARK  status: ('A' for Active; 'I' for Inactive)
REMARK    1  A    between atoms: C1_2  and  C2_3 
ROOT
ATOM      1  C2  UNL d   1       4.512  -3.816  -2.051  0.00  0.00    -0.081 A 
ATOM      2  C3  UNL d   1       3.416  -4.139  -2.862  0.00  0.00     0.006 A 
ATOM      3  C4  UNL d   1       3.612  -4.656  -4.145  0.00  0.00     0.002 A 
ATOM      4  C5  UNL d   1       4.905  -4.865  -4.636  0.00  0.00    -0.080 A 
ATOM      5  C6  UNL d   1       5.129  -5.447  -6.000  0.00  0.00     0.076 C 
ATOM      6  C7  UNL d   1       6.000  -4.526  -3.833  0.00  0.00     0.002 A 
ATOM      7  C8  UNL d   1       5.805  -4.009  -2.550  0.00  0.00     0.006 A 
ENDROOT
BRANCH   1   8
ATOM      8  C1  UNL d   1       4.304  -3.320  -0.643  0.00  0.00     0.054 C 
ATOM      9  C   UNL d   1       5.099  -4.145   0.358  0.00  0.00     0.018 C 
ENDBRANCH   1   8
TORSDOF 1
ENDMDL
