MODEL 1
REMARK minimizedAffinity -3.25987267
REMARK minimizedRMSD -1
REMARK  1 active torsions:
REMARK  status: ('A' for Active; 'I' for Inactive)
REMARK    1  A    between atoms: C1_2  and  C2_3 
ROOT
ATOM      1  C2  UNL d   1       5.816  -3.263   3.950  0.00  0.00    -0.081 A 
ATOM      2  C3  UNL d   1       5.907  -2.333   2.908  0.00  0.00     0.006 A 
ATOM      3  C4  UNL d   1       5.979  -2.761   1.580  0.00  0.00     0.002 A 
ATOM      4  C5  UNL d   1       5.954  -4.125   1.272  0.00  0.00    -0.080 A 
ATOM      5  C6  UNL d   1       6.000  -4.598  -0.151  0.00  0.00     0.076 C 
ATOM      6  C7  UNL d   1       5.881  -5.056   2.314  0.00  0.00     0.002 A 
ATOM      7  C8  UNL d   1       5.809  -4.628   3.642  0.00  0.00     0.006 A 
ENDROOT
BRANCH   1   8
ATOM      8  C1  UNL d   1       5.673  -2.803   5.378  0.00  0.00     0.054 C 
ATOM      9  C   UNL d   1       4.262  -3.038   5.897  0.00  0.00     0.018 C 
ENDBRANCH   1   8
TORSDOF 1
ENDMDL
