MODEL 1
REMARK minimizedAffinity -0.526637197
REMARK minimizedRMSD -1
REMARK  1 active torsions:
REMARK  status: ('A' for Active; 'I' for Inactive)
REMARK    1  A    between atoms: C1_2  and  C2_3 
ROOT
ATOM      1  C2  UNL d   1       5.950  -3.517   4.090  0.00  0.00    -0.081 A 
ATOM      2  C3  UNL d   1       5.971  -2.246   3.504  0.00  0.00     0.006 A 
ATOM      3  C4  UNL d   1       6.000  -2.107   2.114  0.00  0.00     0.002 A 
ATOM      4  C5  UNL d   1       5.999  -3.236   1.288  0.00  0.00    -0.080 A 
ATOM      5  C6  UNL d   1       5.999  -3.101  -0.206  0.00  0.00     0.076 C 
ATOM      6  C7  UNL d   1       5.996  -4.506   1.874  0.00  0.00     0.002 A 
ATOM      7  C8  UNL d   1       5.968  -4.646   3.263  0.00  0.00     0.006 A 
ENDROOT
BRANCH   1   8
ATOM      8  C1  UNL d   1       5.854  -3.670   5.586  0.00  0.00     0.054 C 
ATOM      9  C   UNL d   1       4.558  -4.357   5.991  0.00  0.00     0.018 C 
ENDBRANCH   1   8
TORSDOF 1
ENDMDL
