MODEL 1
REMARK minimizedAffinity 9.20561695
REMARK minimizedRMSD -1
REMARK  1 active torsions:
REMARK  status: ('A' for Active; 'I' for Inactive)
REMARK    1  A    between atoms: C1_2  and  C2_3 
ROOT
ATOM      1  C2  UNL d   1      -0.711   1.484   0.113  0.00  0.00    -0.081 A 
ATOM      2  C3  UNL d   1       0.337   2.038   0.859  0.00  0.00     0.006 A 
ATOM      3  C4  UNL d   1       0.265   3.358   1.309  0.00  0.00     0.002 A 
ATOM      4  C5  UNL d   1      -0.858   4.144   1.028  0.00  0.00    -0.080 A 
ATOM      5  C6  UNL d   1      -0.960   5.553   1.531  0.00  0.00     0.076 C 
ATOM      6  C7  UNL d   1      -1.897   3.596   0.269  0.00  0.00     0.002 A 
ATOM      7  C8  UNL d   1      -1.826   2.276  -0.182  0.00  0.00     0.006 A 
ENDROOT
BRANCH   1   8
ATOM      8  C1  UNL d   1      -0.665   0.040  -0.318  0.00  0.00     0.054 C 
ATOM      9  C   UNL d   1      -1.133  -0.885   0.796  0.00  0.00     0.018 C 
ENDBRANCH   1   8
TORSDOF 1
ENDMDL
