MODEL 1
REMARK minimizedAffinity -3.71096444
REMARK minimizedRMSD -1
REMARK  1 active torsions:
REMARK  status: ('A' for Active; 'I' for Inactive)
REMARK    1  A    between atoms: C1_2  and  C2_3 
ROOT
ATOM      1  C2  UNL d   1       5.997  -4.744   0.616  0.00  0.00    -0.081 A 
ATOM      2  C3  UNL d   1       5.977  -3.519  -0.062  0.00  0.00     0.006 A 
ATOM      3  C4  UNL d   1       5.946  -3.483  -1.458  0.00  0.00     0.002 A 
ATOM      4  C5  UNL d   1       5.926  -4.669  -2.199  0.00  0.00    -0.080 A 
ATOM      5  C6  UNL d   1       5.862  -4.644  -3.697  0.00  0.00     0.076 C 
ATOM      6  C7  UNL d   1       5.965  -5.893  -1.522  0.00  0.00     0.002 A 
ATOM      7  C8  UNL d   1       5.996  -5.930  -0.126  0.00  0.00     0.006 A 
ENDROOT
BRANCH   1   8
ATOM      8  C1  UNL d   1       5.966  -4.787   2.122  0.00  0.00     0.054 C 
ATOM      9  C   UNL d   1       4.553  -4.588   2.652  0.00  0.00     0.018 C 
ENDBRANCH   1   8
TORSDOF 1
ENDMDL
