MODEL 1
REMARK minimizedAffinity -2.11182594
REMARK minimizedRMSD -1
REMARK  1 active torsions:
REMARK  status: ('A' for Active; 'I' for Inactive)
REMARK    1  A    between atoms: C1_2  and  C2_3 
ROOT
ATOM      1  C2  UNL d   1       5.700  -3.773   2.313  0.00  0.00    -0.081 A 
ATOM      2  C3  UNL d   1       5.991  -5.139   2.405  0.00  0.00     0.006 A 
ATOM      3  C4  UNL d   1       5.658  -5.859   3.554  0.00  0.00     0.002 A 
ATOM      4  C5  UNL d   1       5.020  -5.227   4.627  0.00  0.00    -0.080 A 
ATOM      5  C6  UNL d   1       4.629  -5.994   5.855  0.00  0.00     0.076 C 
ATOM      6  C7  UNL d   1       4.744  -3.858   4.543  0.00  0.00     0.002 A 
ATOM      7  C8  UNL d   1       5.079  -3.138   3.394  0.00  0.00     0.006 A 
ENDROOT
BRANCH   1   8
ATOM      8  C1  UNL d   1       6.000  -3.008   1.049  0.00  0.00     0.054 C 
ATOM      9  C   UNL d   1       5.994  -3.925  -0.167  0.00  0.00     0.018 C 
ENDBRANCH   1   8
TORSDOF 1
ENDMDL
