MODEL 1
REMARK minimizedAffinity -2.14039588
REMARK minimizedRMSD -1
REMARK  1 active torsions:
REMARK  status: ('A' for Active; 'I' for Inactive)
REMARK    1  A    between atoms: C1_2  and  C2_3 
ROOT
ATOM      1  C2  UNL d   1       5.934  -2.946   2.312  0.00  0.00    -0.081 A 
ATOM      2  C3  UNL d   1       5.859  -4.262   1.841  0.00  0.00     0.006 A 
ATOM      3  C4  UNL d   1       5.859  -4.525   0.469  0.00  0.00     0.002 A 
ATOM      4  C5  UNL d   1       5.942  -3.477  -0.454  0.00  0.00    -0.080 A 
ATOM      5  C6  UNL d   1       5.973  -3.747  -1.929  0.00  0.00     0.076 C 
ATOM      6  C7  UNL d   1       5.999  -2.160   0.016  0.00  0.00     0.002 A 
ATOM      7  C8  UNL d   1       5.999  -1.897   1.388  0.00  0.00     0.006 A 
ENDROOT
BRANCH   1   8
ATOM      8  C1  UNL d   1       6.000  -2.663   3.791  0.00  0.00     0.054 C 
ATOM      9  C   UNL d   1       4.893  -3.388   4.543  0.00  0.00     0.018 C 
ENDBRANCH   1   8
TORSDOF 1
ENDMDL
