MODEL 1
REMARK minimizedAffinity -4.13837099
REMARK minimizedRMSD -1
REMARK  1 active torsions:
REMARK  status: ('A' for Active; 'I' for Inactive)
REMARK    1  A    between atoms: C1_2  and  C2_3 
ROOT
ATOM      1  C2  UNL d   1      -0.710  -0.057   0.973  0.00  0.00    -0.076 A 
ATOM      2  C3  UNL d   1       0.124  -0.340   2.069  0.00  0.00     0.004 A 
ATOM      3  C4  UNL d   1      -0.388  -0.394   3.365  0.00  0.00    -0.003 A 
ATOM      4  C5  UNL d   1      -1.742  -0.167   3.585  0.00  0.00     0.000 A 
ATOM      5  C6  UNL d   1      -2.587   0.098   2.507  0.00  0.00     0.000 A 
ATOM      6  C7  UNL d   1      -2.090   0.140   1.193  0.00  0.00    -0.073 A 
ATOM      7  C8  UNL d   1      -3.045   0.435   0.070  0.00  0.00     0.078 C 
ENDROOT
BRANCH   1   8
ATOM      8  C1  UNL d   1      -0.093   0.015  -0.405  0.00  0.00     0.053 C 
ATOM      9  C   UNL d   1       1.085   0.975  -0.468  0.00  0.00     0.018 C 
ENDBRANCH   1   8
TORSDOF 1
ENDMDL
