MODEL 1
REMARK minimizedAffinity -2.18208075
REMARK minimizedRMSD -1
REMARK  1 active torsions:
REMARK  status: ('A' for Active; 'I' for Inactive)
REMARK    1  A    between atoms: C1_2  and  C2_3 
ROOT
ATOM      1  C2  UNL d   1       0.119   0.260  -0.017  0.00  0.00    -0.076 A 
ATOM      2  C3  UNL d   1       1.215   0.017   0.829  0.00  0.00     0.004 A 
ATOM      3  C4  UNL d   1       1.082   0.093   2.215  0.00  0.00    -0.003 A 
ATOM      4  C5  UNL d   1      -0.149   0.413   2.777  0.00  0.00     0.000 A 
ATOM      5  C6  UNL d   1      -1.251   0.639   1.953  0.00  0.00     0.000 A 
ATOM      6  C7  UNL d   1      -1.138   0.550   0.555  0.00  0.00    -0.073 A 
ATOM      7  C8  UNL d   1      -2.358   0.810  -0.286  0.00  0.00     0.078 C 
ENDROOT
BRANCH   1   8
ATOM      8  C1  UNL d   1       0.330   0.189  -1.513  0.00  0.00     0.053 C 
ATOM      9  C   UNL d   1       0.556  -1.232  -2.003  0.00  0.00     0.018 C 
ENDBRANCH   1   8
TORSDOF 1
ENDMDL
