MODEL 1
REMARK minimizedAffinity -1.4011122
REMARK minimizedRMSD -1
REMARK  1 active torsions:
REMARK  status: ('A' for Active; 'I' for Inactive)
REMARK    1  A    between atoms: C1_2  and  C2_3 
ROOT
ATOM      1  C2  UNL d   1       0.614  -0.432  -0.562  0.00  0.00    -0.076 A 
ATOM      2  C3  UNL d   1       1.762  -0.760   0.182  0.00  0.00     0.004 A 
ATOM      3  C4  UNL d   1       1.916  -0.318   1.495  0.00  0.00    -0.003 A 
ATOM      4  C5  UNL d   1       0.924   0.458   2.086  0.00  0.00     0.000 A 
ATOM      5  C6  UNL d   1      -0.228   0.777   1.369  0.00  0.00     0.000 A 
ATOM      6  C7  UNL d   1      -0.407   0.326   0.050  0.00  0.00    -0.073 A 
ATOM      7  C8  UNL d   1      -1.667   0.705  -0.679  0.00  0.00     0.078 C 
ENDROOT
BRANCH   1   8
ATOM      8  C1  UNL d   1       0.515  -0.917  -1.991  0.00  0.00     0.053 C 
ATOM      9  C   UNL d   1       1.805  -1.557  -2.480  0.00  0.00     0.018 C 
ENDBRANCH   1   8
TORSDOF 1
ENDMDL
