MODEL 1
REMARK minimizedAffinity -0.638568282
REMARK minimizedRMSD -1
REMARK  1 active torsions:
REMARK  status: ('A' for Active; 'I' for Inactive)
REMARK    1  A    between atoms: C1_2  and  C2_3 
ROOT
ATOM      1  C2  UNL d   1       0.646  -0.106  -1.508  0.00  0.00    -0.076 A 
ATOM      2  C3  UNL d   1       1.854   0.156  -2.179  0.00  0.00     0.004 A 
ATOM      3  C4  UNL d   1       2.259  -0.629  -3.257  0.00  0.00    -0.003 A 
ATOM      4  C5  UNL d   1       1.464  -1.687  -3.682  0.00  0.00     0.000 A 
ATOM      5  C6  UNL d   1       0.255  -1.950  -3.039  0.00  0.00     0.000 A 
ATOM      6  C7  UNL d   1      -0.177  -1.158  -1.961  0.00  0.00    -0.073 A 
ATOM      7  C8  UNL d   1      -1.487  -1.490  -1.301  0.00  0.00     0.078 C 
ENDROOT
BRANCH   1   8
ATOM      8  C1  UNL d   1       0.271   0.762  -0.328  0.00  0.00     0.053 C 
ATOM      9  C   UNL d   1       1.130   0.484   0.896  0.00  0.00     0.018 C 
ENDBRANCH   1   8
TORSDOF 1
ENDMDL
