MODEL 1
REMARK minimizedAffinity -2.90907025
REMARK minimizedRMSD -1
REMARK  1 active torsions:
REMARK  status: ('A' for Active; 'I' for Inactive)
REMARK    1  A    between atoms: C1_2  and  C2_3 
ROOT
ATOM      1  C2  UNL d   1       0.061   0.394  -0.137  0.00  0.00    -0.076 A 
ATOM      2  C3  UNL d   1       1.360   0.255   0.383  0.00  0.00     0.004 A 
ATOM      3  C4  UNL d   1       1.582   0.229   1.759  0.00  0.00    -0.003 A 
ATOM      4  C5  UNL d   1       0.509   0.342   2.637  0.00  0.00     0.000 A 
ATOM      5  C6  UNL d   1      -0.787   0.462   2.138  0.00  0.00     0.000 A 
ATOM      6  C7  UNL d   1      -1.030   0.474   0.754  0.00  0.00    -0.073 A 
ATOM      7  C8  UNL d   1      -2.448   0.612   0.271  0.00  0.00     0.078 C 
ENDROOT
BRANCH   1   8
ATOM      8  C1  UNL d   1      -0.116   0.443  -1.638  0.00  0.00     0.053 C 
ATOM      9  C   UNL d   1       0.704  -0.618  -2.356  0.00  0.00     0.018 C 
ENDBRANCH   1   8
TORSDOF 1
ENDMDL
