MODEL 1
REMARK minimizedAffinity -2.85665798
REMARK minimizedRMSD -1
REMARK  1 active torsions:
REMARK  status: ('A' for Active; 'I' for Inactive)
REMARK    1  A    between atoms: C1_2  and  C2_3 
ROOT
ATOM      1  C2  UNL d   1       0.618  -0.345  -1.549  0.00  0.00    -0.076 A 
ATOM      2  C3  UNL d   1       1.544   0.145  -2.487  0.00  0.00     0.004 A 
ATOM      3  C4  UNL d   1       1.862  -0.586  -3.630  0.00  0.00    -0.003 A 
ATOM      4  C5  UNL d   1       1.259  -1.819  -3.854  0.00  0.00     0.000 A 
ATOM      5  C6  UNL d   1       0.325  -2.312  -2.944  0.00  0.00     0.000 A 
ATOM      6  C7  UNL d   1      -0.019  -1.580  -1.794  0.00  0.00    -0.073 A 
ATOM      7  C8  UNL d   1      -1.028  -2.162  -0.843  0.00  0.00     0.078 C 
ENDROOT
BRANCH   1   8
ATOM      8  C1  UNL d   1       0.333   0.480  -0.314  0.00  0.00     0.053 C 
ATOM      9  C   UNL d   1       1.511   0.516   0.648  0.00  0.00     0.018 C 
ENDBRANCH   1   8
TORSDOF 1
ENDMDL
