MODEL 1
REMARK minimizedAffinity 8.39823914
REMARK minimizedRMSD -1
REMARK  1 active torsions:
REMARK  status: ('A' for Active; 'I' for Inactive)
REMARK    1  A    between atoms: C1_2  and  C2_3 
ROOT
ATOM      1  C2  UNL d   1       1.357   0.642   1.064  0.00  0.00    -0.076 A 
ATOM      2  C3  UNL d   1       1.564  -0.511   0.287  0.00  0.00     0.004 A 
ATOM      3  C4  UNL d   1       1.214  -1.772   0.767  0.00  0.00    -0.003 A 
ATOM      4  C5  UNL d   1       0.651  -1.901   2.032  0.00  0.00     0.000 A 
ATOM      5  C6  UNL d   1       0.422  -0.766   2.809  0.00  0.00     0.000 A 
ATOM      6  C7  UNL d   1       0.754   0.515   2.334  0.00  0.00    -0.073 A 
ATOM      7  C8  UNL d   1       0.490   1.703   3.217  0.00  0.00     0.078 C 
ENDROOT
BRANCH   1   8
ATOM      8  C1  UNL d   1       1.781   1.980   0.502  0.00  0.00     0.053 C 
ATOM      9  C   UNL d   1       3.234   2.307   0.809  0.00  0.00     0.018 C 
ENDBRANCH   1   8
TORSDOF 1
ENDMDL
