MODEL 1
REMARK minimizedAffinity -0.0243676566
REMARK minimizedRMSD -1
REMARK  1 active torsions:
REMARK  status: ('A' for Active; 'I' for Inactive)
REMARK    1  A    between atoms: C1_2  and  C2_3 
ROOT
ATOM      1  C2  UNL d   1      -0.174  -0.812   1.343  0.00  0.00    -0.076 A 
ATOM      2  C3  UNL d   1      -1.487  -1.232   1.071  0.00  0.00     0.004 A 
ATOM      3  C4  UNL d   1      -2.576  -0.652   1.719  0.00  0.00    -0.003 A 
ATOM      4  C5  UNL d   1      -2.369   0.360   2.650  0.00  0.00     0.000 A 
ATOM      5  C6  UNL d   1      -1.074   0.802   2.920  0.00  0.00     0.000 A 
ATOM      6  C7  UNL d   1       0.033   0.239   2.263  0.00  0.00    -0.073 A 
ATOM      7  C8  UNL d   1       1.408   0.750   2.598  0.00  0.00     0.078 C 
ENDROOT
BRANCH   1   8
ATOM      8  C1  UNL d   1       0.969  -1.497   0.630  0.00  0.00     0.053 C 
ATOM      9  C   UNL d   1       0.776  -1.533  -0.879  0.00  0.00     0.018 C 
ENDBRANCH   1   8
TORSDOF 1
ENDMDL
