MODEL 1
REMARK minimizedAffinity -4.19085932
REMARK minimizedRMSD -1
REMARK  1 active torsions:
REMARK  status: ('A' for Active; 'I' for Inactive)
REMARK    1  A    between atoms: C1_2  and  C2_3 
ROOT
ATOM      1  C2  UNL d   1      -0.329   0.628   0.312  0.00  0.00    -0.076 A 
ATOM      2  C3  UNL d   1       0.461   0.409   1.453  0.00  0.00     0.004 A 
ATOM      3  C4  UNL d   1      -0.123   0.205   2.702  0.00  0.00    -0.003 A 
ATOM      4  C5  UNL d   1      -1.507   0.216   2.830  0.00  0.00     0.000 A 
ATOM      5  C6  UNL d   1      -2.308   0.414   1.705  0.00  0.00     0.000 A 
ATOM      6  C7  UNL d   1      -1.735   0.605   0.436  0.00  0.00    -0.073 A 
ATOM      7  C8  UNL d   1      -2.646   0.820  -0.742  0.00  0.00     0.078 C 
ENDROOT
BRANCH   1   8
ATOM      8  C1  UNL d   1       0.361   0.870  -1.012  0.00  0.00     0.053 C 
ATOM      9  C   UNL d   1       0.797  -0.421  -1.687  0.00  0.00     0.018 C 
ENDBRANCH   1   8
TORSDOF 1
ENDMDL
