MODEL 1
REMARK minimizedAffinity -2.36329269
REMARK minimizedRMSD -1
REMARK  1 active torsions:
REMARK  status: ('A' for Active; 'I' for Inactive)
REMARK    1  A    between atoms: C1_2  and  C2_3 
ROOT
ATOM      1  C2  UNL d   1      -0.630  -0.146   0.905  0.00  0.00    -0.076 A 
ATOM      2  C3  UNL d   1      -0.296  -0.992  -0.166  0.00  0.00     0.004 A 
ATOM      3  C4  UNL d   1       1.018  -1.409  -0.368  0.00  0.00    -0.003 A 
ATOM      4  C5  UNL d   1       2.020  -0.987   0.499  0.00  0.00     0.000 A 
ATOM      5  C6  UNL d   1       1.704  -0.161   1.577  0.00  0.00     0.000 A 
ATOM      6  C7  UNL d   1       0.381   0.255   1.804  0.00  0.00    -0.073 A 
ATOM      7  C8  UNL d   1       0.098   1.151   2.979  0.00  0.00     0.078 C 
ENDROOT
BRANCH   1   8
ATOM      8  C1  UNL d   1      -2.068   0.296   1.058  0.00  0.00     0.053 C 
ATOM      9  C   UNL d   1      -2.702   0.688  -0.268  0.00  0.00     0.018 C 
ENDBRANCH   1   8
TORSDOF 1
ENDMDL
