MODEL 1
REMARK minimizedAffinity -5.4709034
REMARK minimizedRMSD -1
REMARK  1 active torsions:
REMARK  status: ('A' for Active; 'I' for Inactive)
REMARK    1  A    between atoms: C1_2  and  C2_3 
ROOT
ATOM      1  C2  UNL d   1      -0.828  -0.420   1.089  0.00  0.00    -0.076 A 
ATOM      2  C3  UNL d   1      -0.232  -0.612   2.348  0.00  0.00     0.004 A 
ATOM      3  C4  UNL d   1      -0.983  -0.521   3.519  0.00  0.00    -0.003 A 
ATOM      4  C5  UNL d   1      -2.342  -0.236   3.450  0.00  0.00     0.000 A 
ATOM      5  C6  UNL d   1      -2.953  -0.059   2.209  0.00  0.00     0.000 A 
ATOM      6  C7  UNL d   1      -2.214  -0.164   1.018  0.00  0.00    -0.073 A 
ATOM      7  C8  UNL d   1      -2.923   0.042  -0.292  0.00  0.00     0.078 C 
ENDROOT
BRANCH   1   8
ATOM      8  C1  UNL d   1       0.042  -0.504  -0.144  0.00  0.00     0.053 C 
ATOM      9  C   UNL d   1       1.468  -0.045   0.116  0.00  0.00     0.018 C 
ENDBRANCH   1   8
TORSDOF 1
ENDMDL
