MODEL 1
REMARK minimizedAffinity 1.60154676
REMARK minimizedRMSD -1
REMARK  0 active torsions:
REMARK  status: ('A' for Active; 'I' for Inactive)
ROOT
ATOM      1  C   UNL d   1       3.141  -1.345  -0.006  0.00  0.00     0.124 A 
ATOM      2  C1  UNL d   1       2.175  -1.700  -0.937  0.00  0.00     0.062 A 
ATOM      3  C2  UNL d   1       0.916  -1.107  -0.900  0.00  0.00     0.162 A 
ATOM      4  C3  UNL d   1       0.616  -0.152   0.071  0.00  0.00    -0.034 A 
ATOM      5  C4  UNL d   1       1.593   0.199   1.005  0.00  0.00     0.162 A 
ATOM      6  C5  UNL d   1       2.850  -0.396   0.963  0.00  0.00     0.062 A 
ATOM      7  F   UNL d   1       3.782  -0.052   1.863  0.00  0.00    -0.097 F 
ATOM      8  F1  UNL d   1       1.339   1.114   1.952  0.00  0.00    -0.096 F 
ATOM      9  I   UNL d   1      -1.264   0.737   0.130  0.00  0.00    -0.060 I 
ATOM     10  F2  UNL d   1       0.002  -1.469  -1.812  0.00  0.00    -0.096 F 
ATOM     11  F3  UNL d   1       2.454  -2.617  -1.875  0.00  0.00    -0.097 F 
ATOM     12  F4  UNL d   1       4.351  -1.918  -0.044  0.00  0.00    -0.092 F 
ENDROOT
TORSDOF 0
ENDMDL
