MODEL 1
REMARK minimizedAffinity -2.81525087
REMARK minimizedRMSD -1
REMARK  0 active torsions:
REMARK  status: ('A' for Active; 'I' for Inactive)
ROOT
ATOM      1  C   UNL d   1       2.434   1.263   0.453  0.00  0.00     0.124 A 
ATOM      2  C1  UNL d   1       1.256   1.317  -0.279  0.00  0.00     0.062 A 
ATOM      3  C2  UNL d   1       0.672   0.145  -0.752  0.00  0.00     0.162 A 
ATOM      4  C3  UNL d   1       1.265  -1.091  -0.495  0.00  0.00    -0.034 A 
ATOM      5  C4  UNL d   1       2.450  -1.137   0.241  0.00  0.00     0.162 A 
ATOM      6  C5  UNL d   1       3.030   0.037   0.712  0.00  0.00     0.062 A 
ATOM      7  F   UNL d   1       4.168  -0.017   1.419  0.00  0.00    -0.097 F 
ATOM      8  F1  UNL d   1       3.047  -2.308   0.507  0.00  0.00    -0.096 F 
ATOM      9  I   UNL d   1       0.394  -2.844  -1.201  0.00  0.00    -0.060 I 
ATOM     10  F2  UNL d   1      -0.467   0.227  -1.457  0.00  0.00    -0.096 F 
ATOM     11  F3  UNL d   1       0.678   2.500  -0.531  0.00  0.00    -0.097 F 
ATOM     12  F4  UNL d   1       2.994   2.391   0.907  0.00  0.00    -0.092 F 
ENDROOT
TORSDOF 0
ENDMDL
