MODEL 1
REMARK minimizedAffinity -4.64513397
REMARK minimizedRMSD -1
REMARK  0 active torsions:
REMARK  status: ('A' for Active; 'I' for Inactive)
ROOT
ATOM      1  C   UNL d   1       2.290   1.355   0.288  0.00  0.00     0.124 A 
ATOM      2  C1  UNL d   1       2.827   0.090   0.482  0.00  0.00     0.062 A 
ATOM      3  C2  UNL d   1       2.112  -1.040   0.096  0.00  0.00     0.162 A 
ATOM      4  C3  UNL d   1       0.852  -0.910  -0.488  0.00  0.00    -0.034 A 
ATOM      5  C4  UNL d   1       0.318   0.365  -0.678  0.00  0.00     0.162 A 
ATOM      6  C5  UNL d   1       1.036   1.492  -0.291  0.00  0.00     0.062 A 
ATOM      7  F   UNL d   1       0.516   2.713  -0.479  0.00  0.00    -0.097 F 
ATOM      8  F1  UNL d   1      -0.891   0.526  -1.237  0.00  0.00    -0.096 F 
ATOM      9  I   UNL d   1      -0.220  -2.598  -1.066  0.00  0.00    -0.060 I 
ATOM     10  F2  UNL d   1       2.655  -2.250   0.295  0.00  0.00    -0.096 F 
ATOM     11  F3  UNL d   1       4.037  -0.044   1.042  0.00  0.00    -0.097 F 
ATOM     12  F4  UNL d   1       2.979   2.441   0.661  0.00  0.00    -0.092 F 
ENDROOT
TORSDOF 0
ENDMDL
