MODEL 1
REMARK minimizedAffinity -0.677070022
REMARK minimizedRMSD -1
REMARK  0 active torsions:
REMARK  status: ('A' for Active; 'I' for Inactive)
ROOT
ATOM      1  C   UNL d   1       1.855   0.749   0.970  0.00  0.00     0.124 A 
ATOM      2  C1  UNL d   1       0.772   0.746   0.102  0.00  0.00     0.062 A 
ATOM      3  C2  UNL d   1       0.313  -0.451  -0.440  0.00  0.00     0.162 A 
ATOM      4  C3  UNL d   1       0.936  -1.655  -0.116  0.00  0.00    -0.034 A 
ATOM      5  C4  UNL d   1       2.026  -1.644   0.757  0.00  0.00     0.162 A 
ATOM      6  C5  UNL d   1       2.481  -0.445   1.296  0.00  0.00     0.062 A 
ATOM      7  F   UNL d   1       3.528  -0.444   2.134  0.00  0.00    -0.097 F 
ATOM      8  F1  UNL d   1       2.649  -2.784   1.090  0.00  0.00    -0.096 F 
ATOM      9  I   UNL d   1       0.253  -3.447  -0.924  0.00  0.00    -0.060 I 
ATOM     10  F2  UNL d   1      -0.736  -0.424  -1.275  0.00  0.00    -0.096 F 
ATOM     11  F3  UNL d   1       0.166   1.899  -0.215  0.00  0.00    -0.097 F 
ATOM     12  F4  UNL d   1       2.295   1.903   1.490  0.00  0.00    -0.092 F 
ENDROOT
TORSDOF 0
ENDMDL
