MODEL 1
REMARK minimizedAffinity -2.68016672
REMARK minimizedRMSD -1
REMARK  0 active torsions:
REMARK  status: ('A' for Active; 'I' for Inactive)
ROOT
ATOM      1  C   UNL d   1       1.955  -1.836   0.851  0.00  0.00     0.124 A 
ATOM      2  C1  UNL d   1       1.418  -2.175  -0.383  0.00  0.00     0.062 A 
ATOM      3  C2  UNL d   1       0.463  -1.356  -0.979  0.00  0.00     0.162 A 
ATOM      4  C3  UNL d   1       0.039  -0.190  -0.342  0.00  0.00    -0.034 A 
ATOM      5  C4  UNL d   1       0.584   0.144   0.900  0.00  0.00     0.162 A 
ATOM      6  C5  UNL d   1       1.538  -0.678   1.491  0.00  0.00     0.062 A 
ATOM      7  F   UNL d   1       2.056  -0.349   2.684  0.00  0.00    -0.097 F 
ATOM      8  F1  UNL d   1       0.199   1.258   1.540  0.00  0.00    -0.096 F 
ATOM      9  I   UNL d   1      -1.388   1.037  -1.230  0.00  0.00    -0.060 I 
ATOM     10  F2  UNL d   1      -0.039  -1.708  -2.172  0.00  0.00    -0.096 F 
ATOM     11  F3  UNL d   1       1.819  -3.294  -1.003  0.00  0.00    -0.097 F 
ATOM     12  F4  UNL d   1       2.873  -2.626   1.423  0.00  0.00    -0.092 F 
ENDROOT
TORSDOF 0
ENDMDL
