MODEL 1
REMARK minimizedAffinity -0.85244441
REMARK minimizedRMSD -1
REMARK  0 active torsions:
REMARK  status: ('A' for Active; 'I' for Inactive)
ROOT
ATOM      1  C   UNL d   1       2.547  -1.624   0.411  0.00  0.00     0.124 A 
ATOM      2  C1  UNL d   1       2.109  -0.457   1.023  0.00  0.00     0.062 A 
ATOM      3  C2  UNL d   1       0.811  -0.002   0.814  0.00  0.00     0.162 A 
ATOM      4  C3  UNL d   1      -0.061  -0.714  -0.009  0.00  0.00    -0.034 A 
ATOM      5  C4  UNL d   1       0.386  -1.886  -0.622  0.00  0.00     0.162 A 
ATOM      6  C5  UNL d   1       1.685  -2.337  -0.410  0.00  0.00     0.062 A 
ATOM      7  F   UNL d   1       2.106  -3.464  -1.002  0.00  0.00    -0.097 F 
ATOM      8  F1  UNL d   1      -0.426  -2.595  -1.420  0.00  0.00    -0.096 F 
ATOM      9  I   UNL d   1      -2.004  -0.037  -0.324  0.00  0.00    -0.060 I 
ATOM     10  F2  UNL d   1       0.415   1.129   1.418  0.00  0.00    -0.096 F 
ATOM     11  F3  UNL d   1       2.940   0.234   1.816  0.00  0.00    -0.097 F 
ATOM     12  F4  UNL d   1       3.797  -2.059   0.613  0.00  0.00    -0.092 F 
ENDROOT
TORSDOF 0
ENDMDL
