MODEL 1
REMARK minimizedAffinity 1.11684251
REMARK minimizedRMSD -1
REMARK  0 active torsions:
REMARK  status: ('A' for Active; 'I' for Inactive)
ROOT
ATOM      1  C   UNL d   1       1.222  -2.499  -0.533  0.00  0.00     0.124 A 
ATOM      2  C1  UNL d   1       0.328  -1.809  -1.340  0.00  0.00     0.062 A 
ATOM      3  C2  UNL d   1       0.126  -0.445  -1.154  0.00  0.00     0.162 A 
ATOM      4  C3  UNL d   1       0.821   0.240  -0.157  0.00  0.00    -0.034 A 
ATOM      5  C4  UNL d   1       1.718  -0.461   0.651  0.00  0.00     0.162 A 
ATOM      6  C5  UNL d   1       1.916  -1.825   0.461  0.00  0.00     0.062 A 
ATOM      7  F   UNL d   1       2.780  -2.489   1.242  0.00  0.00    -0.097 F 
ATOM      8  F1  UNL d   1       2.402   0.166   1.619  0.00  0.00    -0.096 F 
ATOM      9  I   UNL d   1       0.522   2.280   0.124  0.00  0.00    -0.060 I 
ATOM     10  F2  UNL d   1      -0.744   0.196  -1.949  0.00  0.00    -0.096 F 
ATOM     11  F3  UNL d   1      -0.344  -2.459  -2.301  0.00  0.00    -0.097 F 
ATOM     12  F4  UNL d   1       1.414  -3.812  -0.714  0.00  0.00    -0.092 F 
ENDROOT
TORSDOF 0
ENDMDL
