MODEL 1
REMARK minimizedAffinity -1.48901546
REMARK minimizedRMSD -1
REMARK  0 active torsions:
REMARK  status: ('A' for Active; 'I' for Inactive)
ROOT
ATOM      1  C   UNL d   1       2.588  -1.496   0.522  0.00  0.00     0.124 A 
ATOM      2  C1  UNL d   1       2.226  -0.350   1.217  0.00  0.00     0.062 A 
ATOM      3  C2  UNL d   1       1.052   0.323   0.895  0.00  0.00     0.162 A 
ATOM      4  C3  UNL d   1       0.229  -0.148  -0.129  0.00  0.00    -0.034 A 
ATOM      5  C4  UNL d   1       0.600  -1.300  -0.825  0.00  0.00     0.162 A 
ATOM      6  C5  UNL d   1       1.775  -1.969  -0.498  0.00  0.00     0.062 A 
ATOM      7  F   UNL d   1       2.124  -3.075  -1.172  0.00  0.00    -0.097 F 
ATOM      8  F1  UNL d   1      -0.167  -1.780  -1.814  0.00  0.00    -0.096 F 
ATOM      9  I   UNL d   1      -1.528   0.855  -0.614  0.00  0.00    -0.060 I 
ATOM     10  F2  UNL d   1       0.727   1.427   1.584  0.00  0.00    -0.096 F 
ATOM     11  F3  UNL d   1       3.011   0.110   2.203  0.00  0.00    -0.097 F 
ATOM     12  F4  UNL d   1       3.720  -2.141   0.834  0.00  0.00    -0.092 F 
ENDROOT
TORSDOF 0
ENDMDL
