MODEL 1
REMARK minimizedAffinity -0.000570509874
REMARK minimizedRMSD -1
REMARK  0 active torsions:
REMARK  status: ('A' for Active; 'I' for Inactive)
ROOT
ATOM      1  C   UNL d   1      -0.702   1.535  -0.659  0.00  0.00     0.124 A 
ATOM      2  C1  UNL d   1      -0.820   0.153  -0.629  0.00  0.00     0.062 A 
ATOM      3  C2  UNL d   1       0.278  -0.636  -0.298  0.00  0.00     0.162 A 
ATOM      4  C3  UNL d   1       1.504  -0.044   0.005  0.00  0.00    -0.034 A 
ATOM      5  C4  UNL d   1       1.615   1.347  -0.029  0.00  0.00     0.162 A 
ATOM      6  C5  UNL d   1       0.515   2.131  -0.359  0.00  0.00     0.062 A 
ATOM      7  F   UNL d   1       0.630   3.467  -0.389  0.00  0.00    -0.097 F 
ATOM      8  F1  UNL d   1       2.779   1.949   0.258  0.00  0.00    -0.096 F 
ATOM      9  I   UNL d   1       3.148  -1.220   0.500  0.00  0.00    -0.060 I 
ATOM     10  F2  UNL d   1       0.135  -1.970  -0.277  0.00  0.00    -0.096 F 
ATOM     11  F3  UNL d   1      -1.995  -0.425  -0.919  0.00  0.00    -0.097 F 
ATOM     12  F4  UNL d   1      -1.760   2.292  -0.979  0.00  0.00    -0.092 F 
ENDROOT
TORSDOF 0
ENDMDL
