MODEL 1
REMARK minimizedAffinity -0.641780555
REMARK minimizedRMSD -1
REMARK  0 active torsions:
REMARK  status: ('A' for Active; 'I' for Inactive)
ROOT
ATOM      1  C   UNL d   1       1.501  -1.707  -0.717  0.00  0.00     0.124 A 
ATOM      2  C1  UNL d   1       1.725  -1.187   0.550  0.00  0.00     0.062 A 
ATOM      3  C2  UNL d   1       0.866  -0.225   1.074  0.00  0.00     0.162 A 
ATOM      4  C3  UNL d   1      -0.226   0.223   0.331  0.00  0.00    -0.034 A 
ATOM      5  C4  UNL d   1      -0.444  -0.304  -0.944  0.00  0.00     0.162 A 
ATOM      6  C5  UNL d   1       0.418  -1.265  -1.463  0.00  0.00     0.062 A 
ATOM      7  F   UNL d   1       0.200  -1.766  -2.688  0.00  0.00    -0.097 F 
ATOM      8  F1  UNL d   1      -1.484   0.105  -1.686  0.00  0.00    -0.096 F 
ATOM      9  I   UNL d   1      -1.513   1.661   1.110  0.00  0.00    -0.060 I 
ATOM     10  F2  UNL d   1       1.106   0.259   2.302  0.00  0.00    -0.096 F 
ATOM     11  F3  UNL d   1       2.772  -1.612   1.272  0.00  0.00    -0.097 F 
ATOM     12  F4  UNL d   1       2.330  -2.631  -1.219  0.00  0.00    -0.092 F 
ENDROOT
TORSDOF 0
ENDMDL
