MODEL 1
REMARK minimizedAffinity -2.55229068
REMARK minimizedRMSD -1
REMARK  0 active torsions:
REMARK  status: ('A' for Active; 'I' for Inactive)
ROOT
ATOM      1  C   UNL d   1       2.193  -0.769   0.478  0.00  0.00     0.124 A 
ATOM      2  C1  UNL d   1       1.668   0.460   0.853  0.00  0.00     0.062 A 
ATOM      3  C2  UNL d   1       0.347   0.777   0.553  0.00  0.00     0.162 A 
ATOM      4  C3  UNL d   1      -0.460  -0.137  -0.125  0.00  0.00    -0.034 A 
ATOM      5  C4  UNL d   1       0.075  -1.371  -0.499  0.00  0.00     0.162 A 
ATOM      6  C5  UNL d   1       1.397  -1.683  -0.197  0.00  0.00     0.062 A 
ATOM      7  F   UNL d   1       1.902  -2.871  -0.559  0.00  0.00    -0.097 F 
ATOM      8  F1  UNL d   1      -0.672  -2.273  -1.151  0.00  0.00    -0.096 F 
ATOM      9  I   UNL d   1      -2.437   0.333  -0.575  0.00  0.00    -0.060 I 
ATOM     10  F2  UNL d   1      -0.134   1.972   0.927  0.00  0.00    -0.096 F 
ATOM     11  F3  UNL d   1       2.436   1.345   1.504  0.00  0.00    -0.097 F 
ATOM     12  F4  UNL d   1       3.466  -1.071   0.767  0.00  0.00    -0.092 F 
ENDROOT
TORSDOF 0
ENDMDL
