MODEL 1
REMARK minimizedAffinity 4.92013073
REMARK minimizedRMSD -1
REMARK  0 active torsions:
REMARK  status: ('A' for Active; 'I' for Inactive)
ROOT
ATOM      1  C   UNL d   1      -2.139   3.427  -1.768  0.00  0.00    -0.002 A 
ATOM      2  C1  UNL d   1      -1.812   4.269  -2.821  0.00  0.00     0.010 A 
ATOM      3  C2  UNL d   1      -2.039   3.876  -4.142  0.00  0.00     0.041 A 
ATOM      4  C3  UNL d   1      -2.608   2.611  -4.388  0.00  0.00    -0.075 A 
ATOM      5  S   UNL d   1      -2.977   1.918  -5.923  0.00  0.00     0.015 SA
ATOM      6  C4  UNL d   1      -3.579   0.488  -5.216  0.00  0.00     0.022 A 
ATOM      7  C5  UNL d   1      -3.507   0.522  -3.844  0.00  0.00     0.026 A 
ATOM      8  C6  UNL d   1      -2.947   1.746  -3.344  0.00  0.00    -0.082 A 
ATOM      9  C7  UNL d   1      -2.703   2.173  -2.016  0.00  0.00     0.045 A 
ENDROOT
TORSDOF 0
ENDMDL
