MODEL 1
REMARK minimizedAffinity -1.08943892
REMARK minimizedRMSD -1
REMARK  0 active torsions:
REMARK  status: ('A' for Active; 'I' for Inactive)
ROOT
ATOM      1  C   UNL d   1       2.955   5.981   1.501  0.00  0.00    -0.002 A 
ATOM      2  C1  UNL d   1       4.176   5.991   2.159  0.00  0.00     0.010 A 
ATOM      3  C2  UNL d   1       4.232   5.996   3.554  0.00  0.00     0.041 A 
ATOM      4  C3  UNL d   1       3.027   5.988   4.284  0.00  0.00    -0.075 A 
ATOM      5  S   UNL d   1       2.850   5.991   5.999  0.00  0.00     0.015 SA
ATOM      6  C4  UNL d   1       1.148   5.978   5.898  0.00  0.00     0.022 A 
ATOM      7  C5  UNL d   1       0.709   5.972   4.595  0.00  0.00     0.026 A 
ATOM      8  C6  UNL d   1       1.784   5.977   3.643  0.00  0.00    -0.082 A 
ATOM      9  C7  UNL d   1       1.762   5.974   2.228  0.00  0.00     0.045 A 
ENDROOT
TORSDOF 0
ENDMDL
