MODEL 1
REMARK minimizedAffinity 5.50569057
REMARK minimizedRMSD -1
REMARK  0 active torsions:
REMARK  status: ('A' for Active; 'I' for Inactive)
ROOT
ATOM      1  C   UNL d   1      -3.117  -0.372   0.880  0.00  0.00    -0.002 A 
ATOM      2  C1  UNL d   1      -2.320   0.107  -0.150  0.00  0.00     0.010 A 
ATOM      3  C2  UNL d   1      -0.986  -0.290  -0.259  0.00  0.00     0.041 A 
ATOM      4  C3  UNL d   1      -0.461  -1.186   0.693  0.00  0.00    -0.075 A 
ATOM      5  S   UNL d   1       1.144  -1.810   0.759  0.00  0.00     0.015 SA
ATOM      6  C4  UNL d   1       0.810  -2.728   2.155  0.00  0.00     0.022 A 
ATOM      7  C5  UNL d   1      -0.490  -2.573   2.575  0.00  0.00     0.026 A 
ATOM      8  C6  UNL d   1      -1.244  -1.682   1.739  0.00  0.00    -0.082 A 
ATOM      9  C7  UNL d   1      -2.593  -1.261   1.822  0.00  0.00     0.045 A 
ENDROOT
TORSDOF 0
ENDMDL
