MODEL 1
REMARK minimizedAffinity 3.80328679
REMARK minimizedRMSD -1
REMARK  0 active torsions:
REMARK  status: ('A' for Active; 'I' for Inactive)
ROOT
ATOM      1  C   UNL d   1       1.151  -3.709   2.936  0.00  0.00    -0.002 A 
ATOM      2  C1  UNL d   1       2.031  -3.963   1.894  0.00  0.00     0.010 A 
ATOM      3  C2  UNL d   1       2.007  -3.183   0.736  0.00  0.00     0.041 A 
ATOM      4  C3  UNL d   1       1.075  -2.130   0.644  0.00  0.00    -0.075 A 
ATOM      5  S   UNL d   1       0.863  -1.043  -0.677  0.00  0.00     0.015 SA
ATOM      6  C4  UNL d   1      -0.400  -0.213   0.111  0.00  0.00     0.022 A 
ATOM      7  C5  UNL d   1      -0.667  -0.741   1.353  0.00  0.00     0.026 A 
ATOM      8  C6  UNL d   1       0.179  -1.854   1.680  0.00  0.00    -0.082 A 
ATOM      9  C7  UNL d   1       0.228  -2.664   2.840  0.00  0.00     0.045 A 
ENDROOT
TORSDOF 0
ENDMDL
