MODEL 1
REMARK minimizedAffinity -2.35643959
REMARK minimizedRMSD -1
REMARK  0 active torsions:
REMARK  status: ('A' for Active; 'I' for Inactive)
ROOT
ATOM      1  C   UNL d   1       1.230  -4.116   2.237  0.00  0.00    -0.002 A 
ATOM      2  C1  UNL d   1       1.923  -3.737   1.096  0.00  0.00     0.010 A 
ATOM      3  C2  UNL d   1       1.598  -2.556   0.427  0.00  0.00     0.041 A 
ATOM      4  C3  UNL d   1       0.556  -1.752   0.929  0.00  0.00    -0.075 A 
ATOM      5  S   UNL d   1      -0.015  -0.262   0.276  0.00  0.00     0.015 SA
ATOM      6  C4  UNL d   1      -1.192  -0.092   1.497  0.00  0.00     0.022 A 
ATOM      7  C5  UNL d   1      -1.164  -1.138   2.389  0.00  0.00     0.026 A 
ATOM      8  C6  UNL d   1      -0.156  -2.111   2.077  0.00  0.00    -0.082 A 
ATOM      9  C7  UNL d   1       0.197  -3.316   2.733  0.00  0.00     0.045 A 
ENDROOT
TORSDOF 0
ENDMDL
