MODEL 1
REMARK minimizedAffinity -3.44685507
REMARK minimizedRMSD -1
REMARK  0 active torsions:
REMARK  status: ('A' for Active; 'I' for Inactive)
ROOT
ATOM      1  C   UNL d   1      -2.599  -0.527   1.161  0.00  0.00    -0.002 A 
ATOM      2  C1  UNL d   1      -2.132  -1.277   2.230  0.00  0.00     0.010 A 
ATOM      3  C2  UNL d   1      -0.901  -1.931   2.155  0.00  0.00     0.041 A 
ATOM      4  C3  UNL d   1      -0.138  -1.815   0.977  0.00  0.00    -0.075 A 
ATOM      5  S   UNL d   1       1.400  -2.527   0.659  0.00  0.00     0.015 SA
ATOM      6  C4  UNL d   1       1.473  -1.850  -0.904  0.00  0.00     0.022 A 
ATOM      7  C5  UNL d   1       0.360  -1.097  -1.193  0.00  0.00     0.026 A 
ATOM      8  C6  UNL d   1      -0.587  -1.064  -0.114  0.00  0.00    -0.082 A 
ATOM      9  C7  UNL d   1      -1.840  -0.414  -0.007  0.00  0.00     0.045 A 
ENDROOT
TORSDOF 0
ENDMDL
