MODEL 1
REMARK minimizedAffinity 7.57134199
REMARK minimizedRMSD -1
REMARK  0 active torsions:
REMARK  status: ('A' for Active; 'I' for Inactive)
ROOT
ATOM      1  C   UNL d   1      -3.167  -0.554   2.119  0.00  0.00    -0.002 A 
ATOM      2  C1  UNL d   1      -2.125  -0.229   2.976  0.00  0.00     0.010 A 
ATOM      3  C2  UNL d   1      -0.812  -0.161   2.504  0.00  0.00     0.041 A 
ATOM      4  C3  UNL d   1      -0.563  -0.425   1.143  0.00  0.00    -0.075 A 
ATOM      5  S   UNL d   1       0.963  -0.400   0.342  0.00  0.00     0.015 SA
ATOM      6  C4  UNL d   1       0.268  -0.818  -1.157  0.00  0.00     0.022 A 
ATOM      7  C5  UNL d   1      -1.095  -0.977  -1.067  0.00  0.00     0.026 A 
ATOM      8  C6  UNL d   1      -1.596  -0.753   0.260  0.00  0.00    -0.082 A 
ATOM      9  C7  UNL d   1      -2.916  -0.815   0.769  0.00  0.00     0.045 A 
ENDROOT
TORSDOF 0
ENDMDL
