MODEL 1
REMARK minimizedAffinity 4.21135092
REMARK minimizedRMSD -1
REMARK  0 active torsions:
REMARK  status: ('A' for Active; 'I' for Inactive)
ROOT
ATOM      1  C   UNL d   1      -2.693  -0.294   2.853  0.00  0.00    -0.002 A 
ATOM      2  C1  UNL d   1      -1.653  -1.033   3.400  0.00  0.00     0.010 A 
ATOM      3  C2  UNL d   1      -0.502  -1.299   2.656  0.00  0.00     0.041 A 
ATOM      4  C3  UNL d   1      -0.412  -0.804   1.340  0.00  0.00    -0.075 A 
ATOM      5  S   UNL d   1       0.902  -1.005   0.242  0.00  0.00     0.015 SA
ATOM      6  C4  UNL d   1       0.114  -0.115  -0.980  0.00  0.00     0.022 A 
ATOM      7  C5  UNL d   1      -1.122   0.332  -0.577  0.00  0.00     0.026 A 
ATOM      8  C6  UNL d   1      -1.445  -0.057   0.767  0.00  0.00    -0.082 A 
ATOM      9  C7  UNL d   1      -2.600   0.195   1.547  0.00  0.00     0.045 A 
ENDROOT
TORSDOF 0
ENDMDL
