MODEL 1
REMARK minimizedAffinity -4.16706991
REMARK minimizedRMSD -1
REMARK  0 active torsions:
REMARK  status: ('A' for Active; 'I' for Inactive)
ROOT
ATOM      1  C   UNL d   1       0.156   1.356   2.095  0.00  0.00     0.020 A 
ATOM      2  C1  UNL d   1      -1.117   1.224   2.648  0.00  0.00     0.020 A 
ATOM      3  C2  UNL d   1      -2.074   0.426   2.017  0.00  0.00     0.034 A 
ATOM      4  C3  UNL d   1      -1.759  -0.242   0.828  0.00  0.00     0.017 A 
ATOM      5  C4  UNL d   1      -0.481  -0.109   0.273  0.00  0.00     0.017 A 
ATOM      6  C5  UNL d   1       0.473   0.691   0.910  0.00  0.00     0.034 A 
ATOM      7 Cl   UNL d   1      -0.018  -0.902  -1.191  0.00  0.00    -0.070 Cl
ATOM      8 Cl1  UNL d   1      -2.990  -1.212   0.101  0.00  0.00    -0.070 Cl
ENDROOT
TORSDOF 0
ENDMDL
