MODEL 1
REMARK minimizedAffinity -3.29528666
REMARK minimizedRMSD -1
REMARK  0 active torsions:
REMARK  status: ('A' for Active; 'I' for Inactive)
ROOT
ATOM      1  C   UNL d   1       0.110   1.429   2.498  0.00  0.00     0.020 A 
ATOM      2  C1  UNL d   1      -1.146   1.102   3.007  0.00  0.00     0.020 A 
ATOM      3  C2  UNL d   1      -1.978   0.226   2.307  0.00  0.00     0.034 A 
ATOM      4  C3  UNL d   1      -1.554  -0.326   1.092  0.00  0.00     0.017 A 
ATOM      5  C4  UNL d   1      -0.293   0.003   0.582  0.00  0.00     0.017 A 
ATOM      6  C5  UNL d   1       0.535   0.881   1.288  0.00  0.00     0.034 A 
ATOM      7 Cl   UNL d   1       0.299  -0.639  -0.910  0.00  0.00    -0.070 Cl
ATOM      8 Cl1  UNL d   1      -2.634  -1.403   0.279  0.00  0.00    -0.070 Cl
ENDROOT
TORSDOF 0
ENDMDL
