MODEL 1
REMARK minimizedAffinity -2.9675889
REMARK minimizedRMSD -1
REMARK  0 active torsions:
REMARK  status: ('A' for Active; 'I' for Inactive)
ROOT
ATOM      1  C   UNL d   1       0.487  -0.726  -0.065  0.00  0.00     0.020 A 
ATOM      2  C1  UNL d   1       1.457  -0.002   0.628  0.00  0.00     0.020 A 
ATOM      3  C2  UNL d   1       1.078   0.874   1.648  0.00  0.00     0.034 A 
ATOM      4  C3  UNL d   1      -0.273   1.028   1.978  0.00  0.00     0.017 A 
ATOM      5  C4  UNL d   1      -1.246   0.300   1.282  0.00  0.00     0.017 A 
ATOM      6  C5  UNL d   1      -0.861  -0.575   0.262  0.00  0.00     0.034 A 
ATOM      7 Cl   UNL d   1      -2.933   0.437   1.632  0.00  0.00    -0.070 Cl
ATOM      8 Cl1  UNL d   1      -0.669   2.128   3.250  0.00  0.00    -0.070 Cl
ENDROOT
TORSDOF 0
ENDMDL
