MODEL 1
REMARK minimizedAffinity -3.77343917
REMARK minimizedRMSD -1
REMARK  0 active torsions:
REMARK  status: ('A' for Active; 'I' for Inactive)
ROOT
ATOM      1  C   UNL d   1       0.347   1.468   2.229  0.00  0.00     0.020 A 
ATOM      2  C1  UNL d   1      -0.927   1.318   2.776  0.00  0.00     0.020 A 
ATOM      3  C2  UNL d   1      -1.857   0.478   2.159  0.00  0.00     0.034 A 
ATOM      4  C3  UNL d   1      -1.514  -0.215   0.992  0.00  0.00     0.017 A 
ATOM      5  C4  UNL d   1      -0.235  -0.063   0.445  0.00  0.00     0.017 A 
ATOM      6  C5  UNL d   1       0.692   0.779   1.066  0.00  0.00     0.034 A 
ATOM      7 Cl   UNL d   1       0.261  -0.885  -0.993  0.00  0.00    -0.070 Cl
ATOM      8 Cl1  UNL d   1      -2.713  -1.237   0.283  0.00  0.00    -0.070 Cl
ENDROOT
TORSDOF 0
ENDMDL
