MODEL 1
REMARK minimizedAffinity -4.44779682
REMARK minimizedRMSD -1
REMARK  0 active torsions:
REMARK  status: ('A' for Active; 'I' for Inactive)
ROOT
ATOM      1  C   UNL d   1      -1.338   1.418   2.759  0.00  0.00     0.020 A 
ATOM      2  C1  UNL d   1      -0.018   1.732   2.438  0.00  0.00     0.020 A 
ATOM      3  C2  UNL d   1       0.627   1.058   1.399  0.00  0.00     0.034 A 
ATOM      4  C3  UNL d   1      -0.047   0.066   0.678  0.00  0.00     0.017 A 
ATOM      5  C4  UNL d   1      -1.372  -0.249   1.001  0.00  0.00     0.017 A 
ATOM      6  C5  UNL d   1      -2.014   0.430   2.042  0.00  0.00     0.034 A 
ATOM      7 Cl   UNL d   1      -2.270  -1.460   0.156  0.00  0.00    -0.070 Cl
ATOM      8 Cl1  UNL d   1       0.812  -0.727  -0.594  0.00  0.00    -0.070 Cl
ENDROOT
TORSDOF 0
ENDMDL
