MODEL 1
REMARK minimizedAffinity -3.95599341
REMARK minimizedRMSD -1
REMARK  0 active torsions:
REMARK  status: ('A' for Active; 'I' for Inactive)
ROOT
ATOM      1  C   UNL d   1       1.058  -0.092   0.413  0.00  0.00     0.020 A 
ATOM      2  C1  UNL d   1      -0.069  -0.476  -0.312  0.00  0.00     0.020 A 
ATOM      3  C2  UNL d   1      -1.345  -0.160   0.160  0.00  0.00     0.034 A 
ATOM      4  C3  UNL d   1      -1.496   0.542   1.362  0.00  0.00     0.017 A 
ATOM      5  C4  UNL d   1      -0.365   0.927   2.089  0.00  0.00     0.017 A 
ATOM      6  C5  UNL d   1       0.910   0.608   1.612  0.00  0.00     0.034 A 
ATOM      7 Cl   UNL d   1      -0.472   1.795   3.580  0.00  0.00    -0.070 Cl
ATOM      8 Cl1  UNL d   1      -3.104   0.899   1.886  0.00  0.00    -0.070 Cl
ENDROOT
TORSDOF 0
ENDMDL
