MODEL 1
REMARK minimizedAffinity -1.82700884
REMARK minimizedRMSD -1
REMARK  0 active torsions:
REMARK  status: ('A' for Active; 'I' for Inactive)
ROOT
ATOM      1  C   UNL d   1      -0.740   0.160  -0.556  0.00  0.00     0.020 A 
ATOM      2  C1  UNL d   1       0.559  -0.290  -0.786  0.00  0.00     0.020 A 
ATOM      3  C2  UNL d   1       1.531  -0.152   0.208  0.00  0.00     0.034 A 
ATOM      4  C3  UNL d   1       1.205   0.438   1.434  0.00  0.00     0.017 A 
ATOM      5  C4  UNL d   1      -0.099   0.890   1.663  0.00  0.00     0.017 A 
ATOM      6  C5  UNL d   1      -1.069   0.749   0.665  0.00  0.00     0.034 A 
ATOM      7 Cl   UNL d   1      -0.577   1.628   3.151  0.00  0.00    -0.070 Cl
ATOM      8 Cl1  UNL d   1       2.457   0.577   2.617  0.00  0.00    -0.070 Cl
ENDROOT
TORSDOF 0
ENDMDL
