MODEL 1
REMARK minimizedAffinity -4.85156727
REMARK minimizedRMSD -1
REMARK  0 active torsions:
REMARK  status: ('A' for Active; 'I' for Inactive)
ROOT
ATOM      1  O1  BZF d   1       0.079  -2.061   1.752  0.00  0.00    -0.204 OA
ATOM      2  C2  BZF d   1       1.162  -2.587   2.430  0.00  0.00     0.174 A 
ATOM      3  C3  BZF d   1       2.262  -1.831   2.235  0.00  0.00    -0.012 A 
ATOM      4  C3A BZF d   1       1.818  -0.715   1.458  0.00  0.00    -0.107 A 
ATOM      5  C4  BZF d   1       2.445   0.391   0.959  0.00  0.00     0.055 A 
ATOM      6  C5  BZF d   1       1.742   1.253   0.178  0.00  0.00    -0.016 A 
ATOM      7  C6  BZF d   1       0.414   1.039  -0.127  0.00  0.00     0.022 A 
ATOM      8  C7  BZF d   1      -0.252  -0.041   0.349  0.00  0.00     0.029 A 
ATOM      9  C7A BZF d   1       0.446  -0.897   1.165  0.00  0.00     0.058 A 
ENDROOT
TORSDOF 0
ENDMDL
