MODEL 1
REMARK minimizedAffinity -5.53852272
REMARK minimizedRMSD -1
REMARK  0 active torsions:
REMARK  status: ('A' for Active; 'I' for Inactive)
ROOT
ATOM      1  O1  BZF d   1      -0.595  -0.392   0.343  0.00  0.00    -0.204 OA
ATOM      2  C2  BZF d   1      -0.582   0.790  -0.370  0.00  0.00     0.174 A 
ATOM      3  C3  BZF d   1       0.655   1.326  -0.386  0.00  0.00    -0.012 A 
ATOM      4  C3A BZF d   1       1.486   0.375   0.287  0.00  0.00    -0.107 A 
ATOM      5  C4  BZF d   1       2.820   0.332   0.576  0.00  0.00     0.055 A 
ATOM      6  C5  BZF d   1       3.303  -0.704   1.310  0.00  0.00    -0.016 A 
ATOM      7  C6  BZF d   1       2.482  -1.710   1.775  0.00  0.00     0.022 A 
ATOM      8  C7  BZF d   1       1.153  -1.714   1.509  0.00  0.00     0.029 A 
ATOM      9  C7A BZF d   1       0.667  -0.685   0.739  0.00  0.00     0.058 A 
ENDROOT
TORSDOF 0
ENDMDL
