MODEL 1
REMARK minimizedAffinity -3.18832994
REMARK minimizedRMSD -1
REMARK  0 active torsions:
REMARK  status: ('A' for Active; 'I' for Inactive)
ROOT
ATOM      1  O1  BZF d   1      -1.223  -0.785   0.428  0.00  0.00    -0.204 OA
ATOM      2  C2  BZF d   1      -1.024   0.413  -0.230  0.00  0.00     0.174 A 
ATOM      3  C3  BZF d   1       0.253   0.827  -0.095  0.00  0.00    -0.012 A 
ATOM      4  C3A BZF d   1       0.914  -0.221   0.621  0.00  0.00    -0.107 A 
ATOM      5  C4  BZF d   1       2.199  -0.402   1.045  0.00  0.00     0.055 A 
ATOM      6  C5  BZF d   1       2.503  -1.503   1.782  0.00  0.00    -0.016 A 
ATOM      7  C6  BZF d   1       1.546  -2.439   2.116  0.00  0.00     0.022 A 
ATOM      8  C7  BZF d   1       0.259  -2.305   1.714  0.00  0.00     0.029 A 
ATOM      9  C7A BZF d   1      -0.044  -1.211   0.941  0.00  0.00     0.058 A 
ENDROOT
TORSDOF 0
ENDMDL
