MODEL 1
REMARK minimizedAffinity -3.26316857
REMARK minimizedRMSD -1
REMARK  0 active torsions:
REMARK  status: ('A' for Active; 'I' for Inactive)
ROOT
ATOM      1  O1  BZF d   1      -0.546   0.605   0.426  0.00  0.00    -0.204 OA
ATOM      2  C2  BZF d   1      -0.049   1.891   0.503  0.00  0.00     0.174 A 
ATOM      3  C3  BZF d   1       1.300   1.885   0.478  0.00  0.00    -0.012 A 
ATOM      4  C3A BZF d   1       1.666   0.515   0.285  0.00  0.00    -0.107 A 
ATOM      5  C4  BZF d   1       2.864  -0.128   0.160  0.00  0.00     0.055 A 
ATOM      6  C5  BZF d   1       2.879  -1.483   0.056  0.00  0.00    -0.016 A 
ATOM      7  C6  BZF d   1       1.717  -2.226   0.078  0.00  0.00     0.022 A 
ATOM      8  C7  BZF d   1       0.504  -1.632   0.195  0.00  0.00     0.029 A 
ATOM      9  C7A BZF d   1       0.484  -0.261   0.267  0.00  0.00     0.058 A 
ENDROOT
TORSDOF 0
ENDMDL
