MODEL 1
REMARK minimizedAffinity 3.78213
REMARK minimizedRMSD -1
REMARK  0 active torsions:
REMARK  status: ('A' for Active; 'I' for Inactive)
ROOT
ATOM      1  O1  BZF d   1       2.512  -0.593   0.641  0.00  0.00    -0.204 OA
ATOM      2  C2  BZF d   1       3.267   0.268   1.412  0.00  0.00     0.174 A 
ATOM      3  C3  BZF d   1       2.562   1.375   1.723  0.00  0.00    -0.012 A 
ATOM      4  C3A BZF d   1       1.255   1.152   1.185  0.00  0.00    -0.107 A 
ATOM      5  C4  BZF d   1       0.103   1.885   1.184  0.00  0.00     0.055 A 
ATOM      6  C5  BZF d   1      -0.978   1.415   0.506  0.00  0.00    -0.016 A 
ATOM      7  C6  BZF d   1      -0.940   0.221  -0.183  0.00  0.00     0.022 A 
ATOM      8  C7  BZF d   1       0.179  -0.544  -0.206  0.00  0.00     0.029 A 
ATOM      9  C7A BZF d   1       1.263  -0.088   0.505  0.00  0.00     0.058 A 
ENDROOT
TORSDOF 0
ENDMDL
