MODEL 1
REMARK minimizedAffinity -1.16909242
REMARK minimizedRMSD -1
REMARK  0 active torsions:
REMARK  status: ('A' for Active; 'I' for Inactive)
ROOT
ATOM      1  O1  BZF d   1       2.951   0.733   0.958  0.00  0.00    -0.204 OA
ATOM      2  C2  BZF d   1       3.421  -0.552   0.761  0.00  0.00     0.174 A 
ATOM      3  C3  BZF d   1       2.458  -1.338   0.238  0.00  0.00    -0.012 A 
ATOM      4  C3A BZF d   1       1.343  -0.470   0.013  0.00  0.00    -0.107 A 
ATOM      5  C4  BZF d   1       0.094  -0.661  -0.504  0.00  0.00     0.055 A 
ATOM      6  C5  BZF d   1      -0.781   0.379  -0.517  0.00  0.00    -0.016 A 
ATOM      7  C6  BZF d   1      -0.443   1.619  -0.017  0.00  0.00     0.022 A 
ATOM      8  C7  BZF d   1       0.786   1.858   0.501  0.00  0.00     0.029 A 
ATOM      9  C7A BZF d   1       1.684   0.819   0.485  0.00  0.00     0.058 A 
ENDROOT
TORSDOF 0
ENDMDL
