MODEL 1
REMARK minimizedAffinity -5.35116863
REMARK minimizedRMSD -1
REMARK  0 active torsions:
REMARK  status: ('A' for Active; 'I' for Inactive)
ROOT
ATOM      1  O1  BZF d   1       1.965   0.836  -0.337  0.00  0.00    -0.204 OA
ATOM      2  C2  BZF d   1       3.007   0.066   0.143  0.00  0.00     0.174 A 
ATOM      3  C3  BZF d   1       2.540  -0.998   0.827  0.00  0.00    -0.012 A 
ATOM      4  C3A BZF d   1       1.117  -0.938   0.691  0.00  0.00    -0.107 A 
ATOM      5  C4  BZF d   1       0.097  -1.730   1.136  0.00  0.00     0.055 A 
ATOM      6  C5  BZF d   1      -1.186  -1.353   0.894  0.00  0.00    -0.016 A 
ATOM      7  C6  BZF d   1      -1.485  -0.190   0.215  0.00  0.00     0.022 A 
ATOM      8  C7  BZF d   1      -0.507   0.625  -0.251  0.00  0.00     0.029 A 
ATOM      9  C7A BZF d   1       0.791   0.230  -0.036  0.00  0.00     0.058 A 
ENDROOT
TORSDOF 0
ENDMDL
