MODEL 1
REMARK minimizedAffinity -5.35683107
REMARK minimizedRMSD -1
REMARK  0 active torsions:
REMARK  status: ('A' for Active; 'I' for Inactive)
ROOT
ATOM      1  O1  BZF d   1      -0.597  -0.741   1.305  0.00  0.00    -0.204 OA
ATOM      2  C2  BZF d   1      -1.131   0.316   0.593  0.00  0.00     0.174 A 
ATOM      3  C3  BZF d   1      -0.154   1.116   0.119  0.00  0.00    -0.012 A 
ATOM      4  C3A BZF d   1       1.070   0.472   0.484  0.00  0.00    -0.107 A 
ATOM      5  C4  BZF d   1       2.386   0.773   0.280  0.00  0.00     0.055 A 
ATOM      6  C5  BZF d   1       3.339  -0.025   0.829  0.00  0.00    -0.016 A 
ATOM      7  C6  BZF d   1       3.012  -1.128   1.591  0.00  0.00     0.022 A 
ATOM      8  C7  BZF d   1       1.720  -1.470   1.816  0.00  0.00     0.029 A 
ATOM      9  C7A BZF d   1       0.755  -0.684   1.235  0.00  0.00     0.058 A 
ENDROOT
TORSDOF 0
ENDMDL
