MODEL 1
REMARK minimizedAffinity -0.601065099
REMARK minimizedRMSD -1
REMARK  0 active torsions:
REMARK  status: ('A' for Active; 'I' for Inactive)
ROOT
ATOM      1  O1  BZF d   1       2.209  -1.572   0.905  0.00  0.00    -0.204 OA
ATOM      2  C2  BZF d   1       3.092  -0.737   1.563  0.00  0.00     0.174 A 
ATOM      3  C3  BZF d   1       2.660   0.540   1.529  0.00  0.00    -0.012 A 
ATOM      4  C3A BZF d   1       1.384   0.487   0.884  0.00  0.00    -0.107 A 
ATOM      5  C4  BZF d   1       0.451   1.434   0.570  0.00  0.00     0.055 A 
ATOM      6  C5  BZF d   1      -0.657   1.065  -0.126  0.00  0.00    -0.016 A 
ATOM      7  C6  BZF d   1      -0.861  -0.239  -0.527  0.00  0.00     0.022 A 
ATOM      8  C7  BZF d   1       0.033  -1.214  -0.234  0.00  0.00     0.029 A 
ATOM      9  C7A BZF d   1       1.138  -0.850   0.497  0.00  0.00     0.058 A 
ENDROOT
TORSDOF 0
ENDMDL
