MODEL 1
REMARK minimizedAffinity -3.35211444
REMARK minimizedRMSD -1
REMARK  0 active torsions:
REMARK  status: ('A' for Active; 'I' for Inactive)
ROOT
ATOM      1  O1  BZF d   1      -1.458  -0.516   0.132  0.00  0.00    -0.204 OA
ATOM      2  C2  BZF d   1      -1.385   0.732  -0.457  0.00  0.00     0.174 A 
ATOM      3  C3  BZF d   1      -0.101   1.119  -0.598  0.00  0.00    -0.012 A 
ATOM      4  C3A BZF d   1       0.679   0.007  -0.148  0.00  0.00    -0.107 A 
ATOM      5  C4  BZF d   1       2.023  -0.222  -0.059  0.00  0.00     0.055 A 
ATOM      6  C5  BZF d   1       2.459  -1.385   0.493  0.00  0.00    -0.016 A 
ATOM      7  C6  BZF d   1       1.581  -2.336   0.970  0.00  0.00     0.022 A 
ATOM      8  C7  BZF d   1       0.240  -2.155   0.899  0.00  0.00     0.029 A 
ATOM      9  C7A BZF d   1      -0.204  -0.996   0.312  0.00  0.00     0.058 A 
ENDROOT
TORSDOF 0
ENDMDL
