MODEL 1
REMARK minimizedAffinity 12.7350502
REMARK minimizedRMSD -1
REMARK  1 active torsions:
REMARK  status: ('A' for Active; 'I' for Inactive)
REMARK    1  A    between atoms: C1_2  and  C2_3 
ROOT
ATOM      1  C2  UNL d   1       0.365   1.369   1.513  0.00  0.00    -0.073 A 
ATOM      2  C3  UNL d   1      -0.265   2.106   2.522  0.00  0.00    -0.002 A 
ATOM      3  C4  UNL d   1      -1.558   2.596   2.334  0.00  0.00     0.004 A 
ATOM      4  C5  UNL d   1      -2.236   2.349   1.140  0.00  0.00    -0.004 A 
ATOM      5  C6  UNL d   1      -1.627   1.604   0.124  0.00  0.00    -0.075 A 
ATOM      6  C7  UNL d   1      -2.342   1.332  -1.167  0.00  0.00     0.076 C 
ATOM      7  C8  UNL d   1      -0.327   1.118   0.320  0.00  0.00     0.001 A 
ENDROOT
BRANCH   1   8
ATOM      8  C1  UNL d   1       1.759   0.832   1.713  0.00  0.00     0.053 C 
ATOM      9  C   UNL d   1       2.054  -0.345   0.797  0.00  0.00     0.018 C 
ENDBRANCH   1   8
TORSDOF 1
ENDMDL
