MODEL 1
REMARK minimizedAffinity 7.79642868
REMARK minimizedRMSD -1
REMARK  1 active torsions:
REMARK  status: ('A' for Active; 'I' for Inactive)
REMARK    1  A    between atoms: C1_2  and  C2_3 
ROOT
ATOM      1  C2  UNL d   1       0.191   1.936   2.239  0.00  0.00    -0.073 A 
ATOM      2  C3  UNL d   1       1.115   2.945   2.535  0.00  0.00    -0.002 A 
ATOM      3  C4  UNL d   1       1.424   3.919   1.585  0.00  0.00     0.004 A 
ATOM      4  C5  UNL d   1       0.808   3.899   0.333  0.00  0.00    -0.004 A 
ATOM      5  C6  UNL d   1      -0.127   2.906   0.023  0.00  0.00    -0.075 A 
ATOM      6  C7  UNL d   1      -0.796   2.869  -1.319  0.00  0.00     0.076 C 
ATOM      7  C8  UNL d   1      -0.430   1.930   0.982  0.00  0.00     0.001 A 
ENDROOT
BRANCH   1   8
ATOM      8  C1  UNL d   1      -0.151   0.887   3.265  0.00  0.00     0.053 C 
ATOM      9  C   UNL d   1       0.815  -0.287   3.223  0.00  0.00     0.018 C 
ENDBRANCH   1   8
TORSDOF 1
ENDMDL
