MODEL 1
REMARK minimizedAffinity 3.90847063
REMARK minimizedRMSD -1
REMARK  1 active torsions:
REMARK  status: ('A' for Active; 'I' for Inactive)
REMARK    1  A    between atoms: C1_2  and  C2_3 
ROOT
ATOM      1  C2  UNL d   1      -0.976   1.453  -1.022  0.00  0.00    -0.073 A 
ATOM      2  C3  UNL d   1      -2.298   1.008  -1.135  0.00  0.00    -0.002 A 
ATOM      3  C4  UNL d   1      -2.575  -0.352  -1.283  0.00  0.00     0.004 A 
ATOM      4  C5  UNL d   1      -1.534  -1.280  -1.311  0.00  0.00    -0.004 A 
ATOM      5  C6  UNL d   1      -0.207  -0.857  -1.187  0.00  0.00    -0.075 A 
ATOM      6  C7  UNL d   1       0.923  -1.843  -1.218  0.00  0.00     0.076 C 
ATOM      7  C8  UNL d   1       0.062   0.511  -1.042  0.00  0.00     0.001 A 
ENDROOT
BRANCH   1   8
ATOM      8  C1  UNL d   1      -0.674   2.920  -0.856  0.00  0.00     0.053 C 
ATOM      9  C   UNL d   1      -0.102   3.232   0.518  0.00  0.00     0.018 C 
ENDBRANCH   1   8
TORSDOF 1
ENDMDL
