MODEL 1
REMARK minimizedAffinity 12.91255
REMARK minimizedRMSD -1
REMARK  1 active torsions:
REMARK  status: ('A' for Active; 'I' for Inactive)
REMARK    1  A    between atoms: C1_2  and  C2_3 
ROOT
ATOM      1  C2  UNL d   1       4.352  -2.973  -1.673  0.00  0.00    -0.073 A 
ATOM      2  C3  UNL d   1       4.665  -3.932  -0.703  0.00  0.00    -0.002 A 
ATOM      3  C4  UNL d   1       5.007  -5.231  -1.080  0.00  0.00     0.004 A 
ATOM      4  C5  UNL d   1       5.046  -5.584  -2.429  0.00  0.00    -0.004 A 
ATOM      5  C6  UNL d   1       4.748  -4.637  -3.414  0.00  0.00    -0.075 A 
ATOM      6  C7  UNL d   1       4.784  -5.000  -4.869  0.00  0.00     0.076 C 
ATOM      7  C8  UNL d   1       4.403  -3.335  -3.027  0.00  0.00     0.001 A 
ENDROOT
BRANCH   1   8
ATOM      8  C1  UNL d   1       3.989  -1.567  -1.272  0.00  0.00     0.053 C 
ATOM      9  C   UNL d   1       2.612  -1.496  -0.631  0.00  0.00     0.018 C 
ENDBRANCH   1   8
TORSDOF 1
ENDMDL
