MODEL 1
REMARK minimizedAffinity 9.98808861
REMARK minimizedRMSD -1
REMARK  1 active torsions:
REMARK  status: ('A' for Active; 'I' for Inactive)
REMARK    1  A    between atoms: C1_2  and  C2_3 
ROOT
ATOM      1  C2  UNL d   1       2.955  -5.392  -1.203  0.00  0.00    -0.073 A 
ATOM      2  C3  UNL d   1       3.386  -5.873  -2.445  0.00  0.00    -0.002 A 
ATOM      3  C4  UNL d   1       4.500  -5.311  -3.070  0.00  0.00     0.004 A 
ATOM      4  C5  UNL d   1       5.197  -4.269  -2.458  0.00  0.00    -0.004 A 
ATOM      5  C6  UNL d   1       4.789  -3.783  -1.211  0.00  0.00    -0.075 A 
ATOM      6  C7  UNL d   1       5.527  -2.662  -0.541  0.00  0.00     0.076 C 
ATOM      7  C8  UNL d   1       3.668  -4.351  -0.591  0.00  0.00     0.001 A 
ENDROOT
BRANCH   1   8
ATOM      8  C1  UNL d   1       1.756  -6.000  -0.521  0.00  0.00     0.053 C 
ATOM      9  C   UNL d   1       0.518  -5.962  -1.404  0.00  0.00     0.018 C 
ENDBRANCH   1   8
TORSDOF 1
ENDMDL
