MODEL 1
REMARK minimizedAffinity -5.49486256
REMARK minimizedRMSD -1
REMARK  0 active torsions:
REMARK  status: ('A' for Active; 'I' for Inactive)
ROOT
ATOM      1  C   UNL d   1      -1.466  -1.826   3.271  0.00  0.00     0.077 C 
ATOM      2  C1  UNL d   1      -0.454  -1.109   2.428  0.00  0.00    -0.074 A 
ATOM      3  C2  UNL d   1       0.863  -0.945   2.869  0.00  0.00    -0.005 A 
ATOM      4  C3  UNL d   1       1.795  -0.284   2.069  0.00  0.00     0.006 A 
ATOM      5  C4  UNL d   1       1.421   0.218   0.822  0.00  0.00    -0.005 A 
ATOM      6  C5  UNL d   1       0.109   0.062   0.364  0.00  0.00    -0.074 A 
ATOM      7  C6  UNL d   1      -0.307   0.587  -0.978  0.00  0.00     0.077 C 
ATOM      8  C7  UNL d   1      -0.821  -0.609   1.170  0.00  0.00    -0.001 A 
ENDROOT
TORSDOF 0
ENDMDL
