MODEL 1
REMARK minimizedAffinity -0.694513798
REMARK minimizedRMSD -1
REMARK  0 active torsions:
REMARK  status: ('A' for Active; 'I' for Inactive)
ROOT
ATOM      1  C   UNL d   1       1.183  -0.680   2.026  0.00  0.00     0.077 C 
ATOM      2  C1  UNL d   1       1.047  -0.432   0.553  0.00  0.00    -0.074 A 
ATOM      3  C2  UNL d   1       1.749  -1.209  -0.375  0.00  0.00    -0.005 A 
ATOM      4  C3  UNL d   1       1.605  -0.973  -1.742  0.00  0.00     0.006 A 
ATOM      5  C4  UNL d   1       0.759   0.041  -2.194  0.00  0.00    -0.005 A 
ATOM      6  C5  UNL d   1       0.049   0.827  -1.282  0.00  0.00    -0.074 A 
ATOM      7  C6  UNL d   1      -0.872   1.914  -1.752  0.00  0.00     0.077 C 
ATOM      8  C7  UNL d   1       0.194   0.579   0.090  0.00  0.00    -0.001 A 
ENDROOT
TORSDOF 0
ENDMDL
