MODEL 1
REMARK minimizedAffinity -0.0763756484
REMARK minimizedRMSD -1
REMARK  0 active torsions:
REMARK  status: ('A' for Active; 'I' for Inactive)
ROOT
ATOM      1  C   UNL d   1      -0.882   1.597  -1.315  0.00  0.00     0.077 C 
ATOM      2  C1  UNL d   1       0.214   0.670  -0.879  0.00  0.00    -0.074 A 
ATOM      3  C2  UNL d   1       0.759  -0.265  -1.765  0.00  0.00    -0.005 A 
ATOM      4  C3  UNL d   1       1.785  -1.113  -1.348  0.00  0.00     0.006 A 
ATOM      5  C4  UNL d   1       2.275  -1.035  -0.043  0.00  0.00    -0.005 A 
ATOM      6  C5  UNL d   1       1.743  -0.105   0.855  0.00  0.00    -0.074 A 
ATOM      7  C6  UNL d   1       2.265  -0.001   2.258  0.00  0.00     0.077 C 
ATOM      8  C7  UNL d   1       0.717   0.749   0.427  0.00  0.00    -0.001 A 
ENDROOT
TORSDOF 0
ENDMDL
