MODEL 1
REMARK minimizedAffinity -1.43985975
REMARK minimizedRMSD -1
REMARK  0 active torsions:
REMARK  status: ('A' for Active; 'I' for Inactive)
ROOT
ATOM      1  C   UNL d   1       2.463  -0.351   0.724  0.00  0.00     0.077 C 
ATOM      2  C1  UNL d   1       1.016  -0.599   1.031  0.00  0.00    -0.074 A 
ATOM      3  C2  UNL d   1       0.008   0.078   0.337  0.00  0.00    -0.005 A 
ATOM      4  C3  UNL d   1      -1.334  -0.170   0.627  0.00  0.00     0.006 A 
ATOM      5  C4  UNL d   1      -1.681  -1.095   1.612  0.00  0.00    -0.005 A 
ATOM      6  C5  UNL d   1      -0.686  -1.782   2.316  0.00  0.00    -0.074 A 
ATOM      7  C6  UNL d   1      -1.042  -2.787   3.371  0.00  0.00     0.077 C 
ATOM      8  C7  UNL d   1       0.659  -1.533   2.014  0.00  0.00    -0.001 A 
ENDROOT
TORSDOF 0
ENDMDL
