MODEL 1
REMARK minimizedAffinity -0.539207578
REMARK minimizedRMSD -1
REMARK  0 active torsions:
REMARK  status: ('A' for Active; 'I' for Inactive)
ROOT
ATOM      1  C   UNL d   1       1.219  -0.597  -0.917  0.00  0.00     0.077 C 
ATOM      2  C1  UNL d   1       1.432  -0.940   0.527  0.00  0.00    -0.074 A 
ATOM      3  C2  UNL d   1       2.510  -0.405   1.241  0.00  0.00    -0.005 A 
ATOM      4  C3  UNL d   1       2.690  -0.726   2.587  0.00  0.00     0.006 A 
ATOM      5  C4  UNL d   1       1.797  -1.583   3.231  0.00  0.00    -0.005 A 
ATOM      6  C5  UNL d   1       0.714  -2.127   2.533  0.00  0.00    -0.074 A 
ATOM      7  C6  UNL d   1      -0.261  -3.042   3.213  0.00  0.00     0.077 C 
ATOM      8  C7  UNL d   1       0.535  -1.794   1.183  0.00  0.00    -0.001 A 
ENDROOT
TORSDOF 0
ENDMDL
