MODEL 1
REMARK minimizedAffinity -1.4801594
REMARK minimizedRMSD -1
REMARK  0 active torsions:
REMARK  status: ('A' for Active; 'I' for Inactive)
ROOT
ATOM      1  C   UNL d   1      -0.877   2.076  -1.294  0.00  0.00     0.077 C 
ATOM      2  C1  UNL d   1       0.071   0.984  -0.896  0.00  0.00    -0.074 A 
ATOM      3  C2  UNL d   1       0.414  -0.031  -1.794  0.00  0.00    -0.005 A 
ATOM      4  C3  UNL d   1       1.305  -1.035  -1.414  0.00  0.00     0.006 A 
ATOM      5  C4  UNL d   1       1.860  -1.034  -0.133  0.00  0.00    -0.005 A 
ATOM      6  C5  UNL d   1       1.528  -0.026   0.778  0.00  0.00    -0.074 A 
ATOM      7  C6  UNL d   1       2.123  -0.004   2.155  0.00  0.00     0.077 C 
ATOM      8  C7  UNL d   1       0.638   0.983   0.386  0.00  0.00    -0.001 A 
ENDROOT
TORSDOF 0
ENDMDL
