MODEL 1
REMARK minimizedAffinity -3.61562753
REMARK minimizedRMSD -1
REMARK  0 active torsions:
REMARK  status: ('A' for Active; 'I' for Inactive)
ROOT
ATOM      1  C   UNL d   1      -1.124  -1.904   3.519  0.00  0.00     0.077 C 
ATOM      2  C1  UNL d   1      -0.066  -1.206   2.717  0.00  0.00    -0.074 A 
ATOM      3  C2  UNL d   1       1.234  -1.065   3.212  0.00  0.00    -0.005 A 
ATOM      4  C3  UNL d   1       2.211  -0.422   2.451  0.00  0.00     0.006 A 
ATOM      5  C4  UNL d   1       1.897   0.086   1.190  0.00  0.00    -0.005 A 
ATOM      6  C5  UNL d   1       0.602  -0.046   0.679  0.00  0.00    -0.074 A 
ATOM      7  C6  UNL d   1       0.250   0.486  -0.679  0.00  0.00     0.077 C 
ATOM      8  C7  UNL d   1      -0.372  -0.700   1.446  0.00  0.00    -0.001 A 
ENDROOT
TORSDOF 0
ENDMDL
