MODEL 1
REMARK minimizedAffinity -3.80752087
REMARK minimizedRMSD -1
REMARK  0 active torsions:
REMARK  status: ('A' for Active; 'I' for Inactive)
ROOT
ATOM      1  C   UNL d   1      -1.180  -2.587   3.550  0.00  0.00     0.077 C 
ATOM      2  C1  UNL d   1      -0.322  -1.619   2.789  0.00  0.00    -0.074 A 
ATOM      3  C2  UNL d   1       1.066  -1.604   2.956  0.00  0.00    -0.005 A 
ATOM      4  C3  UNL d   1       1.851  -0.705   2.235  0.00  0.00     0.006 A 
ATOM      5  C4  UNL d   1       1.257   0.187   1.341  0.00  0.00    -0.005 A 
ATOM      6  C5  UNL d   1      -0.129   0.185   1.160  0.00  0.00    -0.074 A 
ATOM      7  C6  UNL d   1      -0.783   1.130   0.195  0.00  0.00     0.077 C 
ATOM      8  C7  UNL d   1      -0.911  -0.726   1.883  0.00  0.00    -0.001 A 
ENDROOT
TORSDOF 0
ENDMDL
