MODEL 1
REMARK minimizedAffinity -1.4991287
REMARK minimizedRMSD -1
REMARK  0 active torsions:
REMARK  status: ('A' for Active; 'I' for Inactive)
ROOT
ATOM      1  C   UNL d   1      -4.161  -2.049  -0.855  0.00  0.00     0.077 C 
ATOM      2  C1  UNL d   1      -3.066  -1.252  -0.212  0.00  0.00    -0.074 A 
ATOM      3  C2  UNL d   1      -3.114  -0.930   1.149  0.00  0.00    -0.005 A 
ATOM      4  C3  UNL d   1      -2.084  -0.196   1.735  0.00  0.00     0.006 A 
ATOM      5  C4  UNL d   1      -0.996   0.224   0.969  0.00  0.00    -0.005 A 
ATOM      6  C5  UNL d   1      -0.929  -0.089  -0.393  0.00  0.00    -0.074 A 
ATOM      7  C6  UNL d   1       0.238   0.345  -1.228  0.00  0.00     0.077 C 
ATOM      8  C7  UNL d   1      -1.965  -0.834  -0.973  0.00  0.00    -0.001 A 
ENDROOT
TORSDOF 0
ENDMDL
