MODEL 1
REMARK minimizedAffinity 3.81121302
REMARK minimizedRMSD -1
REMARK  0 active torsions:
REMARK  status: ('A' for Active; 'I' for Inactive)
ROOT
ATOM      1  C   UNL d   1      -1.878   3.193  -1.999  0.00  0.00     0.077 C 
ATOM      2  C1  UNL d   1      -0.592   3.479  -2.716  0.00  0.00    -0.074 A 
ATOM      3  C2  UNL d   1       0.168   4.611  -2.405  0.00  0.00    -0.005 A 
ATOM      4  C3  UNL d   1       1.366   4.859  -3.074  0.00  0.00     0.006 A 
ATOM      5  C4  UNL d   1       1.816   3.980  -4.059  0.00  0.00    -0.005 A 
ATOM      6  C5  UNL d   1       1.070   2.843  -4.384  0.00  0.00    -0.074 A 
ATOM      7  C6  UNL d   1       1.544   1.882  -5.433  0.00  0.00     0.077 C 
ATOM      8  C7  UNL d   1      -0.130   2.596  -3.702  0.00  0.00    -0.001 A 
ENDROOT
TORSDOF 0
ENDMDL
