MODEL 1
REMARK minimizedAffinity 3.05786633
REMARK minimizedRMSD -1
REMARK  1 active torsions:
REMARK  status: ('A' for Active; 'I' for Inactive)
REMARK    1  A    between atoms: N_2  and  C1_3 
ROOT
ATOM      1  C1  UNL d   1      -3.599   0.796  -3.227  0.00  0.00     0.143 A 
ATOM      2  C2  UNL d   1      -3.102   0.809  -1.920  0.00  0.00    -0.057 A 
ATOM      3  C3  UNL d   1      -3.092   1.984  -1.158  0.00  0.00     0.033 A 
ATOM      4  C4  UNL d   1      -3.555   3.177  -1.703  0.00  0.00    -0.042 A 
ATOM      5  C5  UNL d   1      -4.031   3.193  -3.010  0.00  0.00     0.033 A 
ATOM      6  C6  UNL d   1      -4.044   2.015  -3.763  0.00  0.00    -0.057 A 
ENDROOT
BRANCH   1   7
ATOM      7  N   UNL d   1      -3.544  -0.318  -4.069  0.00  0.00    -0.732 N 
ATOM      8  C   UNL d   1      -4.621  -1.285  -4.083  0.00  0.00     0.284 C 
ATOM      9  H3  UNL d   1      -3.178  -0.090  -4.991  0.00  0.00     0.395 HD
ENDBRANCH   1   7
TORSDOF 1
ENDMDL
