MODEL 1
REMARK minimizedAffinity 1.7106967
REMARK minimizedRMSD -1
REMARK  1 active torsions:
REMARK  status: ('A' for Active; 'I' for Inactive)
REMARK    1  A    between atoms: N_2  and  C1_3 
ROOT
ATOM      1  C1  UNL d   1      -3.884   0.556  -4.891  0.00  0.00     0.143 A 
ATOM      2  C2  UNL d   1      -4.497   1.636  -5.535  0.00  0.00    -0.057 A 
ATOM      3  C3  UNL d   1      -4.707   2.852  -4.874  0.00  0.00     0.033 A 
ATOM      4  C4  UNL d   1      -4.332   3.001  -3.543  0.00  0.00    -0.042 A 
ATOM      5  C5  UNL d   1      -3.743   1.933  -2.875  0.00  0.00     0.033 A 
ATOM      6  C6  UNL d   1      -3.530   0.723  -3.542  0.00  0.00    -0.057 A 
ENDROOT
BRANCH   1   7
ATOM      7  N   UNL d   1      -3.737  -0.710  -5.463  0.00  0.00    -0.732 N 
ATOM      8  C   UNL d   1      -4.882  -1.413  -6.000  0.00  0.00     0.284 C 
ATOM      9  H3  UNL d   1      -2.899  -0.782  -6.035  0.00  0.00     0.395 HD
ENDBRANCH   1   7
TORSDOF 1
ENDMDL
