MODEL 1
REMARK minimizedAffinity 0.0368623585
REMARK minimizedRMSD -1
REMARK  1 active torsions:
REMARK  status: ('A' for Active; 'I' for Inactive)
REMARK    1  A    between atoms: N_2  and  C1_3 
ROOT
ATOM      1  C1  UNL d   1       5.044   3.325  -5.848  0.00  0.00     0.143 A 
ATOM      2  C2  UNL d   1       3.695   2.962  -5.926  0.00  0.00    -0.057 A 
ATOM      3  C3  UNL d   1       3.307   1.618  -5.986  0.00  0.00     0.033 A 
ATOM      4  C4  UNL d   1       4.267   0.611  -5.999  0.00  0.00    -0.042 A 
ATOM      5  C5  UNL d   1       5.614   0.949  -5.947  0.00  0.00     0.033 A 
ATOM      6  C6  UNL d   1       5.995   2.293  -5.880  0.00  0.00    -0.057 A 
ENDROOT
BRANCH   1   7
ATOM      7  N   UNL d   1       5.498   4.646  -5.885  0.00  0.00    -0.732 N 
ATOM      8  C   UNL d   1       5.999   5.287  -4.689  0.00  0.00     0.284 C 
ATOM      9  H3  UNL d   1       6.039   4.847  -6.723  0.00  0.00     0.395 HD
ENDBRANCH   1   7
TORSDOF 1
ENDMDL
