MODEL 1
REMARK minimizedAffinity 10.3099442
REMARK minimizedRMSD -1
REMARK  1 active torsions:
REMARK  status: ('A' for Active; 'I' for Inactive)
REMARK    1  A    between atoms: N_2  and  C1_3 
ROOT
ATOM      1  C1  UNL d   1      -4.813  -3.856  -5.448  0.00  0.00     0.143 A 
ATOM      2  C2  UNL d   1      -5.949  -3.188  -5.918  0.00  0.00    -0.057 A 
ATOM      3  C3  UNL d   1      -5.992  -1.790  -5.988  0.00  0.00     0.033 A 
ATOM      4  C4  UNL d   1      -4.906  -1.032  -5.560  0.00  0.00    -0.042 A 
ATOM      5  C5  UNL d   1      -3.777  -1.675  -5.065  0.00  0.00     0.033 A 
ATOM      6  C6  UNL d   1      -3.737  -3.071  -5.004  0.00  0.00    -0.057 A 
ENDROOT
BRANCH   1   7
ATOM      7  N   UNL d   1      -4.746  -5.239  -5.262  0.00  0.00    -0.732 N 
ATOM      8  C   UNL d   1      -5.935  -5.998  -4.938  0.00  0.00     0.284 C 
ATOM      9  H3  UNL d   1      -4.134  -5.692  -5.936  0.00  0.00     0.395 HD
ENDBRANCH   1   7
TORSDOF 1
ENDMDL
