MODEL 1
REMARK minimizedAffinity 1.23352003
REMARK minimizedRMSD -1
REMARK  1 active torsions:
REMARK  status: ('A' for Active; 'I' for Inactive)
REMARK    1  A    between atoms: N_2  and  C1_3 
ROOT
ATOM      1  C1  UNL d   1       3.034  -0.291   0.678  0.00  0.00     0.143 A 
ATOM      2  C2  UNL d   1       2.057  -1.242   0.993  0.00  0.00    -0.057 A 
ATOM      3  C3  UNL d   1       1.412  -1.235   2.236  0.00  0.00     0.033 A 
ATOM      4  C4  UNL d   1       1.755  -0.292   3.199  0.00  0.00    -0.042 A 
ATOM      5  C5  UNL d   1       2.740   0.647   2.916  0.00  0.00     0.033 A 
ATOM      6  C6  UNL d   1       3.376   0.640   1.671  0.00  0.00    -0.057 A 
ENDROOT
BRANCH   1   7
ATOM      7  N   UNL d   1       3.781  -0.306  -0.503  0.00  0.00    -0.732 N 
ATOM      8  C   UNL d   1       3.321  -1.048  -1.657  0.00  0.00     0.284 C 
ATOM      9  H3  UNL d   1       4.174   0.606  -0.725  0.00  0.00     0.395 HD
ENDBRANCH   1   7
TORSDOF 1
ENDMDL
