MODEL 1
REMARK minimizedAffinity 10.9994402
REMARK minimizedRMSD -1
REMARK  0 active torsions:
REMARK  status: ('A' for Active; 'I' for Inactive)
ROOT
ATOM      1  C   UNL d   1       1.673   0.160   0.924  0.00  0.00     0.124 A 
ATOM      2  C1  UNL d   1       1.898  -0.707   1.984  0.00  0.00     0.062 A 
ATOM      3  C2  UNL d   1       3.132  -0.722   2.627  0.00  0.00     0.162 A 
ATOM      4  C3  UNL d   1       4.152   0.134   2.212  0.00  0.00    -0.034 A 
ATOM      5  C4  UNL d   1       3.919   1.003   1.144  0.00  0.00     0.162 A 
ATOM      6  C5  UNL d   1       2.683   1.014   0.505  0.00  0.00     0.062 A 
ATOM      7  F   UNL d   1       2.468   1.853  -0.519  0.00  0.00    -0.097 F 
ATOM      8  F1  UNL d   1       4.877   1.840   0.720  0.00  0.00    -0.096 F 
ATOM      9  I   UNL d   1       5.999   0.115   3.170  0.00  0.00    -0.060 I 
ATOM     10  F2  UNL d   1       3.322  -1.571   3.648  0.00  0.00    -0.096 F 
ATOM     11  F3  UNL d   1       0.923  -1.534   2.390  0.00  0.00    -0.097 F 
ATOM     12  F4  UNL d   1       0.484   0.172   0.307  0.00  0.00    -0.092 F 
ENDROOT
TORSDOF 0
ENDMDL
