MODEL 1
REMARK minimizedAffinity 13.8624973
REMARK minimizedRMSD -1
REMARK  0 active torsions:
REMARK  status: ('A' for Active; 'I' for Inactive)
ROOT
ATOM      1  C   UNL d   1       3.136  -1.563   2.741  0.00  0.00     0.124 A 
ATOM      2  C1  UNL d   1       2.094  -0.802   2.230  0.00  0.00     0.062 A 
ATOM      3  C2  UNL d   1       2.362   0.360   1.512  0.00  0.00     0.162 A 
ATOM      4  C3  UNL d   1       3.679   0.767   1.299  0.00  0.00    -0.034 A 
ATOM      5  C4  UNL d   1       4.722  -0.004   1.817  0.00  0.00     0.162 A 
ATOM      6  C5  UNL d   1       4.448  -1.164   2.534  0.00  0.00     0.062 A 
ATOM      7  F   UNL d   1       5.456  -1.898   3.027  0.00  0.00    -0.097 F 
ATOM      8  F1  UNL d   1       6.000   0.359   1.630  0.00  0.00    -0.096 F 
ATOM      9  I   UNL d   1       4.085   2.503   0.225  0.00  0.00    -0.060 I 
ATOM     10  F2  UNL d   1       1.336   1.076   1.030  0.00  0.00    -0.096 F 
ATOM     11  F3  UNL d   1       0.824  -1.185   2.430  0.00  0.00    -0.097 F 
ATOM     12  F4  UNL d   1       2.874  -2.680   3.433  0.00  0.00    -0.092 F 
ENDROOT
TORSDOF 0
ENDMDL
