MODEL 1
REMARK minimizedAffinity 13.3000851
REMARK minimizedRMSD -1
REMARK  0 active torsions:
REMARK  status: ('A' for Active; 'I' for Inactive)
ROOT
ATOM      1  C   UNL d   1       3.890   0.748   1.360  0.00  0.00     0.124 A 
ATOM      2  C1  UNL d   1       4.786  -0.093   2.006  0.00  0.00     0.062 A 
ATOM      3  C2  UNL d   1       4.428  -1.406   2.297  0.00  0.00     0.162 A 
ATOM      4  C3  UNL d   1       3.168  -1.887   1.943  0.00  0.00    -0.034 A 
ATOM      5  C4  UNL d   1       2.272  -1.036   1.295  0.00  0.00     0.162 A 
ATOM      6  C5  UNL d   1       2.634   0.276   1.006  0.00  0.00     0.062 A 
ATOM      7  F   UNL d   1       1.767   1.087   0.382  0.00  0.00    -0.097 F 
ATOM      8  F1  UNL d   1       1.052  -1.466   0.940  0.00  0.00    -0.096 F 
ATOM      9  I   UNL d   1       2.629  -3.850   2.378  0.00  0.00    -0.060 I 
ATOM     10  F2  UNL d   1       5.315  -2.196   2.922  0.00  0.00    -0.096 F 
ATOM     11  F3  UNL d   1       6.000   0.361   2.350  0.00  0.00    -0.097 F 
ATOM     12  F4  UNL d   1       4.237   2.011   1.082  0.00  0.00    -0.092 F 
ENDROOT
TORSDOF 0
ENDMDL
