MODEL 1
REMARK minimizedAffinity 20.9506226
REMARK minimizedRMSD -1
REMARK  0 active torsions:
REMARK  status: ('A' for Active; 'I' for Inactive)
ROOT
ATOM      1  C   UNL d   1      -2.167   3.846   2.569  0.00  0.00     0.124 A 
ATOM      2  C1  UNL d   1      -3.498   3.564   2.293  0.00  0.00     0.062 A 
ATOM      3  C2  UNL d   1      -4.472   3.761   3.267  0.00  0.00     0.162 A 
ATOM      4  C3  UNL d   1      -4.120   4.244   4.527  0.00  0.00    -0.034 A 
ATOM      5  C4  UNL d   1      -2.780   4.524   4.798  0.00  0.00     0.162 A 
ATOM      6  C5  UNL d   1      -1.809   4.325   3.822  0.00  0.00     0.062 A 
ATOM      7  F   UNL d   1      -0.524   4.598   4.091  0.00  0.00    -0.097 F 
ATOM      8  F1  UNL d   1      -2.406   4.989   6.000  0.00  0.00    -0.096 F 
ATOM      9  I   UNL d   1      -5.574   4.539   5.986  0.00  0.00    -0.060 I 
ATOM     10  F2  UNL d   1      -5.750   3.480   2.971  0.00  0.00    -0.096 F 
ATOM     11  F3  UNL d   1      -3.846   3.100   1.084  0.00  0.00    -0.097 F 
ATOM     12  F4  UNL d   1      -1.231   3.655   1.631  0.00  0.00    -0.092 F 
ENDROOT
TORSDOF 0
ENDMDL
