MODEL 1
REMARK minimizedAffinity 9.56966019
REMARK minimizedRMSD -1
REMARK  0 active torsions:
REMARK  status: ('A' for Active; 'I' for Inactive)
ROOT
ATOM      1  C   UNL d   1       1.591   0.413   0.929  0.00  0.00     0.124 A 
ATOM      2  C1  UNL d   1       1.811  -0.455   1.990  0.00  0.00     0.062 A 
ATOM      3  C2  UNL d   1       3.067  -0.529   2.585  0.00  0.00     0.162 A 
ATOM      4  C3  UNL d   1       4.114   0.268   2.121  0.00  0.00    -0.034 A 
ATOM      5  C4  UNL d   1       3.885   1.137   1.052  0.00  0.00     0.162 A 
ATOM      6  C5  UNL d   1       2.628   1.207   0.461  0.00  0.00     0.062 A 
ATOM      7  F   UNL d   1       2.418   2.046  -0.564  0.00  0.00    -0.097 F 
ATOM      8  F1  UNL d   1       4.869   1.917   0.581  0.00  0.00    -0.096 F 
ATOM      9  I   UNL d   1       5.993   0.160   3.008  0.00  0.00    -0.060 I 
ATOM     10  F2  UNL d   1       3.251  -1.376   3.608  0.00  0.00    -0.096 F 
ATOM     11  F3  UNL d   1       0.811  -1.225   2.443  0.00  0.00    -0.097 F 
ATOM     12  F4  UNL d   1       0.382   0.481   0.357  0.00  0.00    -0.092 F 
ENDROOT
TORSDOF 0
ENDMDL
