MODEL 1
REMARK minimizedAffinity 19.3220501
REMARK minimizedRMSD -1
REMARK  0 active torsions:
REMARK  status: ('A' for Active; 'I' for Inactive)
ROOT
ATOM      1  C   UNL d   1      -4.322  -3.877   2.380  0.00  0.00     0.124 A 
ATOM      2  C1  UNL d   1      -3.917  -2.580   2.095  0.00  0.00     0.062 A 
ATOM      3  C2  UNL d   1      -3.697  -1.672   3.126  0.00  0.00     0.162 A 
ATOM      4  C3  UNL d   1      -3.881  -2.058   4.454  0.00  0.00    -0.034 A 
ATOM      5  C4  UNL d   1      -4.289  -3.363   4.734  0.00  0.00     0.162 A 
ATOM      6  C5  UNL d   1      -4.507  -4.267   3.699  0.00  0.00     0.062 A 
ATOM      7  F   UNL d   1      -4.898  -5.519   3.977  0.00  0.00    -0.097 F 
ATOM      8  F1  UNL d   1      -4.475  -3.767   5.999  0.00  0.00    -0.096 F 
ATOM      9  I   UNL d   1      -3.554  -0.703   6.000  0.00  0.00    -0.060 I 
ATOM     10  F2  UNL d   1      -3.307  -0.426   2.821  0.00  0.00    -0.096 F 
ATOM     11  F3  UNL d   1      -3.738  -2.201   0.821  0.00  0.00    -0.097 F 
ATOM     12  F4  UNL d   1      -4.534  -4.748   1.386  0.00  0.00    -0.092 F 
ENDROOT
TORSDOF 0
ENDMDL
