MODEL 1
REMARK minimizedAffinity 14.1612291
REMARK minimizedRMSD -1
REMARK  0 active torsions:
REMARK  status: ('A' for Active; 'I' for Inactive)
ROOT
ATOM      1  C   UNL d   1       3.523  -0.726   2.337  0.00  0.00     0.124 A 
ATOM      2  C1  UNL d   1       4.511   0.088   1.800  0.00  0.00     0.062 A 
ATOM      3  C2  UNL d   1       4.201   1.376   1.372  0.00  0.00     0.162 A 
ATOM      4  C3  UNL d   1       2.897   1.858   1.480  0.00  0.00    -0.034 A 
ATOM      5  C4  UNL d   1       1.908   1.034   2.020  0.00  0.00     0.162 A 
ATOM      6  C5  UNL d   1       2.223  -0.253   2.446  0.00  0.00     0.062 A 
ATOM      7  F   UNL d   1       1.267  -1.037   2.964  0.00  0.00    -0.097 F 
ATOM      8  F1  UNL d   1       0.644   1.466   2.138  0.00  0.00    -0.096 F 
ATOM      9  I   UNL d   1       2.430   3.783   0.841  0.00  0.00    -0.060 I 
ATOM     10  F2  UNL d   1       5.176   2.140   0.858  0.00  0.00    -0.096 F 
ATOM     11  F3  UNL d   1       5.767  -0.368   1.693  0.00  0.00    -0.097 F 
ATOM     12  F4  UNL d   1       3.823  -1.965   2.747  0.00  0.00    -0.092 F 
ENDROOT
TORSDOF 0
ENDMDL
