MODEL 1
REMARK minimizedAffinity 3.83618879
REMARK minimizedRMSD -1
REMARK  0 active torsions:
REMARK  status: ('A' for Active; 'I' for Inactive)
ROOT
ATOM      1  C   UNL d   1       1.593  -0.258   0.888  0.00  0.00     0.124 A 
ATOM      2  C1  UNL d   1       2.499   0.746   0.577  0.00  0.00     0.062 A 
ATOM      3  C2  UNL d   1       3.758   0.762   1.171  0.00  0.00     0.162 A 
ATOM      4  C3  UNL d   1       4.119  -0.231   2.082  0.00  0.00    -0.034 A 
ATOM      5  C4  UNL d   1       3.202  -1.237   2.390  0.00  0.00     0.162 A 
ATOM      6  C5  UNL d   1       1.945  -1.249   1.794  0.00  0.00     0.062 A 
ATOM      7  F   UNL d   1       1.072  -2.220   2.095  0.00  0.00    -0.097 F 
ATOM      8  F1  UNL d   1       3.517  -2.207   3.261  0.00  0.00    -0.096 F 
ATOM      9  I   UNL d   1       6.000  -0.210   2.972  0.00  0.00    -0.060 I 
ATOM     10  F2  UNL d   1       4.613   1.745   0.852  0.00  0.00    -0.096 F 
ATOM     11  F3  UNL d   1       2.161   1.705  -0.297  0.00  0.00    -0.097 F 
ATOM     12  F4  UNL d   1       0.383  -0.271   0.316  0.00  0.00    -0.092 F 
ENDROOT
TORSDOF 0
ENDMDL
