MODEL 1
REMARK minimizedAffinity 17.6342335
REMARK minimizedRMSD -1
REMARK  0 active torsions:
REMARK  status: ('A' for Active; 'I' for Inactive)
ROOT
ATOM      1  C   UNL d   1       1.750   0.544   0.940  0.00  0.00     0.124 A 
ATOM      2  C1  UNL d   1       1.886  -0.468   1.879  0.00  0.00     0.062 A 
ATOM      3  C2  UNL d   1       3.097  -0.653   2.539  0.00  0.00     0.162 A 
ATOM      4  C3  UNL d   1       4.183   0.178   2.263  0.00  0.00    -0.034 A 
ATOM      5  C4  UNL d   1       4.039   1.194   1.316  0.00  0.00     0.162 A 
ATOM      6  C5  UNL d   1       2.826   1.374   0.659  0.00  0.00     0.062 A 
ATOM      7  F   UNL d   1       2.696   2.353  -0.248  0.00  0.00    -0.097 F 
ATOM      8  F1  UNL d   1       5.062   2.010   1.026  0.00  0.00    -0.096 F 
ATOM      9  I   UNL d   1       5.996  -0.095   3.247  0.00  0.00    -0.060 I 
ATOM     10  F2  UNL d   1       3.200  -1.639   3.442  0.00  0.00    -0.096 F 
ATOM     11  F3  UNL d   1       0.847  -1.272   2.152  0.00  0.00    -0.097 F 
ATOM     12  F4  UNL d   1       0.583   0.719   0.306  0.00  0.00    -0.092 F 
ENDROOT
TORSDOF 0
ENDMDL
