MODEL 1
REMARK minimizedAffinity 21.9013443
REMARK minimizedRMSD -1
REMARK  0 active torsions:
REMARK  status: ('A' for Active; 'I' for Inactive)
ROOT
ATOM      1  C   UNL d   1      -5.719   3.721   4.802  0.00  0.00     0.124 A 
ATOM      2  C1  UNL d   1      -5.832   4.381   3.586  0.00  0.00     0.062 A 
ATOM      3  C2  UNL d   1      -5.770   3.666   2.393  0.00  0.00     0.162 A 
ATOM      4  C3  UNL d   1      -5.595   2.282   2.410  0.00  0.00    -0.034 A 
ATOM      5  C4  UNL d   1      -5.482   1.626   3.637  0.00  0.00     0.162 A 
ATOM      6  C5  UNL d   1      -5.544   2.344   4.826  0.00  0.00     0.062 A 
ATOM      7  F   UNL d   1      -5.435   1.705   6.000  0.00  0.00    -0.097 F 
ATOM      8  F1  UNL d   1      -5.313   0.296   3.689  0.00  0.00    -0.096 F 
ATOM      9  I   UNL d   1      -5.503   1.211   0.629  0.00  0.00    -0.060 I 
ATOM     10  F2  UNL d   1      -5.882   4.330   1.233  0.00  0.00    -0.096 F 
ATOM     11  F3  UNL d   1      -6.000   5.711   3.560  0.00  0.00    -0.097 F 
ATOM     12  F4  UNL d   1      -5.777   4.411   5.948  0.00  0.00    -0.092 F 
ENDROOT
TORSDOF 0
ENDMDL
