MODEL 1
REMARK minimizedAffinity 21.154171
REMARK minimizedRMSD -1
REMARK  0 active torsions:
REMARK  status: ('A' for Active; 'I' for Inactive)
ROOT
ATOM      1  C   UNL d   1       1.288   0.026   1.166  0.00  0.00     0.124 A 
ATOM      2  C1  UNL d   1       2.325   0.871   0.795  0.00  0.00     0.062 A 
ATOM      3  C2  UNL d   1       3.582   0.734   1.376  0.00  0.00     0.162 A 
ATOM      4  C3  UNL d   1       3.811  -0.253   2.334  0.00  0.00    -0.034 A 
ATOM      5  C4  UNL d   1       2.763  -1.099   2.703  0.00  0.00     0.162 A 
ATOM      6  C5  UNL d   1       1.508  -0.958   2.119  0.00  0.00     0.062 A 
ATOM      7  F   UNL d   1       0.508  -1.776   2.479  0.00  0.00    -0.097 F 
ATOM      8  F1  UNL d   1       2.948  -2.059   3.622  0.00  0.00    -0.096 F 
ATOM      9  I   UNL d   1       5.689  -0.461   3.206  0.00  0.00    -0.060 I 
ATOM     10  F2  UNL d   1       4.565   1.565   0.998  0.00  0.00    -0.096 F 
ATOM     11  F3  UNL d   1       2.115   1.823  -0.126  0.00  0.00    -0.097 F 
ATOM     12  F4  UNL d   1       0.079   0.160   0.606  0.00  0.00    -0.092 F 
ENDROOT
TORSDOF 0
ENDMDL
