MODEL 1
REMARK minimizedAffinity 25.255249
REMARK minimizedRMSD -1
REMARK  0 active torsions:
REMARK  status: ('A' for Active; 'I' for Inactive)
ROOT
ATOM      1  C   UNL d   1      -3.346  -0.884   0.592  0.00  0.00     0.124 A 
ATOM      2  C1  UNL d   1      -3.138   0.468   0.354  0.00  0.00     0.062 A 
ATOM      3  C2  UNL d   1      -3.882   1.423   1.041  0.00  0.00     0.162 A 
ATOM      4  C3  UNL d   1      -4.841   1.030   1.975  0.00  0.00    -0.034 A 
ATOM      5  C4  UNL d   1      -5.045  -0.331   2.208  0.00  0.00     0.162 A 
ATOM      6  C5  UNL d   1      -4.300  -1.282   1.519  0.00  0.00     0.062 A 
ATOM      7  F   UNL d   1      -4.502  -2.587   1.750  0.00  0.00    -0.097 F 
ATOM      8  F1  UNL d   1      -5.959  -0.744   3.099  0.00  0.00    -0.096 F 
ATOM      9  I   UNL d   1      -5.955   2.454   3.004  0.00  0.00    -0.060 I 
ATOM     10  F2  UNL d   1      -3.659   2.721   0.791  0.00  0.00    -0.096 F 
ATOM     11  F3  UNL d   1      -2.218   0.855  -0.542  0.00  0.00    -0.097 F 
ATOM     12  F4  UNL d   1      -2.630  -1.800  -0.071  0.00  0.00    -0.092 F 
ENDROOT
TORSDOF 0
ENDMDL
