MODEL 1
REMARK minimizedAffinity 18.1565075
REMARK minimizedRMSD -1
REMARK  0 active torsions:
REMARK  status: ('A' for Active; 'I' for Inactive)
ROOT
ATOM      1  C   UNL d   1       1.844   0.017   0.713  0.00  0.00     0.124 A 
ATOM      2  C1  UNL d   1       2.196  -0.855   1.735  0.00  0.00     0.062 A 
ATOM      3  C2  UNL d   1       3.382  -0.667   2.438  0.00  0.00     0.162 A 
ATOM      4  C3  UNL d   1       4.225   0.399   2.124  0.00  0.00    -0.034 A 
ATOM      5  C4  UNL d   1       3.865   1.271   1.095  0.00  0.00     0.162 A 
ATOM      6  C5  UNL d   1       2.679   1.079   0.395  0.00  0.00     0.062 A 
ATOM      7  F   UNL d   1       2.341   1.922  -0.591  0.00  0.00    -0.097 F 
ATOM      8  F1  UNL d   1       4.652   2.306   0.767  0.00  0.00    -0.096 F 
ATOM      9  I   UNL d   1       5.999   0.684   3.175  0.00  0.00    -0.060 I 
ATOM     10  F2  UNL d   1       3.696  -1.525   3.420  0.00  0.00    -0.096 F 
ATOM     11  F3  UNL d   1       1.392  -1.883   2.044  0.00  0.00    -0.097 F 
ATOM     12  F4  UNL d   1       0.703  -0.168   0.037  0.00  0.00    -0.092 F 
ENDROOT
TORSDOF 0
ENDMDL
