MODEL 1
REMARK minimizedAffinity 13.532176
REMARK minimizedRMSD -1
REMARK  0 active torsions:
REMARK  status: ('A' for Active; 'I' for Inactive)
ROOT
ATOM      1  C   UNL d   1      -4.503  -0.246   2.629  0.00  0.00     0.124 A 
ATOM      2  C1  UNL d   1      -3.822  -0.397   3.828  0.00  0.00     0.062 A 
ATOM      3  C2  UNL d   1      -3.869   0.606   4.791  0.00  0.00     0.162 A 
ATOM      4  C3  UNL d   1      -4.602   1.770   4.559  0.00  0.00    -0.034 A 
ATOM      5  C4  UNL d   1      -5.284   1.915   3.350  0.00  0.00     0.162 A 
ATOM      6  C5  UNL d   1      -5.234   0.909   2.391  0.00  0.00     0.062 A 
ATOM      7  F   UNL d   1      -5.893   1.057   1.232  0.00  0.00    -0.097 F 
ATOM      8  F1  UNL d   1      -5.998   3.022   3.094  0.00  0.00    -0.096 F 
ATOM      9  I   UNL d   1      -4.675   3.274   5.997  0.00  0.00    -0.060 I 
ATOM     10  F2  UNL d   1      -3.201   0.434   5.942  0.00  0.00    -0.096 F 
ATOM     11  F3  UNL d   1      -3.115  -1.513   4.060  0.00  0.00    -0.097 F 
ATOM     12  F4  UNL d   1      -4.455  -1.213   1.703  0.00  0.00    -0.092 F 
ENDROOT
TORSDOF 0
ENDMDL
