MODEL 1
REMARK minimizedAffinity -5.09394026
REMARK minimizedRMSD -1
REMARK  1 active torsions:
REMARK  status: ('A' for Active; 'I' for Inactive)
REMARK    1  A    between atoms: C1_2  and  C2_3 
ROOT
ATOM      1  C2  UNL d   1      -0.276  -0.999   0.426  0.00  0.00    -0.073 A 
ATOM      2  C3  UNL d   1      -0.487  -2.381   0.483  0.00  0.00    -0.002 A 
ATOM      3  C4  UNL d   1      -1.654  -2.893   1.052  0.00  0.00     0.004 A 
ATOM      4  C5  UNL d   1      -2.624  -2.030   1.562  0.00  0.00    -0.004 A 
ATOM      5  C6  UNL d   1      -2.436  -0.645   1.504  0.00  0.00    -0.075 A 
ATOM      6  C7  UNL d   1      -3.468   0.297   2.051  0.00  0.00     0.076 C 
ATOM      7  C8  UNL d   1      -1.261  -0.139   0.934  0.00  0.00     0.001 A 
ENDROOT
BRANCH   1   8
ATOM      8  C1  UNL d   1       0.979  -0.441  -0.193  0.00  0.00     0.053 C 
ATOM      9  C   UNL d   1       0.801   0.999  -0.646  0.00  0.00     0.018 C 
ENDBRANCH   1   8
TORSDOF 1
ENDMDL
