MODEL 1
REMARK minimizedAffinity -4.48457241
REMARK minimizedRMSD -1
REMARK  1 active torsions:
REMARK  status: ('A' for Active; 'I' for Inactive)
REMARK    1  A    between atoms: C1_2  and  C2_3 
ROOT
ATOM      1  C2  UNL d   1      -0.009   0.109   0.104  0.00  0.00    -0.073 A 
ATOM      2  C3  UNL d   1       1.201  -0.588   0.008  0.00  0.00    -0.002 A 
ATOM      3  C4  UNL d   1       1.270  -1.934   0.371  0.00  0.00     0.004 A 
ATOM      4  C5  UNL d   1       0.130  -2.597   0.825  0.00  0.00    -0.004 A 
ATOM      5  C6  UNL d   1      -1.090  -1.921   0.917  0.00  0.00    -0.075 A 
ATOM      6  C7  UNL d   1      -2.325  -2.620   1.406  0.00  0.00     0.076 C 
ATOM      7  C8  UNL d   1      -1.151  -0.569   0.554  0.00  0.00     0.001 A 
ENDROOT
BRANCH   1   8
ATOM      8  C1  UNL d   1      -0.089   1.561  -0.292  0.00  0.00     0.053 C 
ATOM      9  C   UNL d   1       0.740   1.860  -1.531  0.00  0.00     0.018 C 
ENDBRANCH   1   8
TORSDOF 1
ENDMDL
