MODEL 1
REMARK minimizedAffinity -4.52443314
REMARK minimizedRMSD -1
REMARK  1 active torsions:
REMARK  status: ('A' for Active; 'I' for Inactive)
REMARK    1  A    between atoms: C1_2  and  C2_3 
ROOT
ATOM      1  C2  UNL d   1       0.267  -0.325  -0.199  0.00  0.00    -0.073 A 
ATOM      2  C3  UNL d   1       0.834  -1.446   0.417  0.00  0.00    -0.002 A 
ATOM      3  C4  UNL d   1       0.066  -2.251   1.260  0.00  0.00     0.004 A 
ATOM      4  C5  UNL d   1      -1.276  -1.948   1.489  0.00  0.00    -0.004 A 
ATOM      5  C6  UNL d   1      -1.864  -0.839   0.872  0.00  0.00    -0.075 A 
ATOM      6  C7  UNL d   1      -3.306  -0.498   1.110  0.00  0.00     0.076 C 
ATOM      7  C8  UNL d   1      -1.086  -0.034   0.030  0.00  0.00     0.001 A 
ENDROOT
BRANCH   1   8
ATOM      8  C1  UNL d   1       1.090   0.544  -1.115  0.00  0.00     0.053 C 
ATOM      9  C   UNL d   1       0.339   0.904  -2.387  0.00  0.00     0.018 C 
ENDBRANCH   1   8
TORSDOF 1
ENDMDL
