MODEL 1
REMARK minimizedAffinity -4.89080238
REMARK minimizedRMSD -1
REMARK  1 active torsions:
REMARK  status: ('A' for Active; 'I' for Inactive)
REMARK    1  A    between atoms: C1_2  and  C2_3 
ROOT
ATOM      1  C2  UNL d   1      -1.581  -0.166   1.162  0.00  0.00    -0.073 A 
ATOM      2  C3  UNL d   1      -2.302  -1.293   1.572  0.00  0.00    -0.002 A 
ATOM      3  C4  UNL d   1      -1.702  -2.552   1.571  0.00  0.00     0.004 A 
ATOM      4  C5  UNL d   1      -0.375  -2.697   1.167  0.00  0.00    -0.004 A 
ATOM      5  C6  UNL d   1       0.366  -1.581   0.765  0.00  0.00    -0.075 A 
ATOM      6  C7  UNL d   1       1.794  -1.720   0.325  0.00  0.00     0.076 C 
ATOM      7  C8  UNL d   1      -0.245  -0.320   0.766  0.00  0.00     0.001 A 
ENDROOT
BRANCH   1   8
ATOM      8  C1  UNL d   1      -2.223   1.198   1.167  0.00  0.00     0.053 C 
ATOM      9  C   UNL d   1      -1.244   2.290   0.768  0.00  0.00     0.018 C 
ENDBRANCH   1   8
TORSDOF 1
ENDMDL
