MODEL 1
REMARK minimizedAffinity -4.05840826
REMARK minimizedRMSD -1
REMARK  1 active torsions:
REMARK  status: ('A' for Active; 'I' for Inactive)
REMARK    1  A    between atoms: C1_2  and  C2_3 
ROOT
ATOM      1  C2  UNL d   1       0.008   0.709  -0.702  0.00  0.00    -0.073 A 
ATOM      2  C3  UNL d   1       1.173   0.696   0.073  0.00  0.00    -0.002 A 
ATOM      3  C4  UNL d   1       1.409  -0.342   0.975  0.00  0.00     0.004 A 
ATOM      4  C5  UNL d   1       0.488  -1.381   1.106  0.00  0.00    -0.004 A 
ATOM      5  C6  UNL d   1      -0.677  -1.392   0.332  0.00  0.00    -0.075 A 
ATOM      6  C7  UNL d   1      -1.680  -2.501   0.463  0.00  0.00     0.076 C 
ATOM      7  C8  UNL d   1      -0.908  -0.344  -0.570  0.00  0.00     0.001 A 
ENDROOT
BRANCH   1   8
ATOM      8  C1  UNL d   1      -0.248   1.825  -1.682  0.00  0.00     0.053 C 
ATOM      9  C   UNL d   1       0.832   1.905  -2.749  0.00  0.00     0.018 C 
ENDBRANCH   1   8
TORSDOF 1
ENDMDL
