MODEL 1
REMARK minimizedAffinity -5.5296917
REMARK minimizedRMSD -1
REMARK  1 active torsions:
REMARK  status: ('A' for Active; 'I' for Inactive)
REMARK    1  A    between atoms: C1_2  and  C2_3 
ROOT
ATOM      1  C2  UNL d   1      -1.584  -0.794   1.052  0.00  0.00    -0.073 A 
ATOM      2  C3  UNL d   1      -1.816   0.573   0.858  0.00  0.00    -0.002 A 
ATOM      3  C4  UNL d   1      -0.777   1.415   0.460  0.00  0.00     0.004 A 
ATOM      4  C5  UNL d   1       0.501   0.900   0.245  0.00  0.00    -0.004 A 
ATOM      5  C6  UNL d   1       0.750  -0.465   0.422  0.00  0.00    -0.075 A 
ATOM      6  C7  UNL d   1       2.120  -1.035   0.196  0.00  0.00     0.076 C 
ATOM      7  C8  UNL d   1      -0.298  -1.304   0.824  0.00  0.00     0.001 A 
ENDROOT
BRANCH   1   8
ATOM      8  C1  UNL d   1      -2.704  -1.708   1.475  0.00  0.00     0.053 C 
ATOM      9  C   UNL d   1      -2.213  -3.120   1.751  0.00  0.00     0.018 C 
ENDBRANCH   1   8
TORSDOF 1
ENDMDL
