MODEL 1
REMARK minimizedAffinity 0.421844989
REMARK minimizedRMSD -1
REMARK  1 active torsions:
REMARK  status: ('A' for Active; 'I' for Inactive)
REMARK    1  A    between atoms: C1_2  and  C2_3 
ROOT
ATOM      1  C2  UNL d   1       0.110   1.299  -1.243  0.00  0.00    -0.073 A 
ATOM      2  C3  UNL d   1      -0.866   1.814  -2.104  0.00  0.00    -0.002 A 
ATOM      3  C4  UNL d   1      -0.513   2.276  -3.373  0.00  0.00     0.004 A 
ATOM      4  C5  UNL d   1       0.815   2.221  -3.796  0.00  0.00    -0.004 A 
ATOM      5  C6  UNL d   1       1.802   1.699  -2.954  0.00  0.00    -0.075 A 
ATOM      6  C7  UNL d   1       3.236   1.636  -3.393  0.00  0.00     0.076 C 
ATOM      7  C8  UNL d   1       1.441   1.240  -1.680  0.00  0.00     0.001 A 
ENDROOT
BRANCH   1   8
ATOM      8  C1  UNL d   1      -0.266   0.794   0.126  0.00  0.00     0.053 C 
ATOM      9  C   UNL d   1       0.287  -0.597   0.392  0.00  0.00     0.018 C 
ENDBRANCH   1   8
TORSDOF 1
ENDMDL
