MODEL 1
REMARK minimizedAffinity -4.76324654
REMARK minimizedRMSD -1
REMARK  1 active torsions:
REMARK  status: ('A' for Active; 'I' for Inactive)
REMARK    1  A    between atoms: C1_2  and  C2_3 
ROOT
ATOM      1  C2  UNL d   1      -0.547   0.242   0.025  0.00  0.00    -0.073 A 
ATOM      2  C3  UNL d   1      -1.520   1.038   0.641  0.00  0.00    -0.002 A 
ATOM      3  C4  UNL d   1      -2.475   0.462   1.479  0.00  0.00     0.004 A 
ATOM      4  C5  UNL d   1      -2.464  -0.912   1.715  0.00  0.00    -0.004 A 
ATOM      5  C6  UNL d   1      -1.493  -1.723   1.119  0.00  0.00    -0.075 A 
ATOM      6  C7  UNL d   1      -1.469  -3.204   1.361  0.00  0.00     0.076 C 
ATOM      7  C8  UNL d   1      -0.538  -1.137   0.276  0.00  0.00     0.001 A 
ENDROOT
BRANCH   1   8
ATOM      8  C1  UNL d   1       0.491   0.861  -0.875  0.00  0.00     0.053 C 
ATOM      9  C   UNL d   1      -0.133   1.513  -2.099  0.00  0.00     0.018 C 
ENDBRANCH   1   8
TORSDOF 1
ENDMDL
