MODEL 1
REMARK minimizedAffinity -6.2350812
REMARK minimizedRMSD -1
REMARK  1 active torsions:
REMARK  status: ('A' for Active; 'I' for Inactive)
REMARK    1  A    between atoms: C1_2  and  C2_3 
ROOT
ATOM      1  C2  UNL d   1      -0.251  -0.988   0.684  0.00  0.00    -0.073 A 
ATOM      2  C3  UNL d   1      -0.286  -2.365   0.931  0.00  0.00    -0.002 A 
ATOM      3  C4  UNL d   1      -1.433  -2.957   1.462  0.00  0.00     0.004 A 
ATOM      4  C5  UNL d   1      -2.557  -2.181   1.745  0.00  0.00    -0.004 A 
ATOM      5  C6  UNL d   1      -2.545  -0.805   1.494  0.00  0.00    -0.075 A 
ATOM      6  C7  UNL d   1      -3.745   0.044   1.795  0.00  0.00     0.076 C 
ATOM      7  C8  UNL d   1      -1.389  -0.218   0.963  0.00  0.00     0.001 A 
ENDROOT
BRANCH   1   8
ATOM      8  C1  UNL d   1       0.983  -0.346   0.105  0.00  0.00     0.053 C 
ATOM      9  C   UNL d   1       0.798   1.147  -0.116  0.00  0.00     0.018 C 
ENDBRANCH   1   8
TORSDOF 1
ENDMDL
