MODEL 1
REMARK minimizedAffinity -4.47951841
REMARK minimizedRMSD -1
REMARK  1 active torsions:
REMARK  status: ('A' for Active; 'I' for Inactive)
REMARK    1  A    between atoms: C1_2  and  C2_3 
ROOT
ATOM      1  C2  UNL d   1      -0.081  -0.047   0.216  0.00  0.00    -0.073 A 
ATOM      2  C3  UNL d   1       0.201  -1.390   0.493  0.00  0.00    -0.002 A 
ATOM      3  C4  UNL d   1      -0.701  -2.163   1.225  0.00  0.00     0.004 A 
ATOM      4  C5  UNL d   1      -1.895  -1.605   1.681  0.00  0.00    -0.004 A 
ATOM      5  C6  UNL d   1      -2.200  -0.269   1.405  0.00  0.00    -0.075 A 
ATOM      6  C7  UNL d   1      -3.480   0.347   1.890  0.00  0.00     0.076 C 
ATOM      7  C8  UNL d   1      -1.288   0.502   0.671  0.00  0.00     0.001 A 
ENDROOT
BRANCH   1   8
ATOM      8  C1  UNL d   1       0.887   0.790  -0.579  0.00  0.00     0.053 C 
ATOM      9  C   UNL d   1       0.215   1.469  -1.762  0.00  0.00     0.018 C 
ENDBRANCH   1   8
TORSDOF 1
ENDMDL
