MODEL 1
REMARK minimizedAffinity -1.54070735
REMARK minimizedRMSD -1
REMARK  1 active torsions:
REMARK  status: ('A' for Active; 'I' for Inactive)
REMARK    1  A    between atoms: C1_2  and  C2_3 
ROOT
ATOM      1  C2  UNL d   1       0.861   1.842  -1.744  0.00  0.00    -0.073 A 
ATOM      2  C3  UNL d   1       0.080   2.232  -2.837  0.00  0.00    -0.002 A 
ATOM      3  C4  UNL d   1       0.664   2.416  -4.091  0.00  0.00     0.004 A 
ATOM      4  C5  UNL d   1       2.032   2.205  -4.266  0.00  0.00    -0.004 A 
ATOM      5  C6  UNL d   1       2.827   1.803  -3.188  0.00  0.00    -0.075 A 
ATOM      6  C7  UNL d   1       4.300   1.574  -3.359  0.00  0.00     0.076 C 
ATOM      7  C8  UNL d   1       2.234   1.624  -1.931  0.00  0.00     0.001 A 
ENDROOT
BRANCH   1   8
ATOM      8  C1  UNL d   1       0.234   1.637  -0.389  0.00  0.00     0.053 C 
ATOM      9  C   UNL d   1      -0.105   0.177  -0.134  0.00  0.00     0.018 C 
ENDBRANCH   1   8
TORSDOF 1
ENDMDL
