MODEL 1
REMARK minimizedAffinity -4.93387365
REMARK minimizedRMSD -1
REMARK  1 active torsions:
REMARK  status: ('A' for Active; 'I' for Inactive)
REMARK    1  A    between atoms: C1_2  and  C2_3 
ROOT
ATOM      1  C2  UNL d   1      -0.550  -0.751   0.523  0.00  0.00    -0.073 A 
ATOM      2  C3  UNL d   1      -0.676  -2.065   0.985  0.00  0.00    -0.002 A 
ATOM      3  C4  UNL d   1      -1.827  -2.465   1.666  0.00  0.00     0.004 A 
ATOM      4  C5  UNL d   1      -2.865  -1.559   1.884  0.00  0.00    -0.004 A 
ATOM      5  C6  UNL d   1      -2.762  -0.244   1.418  0.00  0.00    -0.075 A 
ATOM      6  C7  UNL d   1      -3.868   0.744   1.647  0.00  0.00     0.076 C 
ATOM      7  C8  UNL d   1      -1.602   0.151   0.739  0.00  0.00     0.001 A 
ENDROOT
BRANCH   1   8
ATOM      8  C1  UNL d   1       0.688  -0.316  -0.218  0.00  0.00     0.053 C 
ATOM      9  C   UNL d   1       0.815   1.198  -0.277  0.00  0.00     0.018 C 
ENDBRANCH   1   8
TORSDOF 1
ENDMDL
