MODEL 1
REMARK minimizedAffinity -1.47572732
REMARK minimizedRMSD -1
REMARK  0 active torsions:
REMARK  status: ('A' for Active; 'I' for Inactive)
ROOT
ATOM      1  C2' OXE d   1      -1.144   1.183  -5.999  0.00  0.00     0.078 C 
ATOM      2  C1' OXE d   1      -3.868   0.504  -5.997  0.00  0.00     0.078 C 
ATOM      3  C1  OXE d   1      -3.508   1.969  -5.985  0.00  0.00    -0.078 A 
ATOM      4  C2  OXE d   1      -2.173   2.292  -5.940  0.00  0.00    -0.078 A 
ATOM      5  C3  OXE d   1      -1.785   3.628  -5.983  0.00  0.00     0.003 A 
ATOM      6  C4  OXE d   1      -2.743   4.647  -5.917  0.00  0.00    -0.002 A 
ATOM      7  C5  OXE d   1      -4.108   4.339  -5.923  0.00  0.00    -0.002 A 
ATOM      8  C6  OXE d   1      -4.507   3.009  -6.000  0.00  0.00     0.003 A 
ENDROOT
TORSDOF 0
ENDMDL
