MODEL 1
REMARK minimizedAffinity 0.205795139
REMARK minimizedRMSD -1
REMARK  0 active torsions:
REMARK  status: ('A' for Active; 'I' for Inactive)
ROOT
ATOM      1  C2' OXE d   1       1.105   0.356  -3.163  0.00  0.00     0.078 C 
ATOM      2  C1' OXE d   1       1.923   1.851  -0.932  0.00  0.00     0.078 C 
ATOM      3  C1  OXE d   1       0.929   0.739  -0.708  0.00  0.00    -0.078 A 
ATOM      4  C2  OXE d   1       0.499   0.043  -1.812  0.00  0.00    -0.078 A 
ATOM      5  C3  OXE d   1      -0.376  -1.028  -1.654  0.00  0.00     0.003 A 
ATOM      6  C4  OXE d   1      -0.940  -1.304  -0.402  0.00  0.00    -0.002 A 
ATOM      7  C5  OXE d   1      -0.545  -0.582   0.729  0.00  0.00    -0.002 A 
ATOM      8  C6  OXE d   1       0.418   0.413   0.601  0.00  0.00     0.003 A 
ENDROOT
TORSDOF 0
ENDMDL
