MODEL 1
REMARK minimizedAffinity -2.18889642
REMARK minimizedRMSD -1
REMARK  0 active torsions:
REMARK  status: ('A' for Active; 'I' for Inactive)
ROOT
ATOM      1  C2' OXE d   1      -5.417   2.575  -5.996  0.00  0.00     0.078 C 
ATOM      2  C1' OXE d   1      -2.610   2.544  -5.981  0.00  0.00     0.078 C 
ATOM      3  C1  OXE d   1      -3.328   1.218  -5.981  0.00  0.00    -0.078 A 
ATOM      4  C2  OXE d   1      -4.702   1.243  -5.941  0.00  0.00    -0.078 A 
ATOM      5  C3  OXE d   1      -5.415   0.048  -5.995  0.00  0.00     0.003 A 
ATOM      6  C4  OXE d   1      -4.746  -1.180  -5.934  0.00  0.00    -0.002 A 
ATOM      7  C5  OXE d   1      -3.347  -1.228  -5.933  0.00  0.00    -0.002 A 
ATOM      8  C6  OXE d   1      -2.625  -0.041  -6.000  0.00  0.00     0.003 A 
ENDROOT
TORSDOF 0
ENDMDL
