MODEL 1
REMARK minimizedAffinity 0.442147672
REMARK minimizedRMSD -1
REMARK  0 active torsions:
REMARK  status: ('A' for Active; 'I' for Inactive)
ROOT
ATOM      1  C2' OXE d   1      -2.118   2.033  -5.996  0.00  0.00     0.078 C 
ATOM      2  C1' OXE d   1      -4.614   0.748  -5.982  0.00  0.00     0.078 C 
ATOM      3  C1  OXE d   1      -4.599   2.256  -5.981  0.00  0.00    -0.078 A 
ATOM      4  C2  OXE d   1      -3.373   2.877  -5.941  0.00  0.00    -0.078 A 
ATOM      5  C3  OXE d   1      -3.302   4.266  -5.994  0.00  0.00     0.003 A 
ATOM      6  C4  OXE d   1      -4.468   5.039  -5.933  0.00  0.00    -0.002 A 
ATOM      7  C5  OXE d   1      -5.726   4.427  -5.933  0.00  0.00    -0.002 A 
ATOM      8  C6  OXE d   1      -5.809   3.040  -6.000  0.00  0.00     0.003 A 
ENDROOT
TORSDOF 0
ENDMDL
