MODEL 1
REMARK minimizedAffinity 6.17739868
REMARK minimizedRMSD -1
REMARK  0 active torsions:
REMARK  status: ('A' for Active; 'I' for Inactive)
ROOT
ATOM      1  C2' OXE d   1       3.660   2.329  -0.926  0.00  0.00     0.078 C 
ATOM      2  C1' OXE d   1       2.373   2.929   1.496  0.00  0.00     0.078 C 
ATOM      3  C1  OXE d   1       1.868   1.749   0.704  0.00  0.00    -0.078 A 
ATOM      4  C2  OXE d   1       2.474   1.491  -0.503  0.00  0.00    -0.078 A 
ATOM      5  C3  OXE d   1       2.083   0.382  -1.247  0.00  0.00     0.003 A 
ATOM      6  C4  OXE d   1       0.978  -0.383  -0.854  0.00  0.00    -0.002 A 
ATOM      7  C5  OXE d   1       0.321  -0.113   0.352  0.00  0.00    -0.002 A 
ATOM      8  C6  OXE d   1       0.780   0.920   1.161  0.00  0.00     0.003 A 
ENDROOT
TORSDOF 0
ENDMDL
