MODEL 1
REMARK minimizedAffinity -2.47210789
REMARK minimizedRMSD -1
REMARK  0 active torsions:
REMARK  status: ('A' for Active; 'I' for Inactive)
ROOT
ATOM      1  C2' OXE d   1      -5.164   1.224  -5.976  0.00  0.00     0.078 C 
ATOM      2  C1' OXE d   1      -2.525   2.182  -5.992  0.00  0.00     0.078 C 
ATOM      3  C1  OXE d   1      -3.641   3.195  -5.944  0.00  0.00    -0.078 A 
ATOM      4  C2  OXE d   1      -4.930   2.719  -5.983  0.00  0.00    -0.078 A 
ATOM      5  C3  OXE d   1      -5.996   3.608  -5.886  0.00  0.00     0.003 A 
ATOM      6  C4  OXE d   1      -5.772   4.990  -5.903  0.00  0.00    -0.002 A 
ATOM      7  C5  OXE d   1      -4.468   5.497  -5.902  0.00  0.00    -0.002 A 
ATOM      8  C6  OXE d   1      -3.393   4.615  -5.880  0.00  0.00     0.003 A 
ENDROOT
TORSDOF 0
ENDMDL
