MODEL 1
REMARK minimizedAffinity -0.886722326
REMARK minimizedRMSD -1
REMARK  0 active torsions:
REMARK  status: ('A' for Active; 'I' for Inactive)
ROOT
ATOM      1  C2' OXE d   1      -2.538   2.383  -5.986  0.00  0.00     0.078 C 
ATOM      2  C1' OXE d   1      -5.219   1.550  -5.964  0.00  0.00     0.078 C 
ATOM      3  C1  OXE d   1      -4.943   3.032  -5.973  0.00  0.00    -0.078 A 
ATOM      4  C2  OXE d   1      -3.629   3.431  -5.937  0.00  0.00    -0.078 A 
ATOM      5  C3  OXE d   1      -3.318   4.787  -5.999  0.00  0.00     0.003 A 
ATOM      6  C4  OXE d   1      -4.332   5.750  -5.943  0.00  0.00    -0.002 A 
ATOM      7  C5  OXE d   1      -5.677   5.365  -5.940  0.00  0.00    -0.002 A 
ATOM      8  C6  OXE d   1      -6.000   4.014  -5.998  0.00  0.00     0.003 A 
ENDROOT
TORSDOF 0
ENDMDL
