MODEL 1
REMARK minimizedAffinity 8.45125198
REMARK minimizedRMSD -1
REMARK  0 active torsions:
REMARK  status: ('A' for Active; 'I' for Inactive)
ROOT
ATOM      1  C2' OXE d   1      -2.949   4.937  -5.883  0.00  0.00     0.078 C 
ATOM      2  C1' OXE d   1      -1.443   2.570  -5.794  0.00  0.00     0.078 C 
ATOM      3  C1  OXE d   1      -2.944   2.446  -5.875  0.00  0.00    -0.078 A 
ATOM      4  C2  OXE d   1      -3.675   3.609  -5.871  0.00  0.00    -0.078 A 
ATOM      5  C3  OXE d   1      -5.060   3.553  -6.000  0.00  0.00     0.003 A 
ATOM      6  C4  OXE d   1      -5.725   2.321  -5.978  0.00  0.00    -0.002 A 
ATOM      7  C5  OXE d   1      -5.001   1.125  -5.942  0.00  0.00    -0.002 A 
ATOM      8  C6  OXE d   1      -3.611   1.169  -5.933  0.00  0.00     0.003 A 
ENDROOT
TORSDOF 0
ENDMDL
