MODEL 1
REMARK minimizedAffinity -1.28045785
REMARK minimizedRMSD -1
REMARK  0 active torsions:
REMARK  status: ('A' for Active; 'I' for Inactive)
ROOT
ATOM      1  C2' OXE d   1      -3.205   4.120  -5.955  0.00  0.00     0.078 C 
ATOM      2  C1' OXE d   1      -5.993   3.798  -5.949  0.00  0.00     0.078 C 
ATOM      3  C1  OXE d   1      -5.141   2.553  -5.950  0.00  0.00    -0.078 A 
ATOM      4  C2  OXE d   1      -3.778   2.720  -6.000  0.00  0.00    -0.078 A 
ATOM      5  C3  OXE d   1      -2.944   1.607  -5.948  0.00  0.00     0.003 A 
ATOM      6  C4  OXE d   1      -3.483   0.315  -5.999  0.00  0.00    -0.002 A 
ATOM      7  C5  OXE d   1      -4.868   0.123  -5.989  0.00  0.00    -0.002 A 
ATOM      8  C6  OXE d   1      -5.709   1.228  -5.921  0.00  0.00     0.003 A 
ENDROOT
TORSDOF 0
ENDMDL
