MODEL 1
REMARK minimizedAffinity -0.551935256
REMARK minimizedRMSD -1
REMARK  0 active torsions:
REMARK  status: ('A' for Active; 'I' for Inactive)
ROOT
ATOM      1  C2' OXE d   1      -1.129   2.240  -5.996  0.00  0.00     0.078 C 
ATOM      2  C1' OXE d   1      -3.474   0.696  -5.996  0.00  0.00     0.078 C 
ATOM      3  C1  OXE d   1      -3.620   2.197  -5.984  0.00  0.00    -0.078 A 
ATOM      4  C2  OXE d   1      -2.467   2.944  -5.937  0.00  0.00    -0.078 A 
ATOM      5  C3  OXE d   1      -2.544   4.333  -5.979  0.00  0.00     0.003 A 
ATOM      6  C4  OXE d   1      -3.786   4.977  -5.915  0.00  0.00    -0.002 A 
ATOM      7  C5  OXE d   1      -4.971   4.234  -5.922  0.00  0.00    -0.002 A 
ATOM      8  C6  OXE d   1      -4.907   2.848  -5.999  0.00  0.00     0.003 A 
ENDROOT
TORSDOF 0
ENDMDL
