MODEL 1
REMARK minimizedAffinity -2.69298887
REMARK minimizedRMSD -1
REMARK  0 active torsions:
REMARK  status: ('A' for Active; 'I' for Inactive)
ROOT
ATOM      1  C2' OXE d   1      -5.954   2.614  -5.997  0.00  0.00     0.078 C 
ATOM      2  C1' OXE d   1      -4.742   0.082  -5.997  0.00  0.00     0.078 C 
ATOM      3  C1  OXE d   1      -3.847   1.291  -5.883  0.00  0.00    -0.078 A 
ATOM      4  C2  OXE d   1      -4.445   2.527  -5.931  0.00  0.00    -0.078 A 
ATOM      5  C3  OXE d   1      -3.671   3.673  -5.775  0.00  0.00     0.003 A 
ATOM      6  C4  OXE d   1      -2.274   3.584  -5.725  0.00  0.00    -0.002 A 
ATOM      7  C5  OXE d   1      -1.642   2.336  -5.714  0.00  0.00    -0.002 A 
ATOM      8  C6  OXE d   1      -2.415   1.181  -5.750  0.00  0.00     0.003 A 
ENDROOT
TORSDOF 0
ENDMDL
