MODEL 1
REMARK minimizedAffinity 0.887471795
REMARK minimizedRMSD -1
REMARK  0 active torsions:
REMARK  status: ('A' for Active; 'I' for Inactive)
ROOT
ATOM      1  C2' OXE d   1      -3.216  -0.605  -6.000  0.00  0.00     0.078 C 
ATOM      2  C1' OXE d   1      -5.940   0.074  -5.996  0.00  0.00     0.078 C 
ATOM      3  C1  OXE d   1      -4.935   1.198  -5.985  0.00  0.00    -0.078 A 
ATOM      4  C2  OXE d   1      -3.604   0.857  -5.939  0.00  0.00    -0.078 A 
ATOM      5  C3  OXE d   1      -2.635   1.854  -5.983  0.00  0.00     0.003 A 
ATOM      6  C4  OXE d   1      -3.003   3.204  -5.917  0.00  0.00    -0.002 A 
ATOM      7  C5  OXE d   1      -4.352   3.573  -5.922  0.00  0.00    -0.002 A 
ATOM      8  C6  OXE d   1      -5.328   2.585  -5.999  0.00  0.00     0.003 A 
ENDROOT
TORSDOF 0
ENDMDL
