MODEL 1
REMARK minimizedAffinity -2.98190665
REMARK minimizedRMSD -1
REMARK  0 active torsions:
REMARK  status: ('A' for Active; 'I' for Inactive)
ROOT
ATOM      1  C2' OXE d   1      -4.425  -0.137  -6.000  0.00  0.00     0.078 C 
ATOM      2  C1' OXE d   1      -1.857   0.948  -5.667  0.00  0.00     0.078 C 
ATOM      3  C1  OXE d   1      -3.019   1.905  -5.755  0.00  0.00    -0.078 A 
ATOM      4  C2  OXE d   1      -4.266   1.368  -5.965  0.00  0.00    -0.078 A 
ATOM      5  C3  OXE d   1      -5.380   2.203  -6.000  0.00  0.00     0.003 A 
ATOM      6  C4  OXE d   1      -5.223   3.594  -5.977  0.00  0.00    -0.002 A 
ATOM      7  C5  OXE d   1      -3.957   4.163  -5.804  0.00  0.00    -0.002 A 
ATOM      8  C6  OXE d   1      -2.852   3.334  -5.649  0.00  0.00     0.003 A 
ENDROOT
TORSDOF 0
ENDMDL
