MODEL 1
REMARK minimizedAffinity -3.09576488
REMARK minimizedRMSD -1
REMARK  0 active torsions:
REMARK  status: ('A' for Active; 'I' for Inactive)
ROOT
ATOM      1  C2' OXE d   1      -4.417  -0.569  -5.996  0.00  0.00     0.078 C 
ATOM      2  C1' OXE d   1      -1.934   0.729  -5.833  0.00  0.00     0.078 C 
ATOM      3  C1  OXE d   1      -3.175   1.586  -5.873  0.00  0.00    -0.078 A 
ATOM      4  C2  OXE d   1      -4.383   0.944  -6.000  0.00  0.00    -0.078 A 
ATOM      5  C3  OXE d   1      -5.562   1.684  -5.986  0.00  0.00     0.003 A 
ATOM      6  C4  OXE d   1      -5.521   3.083  -6.000  0.00  0.00    -0.002 A 
ATOM      7  C5  OXE d   1      -4.299   3.758  -5.911  0.00  0.00    -0.002 A 
ATOM      8  C6  OXE d   1      -3.122   3.026  -5.804  0.00  0.00     0.003 A 
ENDROOT
TORSDOF 0
ENDMDL
