MODEL 1
REMARK minimizedAffinity -1.93249023
REMARK minimizedRMSD -1
REMARK  0 active torsions:
REMARK  status: ('A' for Active; 'I' for Inactive)
ROOT
ATOM      1  C2' OXE d   1      -1.490   2.466  -5.995  0.00  0.00     0.078 C 
ATOM      2  C1' OXE d   1      -0.927   5.169  -5.488  0.00  0.00     0.078 C 
ATOM      3  C1  OXE d   1      -2.374   4.765  -5.621  0.00  0.00    -0.078 A 
ATOM      4  C2  OXE d   1      -2.638   3.449  -5.915  0.00  0.00    -0.078 A 
ATOM      5  C3  OXE d   1      -3.958   3.012  -5.995  0.00  0.00     0.003 A 
ATOM      6  C4  OXE d   1      -5.013   3.930  -5.929  0.00  0.00    -0.002 A 
ATOM      7  C5  OXE d   1      -4.764   5.282  -5.670  0.00  0.00    -0.002 A 
ATOM      8  C6  OXE d   1      -3.455   5.707  -5.471  0.00  0.00     0.003 A 
ENDROOT
TORSDOF 0
ENDMDL
