MODEL 1
REMARK minimizedAffinity 4.35878611
REMARK minimizedRMSD -1
REMARK  0 active torsions:
REMARK  status: ('A' for Active; 'I' for Inactive)
ROOT
ATOM      1  C2' OXE d   1      -2.266   2.625  -5.926  0.00  0.00     0.078 C 
ATOM      2  C1' OXE d   1      -4.995   3.280  -5.836  0.00  0.00     0.078 C 
ATOM      3  C1  OXE d   1      -4.622   1.818  -5.872  0.00  0.00    -0.078 A 
ATOM      4  C2  OXE d   1      -3.287   1.508  -5.964  0.00  0.00    -0.078 A 
ATOM      5  C3  OXE d   1      -2.886   0.176  -5.945  0.00  0.00     0.003 A 
ATOM      6  C4  OXE d   1      -3.836  -0.851  -5.990  0.00  0.00    -0.002 A 
ATOM      7  C5  OXE d   1      -5.203  -0.557  -5.938  0.00  0.00    -0.002 A 
ATOM      8  C6  OXE d   1      -5.611   0.769  -5.836  0.00  0.00     0.003 A 
ENDROOT
TORSDOF 0
ENDMDL
