MODEL 1
REMARK minimizedAffinity 4.99518156
REMARK minimizedRMSD -1
REMARK  0 active torsions:
REMARK  status: ('A' for Active; 'I' for Inactive)
ROOT
ATOM      1  C2' OXE d   1       3.032   0.735  -0.797  0.00  0.00     0.078 C 
ATOM      2  C1' OXE d   1       0.882   0.468   0.988  0.00  0.00     0.078 C 
ATOM      3  C1  OXE d   1       0.720  -0.103  -0.398  0.00  0.00    -0.078 A 
ATOM      4  C2  OXE d   1       1.759   0.074  -1.280  0.00  0.00    -0.078 A 
ATOM      5  C3  OXE d   1       1.684  -0.481  -2.555  0.00  0.00     0.003 A 
ATOM      6  C4  OXE d   1       0.499  -1.082  -2.997  0.00  0.00    -0.002 A 
ATOM      7  C5  OXE d   1      -0.586  -1.237  -2.128  0.00  0.00    -0.002 A 
ATOM      8  C6  OXE d   1      -0.476  -0.791  -0.815  0.00  0.00     0.003 A 
ENDROOT
TORSDOF 0
ENDMDL
