MODEL 1
REMARK minimizedAffinity -2.07902646
REMARK minimizedRMSD -1
REMARK  0 active torsions:
REMARK  status: ('A' for Active; 'I' for Inactive)
ROOT
ATOM      1  C2' OXE d   1      -5.322   4.823  -5.999  0.00  0.00     0.078 C 
ATOM      2  C1' OXE d   1      -5.065   2.028  -5.998  0.00  0.00     0.078 C 
ATOM      3  C1  OXE d   1      -3.822   2.848  -5.766  0.00  0.00    -0.078 A 
ATOM      4  C2  OXE d   1      -3.948   4.216  -5.815  0.00  0.00    -0.078 A 
ATOM      5  C3  OXE d   1      -2.843   5.020  -5.553  0.00  0.00     0.003 A 
ATOM      6  C4  OXE d   1      -1.574   4.451  -5.393  0.00  0.00    -0.002 A 
ATOM      7  C5  OXE d   1      -1.416   3.061  -5.380  0.00  0.00    -0.002 A 
ATOM      8  C6  OXE d   1      -2.534   2.247  -5.522  0.00  0.00     0.003 A 
ENDROOT
TORSDOF 0
ENDMDL
