MODEL 1
REMARK minimizedAffinity 1.38472939
REMARK minimizedRMSD -1
REMARK  0 active torsions:
REMARK  status: ('A' for Active; 'I' for Inactive)
ROOT
ATOM      1  C2' OXE d   1       1.055   1.539   1.093  0.00  0.00     0.078 C 
ATOM      2  C1' OXE d   1       3.258   1.332  -0.634  0.00  0.00     0.078 C 
ATOM      3  C1  OXE d   1       1.982   0.635  -1.035  0.00  0.00    -0.078 A 
ATOM      4  C2  OXE d   1       0.923   0.703  -0.162  0.00  0.00    -0.078 A 
ATOM      5  C3  OXE d   1      -0.294   0.124  -0.508  0.00  0.00     0.003 A 
ATOM      6  C4  OXE d   1      -0.404  -0.656  -1.666  0.00  0.00    -0.002 A 
ATOM      7  C5  OXE d   1       0.674  -0.771  -2.550  0.00  0.00    -0.002 A 
ATOM      8  C6  OXE d   1       1.858  -0.098  -2.271  0.00  0.00     0.003 A 
ENDROOT
TORSDOF 0
ENDMDL
