MODEL 1
REMARK minimizedAffinity 0.862850368
REMARK minimizedRMSD -1
REMARK  0 active torsions:
REMARK  status: ('A' for Active; 'I' for Inactive)
ROOT
ATOM      1  C2' OXE d   1      -4.881   1.317  -6.000  0.00  0.00     0.078 C 
ATOM      2  C1' OXE d   1      -2.100   0.934  -5.997  0.00  0.00     0.078 C 
ATOM      3  C1  OXE d   1      -2.615   2.351  -5.951  0.00  0.00    -0.078 A 
ATOM      4  C2  OXE d   1      -3.976   2.530  -6.000  0.00  0.00    -0.078 A 
ATOM      5  C3  OXE d   1      -4.506   3.814  -5.905  0.00  0.00     0.003 A 
ATOM      6  C4  OXE d   1      -3.662   4.932  -5.916  0.00  0.00    -0.002 A 
ATOM      7  C5  OXE d   1      -2.272   4.772  -5.906  0.00  0.00    -0.002 A 
ATOM      8  C6  OXE d   1      -1.734   3.490  -5.880  0.00  0.00     0.003 A 
ENDROOT
TORSDOF 0
ENDMDL
