MODEL 1
REMARK minimizedAffinity 9.8212204
REMARK minimizedRMSD -1
REMARK  0 active torsions:
REMARK  status: ('A' for Active; 'I' for Inactive)
ROOT
ATOM      1  N1  IND d   1       0.790  -2.558   0.869  0.00  0.00    -0.196 N 
ATOM      2  C2  IND d   1       1.847  -2.365   1.713  0.00  0.00     0.054 A 
ATOM      3  C3  IND d   1       2.396  -1.146   1.508  0.00  0.00    -0.031 A 
ATOM      4  C4  IND d   1       1.657   0.732  -0.089  0.00  0.00     0.051 A 
ATOM      5  C5  IND d   1       0.765   1.009  -1.087  0.00  0.00    -0.031 A 
ATOM      6  C6  IND d   1      -0.186   0.094  -1.489  0.00  0.00     0.015 A 
ATOM      7  C7  IND d   1      -0.287  -1.134  -0.899  0.00  0.00    -0.016 A 
ATOM      8  C8  IND d   1       0.622  -1.422   0.109  0.00  0.00    -0.047 A 
ATOM      9  C9  IND d   1       1.616  -0.512   0.493  0.00  0.00    -0.096 A 
ATOM     10  HN1 IND d   1       0.310  -3.270   0.821  0.00  0.00     0.298 HD
ENDROOT
TORSDOF 0
ENDMDL
