MODEL 1
REMARK minimizedAffinity 4.32234383
REMARK minimizedRMSD -1
REMARK  0 active torsions:
REMARK  status: ('A' for Active; 'I' for Inactive)
ROOT
ATOM      1  N1  IND d   1       0.763  -3.701   1.284  0.00  0.00    -0.196 N 
ATOM      2  C2  IND d   1       2.122  -3.661   1.417  0.00  0.00     0.054 A 
ATOM      3  C3  IND d   1       2.495  -2.564   2.114  0.00  0.00    -0.031 A 
ATOM      4  C4  IND d   1       1.035  -0.754   3.218  0.00  0.00     0.051 A 
ATOM      5  C5  IND d   1      -0.262  -0.342   3.339  0.00  0.00    -0.031 A 
ATOM      6  C6  IND d   1      -1.306  -1.044   2.771  0.00  0.00     0.015 A 
ATOM      7  C7  IND d   1      -1.091  -2.196   2.069  0.00  0.00    -0.016 A 
ATOM      8  C8  IND d   1       0.226  -2.614   1.938  0.00  0.00    -0.047 A 
ATOM      9  C9  IND d   1       1.293  -1.882   2.476  0.00  0.00    -0.096 A 
ATOM     10  HN1 IND d   1       0.317  -4.303   0.862  0.00  0.00     0.298 HD
ENDROOT
TORSDOF 0
ENDMDL
