MODEL 1
REMARK minimizedAffinity 12.2600508
REMARK minimizedRMSD -1
REMARK  0 active torsions:
REMARK  status: ('A' for Active; 'I' for Inactive)
ROOT
ATOM      1  N1  IND d   1       4.050  -5.836   5.687  0.00  0.00    -0.196 N 
ATOM      2  C2  IND d   1       5.390  -5.990   5.907  0.00  0.00     0.054 A 
ATOM      3  C3  IND d   1       5.997  -4.785   5.978  0.00  0.00    -0.031 A 
ATOM      4  C4  IND d   1       4.970  -2.427   5.864  0.00  0.00     0.051 A 
ATOM      5  C5  IND d   1       3.790  -1.776   5.636  0.00  0.00    -0.031 A 
ATOM      6  C6  IND d   1       2.612  -2.459   5.412  0.00  0.00     0.015 A 
ATOM      7  C7  IND d   1       2.568  -3.824   5.418  0.00  0.00    -0.016 A 
ATOM      8  C8  IND d   1       3.765  -4.489   5.642  0.00  0.00    -0.047 A 
ATOM      9  C9  IND d   1       4.972  -3.801   5.828  0.00  0.00    -0.096 A 
ATOM     10  HN1 IND d   1       3.480  -6.473   5.592  0.00  0.00     0.298 HD
ENDROOT
TORSDOF 0
ENDMDL
