MODEL 1
REMARK minimizedAffinity 5.96635723
REMARK minimizedRMSD -1
REMARK  0 active torsions:
REMARK  status: ('A' for Active; 'I' for Inactive)
ROOT
ATOM      1  N1  IND d   1       1.545   3.513   2.779  0.00  0.00    -0.196 N 
ATOM      2  C2  IND d   1       2.802   2.992   2.915  0.00  0.00     0.054 A 
ATOM      3  C3  IND d   1       3.421   3.531   3.989  0.00  0.00    -0.031 A 
ATOM      4  C4  IND d   1       2.522   5.209   5.723  0.00  0.00     0.051 A 
ATOM      5  C5  IND d   1       1.441   5.997   5.999  0.00  0.00    -0.031 A 
ATOM      6  C6  IND d   1       0.315   5.996   5.202  0.00  0.00     0.015 A 
ATOM      7  C7  IND d   1       0.224   5.194   4.099  0.00  0.00    -0.016 A 
ATOM      8  C8  IND d   1       1.323   4.397   3.812  0.00  0.00    -0.047 A 
ATOM      9  C9  IND d   1       2.485   4.426   4.594  0.00  0.00    -0.096 A 
ATOM     10  HN1 IND d   1       0.987   3.320   2.154  0.00  0.00     0.298 HD
ENDROOT
TORSDOF 0
ENDMDL
