MODEL 1
REMARK minimizedAffinity 13.8617115
REMARK minimizedRMSD -1
REMARK  0 active torsions:
REMARK  status: ('A' for Active; 'I' for Inactive)
ROOT
ATOM      1  N1  IND d   1       0.765  -2.220   1.047  0.00  0.00    -0.196 N 
ATOM      2  C2  IND d   1       1.488  -3.195   1.674  0.00  0.00     0.054 A 
ATOM      3  C3  IND d   1       2.789  -2.836   1.757  0.00  0.00    -0.031 A 
ATOM      4  C4  IND d   1       3.933  -0.650   1.021  0.00  0.00     0.051 A 
ATOM      5  C5  IND d   1       3.690   0.525   0.367  0.00  0.00    -0.031 A 
ATOM      6  C6  IND d   1       2.435   0.853  -0.102  0.00  0.00     0.015 A 
ATOM      7  C7  IND d   1       1.367   0.019   0.078  0.00  0.00    -0.016 A 
ATOM      8  C8  IND d   1       1.611  -1.178   0.736  0.00  0.00    -0.047 A 
ATOM      9  C9  IND d   1       2.892  -1.535   1.176  0.00  0.00    -0.096 A 
ATOM     10  HN1 IND d   1      -0.077  -2.251   0.875  0.00  0.00     0.298 HD
ENDROOT
TORSDOF 0
ENDMDL
