MODEL 1
REMARK minimizedAffinity 16.7408314
REMARK minimizedRMSD -1
REMARK  0 active torsions:
REMARK  status: ('A' for Active; 'I' for Inactive)
ROOT
ATOM      1  N1  IND d   1       0.520  -2.256   0.580  0.00  0.00    -0.196 N 
ATOM      2  C2  IND d   1       1.299  -2.362   1.698  0.00  0.00     0.054 A 
ATOM      3  C3  IND d   1       2.150  -1.314   1.780  0.00  0.00    -0.031 A 
ATOM      4  C4  IND d   1       2.364   0.742   0.245  0.00  0.00     0.051 A 
ATOM      5  C5  IND d   1       1.891   1.267  -0.925  0.00  0.00    -0.031 A 
ATOM      6  C6  IND d   1       0.915   0.632  -1.667  0.00  0.00     0.015 A 
ATOM      7  C7  IND d   1       0.366  -0.550  -1.258  0.00  0.00    -0.016 A 
ATOM      8  C8  IND d   1       0.848  -1.089  -0.074  0.00  0.00    -0.047 A 
ATOM      9  C9  IND d   1       1.868  -0.471   0.661  0.00  0.00    -0.096 A 
ATOM     10  HN1 IND d   1      -0.075  -2.823   0.328  0.00  0.00     0.298 HD
ENDROOT
TORSDOF 0
ENDMDL
