MODEL 1
REMARK minimizedAffinity 17.3802795
REMARK minimizedRMSD -1
REMARK  0 active torsions:
REMARK  status: ('A' for Active; 'I' for Inactive)
ROOT
ATOM      1  N1  IND d   1       0.350  -2.393   0.893  0.00  0.00    -0.196 N 
ATOM      2  C2  IND d   1       0.996  -2.472   2.095  0.00  0.00     0.054 A 
ATOM      3  C3  IND d   1       1.808  -1.404   2.264  0.00  0.00    -0.031 A 
ATOM      4  C4  IND d   1       2.154   0.644   0.744  0.00  0.00     0.051 A 
ATOM      5  C5  IND d   1       1.810   1.149  -0.479  0.00  0.00    -0.031 A 
ATOM      6  C6  IND d   1       0.942   0.486  -1.323  0.00  0.00     0.015 A 
ATOM      7  C7  IND d   1       0.374  -0.705  -0.969  0.00  0.00    -0.016 A 
ATOM      8  C8  IND d   1       0.727  -1.224   0.269  0.00  0.00    -0.047 A 
ATOM      9  C9  IND d   1       1.641  -0.577   1.111  0.00  0.00    -0.096 A 
ATOM     10  HN1 IND d   1      -0.199  -2.975   0.579  0.00  0.00     0.298 HD
ENDROOT
TORSDOF 0
ENDMDL
