MODEL 1
REMARK minimizedAffinity 12.6404858
REMARK minimizedRMSD -1
REMARK  0 active torsions:
REMARK  status: ('A' for Active; 'I' for Inactive)
ROOT
ATOM      1  N1  IND d   1       0.393  -2.737   0.888  0.00  0.00    -0.196 N 
ATOM      2  C2  IND d   1       1.341  -2.865   1.865  0.00  0.00     0.054 A 
ATOM      3  C3  IND d   1       2.270  -1.889   1.750  0.00  0.00    -0.031 A 
ATOM      4  C4  IND d   1       2.375   0.081   0.096  0.00  0.00     0.051 A 
ATOM      5  C5  IND d   1       1.751   0.598  -1.005  0.00  0.00    -0.031 A 
ATOM      6  C6  IND d   1       0.619   0.019  -1.541  0.00  0.00     0.015 A 
ATOM      7  C7  IND d   1       0.059  -1.096  -0.985  0.00  0.00    -0.016 A 
ATOM      8  C8  IND d   1       0.693  -1.628   0.128  0.00  0.00    -0.047 A 
ATOM      9  C9  IND d   1       1.867  -1.070   0.651  0.00  0.00    -0.096 A 
ATOM     10  HN1 IND d   1      -0.277  -3.262   0.768  0.00  0.00     0.298 HD
ENDROOT
TORSDOF 0
ENDMDL
