MODEL 1
REMARK minimizedAffinity 14.8097286
REMARK minimizedRMSD -1
REMARK  0 active torsions:
REMARK  status: ('A' for Active; 'I' for Inactive)
ROOT
ATOM      1  N1  IND d   1       0.712  -2.762   1.121  0.00  0.00    -0.196 N 
ATOM      2  C2  IND d   1       1.722  -2.941   2.025  0.00  0.00     0.054 A 
ATOM      3  C3  IND d   1       2.560  -1.880   2.010  0.00  0.00    -0.031 A 
ATOM      4  C4  IND d   1       2.410   0.304   0.656  0.00  0.00     0.051 A 
ATOM      5  C5  IND d   1       1.684   0.913  -0.330  0.00  0.00    -0.031 A 
ATOM      6  C6  IND d   1       0.574   0.317  -0.891  0.00  0.00     0.015 A 
ATOM      7  C7  IND d   1       0.139  -0.910  -0.478  0.00  0.00    -0.016 A 
ATOM      8  C8  IND d   1       0.877  -1.535   0.517  0.00  0.00    -0.047 A 
ATOM      9  C9  IND d   1       2.030  -0.953   1.061  0.00  0.00    -0.096 A 
ATOM     10  HN1 IND d   1       0.081  -3.322   0.957  0.00  0.00     0.298 HD
ENDROOT
TORSDOF 0
ENDMDL
