MODEL 1
REMARK minimizedAffinity -2.26047039
REMARK minimizedRMSD -1
REMARK  0 active torsions:
REMARK  status: ('A' for Active; 'I' for Inactive)
ROOT
ATOM      1  C2' OXE d   1      -0.821   0.014   1.108  0.00  0.00     0.078 C 
ATOM      2  C1' OXE d   1       1.085  -2.022   1.424  0.00  0.00     0.078 C 
ATOM      3  C1  OXE d   1       1.120  -1.217   0.149  0.00  0.00    -0.078 A 
ATOM      4  C2  OXE d   1       0.155  -0.254  -0.017  0.00  0.00    -0.078 A 
ATOM      5  C3  OXE d   1       0.175   0.554  -1.150  0.00  0.00     0.003 A 
ATOM      6  C4  OXE d   1       1.075   0.293  -2.191  0.00  0.00    -0.002 A 
ATOM      7  C5  OXE d   1       2.041  -0.710  -2.059  0.00  0.00    -0.002 A 
ATOM      8  C6  OXE d   1       2.105  -1.444  -0.880  0.00  0.00     0.003 A 
ENDROOT
TORSDOF 0
ENDMDL
