MODEL 1
REMARK minimizedAffinity -4.08256102
REMARK minimizedRMSD -1
REMARK  0 active torsions:
REMARK  status: ('A' for Active; 'I' for Inactive)
ROOT
ATOM      1  C2' OXE d   1       0.353  -2.104   0.677  0.00  0.00     0.078 C 
ATOM      2  C1' OXE d   1      -1.231   0.211   0.578  0.00  0.00     0.078 C 
ATOM      3  C1  OXE d   1      -0.055   0.122  -0.363  0.00  0.00    -0.078 A 
ATOM      4  C2  OXE d   1       0.742  -0.994  -0.275  0.00  0.00    -0.078 A 
ATOM      5  C3  OXE d   1       1.807  -1.151  -1.156  0.00  0.00     0.003 A 
ATOM      6  C4  OXE d   1       2.166  -0.114  -2.027  0.00  0.00    -0.002 A 
ATOM      7  C5  OXE d   1       1.391   1.048  -2.104  0.00  0.00    -0.002 A 
ATOM      8  C6  OXE d   1       0.255   1.163  -1.311  0.00  0.00     0.003 A 
ENDROOT
TORSDOF 0
ENDMDL
