MODEL 1
REMARK minimizedAffinity -1.4882338
REMARK minimizedRMSD -1
REMARK  0 active torsions:
REMARK  status: ('A' for Active; 'I' for Inactive)
ROOT
ATOM      1  C2' OXE d   1      -0.790   1.208   2.289  0.00  0.00     0.078 C 
ATOM      2  C1' OXE d   1      -1.485   1.242  -0.430  0.00  0.00     0.078 C 
ATOM      3  C1  OXE d   1      -0.439   0.251   0.016  0.00  0.00    -0.078 A 
ATOM      4  C2  OXE d   1      -0.071   0.273   1.340  0.00  0.00    -0.078 A 
ATOM      5  C3  OXE d   1       0.850  -0.656   1.815  0.00  0.00     0.003 A 
ATOM      6  C4  OXE d   1       1.517  -1.510   0.929  0.00  0.00    -0.002 A 
ATOM      7  C5  OXE d   1       1.186  -1.522  -0.430  0.00  0.00    -0.002 A 
ATOM      8  C6  OXE d   1       0.182  -0.679  -0.894  0.00  0.00     0.003 A 
ENDROOT
TORSDOF 0
ENDMDL
