MODEL 1
REMARK minimizedAffinity -0.282380491
REMARK minimizedRMSD -1
REMARK  0 active torsions:
REMARK  status: ('A' for Active; 'I' for Inactive)
ROOT
ATOM      1  C2' OXE d   1      -1.425   0.445   0.279  0.00  0.00     0.078 C 
ATOM      2  C1' OXE d   1       0.595   1.588  -1.300  0.00  0.00     0.078 C 
ATOM      3  C1  OXE d   1       0.737   0.135  -0.918  0.00  0.00    -0.078 A 
ATOM      4  C2  OXE d   1      -0.232  -0.403  -0.107  0.00  0.00    -0.078 A 
ATOM      5  C3  OXE d   1      -0.178  -1.752   0.230  0.00  0.00     0.003 A 
ATOM      6  C4  OXE d   1       0.934  -2.527  -0.122  0.00  0.00    -0.002 A 
ATOM      7  C5  OXE d   1       1.953  -1.987  -0.915  0.00  0.00    -0.002 A 
ATOM      8  C6  OXE d   1       1.849  -0.673  -1.356  0.00  0.00     0.003 A 
ENDROOT
TORSDOF 0
ENDMDL
