MODEL 1
REMARK minimizedAffinity 1.45572639
REMARK minimizedRMSD -1
REMARK  0 active torsions:
REMARK  status: ('A' for Active; 'I' for Inactive)
ROOT
ATOM      1  C2' OXE d   1       0.722   1.394   1.460  0.00  0.00     0.078 C 
ATOM      2  C1' OXE d   1      -0.507   0.901  -1.015  0.00  0.00     0.078 C 
ATOM      3  C1  OXE d   1      -0.038  -0.287  -0.214  0.00  0.00    -0.078 A 
ATOM      4  C2  OXE d   1       0.604  -0.035   0.975  0.00  0.00    -0.078 A 
ATOM      5  C3  OXE d   1       1.009  -1.096   1.779  0.00  0.00     0.003 A 
ATOM      6  C4  OXE d   1       0.905  -2.414   1.318  0.00  0.00    -0.002 A 
ATOM      7  C5  OXE d   1       0.290  -2.692   0.093  0.00  0.00    -0.002 A 
ATOM      8  C6  OXE d   1      -0.224  -1.644  -0.664  0.00  0.00     0.003 A 
ENDROOT
TORSDOF 0
ENDMDL
