MODEL 1
REMARK minimizedAffinity -3.3376987
REMARK minimizedRMSD -1
REMARK  0 active torsions:
REMARK  status: ('A' for Active; 'I' for Inactive)
ROOT
ATOM      1  C2' OXE d   1       2.773  -0.039  -2.873  0.00  0.00     0.078 C 
ATOM      2  C1' OXE d   1       0.997   2.095  -2.456  0.00  0.00     0.078 C 
ATOM      3  C1  OXE d   1       0.907   0.911  -1.525  0.00  0.00    -0.078 A 
ATOM      4  C2  OXE d   1       1.748  -0.148  -1.765  0.00  0.00    -0.078 A 
ATOM      5  C3  OXE d   1       1.744  -1.241  -0.903  0.00  0.00     0.003 A 
ATOM      6  C4  OXE d   1       0.786  -1.339   0.113  0.00  0.00    -0.002 A 
ATOM      7  C5  OXE d   1      -0.106  -0.288   0.351  0.00  0.00    -0.002 A 
ATOM      8  C6  OXE d   1      -0.031   0.860  -0.431  0.00  0.00     0.003 A 
ENDROOT
TORSDOF 0
ENDMDL
