MODEL 1
REMARK minimizedAffinity 0.236750066
REMARK minimizedRMSD -1
REMARK  0 active torsions:
REMARK  status: ('A' for Active; 'I' for Inactive)
ROOT
ATOM      1  C2' OXE d   1      -1.290   0.557   0.495  0.00  0.00     0.078 C 
ATOM      2  C1' OXE d   1       0.215   1.841  -1.497  0.00  0.00     0.078 C 
ATOM      3  C1  OXE d   1       0.589   0.425  -1.136  0.00  0.00    -0.078 A 
ATOM      4  C2  OXE d   1      -0.123  -0.179  -0.127  0.00  0.00    -0.078 A 
ATOM      5  C3  OXE d   1       0.145  -1.503   0.208  0.00  0.00     0.003 A 
ATOM      6  C4  OXE d   1       1.232  -2.173  -0.365  0.00  0.00    -0.002 A 
ATOM      7  C5  OXE d   1       1.995  -1.563  -1.366  0.00  0.00    -0.002 A 
ATOM      8  C6  OXE d   1       1.660  -0.282  -1.792  0.00  0.00     0.003 A 
ENDROOT
TORSDOF 0
ENDMDL
