MODEL 1
REMARK minimizedAffinity -4.41280174
REMARK minimizedRMSD -1
REMARK  0 active torsions:
REMARK  status: ('A' for Active; 'I' for Inactive)
ROOT
ATOM      1  C2' OXE d   1       0.192   0.231   0.602  0.00  0.00     0.078 C 
ATOM      2  C1' OXE d   1       1.541  -1.949  -0.542  0.00  0.00     0.078 C 
ATOM      3  C1  OXE d   1       1.557  -0.640  -1.291  0.00  0.00    -0.078 A 
ATOM      4  C2  OXE d   1       0.854   0.408  -0.747  0.00  0.00    -0.078 A 
ATOM      5  C3  OXE d   1       0.881   1.653  -1.370  0.00  0.00     0.003 A 
ATOM      6  C4  OXE d   1       1.488   1.806  -2.622  0.00  0.00    -0.002 A 
ATOM      7  C5  OXE d   1       2.175   0.740  -3.214  0.00  0.00    -0.002 A 
ATOM      8  C6  OXE d   1       2.255  -0.475  -2.542  0.00  0.00     0.003 A 
ENDROOT
TORSDOF 0
ENDMDL
