MODEL 1
REMARK minimizedAffinity -4.01530075
REMARK minimizedRMSD -1
REMARK  0 active torsions:
REMARK  status: ('A' for Active; 'I' for Inactive)
ROOT
ATOM      1  C2' OXE d   1       0.517  -2.157   0.520  0.00  0.00     0.078 C 
ATOM      2  C1' OXE d   1      -1.055   0.151   0.810  0.00  0.00     0.078 C 
ATOM      3  C1  OXE d   1      -0.087   0.099  -0.346  0.00  0.00    -0.078 A 
ATOM      4  C2  OXE d   1       0.711  -1.014  -0.453  0.00  0.00    -0.078 A 
ATOM      5  C3  OXE d   1       1.582  -1.137  -1.532  0.00  0.00     0.003 A 
ATOM      6  C4  OXE d   1       1.763  -0.071  -2.422  0.00  0.00    -0.002 A 
ATOM      7  C5  OXE d   1       0.988   1.089  -2.307  0.00  0.00    -0.002 A 
ATOM      8  C6  OXE d   1       0.031   1.172  -1.302  0.00  0.00     0.003 A 
ENDROOT
TORSDOF 0
ENDMDL
