MODEL 1
REMARK minimizedAffinity -2.77617478
REMARK minimizedRMSD -1
REMARK  0 active torsions:
REMARK  status: ('A' for Active; 'I' for Inactive)
ROOT
ATOM      1  C2' OXE d   1       0.612  -1.799   0.119  0.00  0.00     0.078 C 
ATOM      2  C1' OXE d   1      -0.892   0.502   0.685  0.00  0.00     0.078 C 
ATOM      3  C1  OXE d   1       0.018   0.535  -0.517  0.00  0.00    -0.078 A 
ATOM      4  C2  OXE d   1       0.786  -0.579  -0.759  0.00  0.00    -0.078 A 
ATOM      5  C3  OXE d   1       1.602  -0.622  -1.886  0.00  0.00     0.003 A 
ATOM      6  C4  OXE d   1       1.764   0.514  -2.688  0.00  0.00    -0.002 A 
ATOM      7  C5  OXE d   1       1.022   1.673  -2.436  0.00  0.00    -0.002 A 
ATOM      8  C6  OXE d   1       0.115   1.685  -1.382  0.00  0.00     0.003 A 
ENDROOT
TORSDOF 0
ENDMDL
