MODEL 1
REMARK minimizedAffinity -1.78521729
REMARK minimizedRMSD -1
REMARK  0 active torsions:
REMARK  status: ('A' for Active; 'I' for Inactive)
ROOT
ATOM      1  C2' OXE d   1      -3.444   0.756   2.421  0.00  0.00     0.078 C 
ATOM      2  C1' OXE d   1      -1.018   0.518   3.814  0.00  0.00     0.078 C 
ATOM      3  C1  OXE d   1      -0.986   0.365   2.313  0.00  0.00    -0.078 A 
ATOM      4  C2  OXE d   1      -2.185   0.437   1.645  0.00  0.00    -0.078 A 
ATOM      5  C3  OXE d   1      -2.205   0.357   0.256  0.00  0.00     0.003 A 
ATOM      6  C4  OXE d   1      -1.037   0.052  -0.454  0.00  0.00    -0.002 A 
ATOM      7  C5  OXE d   1       0.188  -0.064   0.211  0.00  0.00    -0.002 A 
ATOM      8  C6  OXE d   1       0.237   0.131   1.587  0.00  0.00     0.003 A 
ENDROOT
TORSDOF 0
ENDMDL
