MODEL 1
REMARK minimizedAffinity -4.53374481
REMARK minimizedRMSD -1
REMARK  0 active torsions:
REMARK  status: ('A' for Active; 'I' for Inactive)
ROOT
ATOM      1  C2' OXE d   1       1.040   0.976  -2.577  0.00  0.00     0.078 C 
ATOM      2  C1' OXE d   1       2.094  -1.467  -1.683  0.00  0.00     0.078 C 
ATOM      3  C1  OXE d   1       0.863  -0.937  -0.992  0.00  0.00    -0.078 A 
ATOM      4  C2  OXE d   1       0.382   0.282  -1.405  0.00  0.00    -0.078 A 
ATOM      5  C3  OXE d   1      -0.783   0.791  -0.838  0.00  0.00     0.003 A 
ATOM      6  C4  OXE d   1      -1.381   0.147   0.253  0.00  0.00    -0.002 A 
ATOM      7  C5  OXE d   1      -0.883  -1.075   0.716  0.00  0.00    -0.002 A 
ATOM      8  C6  OXE d   1       0.211  -1.651   0.078  0.00  0.00     0.003 A 
ENDROOT
TORSDOF 0
ENDMDL
