MODEL 1
REMARK minimizedAffinity -2.19562221
REMARK minimizedRMSD -1
REMARK  0 active torsions:
REMARK  status: ('A' for Active; 'I' for Inactive)
ROOT
ATOM      1  C2' OXE d   1      -0.786   0.244   0.902  0.00  0.00     0.078 C 
ATOM      2  C1' OXE d   1       1.020  -1.832   1.456  0.00  0.00     0.078 C 
ATOM      3  C1  OXE d   1       1.205  -1.063   0.172  0.00  0.00    -0.078 A 
ATOM      4  C2  OXE d   1       0.289  -0.080  -0.113  0.00  0.00    -0.078 A 
ATOM      5  C3  OXE d   1       0.444   0.697  -1.258  0.00  0.00     0.003 A 
ATOM      6  C4  OXE d   1       1.435   0.385  -2.197  0.00  0.00    -0.002 A 
ATOM      7  C5  OXE d   1       2.355  -0.638  -1.945  0.00  0.00    -0.002 A 
ATOM      8  C6  OXE d   1       2.280  -1.342  -0.748  0.00  0.00     0.003 A 
ENDROOT
TORSDOF 0
ENDMDL
