MODEL 1
REMARK minimizedAffinity -1.1870234
REMARK minimizedRMSD -1
REMARK  0 active torsions:
REMARK  status: ('A' for Active; 'I' for Inactive)
ROOT
ATOM      1  C2' OXE d   1      -3.519  -0.150   1.957  0.00  0.00     0.078 C 
ATOM      2  C1' OXE d   1      -1.795   1.482   3.455  0.00  0.00     0.078 C 
ATOM      3  C1  OXE d   1      -1.325   1.021   2.097  0.00  0.00    -0.078 A 
ATOM      4  C2  OXE d   1      -2.156   0.185   1.391  0.00  0.00    -0.078 A 
ATOM      5  C3  OXE d   1      -1.796  -0.225   0.111  0.00  0.00     0.003 A 
ATOM      6  C4  OXE d   1      -0.529   0.081  -0.401  0.00  0.00    -0.002 A 
ATOM      7  C5  OXE d   1       0.349   0.899   0.319  0.00  0.00    -0.002 A 
ATOM      8  C6  OXE d   1      -0.050   1.411   1.548  0.00  0.00     0.003 A 
ENDROOT
TORSDOF 0
ENDMDL
