MODEL 1
REMARK minimizedAffinity -3.14056015
REMARK minimizedRMSD -1
REMARK  0 active torsions:
REMARK  status: ('A' for Active; 'I' for Inactive)
ROOT
ATOM      1  C2' OXE d   1      -1.308   0.393   1.221  0.00  0.00     0.078 C 
ATOM      2  C1' OXE d   1      -0.702   1.564  -1.257  0.00  0.00     0.078 C 
ATOM      3  C1  OXE d   1      -0.065   0.236  -0.932  0.00  0.00    -0.078 A 
ATOM      4  C2  OXE d   1      -0.330  -0.307   0.302  0.00  0.00    -0.078 A 
ATOM      5  C3  OXE d   1       0.188  -1.556   0.631  0.00  0.00     0.003 A 
ATOM      6  C4  OXE d   1       1.100  -2.192  -0.220  0.00  0.00    -0.002 A 
ATOM      7  C5  OXE d   1       1.414  -1.637  -1.465  0.00  0.00    -0.002 A 
ATOM      8  C6  OXE d   1       0.809  -0.447  -1.853  0.00  0.00     0.003 A 
ENDROOT
TORSDOF 0
ENDMDL
