MODEL 1
REMARK minimizedAffinity 4.81745577
REMARK minimizedRMSD -1
REMARK  0 active torsions:
REMARK  status: ('A' for Active; 'I' for Inactive)
ROOT
ATOM      1  C2' OXE d   1       3.627  -1.484  -0.413  0.00  0.00     0.078 C 
ATOM      2  C1' OXE d   1       1.425  -1.185  -2.128  0.00  0.00     0.078 C 
ATOM      3  C1  OXE d   1       1.283  -2.126  -0.958  0.00  0.00    -0.078 A 
ATOM      4  C2  OXE d   1       2.381  -2.302  -0.151  0.00  0.00    -0.078 A 
ATOM      5  C3  OXE d   1       2.287  -3.117   0.974  0.00  0.00     0.003 A 
ATOM      6  C4  OXE d   1       1.134  -3.878   1.203  0.00  0.00    -0.002 A 
ATOM      7  C5  OXE d   1       0.018  -3.744   0.371  0.00  0.00    -0.002 A 
ATOM      8  C6  OXE d   1       0.061  -2.842  -0.687  0.00  0.00     0.003 A 
ENDROOT
TORSDOF 0
ENDMDL
