MODEL 1
REMARK minimizedAffinity 22.8698235
REMARK minimizedRMSD -1
REMARK  0 active torsions:
REMARK  status: ('A' for Active; 'I' for Inactive)
ROOT
ATOM      1  O1  BZF d   1      -1.402   2.561   0.061  0.00  0.00    -0.204 OA
ATOM      2  C2  BZF d   1      -0.846   2.687  -1.198  0.00  0.00     0.174 A 
ATOM      3  C3  BZF d   1       0.498   2.764  -1.121  0.00  0.00    -0.012 A 
ATOM      4  C3A BZF d   1       0.807   2.588   0.265  0.00  0.00    -0.107 A 
ATOM      5  C4  BZF d   1       1.976   2.550   0.970  0.00  0.00     0.055 A 
ATOM      6  C5  BZF d   1       1.929   2.437   2.323  0.00  0.00    -0.016 A 
ATOM      7  C6  BZF d   1       0.731   2.363   3.004  0.00  0.00     0.022 A 
ATOM      8  C7  BZF d   1      -0.455   2.392   2.348  0.00  0.00     0.029 A 
ATOM      9  C7A BZF d   1      -0.409   2.474   0.978  0.00  0.00     0.058 A 
ENDROOT
TORSDOF 0
ENDMDL
