MODEL 1
REMARK minimizedAffinity 17.8721352
REMARK minimizedRMSD -1
REMARK  0 active torsions:
REMARK  status: ('A' for Active; 'I' for Inactive)
ROOT
ATOM      1  O1  BZF d   1       2.432   3.084   1.580  0.00  0.00    -0.204 OA
ATOM      2  C2  BZF d   1       1.922   2.467   2.707  0.00  0.00     0.174 A 
ATOM      3  C3  BZF d   1       0.599   2.245   2.573  0.00  0.00    -0.012 A 
ATOM      4  C3A BZF d   1       0.278   2.671   1.245  0.00  0.00    -0.107 A 
ATOM      5  C4  BZF d   1      -0.877   2.686   0.517  0.00  0.00     0.055 A 
ATOM      6  C5  BZF d   1      -0.867   3.235  -0.726  0.00  0.00    -0.016 A 
ATOM      7  C6  BZF d   1       0.277   3.780  -1.270  0.00  0.00     0.022 A 
ATOM      8  C7  BZF d   1       1.449   3.783  -0.588  0.00  0.00     0.029 A 
ATOM      9  C7A BZF d   1       1.449   3.200   0.655  0.00  0.00     0.058 A 
ENDROOT
TORSDOF 0
ENDMDL
