MODEL 1
REMARK minimizedAffinity 17.9870701
REMARK minimizedRMSD -1
REMARK  0 active torsions:
REMARK  status: ('A' for Active; 'I' for Inactive)
ROOT
ATOM      1  O1  BZF d   1      -4.107  -4.594  -5.921  0.00  0.00    -0.204 OA
ATOM      2  C2  BZF d   1      -3.677  -5.905  -5.860  0.00  0.00     0.174 A 
ATOM      3  C3  BZF d   1      -2.330  -5.968  -5.873  0.00  0.00    -0.012 A 
ATOM      4  C3A BZF d   1      -1.889  -4.607  -5.854  0.00  0.00    -0.107 A 
ATOM      5  C4  BZF d   1      -0.657  -4.020  -5.841  0.00  0.00     0.055 A 
ATOM      6  C5  BZF d   1      -0.570  -2.665  -5.898  0.00  0.00    -0.016 A 
ATOM      7  C6  BZF d   1      -1.694  -1.868  -5.975  0.00  0.00     0.022 A 
ATOM      8  C7  BZF d   1      -2.938  -2.405  -5.986  0.00  0.00     0.029 A 
ATOM      9  C7A BZF d   1      -3.030  -3.772  -5.895  0.00  0.00     0.058 A 
ENDROOT
TORSDOF 0
ENDMDL
