MODEL 1
REMARK minimizedAffinity 5.12195873
REMARK minimizedRMSD -1
REMARK  0 active torsions:
REMARK  status: ('A' for Active; 'I' for Inactive)
ROOT
ATOM      1  O1  BZF d   1      -4.083   1.279  -2.921  0.00  0.00    -0.204 OA
ATOM      2  C2  BZF d   1      -4.396   0.315  -1.983  0.00  0.00     0.174 A 
ATOM      3  C3  BZF d   1      -3.413   0.201  -1.067  0.00  0.00    -0.012 A 
ATOM      4  C3A BZF d   1      -2.465   1.217  -1.404  0.00  0.00    -0.107 A 
ATOM      5  C4  BZF d   1      -1.280   1.615  -0.854  0.00  0.00     0.055 A 
ATOM      6  C5  BZF d   1      -0.562   2.592  -1.468  0.00  0.00    -0.016 A 
ATOM      7  C6  BZF d   1      -0.997   3.189  -2.634  0.00  0.00     0.022 A 
ATOM      8  C7  BZF d   1      -2.168   2.832  -3.213  0.00  0.00     0.029 A 
ATOM      9  C7A BZF d   1      -2.912   1.867  -2.578  0.00  0.00     0.058 A 
ENDROOT
TORSDOF 0
ENDMDL
