MODEL 1
REMARK minimizedAffinity -2.02340555
REMARK minimizedRMSD -1
REMARK  0 active torsions:
REMARK  status: ('A' for Active; 'I' for Inactive)
ROOT
ATOM      1  O1  BZF d   1      -0.411   2.610  -1.001  0.00  0.00    -0.204 OA
ATOM      2  C2  BZF d   1       0.281   3.773  -1.278  0.00  0.00     0.174 A 
ATOM      3  C3  BZF d   1       0.870   4.256  -0.165  0.00  0.00    -0.012 A 
ATOM      4  C3A BZF d   1       0.600   3.289   0.854  0.00  0.00    -0.107 A 
ATOM      5  C4  BZF d   1       0.935   3.198   2.174  0.00  0.00     0.055 A 
ATOM      6  C5  BZF d   1       0.452   2.162   2.909  0.00  0.00    -0.016 A 
ATOM      7  C6  BZF d   1      -0.371   1.202   2.356  0.00  0.00     0.022 A 
ATOM      8  C7  BZF d   1      -0.726   1.247   1.049  0.00  0.00     0.029 A 
ATOM      9  C7A BZF d   1      -0.213   2.275   0.297  0.00  0.00     0.058 A 
ENDROOT
TORSDOF 0
ENDMDL
