MODEL 1
REMARK minimizedAffinity 5.30823469
REMARK minimizedRMSD -1
REMARK  0 active torsions:
REMARK  status: ('A' for Active; 'I' for Inactive)
ROOT
ATOM      1  O1  BZF d   1       1.163   1.218   2.571  0.00  0.00    -0.204 OA
ATOM      2  C2  BZF d   1       0.596   0.029   2.153  0.00  0.00     0.174 A 
ATOM      3  C3  BZF d   1       0.141   0.135   0.888  0.00  0.00    -0.012 A 
ATOM      4  C3A BZF d   1       0.525   1.445   0.459  0.00  0.00    -0.107 A 
ATOM      5  C4  BZF d   1       0.370   2.132  -0.711  0.00  0.00     0.055 A 
ATOM      6  C5  BZF d   1       0.795   3.420  -0.782  0.00  0.00    -0.016 A 
ATOM      7  C6  BZF d   1       1.373   4.054   0.299  0.00  0.00     0.022 A 
ATOM      8  C7  BZF d   1       1.552   3.412   1.479  0.00  0.00     0.029 A 
ATOM      9  C7A BZF d   1       1.154   2.099   1.542  0.00  0.00     0.058 A 
ENDROOT
TORSDOF 0
ENDMDL
