MODEL 1
REMARK minimizedAffinity -1.72521055
REMARK minimizedRMSD -1
REMARK  0 active torsions:
REMARK  status: ('A' for Active; 'I' for Inactive)
ROOT
ATOM      1  O1  BZF d   1       1.664  -4.896  -1.897  0.00  0.00    -0.204 OA
ATOM      2  C2  BZF d   1       0.935  -3.927  -1.233  0.00  0.00     0.174 A 
ATOM      3  C3  BZF d   1       1.713  -2.869  -0.928  0.00  0.00    -0.012 A 
ATOM      4  C3A BZF d   1       2.987  -3.156  -1.513  0.00  0.00    -0.107 A 
ATOM      5  C4  BZF d   1       4.170  -2.477  -1.566  0.00  0.00     0.055 A 
ATOM      6  C5  BZF d   1       5.244  -3.068  -2.153  0.00  0.00    -0.016 A 
ATOM      7  C6  BZF d   1       5.172  -4.336  -2.691  0.00  0.00     0.022 A 
ATOM      8  C7  BZF d   1       4.018  -5.046  -2.667  0.00  0.00     0.029 A 
ATOM      9  C7A BZF d   1       2.922  -4.439  -2.104  0.00  0.00     0.058 A 
ENDROOT
TORSDOF 0
ENDMDL
