MODEL 1
REMARK minimizedAffinity 17.4027004
REMARK minimizedRMSD -1
REMARK  0 active torsions:
REMARK  status: ('A' for Active; 'I' for Inactive)
ROOT
ATOM      1  O1  BZF d   1      -4.963  -5.931  -5.947  0.00  0.00    -0.204 OA
ATOM      2  C2  BZF d   1      -5.908  -5.223  -5.229  0.00  0.00     0.174 A 
ATOM      3  C3  BZF d   1      -5.316  -4.428  -4.314  0.00  0.00    -0.012 A 
ATOM      4  C3A BZF d   1      -3.911  -4.584  -4.532  0.00  0.00    -0.107 A 
ATOM      5  C4  BZF d   1      -2.804  -4.040  -3.946  0.00  0.00     0.055 A 
ATOM      6  C5  BZF d   1      -1.573  -4.458  -4.344  0.00  0.00    -0.016 A 
ATOM      7  C6  BZF d   1      -1.413  -5.420  -5.319  0.00  0.00     0.022 A 
ATOM      8  C7  BZF d   1      -2.482  -5.985  -5.933  0.00  0.00     0.029 A 
ATOM      9  C7A BZF d   1      -3.726  -5.541  -5.556  0.00  0.00     0.058 A 
ENDROOT
TORSDOF 0
ENDMDL
