MODEL 1
REMARK minimizedAffinity 10.2968359
REMARK minimizedRMSD -1
REMARK  0 active torsions:
REMARK  status: ('A' for Active; 'I' for Inactive)
ROOT
ATOM      1  O1  BZF d   1       0.926  -4.133  -0.468  0.00  0.00    -0.204 OA
ATOM      2  C2  BZF d   1       0.127  -4.036  -1.591  0.00  0.00     0.174 A 
ATOM      3  C3  BZF d   1       0.263  -2.826  -2.171  0.00  0.00    -0.012 A 
ATOM      4  C3A BZF d   1       1.275  -2.156  -1.413  0.00  0.00    -0.107 A 
ATOM      5  C4  BZF d   1       1.862  -0.927  -1.510  0.00  0.00     0.055 A 
ATOM      6  C5  BZF d   1       2.766  -0.551  -0.568  0.00  0.00    -0.016 A 
ATOM      7  C6  BZF d   1       3.102  -1.375   0.486  0.00  0.00     0.022 A 
ATOM      8  C7  BZF d   1       2.550  -2.605   0.622  0.00  0.00     0.029 A 
ATOM      9  C7A BZF d   1       1.661  -3.001  -0.347  0.00  0.00     0.058 A 
ENDROOT
TORSDOF 0
ENDMDL
