MODEL 1
REMARK minimizedAffinity 1.11290669
REMARK minimizedRMSD -1
REMARK  0 active torsions:
REMARK  status: ('A' for Active; 'I' for Inactive)
ROOT
ATOM      1  O1  BZF d   1      -2.994   5.997  -0.138  0.00  0.00    -0.204 OA
ATOM      2  C2  BZF d   1      -3.418   6.000   1.176  0.00  0.00     0.174 A 
ATOM      3  C3  BZF d   1      -2.830   5.005   1.872  0.00  0.00    -0.012 A 
ATOM      4  C3A BZF d   1      -1.915   4.396   0.956  0.00  0.00    -0.107 A 
ATOM      5  C4  BZF d   1      -1.029   3.363   1.063  0.00  0.00     0.055 A 
ATOM      6  C5  BZF d   1      -0.337   2.969  -0.039  0.00  0.00    -0.016 A 
ATOM      7  C6  BZF d   1      -0.511   3.582  -1.263  0.00  0.00     0.022 A 
ATOM      8  C7  BZF d   1      -1.376   4.615  -1.417  0.00  0.00     0.029 A 
ATOM      9  C7A BZF d   1      -2.051   5.036  -0.298  0.00  0.00     0.058 A 
ENDROOT
TORSDOF 0
ENDMDL
