MODEL 1
REMARK minimizedAffinity 20.9697399
REMARK minimizedRMSD -1
REMARK  0 active torsions:
REMARK  status: ('A' for Active; 'I' for Inactive)
ROOT
ATOM      1  O1  BZF d   1      -5.245   1.402  -4.490  0.00  0.00    -0.204 OA
ATOM      2  C2  BZF d   1      -5.709   0.666  -3.417  0.00  0.00     0.174 A 
ATOM      3  C3  BZF d   1      -5.066   1.014  -2.284  0.00  0.00    -0.012 A 
ATOM      4  C3A BZF d   1      -4.207   2.096  -2.656  0.00  0.00    -0.107 A 
ATOM      5  C4  BZF d   1      -3.327   2.877  -1.963  0.00  0.00     0.055 A 
ATOM      6  C5  BZF d   1      -2.590   3.799  -2.637  0.00  0.00    -0.016 A 
ATOM      7  C6  BZF d   1      -2.704   3.963  -4.002  0.00  0.00     0.022 A 
ATOM      8  C7  BZF d   1      -3.568   3.215  -4.731  0.00  0.00     0.029 A 
ATOM      9  C7A BZF d   1      -4.338   2.306  -4.048  0.00  0.00     0.058 A 
ENDROOT
TORSDOF 0
ENDMDL
