MODEL 1
REMARK minimizedAffinity 7.50655985
REMARK minimizedRMSD -1
REMARK  0 active torsions:
REMARK  status: ('A' for Active; 'I' for Inactive)
ROOT
ATOM      1  O1  BZF d   1      -2.058   2.218  -0.844  0.00  0.00    -0.204 OA
ATOM      2  C2  BZF d   1      -2.480   2.655  -2.085  0.00  0.00     0.174 A 
ATOM      3  C3  BZF d   1      -1.596   3.528  -2.610  0.00  0.00    -0.012 A 
ATOM      4  C3A BZF d   1      -0.512   3.574  -1.678  0.00  0.00    -0.107 A 
ATOM      5  C4  BZF d   1       0.674   4.250  -1.650  0.00  0.00     0.055 A 
ATOM      6  C5  BZF d   1       1.477   4.130  -0.560  0.00  0.00    -0.016 A 
ATOM      7  C6  BZF d   1       1.123   3.348   0.520  0.00  0.00     0.022 A 
ATOM      8  C7  BZF d   1      -0.042   2.654   0.536  0.00  0.00     0.029 A 
ATOM      9  C7A BZF d   1      -0.840   2.748  -0.578  0.00  0.00     0.058 A 
ENDROOT
TORSDOF 0
ENDMDL
