MODEL 1
REMARK minimizedAffinity -0.645132303
REMARK minimizedRMSD -1
REMARK  2 active torsions:
REMARK  status: ('A' for Active; 'I' for Inactive)
REMARK    1  A    between atoms: C1_2  and  C2_3 
REMARK    2  A    between atoms: C2_3  and  C3_4 
ROOT
ATOM      1  C3  UNL d   1      -2.136   5.991  -4.241  0.00  0.00    -0.075 A 
ATOM      2  C4  UNL d   1      -1.761   6.000  -2.890  0.00  0.00     0.002 A 
ATOM      3  C5  UNL d   1      -2.730   5.995  -1.886  0.00  0.00     0.002 A 
ATOM      4  C6  UNL d   1      -4.083   5.991  -2.219  0.00  0.00    -0.004 A 
ATOM      5  C7  UNL d   1      -4.467   5.999  -3.558  0.00  0.00     0.002 A 
ATOM      6  C8  UNL d   1      -3.499   6.000  -4.565  0.00  0.00     0.002 A 
ENDROOT
BRANCH   1   7
ATOM      7  C2  UNL d   1      -1.092   5.966  -5.332  0.00  0.00     0.056 C 
BRANCH   7   8
ATOM      8  C1  UNL d   1       0.265   5.415  -4.884  0.00  0.00     0.007 C 
ATOM      9  C   UNL d   1       1.437   6.000  -5.662  0.00  0.00     0.009 C 
ENDBRANCH   7   8
ENDBRANCH   1   7
TORSDOF 2
ENDMDL
