MODEL 1
REMARK minimizedAffinity 1.91268563
REMARK minimizedRMSD -1
REMARK  2 active torsions:
REMARK  status: ('A' for Active; 'I' for Inactive)
REMARK    1  A    between atoms: C1_2  and  C2_3 
REMARK    2  A    between atoms: C2_3  and  C3_4 
ROOT
ATOM      1  C3  UNL d   1      -0.904   5.969  -4.313  0.00  0.00    -0.075 A 
ATOM      2  C4  UNL d   1      -2.135   5.963  -4.986  0.00  0.00     0.002 A 
ATOM      3  C5  UNL d   1      -3.333   5.982  -4.271  0.00  0.00     0.002 A 
ATOM      4  C6  UNL d   1      -3.316   5.998  -2.878  0.00  0.00    -0.004 A 
ATOM      5  C7  UNL d   1      -2.099   5.988  -2.199  0.00  0.00     0.002 A 
ATOM      6  C8  UNL d   1      -0.899   5.972  -2.912  0.00  0.00     0.002 A 
ENDROOT
BRANCH   1   7
ATOM      7  C2  UNL d   1       0.396   5.977  -5.081  0.00  0.00     0.056 C 
BRANCH   7   8
ATOM      8  C1  UNL d   1       1.637   5.758  -4.209  0.00  0.00     0.007 C 
ATOM      9  C   UNL d   1       2.944   5.987  -4.956  0.00  0.00     0.009 C 
ENDBRANCH   7   8
ENDBRANCH   1   7
TORSDOF 2
ENDMDL
