MODEL 1
REMARK minimizedAffinity 7.87642527
REMARK minimizedRMSD -1
REMARK  2 active torsions:
REMARK  status: ('A' for Active; 'I' for Inactive)
REMARK    1  A    between atoms: C1_2  and  C2_3 
REMARK    2  A    between atoms: C2_3  and  C3_4 
ROOT
ATOM      1  C3  UNL d   1      -0.485   5.280  -2.478  0.00  0.00    -0.075 A 
ATOM      2  C4  UNL d   1      -1.805   5.627  -2.798  0.00  0.00     0.002 A 
ATOM      3  C5  UNL d   1      -2.149   5.979  -4.104  0.00  0.00     0.002 A 
ATOM      4  C6  UNL d   1      -1.177   5.999  -5.102  0.00  0.00    -0.004 A 
ATOM      5  C7  UNL d   1       0.142   5.672  -4.791  0.00  0.00     0.002 A 
ATOM      6  C8  UNL d   1       0.487   5.315  -3.487  0.00  0.00     0.002 A 
ENDROOT
BRANCH   1   7
ATOM      7  C2  UNL d   1      -0.113   4.870  -1.073  0.00  0.00     0.056 C 
BRANCH   7   8
ATOM      8  C1  UNL d   1      -0.276   3.371  -0.797  0.00  0.00     0.007 C 
ATOM      9  C   UNL d   1       0.898   2.769  -0.038  0.00  0.00     0.009 C 
ENDBRANCH   7   8
ENDBRANCH   1   7
TORSDOF 2
ENDMDL
