MODEL 1
REMARK minimizedAffinity 3.89106798
REMARK minimizedRMSD -1
REMARK  2 active torsions:
REMARK  status: ('A' for Active; 'I' for Inactive)
REMARK    1  A    between atoms: C1_2  and  C2_3 
REMARK    2  A    between atoms: C2_3  and  C3_4 
ROOT
ATOM      1  C3  UNL d   1      -1.629   5.692  -3.912  0.00  0.00    -0.075 A 
ATOM      2  C4  UNL d   1      -2.921   5.841  -4.437  0.00  0.00     0.002 A 
ATOM      3  C5  UNL d   1      -4.019   5.985  -3.589  0.00  0.00     0.002 A 
ATOM      4  C6  UNL d   1      -3.841   5.973  -2.207  0.00  0.00    -0.004 A 
ATOM      5  C7  UNL d   1      -2.565   5.809  -1.674  0.00  0.00     0.002 A 
ATOM      6  C8  UNL d   1      -1.464   5.669  -2.520  0.00  0.00     0.002 A 
ENDROOT
BRANCH   1   7
ATOM      7  C2  UNL d   1      -0.433   5.565  -4.825  0.00  0.00     0.056 C 
BRANCH   7   8
ATOM      8  C1  UNL d   1       0.892   5.987  -4.180  0.00  0.00     0.007 C 
ATOM      9  C   UNL d   1       1.993   4.947  -4.337  0.00  0.00     0.009 C 
ENDBRANCH   7   8
ENDBRANCH   1   7
TORSDOF 2
ENDMDL
