MODEL 1
REMARK minimizedAffinity -1.656744
REMARK minimizedRMSD -1
REMARK  2 active torsions:
REMARK  status: ('A' for Active; 'I' for Inactive)
REMARK    1  A    between atoms: C1_2  and  C2_3 
REMARK    2  A    between atoms: C2_3  and  C3_4 
ROOT
ATOM      1  C3  UNL d   1       0.298   5.890  -3.701  0.00  0.00    -0.075 A 
ATOM      2  C4  UNL d   1       0.036   5.884  -5.079  0.00  0.00     0.002 A 
ATOM      3  C5  UNL d   1       1.083   5.923  -6.000  0.00  0.00     0.002 A 
ATOM      4  C6  UNL d   1       2.402   5.977  -5.557  0.00  0.00    -0.004 A 
ATOM      5  C7  UNL d   1       2.675   6.000  -4.191  0.00  0.00     0.002 A 
ATOM      6  C8  UNL d   1       1.629   5.957  -3.267  0.00  0.00     0.002 A 
ENDROOT
BRANCH   1   7
ATOM      7  C2  UNL d   1      -0.829   5.819  -2.699  0.00  0.00     0.056 C 
BRANCH   7   8
ATOM      8  C1  UNL d   1      -2.187   5.459  -3.313  0.00  0.00     0.007 C 
ATOM      9  C   UNL d   1      -3.367   5.987  -2.509  0.00  0.00     0.009 C 
ENDBRANCH   7   8
ENDBRANCH   1   7
TORSDOF 2
ENDMDL
