MODEL 1
REMARK minimizedAffinity 6.21675205
REMARK minimizedRMSD -1
REMARK  2 active torsions:
REMARK  status: ('A' for Active; 'I' for Inactive)
REMARK    1  A    between atoms: C1_2  and  C2_3 
REMARK    2  A    between atoms: C2_3  and  C3_4 
ROOT
ATOM      1  C3  UNL d   1       0.860   0.489   0.231  0.00  0.00    -0.075 A 
ATOM      2  C4  UNL d   1       0.800   1.325  -0.894  0.00  0.00     0.002 A 
ATOM      3  C5  UNL d   1       1.441   2.564  -0.891  0.00  0.00     0.002 A 
ATOM      4  C6  UNL d   1       2.138   2.988   0.238  0.00  0.00    -0.004 A 
ATOM      5  C7  UNL d   1       2.190   2.173   1.367  0.00  0.00     0.002 A 
ATOM      6  C8  UNL d   1       1.554   0.931   1.365  0.00  0.00     0.002 A 
ENDROOT
BRANCH   1   7
ATOM      7  C2  UNL d   1       0.193  -0.866   0.223  0.00  0.00     0.056 C 
BRANCH   7   8
ATOM      8  C1  UNL d   1      -0.406  -1.274   1.573  0.00  0.00     0.007 C 
ATOM      9  C   UNL d   1      -0.619  -2.776   1.705  0.00  0.00     0.009 C 
ENDBRANCH   7   8
ENDBRANCH   1   7
TORSDOF 2
ENDMDL
