MODEL 1
REMARK minimizedAffinity -1.24175775
REMARK minimizedRMSD -1
REMARK  2 active torsions:
REMARK  status: ('A' for Active; 'I' for Inactive)
REMARK    1  A    between atoms: C1_2  and  C2_3 
REMARK    2  A    between atoms: C2_3  and  C3_4 
ROOT
ATOM      1  C3  UNL d   1      -0.954   5.999  -4.541  0.00  0.00    -0.075 A 
ATOM      2  C4  UNL d   1      -0.671   5.992  -3.168  0.00  0.00     0.002 A 
ATOM      3  C5  UNL d   1      -1.705   5.964  -2.232  0.00  0.00     0.002 A 
ATOM      4  C6  UNL d   1      -3.032   5.953  -2.656  0.00  0.00    -0.004 A 
ATOM      5  C7  UNL d   1      -3.325   5.976  -4.017  0.00  0.00     0.002 A 
ATOM      6  C8  UNL d   1      -2.292   5.999  -4.956  0.00  0.00     0.002 A 
ENDROOT
BRANCH   1   7
ATOM      7  C2  UNL d   1       0.161   6.000  -5.560  0.00  0.00     0.056 C 
BRANCH   7   8
ATOM      8  C1  UNL d   1       1.558   5.824  -4.955  0.00  0.00     0.007 C 
ATOM      9  C   UNL d   1       2.678   5.994  -5.972  0.00  0.00     0.009 C 
ENDBRANCH   7   8
ENDBRANCH   1   7
TORSDOF 2
ENDMDL
