MODEL 1
REMARK minimizedAffinity -1.11953235
REMARK minimizedRMSD -1
REMARK  2 active torsions:
REMARK  status: ('A' for Active; 'I' for Inactive)
REMARK    1  A    between atoms: C1_2  and  C2_3 
REMARK    2  A    between atoms: C2_3  and  C3_4 
ROOT
ATOM      1  C3  UNL d   1      -1.882   5.672  -3.719  0.00  0.00    -0.075 A 
ATOM      2  C4  UNL d   1      -0.746   5.179  -3.061  0.00  0.00     0.002 A 
ATOM      3  C5  UNL d   1      -0.798   4.854  -1.705  0.00  0.00     0.002 A 
ATOM      4  C6  UNL d   1      -1.980   5.027  -0.989  0.00  0.00    -0.004 A 
ATOM      5  C7  UNL d   1      -3.110   5.532  -1.628  0.00  0.00     0.002 A 
ATOM      6  C8  UNL d   1      -3.063   5.854  -2.986  0.00  0.00     0.002 A 
ENDROOT
BRANCH   1   7
ATOM      7  C2  UNL d   1      -1.841   5.999  -5.192  0.00  0.00     0.056 C 
BRANCH   7   8
ATOM      8  C1  UNL d   1      -0.760   5.240  -5.969  0.00  0.00     0.007 C 
ATOM      9  C   UNL d   1       0.579   5.966  -6.000  0.00  0.00     0.009 C 
ENDBRANCH   7   8
ENDBRANCH   1   7
TORSDOF 2
ENDMDL
