MODEL 1
REMARK minimizedAffinity 1.46024585
REMARK minimizedRMSD -1
REMARK  2 active torsions:
REMARK  status: ('A' for Active; 'I' for Inactive)
REMARK    1  A    between atoms: C1_2  and  C2_3 
REMARK    2  A    between atoms: C2_3  and  C3_4 
ROOT
ATOM      1  C3  UNL d   1       0.925   0.573   0.583  0.00  0.00    -0.075 A 
ATOM      2  C4  UNL d   1       1.872   1.064   1.493  0.00  0.00     0.002 A 
ATOM      3  C5  UNL d   1       2.612   2.209   1.196  0.00  0.00     0.002 A 
ATOM      4  C6  UNL d   1       2.424   2.869  -0.016  0.00  0.00    -0.004 A 
ATOM      5  C7  UNL d   1       1.498   2.380  -0.935  0.00  0.00     0.002 A 
ATOM      6  C8  UNL d   1       0.752   1.237  -0.638  0.00  0.00     0.002 A 
ENDROOT
BRANCH   1   7
ATOM      7  C2  UNL d   1       0.100  -0.649   0.911  0.00  0.00     0.056 C 
BRANCH   7   8
ATOM      8  C1  UNL d   1      -1.314  -0.330   1.408  0.00  0.00     0.007 C 
ATOM      9  C   UNL d   1      -1.342   0.225   2.826  0.00  0.00     0.009 C 
ENDBRANCH   7   8
ENDBRANCH   1   7
TORSDOF 2
ENDMDL
