MODEL 1
REMARK minimizedAffinity 2.92428112
REMARK minimizedRMSD -1
REMARK  2 active torsions:
REMARK  status: ('A' for Active; 'I' for Inactive)
REMARK    1  A    between atoms: C1_2  and  C2_3 
REMARK    2  A    between atoms: C2_3  and  C3_4 
ROOT
ATOM      1  C3  UNL d   1      -0.370   5.901  -3.982  0.00  0.00    -0.075 A 
ATOM      2  C4  UNL d   1      -1.432   5.892  -4.898  0.00  0.00     0.002 A 
ATOM      3  C5  UNL d   1      -2.753   5.919  -4.451  0.00  0.00     0.002 A 
ATOM      4  C6  UNL d   1      -3.030   5.944  -3.086  0.00  0.00    -0.004 A 
ATOM      5  C7  UNL d   1      -1.983   5.936  -2.167  0.00  0.00     0.002 A 
ATOM      6  C8  UNL d   1      -0.660   5.914  -2.611  0.00  0.00     0.002 A 
ENDROOT
BRANCH   1   7
ATOM      7  C2  UNL d   1       1.062   5.902  -4.460  0.00  0.00     0.056 C 
BRANCH   7   8
ATOM      8  C1  UNL d   1       1.593   4.517  -4.844  0.00  0.00     0.007 C 
ATOM      9  C   UNL d   1       1.558   3.520  -3.693  0.00  0.00     0.009 C 
ENDBRANCH   7   8
ENDBRANCH   1   7
TORSDOF 2
ENDMDL
