MODEL 1
REMARK minimizedAffinity -3.24277234
REMARK minimizedRMSD -1
REMARK  1 active torsions:
REMARK  status: ('A' for Active; 'I' for Inactive)
REMARK    1  A    between atoms: C3_4  and  O_7 
ROOT
ATOM      1  C   UNL d   1       0.673   1.117   0.625  0.00  0.00    -0.033 A 
ATOM      2  C1  UNL d   1       1.654   0.703   1.528  0.00  0.00     0.039 A 
ATOM      3  C2  UNL d   1       1.408  -0.370   2.386  0.00  0.00    -0.080 A 
ATOM      4  C3  UNL d   1       0.178  -1.021   2.331  0.00  0.00     0.150 A 
ATOM      5  C4  UNL d   1      -0.802  -0.617   1.431  0.00  0.00    -0.007 A 
ATOM      6  C5  UNL d   1      -0.555   0.456   0.575  0.00  0.00     0.039 A 
ENDROOT
BRANCH   4   7
ATOM      7  O   UNL d   1      -0.110  -2.070   3.152  0.00  0.00    -0.526 OA
ATOM      8  H5  UNL d   1       0.650  -2.219   3.739  0.00  0.00     0.418 HD
ENDBRANCH   4   7
TORSDOF 1
ENDMDL
