MODEL 1
REMARK minimizedAffinity -0.810473502
REMARK minimizedRMSD -1
REMARK  1 active torsions:
REMARK  status: ('A' for Active; 'I' for Inactive)
REMARK    1  A    between atoms: C3_4  and  O_7 
ROOT
ATOM      1  C   UNL d   1      -1.192   0.527   1.220  0.00  0.00    -0.033 A 
ATOM      2  C1  UNL d   1      -0.516  -0.421   1.991  0.00  0.00     0.039 A 
ATOM      3  C2  UNL d   1       0.577  -1.106   1.458  0.00  0.00    -0.080 A 
ATOM      4  C3  UNL d   1       0.985  -0.835   0.156  0.00  0.00     0.150 A 
ATOM      5  C4  UNL d   1       0.319   0.111  -0.617  0.00  0.00    -0.007 A 
ATOM      6  C5  UNL d   1      -0.773   0.794  -0.084  0.00  0.00     0.039 A 
ENDROOT
BRANCH   4   7
ATOM      7  O   UNL d   1       2.044  -1.481  -0.409  0.00  0.00    -0.526 OA
ATOM      8  H5  UNL d   1       2.388  -2.126   0.231  0.00  0.00     0.418 HD
ENDBRANCH   4   7
TORSDOF 1
ENDMDL
