MODEL 1
REMARK minimizedAffinity -1.79738212
REMARK minimizedRMSD -1
REMARK  1 active torsions:
REMARK  status: ('A' for Active; 'I' for Inactive)
REMARK    1  A    between atoms: C3_4  and  O_7 
ROOT
ATOM      1  C   UNL d   1      -0.156   0.138  -1.085  0.00  0.00    -0.033 A 
ATOM      2  C1  UNL d   1       0.995  -0.617  -0.851  0.00  0.00     0.039 A 
ATOM      3  C2  UNL d   1       1.259  -1.112   0.428  0.00  0.00    -0.080 A 
ATOM      4  C3  UNL d   1       0.365  -0.846   1.461  0.00  0.00     0.150 A 
ATOM      5  C4  UNL d   1      -0.786  -0.098   1.234  0.00  0.00    -0.007 A 
ATOM      6  C5  UNL d   1      -1.047   0.396  -0.043  0.00  0.00     0.039 A 
ENDROOT
BRANCH   4   7
ATOM      7  O   UNL d   1       0.582  -1.305   2.727  0.00  0.00    -0.526 OA
ATOM      8  H5  UNL d   1       1.429  -1.781   2.740  0.00  0.00     0.418 HD
ENDBRANCH   4   7
TORSDOF 1
ENDMDL
