MODEL 1
REMARK minimizedAffinity -0.409951746
REMARK minimizedRMSD -1
REMARK  1 active torsions:
REMARK  status: ('A' for Active; 'I' for Inactive)
REMARK    1  A    between atoms: C3_4  and  O_7 
ROOT
ATOM      1  C   UNL d   1       0.376   2.371  -3.893  0.00  0.00    -0.033 A 
ATOM      2  C1  UNL d   1      -0.055   2.653  -2.595  0.00  0.00     0.039 A 
ATOM      3  C2  UNL d   1       0.274   3.872  -1.998  0.00  0.00    -0.080 A 
ATOM      4  C3  UNL d   1       1.033   4.798  -2.708  0.00  0.00     0.150 A 
ATOM      5  C4  UNL d   1       1.463   4.524  -4.003  0.00  0.00    -0.007 A 
ATOM      6  C5  UNL d   1       1.134   3.307  -4.597  0.00  0.00     0.039 A 
ENDROOT
BRANCH   4   7
ATOM      7  O   UNL d   1       1.384   5.998  -2.166  0.00  0.00    -0.526 OA
ATOM      8  H5  UNL d   1       1.042   6.037  -1.257  0.00  0.00     0.418 HD
ENDBRANCH   4   7
TORSDOF 1
ENDMDL
