MODEL 1
REMARK minimizedAffinity -3.47275734
REMARK minimizedRMSD -1
REMARK  1 active torsions:
REMARK  status: ('A' for Active; 'I' for Inactive)
REMARK    1  A    between atoms: C3_4  and  O_7 
ROOT
ATOM      1  C   UNL d   1       0.225  -1.130   2.362  0.00  0.00    -0.033 A 
ATOM      2  C1  UNL d   1       1.141  -1.068   1.310  0.00  0.00     0.039 A 
ATOM      3  C2  UNL d   1       0.896  -0.237   0.215  0.00  0.00    -0.080 A 
ATOM      4  C3  UNL d   1      -0.268   0.526   0.184  0.00  0.00     0.150 A 
ATOM      5  C4  UNL d   1      -1.184   0.472   1.230  0.00  0.00    -0.007 A 
ATOM      6  C5  UNL d   1      -0.937  -0.359   2.322  0.00  0.00     0.039 A 
ENDROOT
BRANCH   4   7
ATOM      7  O   UNL d   1      -0.554   1.348  -0.865  0.00  0.00    -0.526 OA
ATOM      8  H5  UNL d   1       0.154   1.261  -1.525  0.00  0.00     0.418 HD
ENDBRANCH   4   7
TORSDOF 1
ENDMDL
