MODEL 1
REMARK minimizedAffinity -3.95010018
REMARK minimizedRMSD -1
REMARK  1 active torsions:
REMARK  status: ('A' for Active; 'I' for Inactive)
REMARK    1  A    between atoms: C3_4  and  O_7 
ROOT
ATOM      1  C   UNL d   1      -1.282  -0.319   0.889  0.00  0.00    -0.033 A 
ATOM      2  C1  UNL d   1      -1.692  -0.654  -0.404  0.00  0.00     0.039 A 
ATOM      3  C2  UNL d   1      -1.143   0.006  -1.505  0.00  0.00    -0.080 A 
ATOM      4  C3  UNL d   1      -0.186   0.996  -1.301  0.00  0.00     0.150 A 
ATOM      5  C4  UNL d   1       0.229   1.332  -0.017  0.00  0.00    -0.007 A 
ATOM      6  C5  UNL d   1      -0.320   0.673   1.082  0.00  0.00     0.039 A 
ENDROOT
BRANCH   4   7
ATOM      7  O   UNL d   1       0.374   1.671  -2.344  0.00  0.00    -0.526 OA
ATOM      8  H5  UNL d   1      -0.030   1.354  -3.169  0.00  0.00     0.418 HD
ENDBRANCH   4   7
TORSDOF 1
ENDMDL
