MODEL 1
REMARK minimizedAffinity -4.73648739
REMARK minimizedRMSD -1
REMARK  1 active torsions:
REMARK  status: ('A' for Active; 'I' for Inactive)
REMARK    1  A    between atoms: C3_4  and  O_7 
ROOT
ATOM      1  C   UNL d   1       0.291  -0.171  -0.281  0.00  0.00    -0.033 A 
ATOM      2  C1  UNL d   1      -0.531  -0.330   0.836  0.00  0.00     0.039 A 
ATOM      3  C2  UNL d   1       0.033  -0.483   2.104  0.00  0.00    -0.080 A 
ATOM      4  C3  UNL d   1       1.418  -0.474   2.241  0.00  0.00     0.150 A 
ATOM      5  C4  UNL d   1       2.243  -0.313   1.133  0.00  0.00    -0.007 A 
ATOM      6  C5  UNL d   1       1.678  -0.161  -0.133  0.00  0.00     0.039 A 
ENDROOT
BRANCH   4   7
ATOM      7  O   UNL d   1       2.015  -0.625   3.457  0.00  0.00    -0.526 OA
ATOM      8  H5  UNL d   1       1.322  -0.756   4.126  0.00  0.00     0.418 HD
ENDBRANCH   4   7
TORSDOF 1
ENDMDL
