MODEL 1
REMARK minimizedAffinity -4.48703814
REMARK minimizedRMSD -1
REMARK  1 active torsions:
REMARK  status: ('A' for Active; 'I' for Inactive)
REMARK    1  A    between atoms: C3_4  and  O_7 
ROOT
ATOM      1  C   UNL d   1      -5.016   0.405  -3.368  0.00  0.00    -0.033 A 
ATOM      2  C1  UNL d   1      -5.999   1.315  -3.763  0.00  0.00     0.039 A 
ATOM      3  C2  UNL d   1      -5.700   2.677  -3.838  0.00  0.00    -0.080 A 
ATOM      4  C3  UNL d   1      -4.418   3.115  -3.519  0.00  0.00     0.150 A 
ATOM      5  C4  UNL d   1      -3.434   2.213  -3.129  0.00  0.00    -0.007 A 
ATOM      6  C5  UNL d   1      -3.733   0.853  -3.053  0.00  0.00     0.039 A 
ENDROOT
BRANCH   4   7
ATOM      7  O   UNL d   1      -4.081   4.435  -3.573  0.00  0.00    -0.526 OA
ATOM      8  H5  UNL d   1      -4.869   4.943  -3.830  0.00  0.00     0.418 HD
ENDBRANCH   4   7
TORSDOF 1
ENDMDL
