MODEL 1
REMARK minimizedAffinity -4.93126822
REMARK minimizedRMSD -1
REMARK  1 active torsions:
REMARK  status: ('A' for Active; 'I' for Inactive)
REMARK    1  A    between atoms: C1_2  and  C2_3 
ROOT
ATOM      1  C2  UNL d   1      -0.525   0.074  -0.020  0.00  0.00    -0.077 A 
ATOM      2  C3  UNL d   1       0.555   0.730  -0.626  0.00  0.00     0.002 A 
ATOM      3  C4  UNL d   1       1.672   0.008  -1.052  0.00  0.00     0.002 A 
ATOM      4  C5  UNL d   1       1.716  -1.374  -0.881  0.00  0.00    -0.004 A 
ATOM      5  C6  UNL d   1       0.647  -2.036  -0.278  0.00  0.00     0.002 A 
ATOM      6  C7  UNL d   1      -0.469  -1.315   0.149  0.00  0.00     0.002 A 
ENDROOT
BRANCH   1   7
ATOM      7  C1  UNL d   1      -1.751   0.845   0.395  0.00  0.00     0.055 C 
ATOM      8  C   UNL d   1      -2.014   0.704   1.887  0.00  0.00     0.019 C 
ENDBRANCH   1   7
TORSDOF 1
ENDMDL
