MODEL 1
REMARK minimizedAffinity -5.02348423
REMARK minimizedRMSD -1
REMARK  1 active torsions:
REMARK  status: ('A' for Active; 'I' for Inactive)
REMARK    1  A    between atoms: C1_2  and  C2_3 
ROOT
ATOM      1  C2  UNL d   1       0.552  -0.465  -0.073  0.00  0.00    -0.077 A 
ATOM      2  C3  UNL d   1       1.512   0.553  -0.165  0.00  0.00     0.002 A 
ATOM      3  C4  UNL d   1       2.686   0.353  -0.894  0.00  0.00     0.002 A 
ATOM      4  C5  UNL d   1       2.910  -0.862  -1.538  0.00  0.00    -0.004 A 
ATOM      5  C6  UNL d   1       1.963  -1.881  -1.451  0.00  0.00     0.002 A 
ATOM      6  C7  UNL d   1       0.789  -1.684  -0.722  0.00  0.00     0.002 A 
ENDROOT
BRANCH   1   7
ATOM      7  C1  UNL d   1      -0.737  -0.234   0.671  0.00  0.00     0.055 C 
ATOM      8  C   UNL d   1      -1.396   1.069   0.245  0.00  0.00     0.019 C 
ENDBRANCH   1   7
TORSDOF 1
ENDMDL
