MODEL 1
REMARK minimizedAffinity -2.93332267
REMARK minimizedRMSD -1
REMARK  1 active torsions:
REMARK  status: ('A' for Active; 'I' for Inactive)
REMARK    1  A    between atoms: C1_2  and  C2_3 
ROOT
ATOM      1  C2  UNL d   1       5.619   1.258   5.017  0.00  0.00    -0.077 A 
ATOM      2  C3  UNL d   1       5.269   0.863   3.718  0.00  0.00     0.002 A 
ATOM      3  C4  UNL d   1       5.105  -0.489   3.410  0.00  0.00     0.002 A 
ATOM      4  C5  UNL d   1       5.285  -1.456   4.396  0.00  0.00    -0.004 A 
ATOM      5  C6  UNL d   1       5.635  -1.074   5.691  0.00  0.00     0.002 A 
ATOM      6  C7  UNL d   1       5.800   0.276   6.000  0.00  0.00     0.002 A 
ENDROOT
BRANCH   1   7
ATOM      7  C1  UNL d   1       5.747   2.718   5.363  0.00  0.00     0.055 C 
ATOM      8  C   UNL d   1       6.000   3.561   4.121  0.00  0.00     0.019 C 
ENDBRANCH   1   7
TORSDOF 1
ENDMDL
