MODEL 1
REMARK minimizedAffinity -0.799660087
REMARK minimizedRMSD -1
REMARK  1 active torsions:
REMARK  status: ('A' for Active; 'I' for Inactive)
REMARK    1  A    between atoms: C1_2  and  C2_3 
ROOT
ATOM      1  C2  UNL d   1       4.794   1.285   4.522  0.00  0.00    -0.077 A 
ATOM      2  C3  UNL d   1       3.620   1.955   4.151  0.00  0.00     0.002 A 
ATOM      3  C4  UNL d   1       3.637   3.330   3.910  0.00  0.00     0.002 A 
ATOM      4  C5  UNL d   1       4.826   4.045   4.033  0.00  0.00    -0.004 A 
ATOM      5  C6  UNL d   1       5.999   3.388   4.403  0.00  0.00     0.002 A 
ATOM      6  C7  UNL d   1       5.983   2.014   4.645  0.00  0.00     0.002 A 
ENDROOT
BRANCH   1   7
ATOM      7  C1  UNL d   1       4.788  -0.207   4.735  0.00  0.00     0.055 C 
ATOM      8  C   UNL d   1       5.615  -0.596   5.951  0.00  0.00     0.019 C 
ENDBRANCH   1   7
TORSDOF 1
ENDMDL
