MODEL 1
REMARK minimizedAffinity 5.45168781
REMARK minimizedRMSD -1
REMARK  1 active torsions:
REMARK  status: ('A' for Active; 'I' for Inactive)
REMARK    1  A    between atoms: C1_2  and  C2_3 
ROOT
ATOM      1  C2  UNL d   1       0.017  -1.213   0.313  0.00  0.00    -0.077 A 
ATOM      2  C3  UNL d   1      -1.219  -0.608   0.580  0.00  0.00     0.002 A 
ATOM      3  C4  UNL d   1      -1.583   0.572  -0.072  0.00  0.00     0.002 A 
ATOM      4  C5  UNL d   1      -0.719   1.153  -0.998  0.00  0.00    -0.004 A 
ATOM      5  C6  UNL d   1       0.513   0.560  -1.269  0.00  0.00     0.002 A 
ATOM      6  C7  UNL d   1       0.879  -0.619  -0.617  0.00  0.00     0.002 A 
ENDROOT
BRANCH   1   7
ATOM      7  C1  UNL d   1       0.391  -2.512   0.979  0.00  0.00     0.055 C 
ATOM      8  C   UNL d   1       0.165  -3.695   0.049  0.00  0.00     0.019 C 
ENDBRANCH   1   7
TORSDOF 1
ENDMDL
