MODEL 1
REMARK minimizedAffinity -3.5328331
REMARK minimizedRMSD -1
REMARK  1 active torsions:
REMARK  status: ('A' for Active; 'I' for Inactive)
REMARK    1  A    between atoms: C1_2  and  C2_3 
ROOT
ATOM      1  C2  UNL d   1      -2.113  -0.147   2.735  0.00  0.00    -0.077 A 
ATOM      2  C3  UNL d   1      -1.853  -0.527   1.410  0.00  0.00     0.002 A 
ATOM      3  C4  UNL d   1      -1.152   0.327   0.556  0.00  0.00     0.002 A 
ATOM      4  C5  UNL d   1      -0.701   1.562   1.018  0.00  0.00    -0.004 A 
ATOM      5  C6  UNL d   1      -0.957   1.949   2.333  0.00  0.00     0.002 A 
ATOM      6  C7  UNL d   1      -1.658   1.098   3.188  0.00  0.00     0.002 A 
ENDROOT
BRANCH   1   7
ATOM      7  C1  UNL d   1      -2.825  -1.087   3.672  0.00  0.00     0.055 C 
ATOM      8  C   UNL d   1      -4.002  -1.766   2.986  0.00  0.00     0.019 C 
ENDBRANCH   1   7
TORSDOF 1
ENDMDL
