MODEL 1
REMARK minimizedAffinity -4.19687796
REMARK minimizedRMSD -1
REMARK  1 active torsions:
REMARK  status: ('A' for Active; 'I' for Inactive)
REMARK    1  A    between atoms: C1_2  and  C2_3 
ROOT
ATOM      1  C2  UNL d   1       0.304   0.058  -0.132  0.00  0.00    -0.077 A 
ATOM      2  C3  UNL d   1       1.484   0.523  -0.731  0.00  0.00     0.002 A 
ATOM      3  C4  UNL d   1       2.396  -0.377  -1.284  0.00  0.00     0.002 A 
ATOM      4  C5  UNL d   1       2.137  -1.745  -1.248  0.00  0.00    -0.004 A 
ATOM      5  C6  UNL d   1       0.968  -2.217  -0.654  0.00  0.00     0.002 A 
ATOM      6  C7  UNL d   1       0.055  -1.319  -0.099  0.00  0.00     0.002 A 
ENDROOT
BRANCH   1   7
ATOM      7  C1  UNL d   1      -0.705   1.030   0.421  0.00  0.00     0.055 C 
ATOM      8  C   UNL d   1      -1.686   0.337   1.356  0.00  0.00     0.019 C 
ENDBRANCH   1   7
TORSDOF 1
ENDMDL
