MODEL 1
REMARK minimizedAffinity -1.60887051
REMARK minimizedRMSD -1
REMARK  1 active torsions:
REMARK  status: ('A' for Active; 'I' for Inactive)
REMARK    1  A    between atoms: C1_2  and  C2_3 
ROOT
ATOM      1  C2  UNL d   1      -1.407   0.656   1.632  0.00  0.00    -0.077 A 
ATOM      2  C3  UNL d   1      -0.940   1.811   2.275  0.00  0.00     0.002 A 
ATOM      3  C4  UNL d   1      -1.390   2.138   3.556  0.00  0.00     0.002 A 
ATOM      4  C5  UNL d   1      -2.305   1.313   4.206  0.00  0.00    -0.004 A 
ATOM      5  C6  UNL d   1      -2.777   0.163   3.575  0.00  0.00     0.002 A 
ATOM      6  C7  UNL d   1      -2.330  -0.165   2.294  0.00  0.00     0.002 A 
ENDROOT
BRANCH   1   7
ATOM      7  C1  UNL d   1      -0.886   0.275   0.271  0.00  0.00     0.055 C 
ATOM      8  C   UNL d   1       0.531   0.786   0.059  0.00  0.00     0.019 C 
ENDBRANCH   1   7
TORSDOF 1
ENDMDL
