MODEL 1
REMARK minimizedAffinity -6.08466148
REMARK minimizedRMSD -1
REMARK  1 active torsions:
REMARK  status: ('A' for Active; 'I' for Inactive)
REMARK    1  A    between atoms: C1_2  and  C2_3 
ROOT
ATOM      1  C2  UNL d   1       1.555  -0.022  -1.273  0.00  0.00    -0.077 A 
ATOM      2  C3  UNL d   1       1.760  -1.403  -1.143  0.00  0.00     0.002 A 
ATOM      3  C4  UNL d   1       0.834  -2.193  -0.460  0.00  0.00     0.002 A 
ATOM      4  C5  UNL d   1      -0.305  -1.613   0.094  0.00  0.00    -0.004 A 
ATOM      5  C6  UNL d   1      -0.517  -0.241  -0.028  0.00  0.00     0.002 A 
ATOM      6  C7  UNL d   1       0.408   0.551  -0.709  0.00  0.00     0.002 A 
ENDROOT
BRANCH   1   7
ATOM      7  C1  UNL d   1       2.528   0.825  -2.052  0.00  0.00     0.055 C 
ATOM      8  C   UNL d   1       1.827   1.593  -3.163  0.00  0.00     0.019 C 
ENDBRANCH   1   7
TORSDOF 1
ENDMDL
