MODEL 1
REMARK minimizedAffinity -3.21904588
REMARK minimizedRMSD -1
REMARK  1 active torsions:
REMARK  status: ('A' for Active; 'I' for Inactive)
REMARK    1  A    between atoms: C1_2  and  C2_3 
ROOT
ATOM      1  C2  UNL d   1      -1.665   1.685   2.242  0.00  0.00    -0.077 A 
ATOM      2  C3  UNL d   1      -1.145   2.962   1.984  0.00  0.00     0.002 A 
ATOM      3  C4  UNL d   1      -0.641   3.277   0.721  0.00  0.00     0.002 A 
ATOM      4  C5  UNL d   1      -0.655   2.323  -0.295  0.00  0.00    -0.004 A 
ATOM      5  C6  UNL d   1      -1.168   1.051  -0.048  0.00  0.00     0.002 A 
ATOM      6  C7  UNL d   1      -1.672   0.733   1.215  0.00  0.00     0.002 A 
ENDROOT
BRANCH   1   7
ATOM      7  C1  UNL d   1      -2.255   1.359   3.589  0.00  0.00     0.055 C 
ATOM      8  C   UNL d   1      -3.229   0.193   3.500  0.00  0.00     0.019 C 
ENDBRANCH   1   7
TORSDOF 1
ENDMDL
