MODEL 1
REMARK minimizedAffinity -6.30251408
REMARK minimizedRMSD -1
REMARK  1 active torsions:
REMARK  status: ('A' for Active; 'I' for Inactive)
REMARK    1  A    between atoms: C1_2  and  C2_3 
ROOT
ATOM      1  C2  UNL d   1       1.054  -0.791  -0.558  0.00  0.00    -0.077 A 
ATOM      2  C3  UNL d   1       0.970   0.586  -0.805  0.00  0.00     0.002 A 
ATOM      3  C4  UNL d   1       1.988   1.242  -1.501  0.00  0.00     0.002 A 
ATOM      4  C5  UNL d   1       3.093   0.528  -1.959  0.00  0.00    -0.004 A 
ATOM      5  C6  UNL d   1       3.187  -0.842  -1.716  0.00  0.00     0.002 A 
ATOM      6  C7  UNL d   1       2.171  -1.499  -1.020  0.00  0.00     0.002 A 
ENDROOT
BRANCH   1   7
ATOM      7  C1  UNL d   1      -0.066  -1.510   0.149  0.00  0.00     0.055 C 
ATOM      8  C   UNL d   1       0.011  -3.012  -0.077  0.00  0.00     0.019 C 
ENDBRANCH   1   7
TORSDOF 1
ENDMDL
