MODEL 1
REMARK minimizedAffinity -4.78308678
REMARK minimizedRMSD -1
REMARK  1 active torsions:
REMARK  status: ('A' for Active; 'I' for Inactive)
REMARK    1  A    between atoms: C1_2  and  C2_3 
ROOT
ATOM      1  C2  UNL d   1      -3.466   0.359   3.152  0.00  0.00    -0.077 A 
ATOM      2  C3  UNL d   1      -3.138  -0.261   1.938  0.00  0.00     0.002 A 
ATOM      3  C4  UNL d   1      -2.172   0.297   1.099  0.00  0.00     0.002 A 
ATOM      4  C5  UNL d   1      -1.522   1.473   1.466  0.00  0.00    -0.004 A 
ATOM      5  C6  UNL d   1      -1.842   2.098   2.671  0.00  0.00     0.002 A 
ATOM      6  C7  UNL d   1      -2.809   1.543   3.510  0.00  0.00     0.002 A 
ENDROOT
BRANCH   1   7
ATOM      7  C1  UNL d   1      -4.472  -0.267   4.082  0.00  0.00     0.055 C 
ATOM      8  C   UNL d   1      -4.570  -1.769   3.861  0.00  0.00     0.019 C 
ENDBRANCH   1   7
TORSDOF 1
ENDMDL
