MODEL 1
REMARK minimizedAffinity -4.9186039
REMARK minimizedRMSD -1
REMARK  1 active torsions:
REMARK  status: ('A' for Active; 'I' for Inactive)
REMARK    1  A    between atoms: C1_2  and  C2_3 
ROOT
ATOM      1  C2  UNL d   1      -0.200  -0.249   0.310  0.00  0.00    -0.077 A 
ATOM      2  C3  UNL d   1       0.727   0.688  -0.166  0.00  0.00     0.002 A 
ATOM      3  C4  UNL d   1       1.919   0.264  -0.758  0.00  0.00     0.002 A 
ATOM      4  C5  UNL d   1       2.191  -1.096  -0.883  0.00  0.00    -0.004 A 
ATOM      5  C6  UNL d   1       1.276  -2.036  -0.411  0.00  0.00     0.002 A 
ATOM      6  C7  UNL d   1       0.085  -1.614   0.182  0.00  0.00     0.002 A 
ENDROOT
BRANCH   1   7
ATOM      7  C1  UNL d   1      -1.508   0.205   0.904  0.00  0.00     0.055 C 
ATOM      8  C   UNL d   1      -1.302   0.851   2.267  0.00  0.00     0.019 C 
ENDBRANCH   1   7
TORSDOF 1
ENDMDL
