MODEL 1
REMARK minimizedAffinity 3.39091873
REMARK minimizedRMSD -1
REMARK  0 active torsions:
REMARK  status: ('A' for Active; 'I' for Inactive)
ROOT
ATOM      1  C1  BNZ d   1      -4.111   5.059  -0.479  0.00  0.00     0.000 A 
ATOM      2  C2  BNZ d   1      -4.124   3.855   0.173  0.00  0.00     0.000 A 
ATOM      3  C3  BNZ d   1      -5.082   3.576   1.108  0.00  0.00     0.000 A 
ATOM      4  C4  BNZ d   1      -6.000   4.515   1.417  0.00  0.00     0.000 A 
ATOM      5  C5  BNZ d   1      -5.994   5.737   0.775  0.00  0.00     0.000 A 
ATOM      6  C6  BNZ d   1      -5.052   6.000  -0.192  0.00  0.00     0.000 A 
ENDROOT
TORSDOF 0
ENDMDL
