MODEL 1
REMARK minimizedAffinity 8.1691618
REMARK minimizedRMSD -1
REMARK  0 active torsions:
REMARK  status: ('A' for Active; 'I' for Inactive)
ROOT
ATOM      1  C1  BNZ d   1      -0.581  -2.407  -0.427  0.00  0.00     0.000 A 
ATOM      2  C2  BNZ d   1      -1.565  -1.466  -0.574  0.00  0.00     0.000 A 
ATOM      3  C3  BNZ d   1      -2.483  -1.253   0.415  0.00  0.00     0.000 A 
ATOM      4  C4  BNZ d   1      -2.442  -2.008   1.532  0.00  0.00     0.000 A 
ATOM      5  C5  BNZ d   1      -1.462  -2.968   1.691  0.00  0.00     0.000 A 
ATOM      6  C6  BNZ d   1      -0.515  -3.152   0.710  0.00  0.00     0.000 A 
ENDROOT
TORSDOF 0
ENDMDL
