MODEL 1
REMARK minimizedAffinity 2.90828228
REMARK minimizedRMSD -1
REMARK  0 active torsions:
REMARK  status: ('A' for Active; 'I' for Inactive)
ROOT
ATOM      1  C1  BNZ d   1      -1.851  -1.806  -0.942  0.00  0.00     0.000 A 
ATOM      2  C2  BNZ d   1      -0.866  -2.755  -0.872  0.00  0.00     0.000 A 
ATOM      3  C3  BNZ d   1      -0.433  -3.226   0.336  0.00  0.00     0.000 A 
ATOM      4  C4  BNZ d   1      -0.956  -2.719   1.471  0.00  0.00     0.000 A 
ATOM      5  C5  BNZ d   1      -1.942  -1.755   1.417  0.00  0.00     0.000 A 
ATOM      6  C6  BNZ d   1      -2.404  -1.311   0.199  0.00  0.00     0.000 A 
ENDROOT
TORSDOF 0
ENDMDL
