MODEL 1
REMARK minimizedAffinity 7.22573757
REMARK minimizedRMSD -1
REMARK  0 active torsions:
REMARK  status: ('A' for Active; 'I' for Inactive)
ROOT
ATOM      1  C1  BNZ d   1      -5.999   5.903  -4.790  0.00  0.00     0.000 A 
ATOM      2  C2  BNZ d   1      -5.442   5.924  -3.539  0.00  0.00     0.000 A 
ATOM      3  C3  BNZ d   1      -4.086   5.992  -3.377  0.00  0.00     0.000 A 
ATOM      4  C4  BNZ d   1      -3.288   5.999  -4.464  0.00  0.00     0.000 A 
ATOM      5  C5  BNZ d   1      -3.834   5.968  -5.732  0.00  0.00     0.000 A 
ATOM      6  C6  BNZ d   1      -5.201   5.939  -5.891  0.00  0.00     0.000 A 
ENDROOT
TORSDOF 0
ENDMDL
