MODEL 1
REMARK minimizedAffinity 9.28454018
REMARK minimizedRMSD -1
REMARK  0 active torsions:
REMARK  status: ('A' for Active; 'I' for Inactive)
ROOT
ATOM      1  C1  BNZ d   1       6.000   3.504  -1.365  0.00  0.00     0.000 A 
ATOM      2  C2  BNZ d   1       5.066   2.619  -0.896  0.00  0.00     0.000 A 
ATOM      3  C3  BNZ d   1       4.117   3.015   0.004  0.00  0.00     0.000 A 
ATOM      4  C4  BNZ d   1       4.127   4.283   0.464  0.00  0.00     0.000 A 
ATOM      5  C5  BNZ d   1       5.067   5.185   0.007  0.00  0.00     0.000 A 
ATOM      6  C6  BNZ d   1       5.997   4.793  -0.928  0.00  0.00     0.000 A 
ENDROOT
TORSDOF 0
ENDMDL
