MODEL 1
REMARK minimizedAffinity -0.277241409
REMARK minimizedRMSD -1
REMARK  0 active torsions:
REMARK  status: ('A' for Active; 'I' for Inactive)
ROOT
ATOM      1  C1  BNZ d   1      -5.967   4.953   1.116  0.00  0.00     0.000 A 
ATOM      2  C2  BNZ d   1      -5.082   3.922   0.945  0.00  0.00     0.000 A 
ATOM      3  C3  BNZ d   1      -4.187   3.932  -0.088  0.00  0.00     0.000 A 
ATOM      4  C4  BNZ d   1      -4.204   4.952  -0.971  0.00  0.00     0.000 A 
ATOM      5  C5  BNZ d   1      -5.097   5.994  -0.817  0.00  0.00     0.000 A 
ATOM      6  C6  BNZ d   1      -5.970   6.000   0.246  0.00  0.00     0.000 A 
ENDROOT
TORSDOF 0
ENDMDL
