MODEL 1
REMARK minimizedAffinity 13.0313854
REMARK minimizedRMSD -1
REMARK  0 active torsions:
REMARK  status: ('A' for Active; 'I' for Inactive)
ROOT
ATOM      1  C1  BNZ d   1       0.521  -0.441  -2.222  0.00  0.00     0.000 A 
ATOM      2  C2  BNZ d   1       0.697   0.608  -1.359  0.00  0.00     0.000 A 
ATOM      3  C3  BNZ d   1       1.872   1.307  -1.337  0.00  0.00     0.000 A 
ATOM      4  C4  BNZ d   1       2.882   0.931  -2.148  0.00  0.00     0.000 A 
ATOM      5  C5  BNZ d   1       2.724  -0.131  -3.016  0.00  0.00     0.000 A 
ATOM      6  C6  BNZ d   1       1.526  -0.807  -3.063  0.00  0.00     0.000 A 
ENDROOT
TORSDOF 0
ENDMDL
