MODEL 1
REMARK minimizedAffinity 0.106608503
REMARK minimizedRMSD -1
REMARK  0 active torsions:
REMARK  status: ('A' for Active; 'I' for Inactive)
ROOT
ATOM      1  C1  BNZ d   1      -4.970   3.643  -5.785  0.00  0.00     0.000 A 
ATOM      2  C2  BNZ d   1      -3.965   3.948  -4.906  0.00  0.00     0.000 A 
ATOM      3  C3  BNZ d   1      -3.983   5.119  -4.201  0.00  0.00     0.000 A 
ATOM      4  C4  BNZ d   1      -4.983   6.000  -4.403  0.00  0.00     0.000 A 
ATOM      5  C5  BNZ d   1      -6.000   5.711  -5.292  0.00  0.00     0.000 A 
ATOM      6  C6  BNZ d   1      -5.999   4.515  -5.972  0.00  0.00     0.000 A 
ENDROOT
TORSDOF 0
ENDMDL
