MODEL 1
REMARK minimizedAffinity 5.58189106
REMARK minimizedRMSD -1
REMARK  0 active torsions:
REMARK  status: ('A' for Active; 'I' for Inactive)
ROOT
ATOM      1  C1  BNZ d   1      -4.855   5.992  -4.200  0.00  0.00     0.000 A 
ATOM      2  C2  BNZ d   1      -5.832   6.000  -5.159  0.00  0.00     0.000 A 
ATOM      3  C3  BNZ d   1      -5.998   4.934  -5.998  0.00  0.00     0.000 A 
ATOM      4  C4  BNZ d   1      -5.162   3.880  -5.904  0.00  0.00     0.000 A 
ATOM      5  C5  BNZ d   1      -4.166   3.861  -4.948  0.00  0.00     0.000 A 
ATOM      6  C6  BNZ d   1      -4.027   4.919  -4.079  0.00  0.00     0.000 A 
ENDROOT
TORSDOF 0
ENDMDL
