MODEL 1
REMARK minimizedAffinity 12.1951351
REMARK minimizedRMSD -1
REMARK  0 active torsions:
REMARK  status: ('A' for Active; 'I' for Inactive)
ROOT
ATOM      1  C1  BNZ d   1      -3.291   1.707   5.675  0.00  0.00     0.000 A 
ATOM      2  C2  BNZ d   1      -3.448   0.394   5.319  0.00  0.00     0.000 A 
ATOM      3  C3  BNZ d   1      -4.690  -0.175   5.275  0.00  0.00     0.000 A 
ATOM      4  C4  BNZ d   1      -5.768   0.556   5.624  0.00  0.00     0.000 A 
ATOM      5  C5  BNZ d   1      -5.625   1.879   5.994  0.00  0.00     0.000 A 
ATOM      6  C6  BNZ d   1      -4.378   2.460   6.000  0.00  0.00     0.000 A 
ENDROOT
TORSDOF 0
ENDMDL
