MODEL 1
REMARK minimizedAffinity 1.9419539
REMARK minimizedRMSD -1
REMARK  0 active torsions:
REMARK  status: ('A' for Active; 'I' for Inactive)
ROOT
ATOM      1  C1  BNZ d   1      -4.121   3.833  -4.999  0.00  0.00     0.000 A 
ATOM      2  C2  BNZ d   1      -3.931   4.928  -4.198  0.00  0.00     0.000 A 
ATOM      3  C3  BNZ d   1      -4.780   5.997  -4.261  0.00  0.00     0.000 A 
ATOM      4  C4  BNZ d   1      -5.792   5.989  -5.152  0.00  0.00     0.000 A 
ATOM      5  C5  BNZ d   1      -5.991   4.897  -5.973  0.00  0.00     0.000 A 
ATOM      6  C6  BNZ d   1      -5.158   3.806  -5.879  0.00  0.00     0.000 A 
ENDROOT
TORSDOF 0
ENDMDL
