MODEL 1
REMARK minimizedAffinity 7.25018787
REMARK minimizedRMSD -1
REMARK  0 active torsions:
REMARK  status: ('A' for Active; 'I' for Inactive)
ROOT
ATOM      1  C1  BNZ d   1      -5.993   3.599   1.456  0.00  0.00     0.000 A 
ATOM      2  C2  BNZ d   1      -4.997   2.953   0.774  0.00  0.00     0.000 A 
ATOM      3  C3  BNZ d   1      -3.993   3.657   0.169  0.00  0.00     0.000 A 
ATOM      4  C4  BNZ d   1      -4.009   5.004   0.213  0.00  0.00     0.000 A 
ATOM      5  C5  BNZ d   1      -5.011   5.671   0.888  0.00  0.00     0.000 A 
ATOM      6  C6  BNZ d   1      -5.999   4.958   1.530  0.00  0.00     0.000 A 
ENDROOT
TORSDOF 0
ENDMDL
