MODEL 1
REMARK minimizedAffinity 10.5904264
REMARK minimizedRMSD -1
REMARK  0 active torsions:
REMARK  status: ('A' for Active; 'I' for Inactive)
ROOT
ATOM      1  C1  BNZ d   1       2.174   1.469  -0.132  0.00  0.00     0.000 A 
ATOM      2  C2  BNZ d   1       1.574   0.268  -0.399  0.00  0.00     0.000 A 
ATOM      3  C3  BNZ d   1       1.507  -0.213  -1.677  0.00  0.00     0.000 A 
ATOM      4  C4  BNZ d   1       2.004   0.526  -2.689  0.00  0.00     0.000 A 
ATOM      5  C5  BNZ d   1       2.605   1.743  -2.438  0.00  0.00     0.000 A 
ATOM      6  C6  BNZ d   1       2.705   2.206  -1.145  0.00  0.00     0.000 A 
ENDROOT
TORSDOF 0
ENDMDL
