MODEL 1
REMARK minimizedAffinity 6.79202795
REMARK minimizedRMSD -1
REMARK  0 active torsions:
REMARK  status: ('A' for Active; 'I' for Inactive)
ROOT
ATOM      1  C1  BNZ d   1      -4.618   3.301  -5.356  0.00  0.00     0.000 A 
ATOM      2  C2  BNZ d   1      -5.700   3.858  -5.985  0.00  0.00     0.000 A 
ATOM      3  C3  BNZ d   1      -5.994   5.184  -5.829  0.00  0.00     0.000 A 
ATOM      4  C4  BNZ d   1      -5.230   5.941  -5.015  0.00  0.00     0.000 A 
ATOM      5  C5  BNZ d   1      -4.142   5.392  -4.367  0.00  0.00     0.000 A 
ATOM      6  C6  BNZ d   1      -3.826   4.066  -4.557  0.00  0.00     0.000 A 
ENDROOT
TORSDOF 0
ENDMDL
