MODEL 1
REMARK minimizedAffinity 7.95909214
REMARK minimizedRMSD -1
REMARK  1 active torsions:
REMARK  status: ('A' for Active; 'I' for Inactive)
REMARK    1  A    between atoms: C1_2  and  C2_3 
ROOT
ATOM      1  C2  UNL d   1      -3.784   5.616   4.490  0.00  0.00    -0.081 A 
ATOM      2  C3  UNL d   1      -5.160   5.508   4.256  0.00  0.00     0.006 A 
ATOM      3  C4  UNL d   1      -5.671   5.640   2.962  0.00  0.00     0.002 A 
ATOM      4  C5  UNL d   1      -4.813   5.874   1.881  0.00  0.00    -0.080 A 
ATOM      5  C6  UNL d   1      -5.345   5.987   0.483  0.00  0.00     0.076 C 
ATOM      6  C7  UNL d   1      -3.440   5.999   2.118  0.00  0.00     0.002 A 
ATOM      7  C8  UNL d   1      -2.930   5.868   3.411  0.00  0.00     0.006 A 
ENDROOT
BRANCH   1   8
ATOM      8  C1  UNL d   1      -3.224   5.411   5.875  0.00  0.00     0.054 C 
ATOM      9  C   UNL d   1      -1.826   5.999   5.999  0.00  0.00     0.018 C 
ENDBRANCH   1   8
TORSDOF 1
ENDMDL
