MODEL 1
REMARK minimizedAffinity 2.08214688
REMARK minimizedRMSD -1
REMARK  1 active torsions:
REMARK  status: ('A' for Active; 'I' for Inactive)
REMARK    1  A    between atoms: C1_2  and  C2_3 
ROOT
ATOM      1  C2  UNL d   1      -3.333   2.277   3.772  0.00  0.00    -0.081 A 
ATOM      2  C3  UNL d   1      -3.457   3.471   3.051  0.00  0.00     0.006 A 
ATOM      3  C4  UNL d   1      -3.705   4.676   3.713  0.00  0.00     0.002 A 
ATOM      4  C5  UNL d   1      -3.825   4.709   5.106  0.00  0.00    -0.080 A 
ATOM      5  C6  UNL d   1      -4.060   6.000   5.832  0.00  0.00     0.076 C 
ATOM      6  C7  UNL d   1      -3.718   3.513   5.825  0.00  0.00     0.002 A 
ATOM      7  C8  UNL d   1      -3.471   2.308   5.164  0.00  0.00     0.006 A 
ENDROOT
BRANCH   1   8
ATOM      8  C1  UNL d   1      -3.002   0.987   3.067  0.00  0.00     0.054 C 
ATOM      9  C   UNL d   1      -3.773  -0.183   3.662  0.00  0.00     0.018 C 
ENDBRANCH   1   8
TORSDOF 1
ENDMDL
