MODEL 1
REMARK minimizedAffinity 8.21577263
REMARK minimizedRMSD -1
REMARK  1 active torsions:
REMARK  status: ('A' for Active; 'I' for Inactive)
REMARK    1  A    between atoms: C1_2  and  C2_3 
ROOT
ATOM      1  C2  UNL d   1      -3.468   5.885   4.578  0.00  0.00    -0.081 A 
ATOM      2  C3  UNL d   1      -4.865   5.900   4.666  0.00  0.00     0.006 A 
ATOM      3  C4  UNL d   1      -5.648   5.847   3.510  0.00  0.00     0.002 A 
ATOM      4  C5  UNL d   1      -5.048   5.769   2.249  0.00  0.00    -0.080 A 
ATOM      5  C6  UNL d   1      -5.877   5.681   1.002  0.00  0.00     0.076 C 
ATOM      6  C7  UNL d   1      -3.651   5.772   2.160  0.00  0.00     0.002 A 
ATOM      7  C8  UNL d   1      -2.868   5.826   3.315  0.00  0.00     0.006 A 
ENDROOT
BRANCH   1   8
ATOM      8  C1  UNL d   1      -2.621   5.877   5.825  0.00  0.00     0.054 C 
ATOM      9  C   UNL d   1      -1.902   4.547   5.997  0.00  0.00     0.018 C 
ENDBRANCH   1   8
TORSDOF 1
ENDMDL
