MODEL 1
REMARK minimizedAffinity 4.35070848
REMARK minimizedRMSD -1
REMARK  1 active torsions:
REMARK  status: ('A' for Active; 'I' for Inactive)
REMARK    1  A    between atoms: C1_2  and  C2_3 
ROOT
ATOM      1  C2  UNL d   1      -3.448   4.887   4.059  0.00  0.00    -0.081 A 
ATOM      2  C3  UNL d   1      -4.132   5.838   3.292  0.00  0.00     0.006 A 
ATOM      3  C4  UNL d   1      -3.887   5.952   1.921  0.00  0.00     0.002 A 
ATOM      4  C5  UNL d   1      -2.962   5.111   1.293  0.00  0.00    -0.080 A 
ATOM      5  C6  UNL d   1      -2.712   5.202  -0.183  0.00  0.00     0.076 C 
ATOM      6  C7  UNL d   1      -2.265   4.173   2.063  0.00  0.00     0.002 A 
ATOM      7  C8  UNL d   1      -2.509   4.059   3.433  0.00  0.00     0.006 A 
ENDROOT
BRANCH   1   8
ATOM      8  C1  UNL d   1      -3.756   4.719   5.524  0.00  0.00     0.054 C 
ATOM      9  C   UNL d   1      -4.805   5.720   5.988  0.00  0.00     0.018 C 
ENDBRANCH   1   8
TORSDOF 1
ENDMDL
