MODEL 1
REMARK minimizedAffinity 1.8700819
REMARK minimizedRMSD -1
REMARK  1 active torsions:
REMARK  status: ('A' for Active; 'I' for Inactive)
REMARK    1  A    between atoms: C1_2  and  C2_3 
ROOT
ATOM      1  C2  UNL d   1      -4.264   5.659   4.218  0.00  0.00    -0.081 A 
ATOM      2  C3  UNL d   1      -3.234   5.905   3.302  0.00  0.00     0.006 A 
ATOM      3  C4  UNL d   1      -3.508   5.998   1.936  0.00  0.00     0.002 A 
ATOM      4  C5  UNL d   1      -4.817   5.853   1.463  0.00  0.00    -0.080 A 
ATOM      5  C6  UNL d   1      -5.129   5.980   0.002  0.00  0.00     0.076 C 
ATOM      6  C7  UNL d   1      -5.844   5.590   2.376  0.00  0.00     0.002 A 
ATOM      7  C8  UNL d   1      -5.570   5.497   3.742  0.00  0.00     0.006 A 
ENDROOT
BRANCH   1   8
ATOM      8  C1  UNL d   1      -3.982   5.623   5.698  0.00  0.00     0.054 C 
ATOM      9  C   UNL d   1      -2.535   5.989   5.994  0.00  0.00     0.018 C 
ENDBRANCH   1   8
TORSDOF 1
ENDMDL
