MODEL 1
REMARK minimizedAffinity 6.68472338
REMARK minimizedRMSD -1
REMARK  1 active torsions:
REMARK  status: ('A' for Active; 'I' for Inactive)
REMARK    1  A    between atoms: C1_2  and  C2_3 
ROOT
ATOM      1  C2  UNL d   1      -3.344   5.836   4.671  0.00  0.00    -0.081 A 
ATOM      2  C3  UNL d   1      -4.735   5.690   4.603  0.00  0.00     0.006 A 
ATOM      3  C4  UNL d   1      -5.387   5.691   3.367  0.00  0.00     0.002 A 
ATOM      4  C5  UNL d   1      -4.659   5.832   2.181  0.00  0.00    -0.080 A 
ATOM      5  C6  UNL d   1      -5.344   5.805   0.847  0.00  0.00     0.076 C 
ATOM      6  C7  UNL d   1      -3.272   5.996   2.250  0.00  0.00     0.002 A 
ATOM      7  C8  UNL d   1      -2.619   5.995   3.485  0.00  0.00     0.006 A 
ENDROOT
BRANCH   1   8
ATOM      8  C1  UNL d   1      -2.631   5.770   5.998  0.00  0.00     0.054 C 
ATOM      9  C   UNL d   1      -1.126   5.923   5.825  0.00  0.00     0.018 C 
ENDBRANCH   1   8
TORSDOF 1
ENDMDL
