MODEL 1
REMARK minimizedAffinity 2.35048461
REMARK minimizedRMSD -1
REMARK  1 active torsions:
REMARK  status: ('A' for Active; 'I' for Inactive)
REMARK    1  A    between atoms: C1_2  and  C2_3 
ROOT
ATOM      1  C2  UNL d   1      -4.611   5.949   2.571  0.00  0.00    -0.081 A 
ATOM      2  C3  UNL d   1      -3.222   5.973   2.397  0.00  0.00     0.006 A 
ATOM      3  C4  UNL d   1      -2.369   5.999   3.503  0.00  0.00     0.002 A 
ATOM      4  C5  UNL d   1      -2.891   5.993   4.801  0.00  0.00    -0.080 A 
ATOM      5  C6  UNL d   1      -1.987   5.989   5.998  0.00  0.00     0.076 C 
ATOM      6  C7  UNL d   1      -4.279   5.986   4.975  0.00  0.00     0.002 A 
ATOM      7  C8  UNL d   1      -5.132   5.961   3.869  0.00  0.00     0.006 A 
ENDROOT
BRANCH   1   8
ATOM      8  C1  UNL d   1      -5.531   5.856   1.381  0.00  0.00     0.054 C 
ATOM      9  C   UNL d   1      -5.938   4.416   1.107  0.00  0.00     0.018 C 
ENDBRANCH   1   8
TORSDOF 1
ENDMDL
