MODEL 1
REMARK minimizedAffinity 8.04236603
REMARK minimizedRMSD -1
REMARK  1 active torsions:
REMARK  status: ('A' for Active; 'I' for Inactive)
REMARK    1  A    between atoms: C1_2  and  C2_3 
ROOT
ATOM      1  C2  UNL d   1      -3.729   4.473   2.689  0.00  0.00    -0.081 A 
ATOM      2  C3  UNL d   1      -2.595   3.956   3.327  0.00  0.00     0.006 A 
ATOM      3  C4  UNL d   1      -2.564   2.624   3.746  0.00  0.00     0.002 A 
ATOM      4  C5  UNL d   1      -3.661   1.785   3.527  0.00  0.00    -0.080 A 
ATOM      5  C6  UNL d   1      -3.629   0.345   3.945  0.00  0.00     0.076 C 
ATOM      6  C7  UNL d   1      -4.801   2.306   2.905  0.00  0.00     0.002 A 
ATOM      7  C8  UNL d   1      -4.834   3.638   2.487  0.00  0.00     0.006 A 
ENDROOT
BRANCH   1   8
ATOM      8  C1  UNL d   1      -3.742   5.891   2.178  0.00  0.00     0.054 C 
ATOM      9  C   UNL d   1      -3.043   6.000   0.830  0.00  0.00     0.018 C 
ENDBRANCH   1   8
TORSDOF 1
ENDMDL
