MODEL 1
REMARK minimizedAffinity 5.17035341
REMARK minimizedRMSD -1
REMARK  1 active torsions:
REMARK  status: ('A' for Active; 'I' for Inactive)
REMARK    1  A    between atoms: C1_2  and  C2_3 
ROOT
ATOM      1  C2  UNL d   1      -4.026   5.584   4.585  0.00  0.00    -0.081 A 
ATOM      2  C3  UNL d   1      -5.410   5.443   4.427  0.00  0.00     0.006 A 
ATOM      3  C4  UNL d   1      -5.995   5.567   3.165  0.00  0.00     0.002 A 
ATOM      4  C5  UNL d   1      -5.206   5.825   2.039  0.00  0.00    -0.080 A 
ATOM      5  C6  UNL d   1      -5.818   5.930   0.674  0.00  0.00     0.076 C 
ATOM      6  C7  UNL d   1      -3.825   5.984   2.199  0.00  0.00     0.002 A 
ATOM      7  C8  UNL d   1      -3.240   5.861   3.461  0.00  0.00     0.006 A 
ENDROOT
BRANCH   1   8
ATOM      8  C1  UNL d   1      -3.384   5.388   5.935  0.00  0.00     0.054 C 
ATOM      9  C   UNL d   1      -1.988   5.991   5.977  0.00  0.00     0.018 C 
ENDBRANCH   1   8
TORSDOF 1
ENDMDL
