MODEL 1
REMARK minimizedAffinity 6.26932859
REMARK minimizedRMSD -1
REMARK  1 active torsions:
REMARK  status: ('A' for Active; 'I' for Inactive)
REMARK    1  A    between atoms: C1_2  and  C2_3 
ROOT
ATOM      1  C2  UNL d   1      -4.729   5.935   2.824  0.00  0.00    -0.081 A 
ATOM      2  C3  UNL d   1      -5.125   5.951   4.167  0.00  0.00     0.006 A 
ATOM      3  C4  UNL d   1      -4.170   5.958   5.186  0.00  0.00     0.002 A 
ATOM      4  C5  UNL d   1      -2.805   5.956   4.881  0.00  0.00    -0.080 A 
ATOM      5  C6  UNL d   1      -1.770   5.993   5.966  0.00  0.00     0.076 C 
ATOM      6  C7  UNL d   1      -2.409   5.921   3.539  0.00  0.00     0.002 A 
ATOM      7  C8  UNL d   1      -3.363   5.914   2.519  0.00  0.00     0.006 A 
ENDROOT
BRANCH   1   8
ATOM      8  C1  UNL d   1      -5.755   5.993   1.721  0.00  0.00     0.054 C 
ATOM      9  C   UNL d   1      -5.959   4.627   1.082  0.00  0.00     0.018 C 
ENDBRANCH   1   8
TORSDOF 1
ENDMDL
