MODEL 1
REMARK minimizedAffinity -2.2314806
REMARK minimizedRMSD -1
REMARK  1 active torsions:
REMARK  status: ('A' for Active; 'I' for Inactive)
REMARK    1  A    between atoms: C1_2  and  C2_3 
ROOT
ATOM      1  C2  UNL d   1       5.124   4.921   1.533  0.00  0.00    -0.081 A 
ATOM      2  C3  UNL d   1       3.832   4.382   1.497  0.00  0.00     0.006 A 
ATOM      3  C4  UNL d   1       3.045   4.505   0.349  0.00  0.00     0.002 A 
ATOM      4  C5  UNL d   1       3.539   5.162  -0.783  0.00  0.00    -0.080 A 
ATOM      5  C6  UNL d   1       2.717   5.274  -2.032  0.00  0.00     0.076 C 
ATOM      6  C7  UNL d   1       4.824   5.715  -0.741  0.00  0.00     0.002 A 
ATOM      7  C8  UNL d   1       5.610   5.593   0.406  0.00  0.00     0.006 A 
ENDROOT
BRANCH   1   8
ATOM      8  C1  UNL d   1       5.998   4.734   2.746  0.00  0.00     0.054 C 
ATOM      9  C   UNL d   1       5.999   5.976   3.625  0.00  0.00     0.018 C 
ENDBRANCH   1   8
TORSDOF 1
ENDMDL
