MODEL 1
REMARK minimizedAffinity 1.8669498
REMARK minimizedRMSD -1
REMARK  1 active torsions:
REMARK  status: ('A' for Active; 'I' for Inactive)
REMARK    1  A    between atoms: C1_2  and  C2_3 
ROOT
ATOM      1  C2  UNL d   1       1.798   3.462  -4.697  0.00  0.00    -0.081 A 
ATOM      2  C3  UNL d   1       1.885   3.627  -3.309  0.00  0.00     0.006 A 
ATOM      3  C4  UNL d   1       1.798   2.523  -2.457  0.00  0.00     0.002 A 
ATOM      4  C5  UNL d   1       1.630   1.236  -2.979  0.00  0.00    -0.080 A 
ATOM      5  C6  UNL d   1       1.565   0.039  -2.078  0.00  0.00     0.076 C 
ATOM      6  C7  UNL d   1       1.525   1.073  -4.365  0.00  0.00     0.002 A 
ATOM      7  C8  UNL d   1       1.611   2.177  -5.216  0.00  0.00     0.006 A 
ENDROOT
BRANCH   1   8
ATOM      8  C1  UNL d   1       1.956   4.643  -5.620  0.00  0.00     0.054 C 
ATOM      9  C   UNL d   1       0.606   5.236  -5.997  0.00  0.00     0.018 C 
ENDBRANCH   1   8
TORSDOF 1
ENDMDL
