MODEL 1
REMARK minimizedAffinity 5.19425821
REMARK minimizedRMSD -1
REMARK  1 active torsions:
REMARK  status: ('A' for Active; 'I' for Inactive)
REMARK    1  A    between atoms: C1_2  and  C2_3 
ROOT
ATOM      1  C2  UNL d   1      -2.576   5.939   4.615  0.00  0.00    -0.081 A 
ATOM      2  C3  UNL d   1      -2.215   5.895   3.262  0.00  0.00     0.006 A 
ATOM      3  C4  UNL d   1      -3.195   5.902   2.267  0.00  0.00     0.002 A 
ATOM      4  C5  UNL d   1      -4.551   5.961   2.607  0.00  0.00    -0.080 A 
ATOM      5  C6  UNL d   1      -5.613   5.999   1.548  0.00  0.00     0.076 C 
ATOM      6  C7  UNL d   1      -4.912   5.987   3.959  0.00  0.00     0.002 A 
ATOM      7  C8  UNL d   1      -3.932   5.980   4.954  0.00  0.00     0.006 A 
ENDROOT
BRANCH   1   8
ATOM      8  C1  UNL d   1      -1.519   5.997   5.688  0.00  0.00     0.054 C 
ATOM      9  C   UNL d   1      -0.970   4.612   6.000  0.00  0.00     0.018 C 
ENDBRANCH   1   8
TORSDOF 1
ENDMDL
