MODEL 1
REMARK minimizedAffinity 3.30659533
REMARK minimizedRMSD -1
REMARK  1 active torsions:
REMARK  status: ('A' for Active; 'I' for Inactive)
REMARK    1  A    between atoms: C1_2  and  C2_3 
ROOT
ATOM      1  C2  UNL d   1      -2.913   4.603   3.151  0.00  0.00    -0.081 A 
ATOM      2  C3  UNL d   1      -3.440   4.300   1.890  0.00  0.00     0.006 A 
ATOM      3  C4  UNL d   1      -3.397   2.992   1.400  0.00  0.00     0.002 A 
ATOM      4  C5  UNL d   1      -2.833   1.966   2.165  0.00  0.00    -0.080 A 
ATOM      5  C6  UNL d   1      -2.808   0.552   1.664  0.00  0.00     0.076 C 
ATOM      6  C7  UNL d   1      -2.290   2.272   3.418  0.00  0.00     0.002 A 
ATOM      7  C8  UNL d   1      -2.333   3.579   3.908  0.00  0.00     0.006 A 
ENDROOT
BRANCH   1   8
ATOM      8  C1  UNL d   1      -3.016   5.999   3.709  0.00  0.00     0.054 C 
ATOM      9  C   UNL d   1      -2.887   6.000   5.225  0.00  0.00     0.018 C 
ENDBRANCH   1   8
TORSDOF 1
ENDMDL
