MODEL 1
REMARK minimizedAffinity 5.51317501
REMARK minimizedRMSD -1
REMARK  1 active torsions:
REMARK  status: ('A' for Active; 'I' for Inactive)
REMARK    1  A    between atoms: C1_2  and  C2_3 
ROOT
ATOM      1  C2  UNL d   1      -2.992   4.947   3.961  0.00  0.00    -0.081 A 
ATOM      2  C3  UNL d   1      -3.194   5.907   2.962  0.00  0.00     0.006 A 
ATOM      3  C4  UNL d   1      -3.289   5.525   1.622  0.00  0.00     0.002 A 
ATOM      4  C5  UNL d   1      -3.193   4.177   1.259  0.00  0.00    -0.080 A 
ATOM      5  C6  UNL d   1      -3.324   3.751  -0.173  0.00  0.00     0.076 C 
ATOM      6  C7  UNL d   1      -2.974   3.220   2.256  0.00  0.00     0.002 A 
ATOM      7  C8  UNL d   1      -2.877   3.601   3.596  0.00  0.00     0.006 A 
ENDROOT
BRANCH   1   8
ATOM      8  C1  UNL d   1      -2.953   5.348   5.414  0.00  0.00     0.054 C 
ATOM      9  C   UNL d   1      -4.260   5.998   5.844  0.00  0.00     0.018 C 
ENDBRANCH   1   8
TORSDOF 1
ENDMDL
