MODEL 1
REMARK minimizedAffinity 10.782423
REMARK minimizedRMSD -1
REMARK  1 active torsions:
REMARK  status: ('A' for Active; 'I' for Inactive)
REMARK    1  A    between atoms: C1_2  and  C2_3 
ROOT
ATOM      1  C2  UNL d   1       1.886   3.440  -3.854  0.00  0.00    -0.081 A 
ATOM      2  C3  UNL d   1       1.416   3.574  -2.541  0.00  0.00     0.006 A 
ATOM      3  C4  UNL d   1       1.034   2.449  -1.808  0.00  0.00     0.002 A 
ATOM      4  C5  UNL d   1       1.122   1.171  -2.370  0.00  0.00    -0.080 A 
ATOM      5  C6  UNL d   1       0.743  -0.048  -1.583  0.00  0.00     0.076 C 
ATOM      6  C7  UNL d   1       1.575   1.039  -3.687  0.00  0.00     0.002 A 
ATOM      7  C8  UNL d   1       1.957   2.164  -4.422  0.00  0.00     0.006 A 
ENDROOT
BRANCH   1   8
ATOM      8  C1  UNL d   1       2.360   4.646  -4.625  0.00  0.00     0.054 C 
ATOM      9  C   UNL d   1       3.820   4.955  -4.325  0.00  0.00     0.018 C 
ENDBRANCH   1   8
TORSDOF 1
ENDMDL
