MODEL 1
REMARK minimizedAffinity 1.20600164
REMARK minimizedRMSD -1
REMARK  2 active torsions:
REMARK  status: ('A' for Active; 'I' for Inactive)
REMARK    1  A    between atoms: C1_2  and  C2_3 
REMARK    2  A    between atoms: C2_3  and  C3_4 
ROOT
ATOM      1  C3  UNL d   1      -1.165  -4.803   2.415  0.00  0.00    -0.075 A 
ATOM      2  C4  UNL d   1      -0.656  -4.880   1.111  0.00  0.00     0.002 A 
ATOM      3  C5  UNL d   1      -0.721  -3.777   0.259  0.00  0.00     0.002 A 
ATOM      4  C6  UNL d   1      -1.303  -2.589   0.695  0.00  0.00    -0.004 A 
ATOM      5  C7  UNL d   1      -1.827  -2.507   1.983  0.00  0.00     0.002 A 
ATOM      6  C8  UNL d   1      -1.760  -3.607   2.840  0.00  0.00     0.002 A 
ENDROOT
BRANCH   1   7
ATOM      7  C2  UNL d   1      -1.071  -5.983   3.353  0.00  0.00     0.056 C 
BRANCH   7   8
ATOM      8  C1  UNL d   1      -2.101  -5.962   4.487  0.00  0.00     0.007 C 
ATOM      9  C   UNL d   1      -1.468  -5.988   5.872  0.00  0.00     0.009 C 
ENDBRANCH   7   8
ENDBRANCH   1   7
TORSDOF 2
ENDMDL
