MODEL 1
REMARK minimizedAffinity 16.7472973
REMARK minimizedRMSD -1
REMARK  2 active torsions:
REMARK  status: ('A' for Active; 'I' for Inactive)
REMARK    1  A    between atoms: C1_2  and  C2_3 
REMARK    2  A    between atoms: C2_3  and  C3_4 
ROOT
ATOM      1  C3  UNL d   1      -0.974  -1.798  -0.995  0.00  0.00    -0.075 A 
ATOM      2  C4  UNL d   1      -2.087  -1.173  -0.414  0.00  0.00     0.002 A 
ATOM      3  C5  UNL d   1      -2.729  -1.747   0.684  0.00  0.00     0.002 A 
ATOM      4  C6  UNL d   1      -2.274  -2.955   1.207  0.00  0.00    -0.004 A 
ATOM      5  C7  UNL d   1      -1.180  -3.593   0.628  0.00  0.00     0.002 A 
ATOM      6  C8  UNL d   1      -0.533  -3.019  -0.468  0.00  0.00     0.002 A 
ENDROOT
BRANCH   1   7
ATOM      7  C2  UNL d   1      -0.256  -1.167  -2.164  0.00  0.00     0.056 C 
BRANCH   7   8
ATOM      8  C1  UNL d   1      -0.870  -1.503  -3.527  0.00  0.00     0.007 C 
ATOM      9  C   UNL d   1      -1.820  -0.428  -4.039  0.00  0.00     0.009 C 
ENDBRANCH   7   8
ENDBRANCH   1   7
TORSDOF 2
ENDMDL
