MODEL 1
REMARK minimizedAffinity 17.4444981
REMARK minimizedRMSD -1
REMARK  2 active torsions:
REMARK  status: ('A' for Active; 'I' for Inactive)
REMARK    1  A    between atoms: C1_2  and  C2_3 
REMARK    2  A    between atoms: C2_3  and  C3_4 
ROOT
ATOM      1  C3  UNL d   1      -0.722  -3.735  -0.507  0.00  0.00    -0.075 A 
ATOM      2  C4  UNL d   1      -1.389  -2.601  -0.019  0.00  0.00     0.002 A 
ATOM      3  C5  UNL d   1      -1.529  -1.465  -0.817  0.00  0.00     0.002 A 
ATOM      4  C6  UNL d   1      -0.997  -1.443  -2.104  0.00  0.00    -0.004 A 
ATOM      5  C7  UNL d   1      -0.319  -2.558  -2.592  0.00  0.00     0.002 A 
ATOM      6  C8  UNL d   1      -0.181  -3.698  -1.799  0.00  0.00     0.002 A 
ENDROOT
BRANCH   1   7
ATOM      7  C2  UNL d   1      -0.593  -4.978   0.340  0.00  0.00     0.056 C 
BRANCH   7   8
ATOM      8  C1  UNL d   1      -0.052  -4.719   1.750  0.00  0.00     0.007 C 
ATOM      9  C   UNL d   1       0.272  -5.997   2.513  0.00  0.00     0.009 C 
ENDBRANCH   7   8
ENDBRANCH   1   7
TORSDOF 2
ENDMDL
