MODEL 1
REMARK minimizedAffinity 11.1021624
REMARK minimizedRMSD -1
REMARK  2 active torsions:
REMARK  status: ('A' for Active; 'I' for Inactive)
REMARK    1  A    between atoms: C1_2  and  C2_3 
REMARK    2  A    between atoms: C2_3  and  C3_4 
ROOT
ATOM      1  C3  UNL d   1      -0.863  -3.555  -1.241  0.00  0.00    -0.075 A 
ATOM      2  C4  UNL d   1      -0.157  -3.592  -0.030  0.00  0.00     0.002 A 
ATOM      3  C5  UNL d   1       0.291  -4.806   0.492  0.00  0.00     0.002 A 
ATOM      4  C6  UNL d   1       0.032  -5.997  -0.184  0.00  0.00    -0.004 A 
ATOM      5  C7  UNL d   1      -0.683  -5.973  -1.380  0.00  0.00     0.002 A 
ATOM      6  C8  UNL d   1      -1.129  -4.760  -1.906  0.00  0.00     0.002 A 
ENDROOT
BRANCH   1   7
ATOM      7  C2  UNL d   1      -1.325  -2.242  -1.826  0.00  0.00     0.056 C 
BRANCH   7   8
ATOM      8  C1  UNL d   1      -0.657  -1.882  -3.157  0.00  0.00     0.007 C 
ATOM      9  C   UNL d   1       0.629  -1.084  -2.987  0.00  0.00     0.009 C 
ENDBRANCH   7   8
ENDBRANCH   1   7
TORSDOF 2
ENDMDL
