MODEL 1
REMARK minimizedAffinity 10.4924517
REMARK minimizedRMSD -1
REMARK  2 active torsions:
REMARK  status: ('A' for Active; 'I' for Inactive)
REMARK    1  A    between atoms: C1_2  and  C2_3 
REMARK    2  A    between atoms: C2_3  and  C3_4 
ROOT
ATOM      1  C3  UNL d   1       0.290  -2.700   2.249  0.00  0.00    -0.075 A 
ATOM      2  C4  UNL d   1       1.578  -2.351   2.682  0.00  0.00     0.002 A 
ATOM      3  C5  UNL d   1       1.796  -1.943   3.998  0.00  0.00     0.002 A 
ATOM      4  C6  UNL d   1       0.732  -1.868   4.893  0.00  0.00    -0.004 A 
ATOM      5  C7  UNL d   1      -0.554  -2.196   4.470  0.00  0.00     0.002 A 
ATOM      6  C8  UNL d   1      -0.775  -2.610   3.155  0.00  0.00     0.002 A 
ENDROOT
BRANCH   1   7
ATOM      7  C2  UNL d   1       0.052  -3.171   0.835  0.00  0.00     0.056 C 
BRANCH   7   8
ATOM      8  C1  UNL d   1      -1.209  -2.588   0.187  0.00  0.00     0.007 C 
ATOM      9  C   UNL d   1      -0.914  -1.729  -1.035  0.00  0.00     0.009 C 
ENDBRANCH   7   8
ENDBRANCH   1   7
TORSDOF 2
ENDMDL
