MODEL 1
REMARK minimizedAffinity 11.1418123
REMARK minimizedRMSD -1
REMARK  2 active torsions:
REMARK  status: ('A' for Active; 'I' for Inactive)
REMARK    1  A    between atoms: C1_2  and  C2_3 
REMARK    2  A    between atoms: C2_3  and  C3_4 
ROOT
ATOM      1  C3  UNL d   1      -1.060  -1.386  -1.094  0.00  0.00    -0.075 A 
ATOM      2  C4  UNL d   1      -2.180  -1.052  -0.318  0.00  0.00     0.002 A 
ATOM      3  C5  UNL d   1      -2.578  -1.869   0.741  0.00  0.00     0.002 A 
ATOM      4  C6  UNL d   1      -1.869  -3.033   1.030  0.00  0.00    -0.004 A 
ATOM      5  C7  UNL d   1      -0.765  -3.383   0.256  0.00  0.00     0.002 A 
ATOM      6  C8  UNL d   1      -0.362  -2.565  -0.801  0.00  0.00     0.002 A 
ENDROOT
BRANCH   1   7
ATOM      7  C2  UNL d   1      -0.608  -0.490  -2.222  0.00  0.00     0.056 C 
BRANCH   7   8
ATOM      8  C1  UNL d   1       0.904  -0.239  -2.251  0.00  0.00     0.007 C 
ATOM      9  C   UNL d   1       1.299   1.111  -1.669  0.00  0.00     0.009 C 
ENDBRANCH   7   8
ENDBRANCH   1   7
TORSDOF 2
ENDMDL
