MODEL 1
REMARK minimizedAffinity 7.43026114
REMARK minimizedRMSD -1
REMARK  2 active torsions:
REMARK  status: ('A' for Active; 'I' for Inactive)
REMARK    1  A    between atoms: C1_2  and  C2_3 
REMARK    2  A    between atoms: C2_3  and  C3_4 
ROOT
ATOM      1  C3  UNL d   1      -4.307   5.488  -1.079  0.00  0.00    -0.075 A 
ATOM      2  C4  UNL d   1      -3.507   4.493  -0.498  0.00  0.00     0.002 A 
ATOM      3  C5  UNL d   1      -3.798   4.006   0.777  0.00  0.00     0.002 A 
ATOM      4  C6  UNL d   1      -4.883   4.512   1.489  0.00  0.00    -0.004 A 
ATOM      5  C7  UNL d   1      -5.674   5.513   0.928  0.00  0.00     0.002 A 
ATOM      6  C8  UNL d   1      -5.388   5.999  -0.349  0.00  0.00     0.002 A 
ENDROOT
BRANCH   1   7
ATOM      7  C2  UNL d   1      -4.015   5.999  -2.470  0.00  0.00     0.056 C 
BRANCH   7   8
ATOM      8  C1  UNL d   1      -5.231   5.999  -3.402  0.00  0.00     0.007 C 
ATOM      9  C   UNL d   1      -4.865   5.789  -4.865  0.00  0.00     0.009 C 
ENDBRANCH   7   8
ENDBRANCH   1   7
TORSDOF 2
ENDMDL
