MODEL 1
REMARK minimizedAffinity 16.7980576
REMARK minimizedRMSD -1
REMARK  2 active torsions:
REMARK  status: ('A' for Active; 'I' for Inactive)
REMARK    1  A    between atoms: C1_2  and  C2_3 
REMARK    2  A    between atoms: C2_3  and  C3_4 
ROOT
ATOM      1  C3  UNL d   1      -1.439  -1.758  -2.178  0.00  0.00    -0.075 A 
ATOM      2  C4  UNL d   1      -1.838  -1.387  -0.886  0.00  0.00     0.002 A 
ATOM      3  C5  UNL d   1      -1.653  -2.256   0.190  0.00  0.00     0.002 A 
ATOM      4  C6  UNL d   1      -1.077  -3.508  -0.014  0.00  0.00    -0.004 A 
ATOM      5  C7  UNL d   1      -0.692  -3.894  -1.296  0.00  0.00     0.002 A 
ATOM      6  C8  UNL d   1      -0.872  -3.024  -2.373  0.00  0.00     0.002 A 
ENDROOT
BRANCH   1   7
ATOM      7  C2  UNL d   1      -1.609  -0.810  -3.342  0.00  0.00     0.056 C 
BRANCH   7   8
ATOM      8  C1  UNL d   1      -2.972  -0.111  -3.382  0.00  0.00     0.007 C 
ATOM      9  C   UNL d   1      -2.974   1.152  -4.233  0.00  0.00     0.009 C 
ENDBRANCH   7   8
ENDBRANCH   1   7
TORSDOF 2
ENDMDL
