MODEL 1
REMARK minimizedAffinity 17.7706261
REMARK minimizedRMSD -1
REMARK  2 active torsions:
REMARK  status: ('A' for Active; 'I' for Inactive)
REMARK    1  A    between atoms: C1_2  and  C2_3 
REMARK    2  A    between atoms: C2_3  and  C3_4 
ROOT
ATOM      1  C3  UNL d   1      -4.077   3.600  -5.019  0.00  0.00    -0.075 A 
ATOM      2  C4  UNL d   1      -5.133   3.759  -5.929  0.00  0.00     0.002 A 
ATOM      3  C5  UNL d   1      -5.863   4.948  -5.966  0.00  0.00     0.002 A 
ATOM      4  C6  UNL d   1      -5.554   5.986  -5.090  0.00  0.00    -0.004 A 
ATOM      5  C7  UNL d   1      -4.519   5.832  -4.171  0.00  0.00     0.002 A 
ATOM      6  C8  UNL d   1      -3.784   4.646  -4.134  0.00  0.00     0.002 A 
ENDROOT
BRANCH   1   7
ATOM      7  C2  UNL d   1      -3.264   2.328  -4.994  0.00  0.00     0.056 C 
BRANCH   7   8
ATOM      8  C1  UNL d   1      -1.972   2.430  -4.178  0.00  0.00     0.007 C 
ATOM      9  C   UNL d   1      -0.781   1.761  -4.853  0.00  0.00     0.009 C 
ENDBRANCH   7   8
ENDBRANCH   1   7
TORSDOF 2
ENDMDL
