MODEL 1
REMARK minimizedAffinity 14.7442503
REMARK minimizedRMSD -1
REMARK  2 active torsions:
REMARK  status: ('A' for Active; 'I' for Inactive)
REMARK    1  A    between atoms: C1_2  and  C2_3 
REMARK    2  A    between atoms: C2_3  and  C3_4 
ROOT
ATOM      1  C3  UNL d   1      -1.194  -2.449  -2.171  0.00  0.00    -0.075 A 
ATOM      2  C4  UNL d   1      -1.137  -2.023  -0.836  0.00  0.00     0.002 A 
ATOM      3  C5  UNL d   1      -0.759  -2.908   0.174  0.00  0.00     0.002 A 
ATOM      4  C6  UNL d   1      -0.444  -4.229  -0.135  0.00  0.00    -0.004 A 
ATOM      5  C7  UNL d   1      -0.514  -4.667  -1.456  0.00  0.00     0.002 A 
ATOM      6  C8  UNL d   1      -0.887  -3.783  -2.469  0.00  0.00     0.002 A 
ENDROOT
BRANCH   1   7
ATOM      7  C2  UNL d   1      -1.574  -1.488  -3.273  0.00  0.00     0.056 C 
BRANCH   7   8
ATOM      8  C1  UNL d   1      -2.963  -0.863  -3.104  0.00  0.00     0.007 C 
ATOM      9  C   UNL d   1      -3.104   0.484  -3.800  0.00  0.00     0.009 C 
ENDBRANCH   7   8
ENDBRANCH   1   7
TORSDOF 2
ENDMDL
