MODEL 1
REMARK minimizedAffinity 13.2398319
REMARK minimizedRMSD -1
REMARK  2 active torsions:
REMARK  status: ('A' for Active; 'I' for Inactive)
REMARK    1  A    between atoms: C1_2  and  C2_3 
REMARK    2  A    between atoms: C2_3  and  C3_4 
ROOT
ATOM      1  C3  UNL d   1      -2.758   0.224   5.289  0.00  0.00    -0.075 A 
ATOM      2  C4  UNL d   1      -3.105  -0.477   4.125  0.00  0.00     0.002 A 
ATOM      3  C5  UNL d   1      -2.337  -1.558   3.694  0.00  0.00     0.002 A 
ATOM      4  C6  UNL d   1      -1.208  -1.946   4.413  0.00  0.00    -0.004 A 
ATOM      5  C7  UNL d   1      -0.845  -1.247   5.562  0.00  0.00     0.002 A 
ATOM      6  C8  UNL d   1      -1.614  -0.167   5.998  0.00  0.00     0.002 A 
ENDROOT
BRANCH   1   7
ATOM      7  C2  UNL d   1      -3.602   1.377   5.778  0.00  0.00     0.056 C 
BRANCH   7   8
ATOM      8  C1  UNL d   1      -5.076   1.022   5.997  0.00  0.00     0.007 C 
ATOM      9  C   UNL d   1      -6.000   2.231   5.944  0.00  0.00     0.009 C 
ENDBRANCH   7   8
ENDBRANCH   1   7
TORSDOF 2
ENDMDL
