MODEL 1
REMARK minimizedAffinity 9.07657814
REMARK minimizedRMSD -1
REMARK  2 active torsions:
REMARK  status: ('A' for Active; 'I' for Inactive)
REMARK    1  A    between atoms: C1_2  and  C2_3 
REMARK    2  A    between atoms: C2_3  and  C3_4 
ROOT
ATOM      1  C3  UNL d   1       3.909   2.199   3.158  0.00  0.00    -0.075 A 
ATOM      2  C4  UNL d   1       3.740   3.015   4.287  0.00  0.00     0.002 A 
ATOM      3  C5  UNL d   1       4.698   3.029   5.300  0.00  0.00     0.002 A 
ATOM      4  C6  UNL d   1       5.830   2.222   5.204  0.00  0.00    -0.004 A 
ATOM      5  C7  UNL d   1       6.000   1.396   4.096  0.00  0.00     0.002 A 
ATOM      6  C8  UNL d   1       5.045   1.383   3.078  0.00  0.00     0.002 A 
ENDROOT
BRANCH   1   7
ATOM      7  C2  UNL d   1       2.890   2.202   2.044  0.00  0.00     0.056 C 
BRANCH   7   8
ATOM      8  C1  UNL d   1       3.464   2.581   0.674  0.00  0.00     0.007 C 
ATOM      9  C   UNL d   1       2.850   1.791  -0.474  0.00  0.00     0.009 C 
ENDBRANCH   7   8
ENDBRANCH   1   7
TORSDOF 2
ENDMDL
