MODEL 1
REMARK minimizedAffinity -5.07677269
REMARK minimizedRMSD -1
REMARK  1 active torsions:
REMARK  status: ('A' for Active; 'I' for Inactive)
REMARK    1  A    between atoms: C1_2  and  C2_3 
ROOT
ATOM      1  C2  UNL d   1      -0.324  -0.891   0.116  0.00  0.00    -0.081 A 
ATOM      2  C3  UNL d   1      -1.305   0.041   0.476  0.00  0.00     0.006 A 
ATOM      3  C4  UNL d   1      -1.027   1.409   0.445  0.00  0.00     0.002 A 
ATOM      4  C5  UNL d   1       0.233   1.869   0.047  0.00  0.00    -0.080 A 
ATOM      5  C6  UNL d   1       0.535   3.336  -0.019  0.00  0.00     0.076 C 
ATOM      6  C7  UNL d   1       1.219   0.937  -0.296  0.00  0.00     0.002 A 
ATOM      7  C8  UNL d   1       0.941  -0.431  -0.265  0.00  0.00     0.006 A 
ENDROOT
BRANCH   1   8
ATOM      8  C1  UNL d   1      -0.641  -2.365   0.085  0.00  0.00     0.054 C 
ATOM      9  C   UNL d   1      -0.489  -2.935  -1.318  0.00  0.00     0.018 C 
ENDBRANCH   1   8
TORSDOF 1
ENDMDL
