MODEL 1
REMARK minimizedAffinity -2.61844468
REMARK minimizedRMSD -1
REMARK  1 active torsions:
REMARK  status: ('A' for Active; 'I' for Inactive)
REMARK    1  A    between atoms: C1_2  and  C2_3 
ROOT
ATOM      1  C2  UNL d   1      -0.063  -1.029  -0.085  0.00  0.00    -0.081 A 
ATOM      2  C3  UNL d   1      -1.175  -0.302   0.355  0.00  0.00     0.006 A 
ATOM      3  C4  UNL d   1      -1.122   1.092   0.439  0.00  0.00     0.002 A 
ATOM      4  C5  UNL d   1       0.041   1.781   0.078  0.00  0.00    -0.080 A 
ATOM      5  C6  UNL d   1       0.101   3.278   0.136  0.00  0.00     0.076 C 
ATOM      6  C7  UNL d   1       1.158   1.053  -0.344  0.00  0.00     0.002 A 
ATOM      7  C8  UNL d   1       1.106  -0.340  -0.428  0.00  0.00     0.006 A 
ENDROOT
BRANCH   1   8
ATOM      8  C1  UNL d   1      -0.138  -2.527  -0.238  0.00  0.00     0.054 C 
ATOM      9  C   UNL d   1      -0.666  -2.916  -1.611  0.00  0.00     0.018 C 
ENDBRANCH   1   8
TORSDOF 1
ENDMDL
