MODEL 1
REMARK minimizedAffinity -5.16052103
REMARK minimizedRMSD -1
REMARK  1 active torsions:
REMARK  status: ('A' for Active; 'I' for Inactive)
REMARK    1  A    between atoms: C1_2  and  C2_3 
ROOT
ATOM      1  C2  UNL d   1      -0.392  -0.732  -0.093  0.00  0.00    -0.081 A 
ATOM      2  C3  UNL d   1      -1.379   0.216   0.205  0.00  0.00     0.006 A 
ATOM      3  C4  UNL d   1      -1.058   1.573   0.277  0.00  0.00     0.002 A 
ATOM      4  C5  UNL d   1       0.252   2.006   0.046  0.00  0.00    -0.080 A 
ATOM      5  C6  UNL d   1       0.604   3.464   0.091  0.00  0.00     0.076 C 
ATOM      6  C7  UNL d   1       1.241   1.058  -0.235  0.00  0.00     0.002 A 
ATOM      7  C8  UNL d   1       0.921  -0.300  -0.307  0.00  0.00     0.006 A 
ENDROOT
BRANCH   1   8
ATOM      8  C1  UNL d   1      -0.748  -2.190  -0.236  0.00  0.00     0.054 C 
ATOM      9  C   UNL d   1      -0.643  -2.646  -1.684  0.00  0.00     0.018 C 
ENDBRANCH   1   8
TORSDOF 1
ENDMDL
