MODEL 1
REMARK minimizedAffinity -2.80544305
REMARK minimizedRMSD -1
REMARK  1 active torsions:
REMARK  status: ('A' for Active; 'I' for Inactive)
REMARK    1  A    between atoms: C1_2  and  C2_3 
ROOT
ATOM      1  C2  UNL d   1      -0.053  -0.376  -0.225  0.00  0.00    -0.081 A 
ATOM      2  C3  UNL d   1       1.197   0.111  -0.629  0.00  0.00     0.006 A 
ATOM      3  C4  UNL d   1       1.487   1.474  -0.544  0.00  0.00     0.002 A 
ATOM      4  C5  UNL d   1       0.537   2.373  -0.047  0.00  0.00    -0.080 A 
ATOM      5  C6  UNL d   1       0.846   3.835   0.077  0.00  0.00     0.076 C 
ATOM      6  C7  UNL d   1      -0.718   1.889   0.340  0.00  0.00     0.002 A 
ATOM      7  C8  UNL d   1      -1.009   0.526   0.254  0.00  0.00     0.006 A 
ENDROOT
BRANCH   1   8
ATOM      8  C1  UNL d   1      -0.346  -1.854  -0.255  0.00  0.00     0.054 C 
ATOM      9  C   UNL d   1       0.145  -2.490  -1.548  0.00  0.00     0.018 C 
ENDBRANCH   1   8
TORSDOF 1
ENDMDL
