MODEL 1
REMARK minimizedAffinity -5.44258833
REMARK minimizedRMSD -1
REMARK  1 active torsions:
REMARK  status: ('A' for Active; 'I' for Inactive)
REMARK    1  A    between atoms: C1_2  and  C2_3 
ROOT
ATOM      1  C2  UNL d   1      -0.226  -0.772  -0.437  0.00  0.00    -0.081 A 
ATOM      2  C3  UNL d   1      -1.386  -0.011  -0.244  0.00  0.00     0.006 A 
ATOM      3  C4  UNL d   1      -1.312   1.381  -0.147  0.00  0.00     0.002 A 
ATOM      4  C5  UNL d   1      -0.080   2.035  -0.250  0.00  0.00    -0.080 A 
ATOM      5  C6  UNL d   1       0.010   3.530  -0.178  0.00  0.00     0.076 C 
ATOM      6  C7  UNL d   1       1.081   1.274  -0.425  0.00  0.00     0.002 A 
ATOM      7  C8  UNL d   1       1.008  -0.118  -0.521  0.00  0.00     0.006 A 
ENDROOT
BRANCH   1   8
ATOM      8  C1  UNL d   1      -0.310  -2.267  -0.606  0.00  0.00     0.054 C 
ATOM      9  C   UNL d   1       0.114  -2.690  -2.005  0.00  0.00     0.018 C 
ENDBRANCH   1   8
TORSDOF 1
ENDMDL
