MODEL 1
REMARK minimizedAffinity -4.28916502
REMARK minimizedRMSD -1
REMARK  1 active torsions:
REMARK  status: ('A' for Active; 'I' for Inactive)
REMARK    1  A    between atoms: C1_2  and  C2_3 
ROOT
ATOM      1  C2  UNL d   1       0.031  -0.869  -0.377  0.00  0.00    -0.081 A 
ATOM      2  C3  UNL d   1      -1.131  -0.101  -0.236  0.00  0.00     0.006 A 
ATOM      3  C4  UNL d   1      -1.048   1.277  -0.024  0.00  0.00     0.002 A 
ATOM      4  C5  UNL d   1       0.197   1.911   0.043  0.00  0.00    -0.080 A 
ATOM      5  C6  UNL d   1       0.299   3.394   0.240  0.00  0.00     0.076 C 
ATOM      6  C7  UNL d   1       1.359   1.141  -0.080  0.00  0.00     0.002 A 
ATOM      7  C8  UNL d   1       1.276  -0.237  -0.292  0.00  0.00     0.006 A 
ENDROOT
BRANCH   1   8
ATOM      8  C1  UNL d   1      -0.056  -2.345  -0.670  0.00  0.00     0.054 C 
ATOM      9  C   UNL d   1       0.371  -2.652  -2.098  0.00  0.00     0.018 C 
ENDBRANCH   1   8
TORSDOF 1
ENDMDL
