MODEL 1
REMARK minimizedAffinity -1.95762646
REMARK minimizedRMSD -1
REMARK  1 active torsions:
REMARK  status: ('A' for Active; 'I' for Inactive)
REMARK    1  A    between atoms: C1_2  and  C2_3 
ROOT
ATOM      1  C2  UNL d   1      -5.526   4.761  -3.003  0.00  0.00    -0.073 A 
ATOM      2  C3  UNL d   1      -5.656   3.464  -3.512  0.00  0.00    -0.002 A 
ATOM      3  C4  UNL d   1      -5.888   2.390  -2.653  0.00  0.00     0.004 A 
ATOM      4  C5  UNL d   1      -5.999   2.601  -1.279  0.00  0.00    -0.004 A 
ATOM      5  C6  UNL d   1      -5.884   3.892  -0.752  0.00  0.00    -0.075 A 
ATOM      6  C7  UNL d   1      -5.999   4.136   0.724  0.00  0.00     0.076 C 
ATOM      7  C8  UNL d   1      -5.648   4.966  -1.621  0.00  0.00     0.001 A 
ENDROOT
BRANCH   1   8
ATOM      8  C1  UNL d   1      -5.282   5.926  -3.928  0.00  0.00     0.053 C 
ATOM      9  C   UNL d   1      -5.951   5.730  -5.280  0.00  0.00     0.018 C 
ENDBRANCH   1   8
TORSDOF 1
ENDMDL
