MODEL 1
REMARK minimizedAffinity 8.31852055
REMARK minimizedRMSD -1
REMARK  1 active torsions:
REMARK  status: ('A' for Active; 'I' for Inactive)
REMARK    1  A    between atoms: C1_2  and  C2_3 
ROOT
ATOM      1  C2  UNL d   1       4.123   3.605   1.429  0.00  0.00    -0.073 A 
ATOM      2  C3  UNL d   1       4.600   2.371   1.885  0.00  0.00    -0.002 A 
ATOM      3  C4  UNL d   1       5.506   2.313   2.945  0.00  0.00     0.004 A 
ATOM      4  C5  UNL d   1       5.938   3.486   3.563  0.00  0.00    -0.004 A 
ATOM      5  C6  UNL d   1       5.465   4.729   3.129  0.00  0.00    -0.075 A 
ATOM      6  C7  UNL d   1       5.922   6.000   3.782  0.00  0.00     0.076 C 
ATOM      7  C8  UNL d   1       4.557   4.779   2.062  0.00  0.00     0.001 A 
ENDROOT
BRANCH   1   8
ATOM      8  C1  UNL d   1       3.140   3.673   0.289  0.00  0.00     0.053 C 
ATOM      9  C   UNL d   1       3.421   2.617  -0.769  0.00  0.00     0.018 C 
ENDBRANCH   1   8
TORSDOF 1
ENDMDL
