MODEL 1
REMARK minimizedAffinity 9.82196331
REMARK minimizedRMSD -1
REMARK  1 active torsions:
REMARK  status: ('A' for Active; 'I' for Inactive)
REMARK    1  A    between atoms: C1_2  and  C2_3 
ROOT
ATOM      1  C2  UNL d   1      -2.631  -1.375   1.521  0.00  0.00    -0.073 A 
ATOM      2  C3  UNL d   1      -1.828  -2.022   2.467  0.00  0.00    -0.002 A 
ATOM      3  C4  UNL d   1      -1.380  -3.324   2.239  0.00  0.00     0.004 A 
ATOM      4  C5  UNL d   1      -1.724  -3.989   1.062  0.00  0.00    -0.004 A 
ATOM      5  C6  UNL d   1      -2.515  -3.354   0.099  0.00  0.00    -0.075 A 
ATOM      6  C7  UNL d   1      -2.895  -4.056  -1.172  0.00  0.00     0.076 C 
ATOM      7  C8  UNL d   1      -2.963  -2.048   0.336  0.00  0.00     0.001 A 
ENDROOT
BRANCH   1   8
ATOM      8  C1  UNL d   1      -3.111   0.033   1.759  0.00  0.00     0.053 C 
ATOM      9  C   UNL d   1      -3.146   0.849   0.477  0.00  0.00     0.018 C 
ENDBRANCH   1   8
TORSDOF 1
ENDMDL
