MODEL 1
REMARK minimizedAffinity 5.35570574
REMARK minimizedRMSD -1
REMARK  1 active torsions:
REMARK  status: ('A' for Active; 'I' for Inactive)
REMARK    1  A    between atoms: C1_2  and  C2_3 
ROOT
ATOM      1  C2  UNL d   1      -2.521  -3.430  -0.416  0.00  0.00    -0.073 A 
ATOM      2  C3  UNL d   1      -1.742  -4.432   0.174  0.00  0.00    -0.002 A 
ATOM      3  C4  UNL d   1      -0.744  -4.101   1.091  0.00  0.00     0.004 A 
ATOM      4  C5  UNL d   1      -0.519  -2.767   1.433  0.00  0.00    -0.004 A 
ATOM      5  C6  UNL d   1      -1.296  -1.753   0.863  0.00  0.00    -0.075 A 
ATOM      6  C7  UNL d   1      -1.065  -0.313   1.219  0.00  0.00     0.076 C 
ATOM      7  C8  UNL d   1      -2.294  -2.094  -0.059  0.00  0.00     0.001 A 
ENDROOT
BRANCH   1   8
ATOM      8  C1  UNL d   1      -3.604  -3.784  -1.402  0.00  0.00     0.053 C 
ATOM      9  C   UNL d   1      -3.749  -5.288  -1.575  0.00  0.00     0.018 C 
ENDBRANCH   1   8
TORSDOF 1
ENDMDL
