MODEL 1
REMARK minimizedAffinity 10.205904
REMARK minimizedRMSD -1
REMARK  1 active torsions:
REMARK  status: ('A' for Active; 'I' for Inactive)
REMARK    1  A    between atoms: C1_2  and  C2_3 
ROOT
ATOM      1  C2  UNL d   1      -1.033   3.240  -5.805  0.00  0.00    -0.073 A 
ATOM      2  C3  UNL d   1       0.038   4.136  -5.899  0.00  0.00    -0.002 A 
ATOM      3  C4  UNL d   1      -0.197   5.508  -5.999  0.00  0.00     0.004 A 
ATOM      4  C5  UNL d   1      -1.503   5.998  -5.999  0.00  0.00    -0.004 A 
ATOM      5  C6  UNL d   1      -2.586   5.120  -5.893  0.00  0.00    -0.075 A 
ATOM      6  C7  UNL d   1      -3.997   5.631  -5.894  0.00  0.00     0.076 C 
ATOM      7  C8  UNL d   1      -2.342   3.743  -5.796  0.00  0.00     0.001 A 
ENDROOT
BRANCH   1   8
ATOM      8  C1  UNL d   1      -0.783   1.759  -5.690  0.00  0.00     0.053 C 
ATOM      9  C   UNL d   1      -1.436   1.165  -4.452  0.00  0.00     0.018 C 
ENDBRANCH   1   8
TORSDOF 1
ENDMDL
