MODEL 1
REMARK minimizedAffinity 6.44513798
REMARK minimizedRMSD -1
REMARK  1 active torsions:
REMARK  status: ('A' for Active; 'I' for Inactive)
REMARK    1  A    between atoms: C1_2  and  C2_3 
ROOT
ATOM      1  C2  UNL d   1      -1.617  -5.135  -3.334  0.00  0.00    -0.073 A 
ATOM      2  C3  UNL d   1      -2.604  -6.000  -2.849  0.00  0.00    -0.002 A 
ATOM      3  C4  UNL d   1      -3.639  -5.511  -2.050  0.00  0.00     0.004 A 
ATOM      4  C5  UNL d   1      -3.700  -4.154  -1.734  0.00  0.00    -0.004 A 
ATOM      5  C6  UNL d   1      -2.729  -3.272  -2.218  0.00  0.00    -0.075 A 
ATOM      6  C7  UNL d   1      -2.779  -1.810  -1.885  0.00  0.00     0.076 C 
ATOM      7  C8  UNL d   1      -1.692  -3.771  -3.018  0.00  0.00     0.001 A 
ENDROOT
BRANCH   1   8
ATOM      8  C1  UNL d   1      -0.502  -5.657  -4.203  0.00  0.00     0.053 C 
ATOM      9  C   UNL d   1       0.863  -5.447  -3.567  0.00  0.00     0.018 C 
ENDBRANCH   1   8
TORSDOF 1
ENDMDL
