MODEL 1
REMARK minimizedAffinity 4.43890858
REMARK minimizedRMSD -1
REMARK  1 active torsions:
REMARK  status: ('A' for Active; 'I' for Inactive)
REMARK    1  A    between atoms: C1_2  and  C2_3 
ROOT
ATOM      1  C2  UNL d   1       2.440   2.695   1.821  0.00  0.00    -0.073 A 
ATOM      2  C3  UNL d   1       2.742   1.597   1.007  0.00  0.00    -0.002 A 
ATOM      3  C4  UNL d   1       1.747   0.684   0.658  0.00  0.00     0.004 A 
ATOM      4  C5  UNL d   1       0.440   0.862   1.112  0.00  0.00    -0.004 A 
ATOM      5  C6  UNL d   1       0.116   1.959   1.917  0.00  0.00    -0.075 A 
ATOM      6  C7  UNL d   1      -1.284   2.163   2.416  0.00  0.00     0.076 C 
ATOM      7  C8  UNL d   1       1.122   2.870   2.266  0.00  0.00     0.001 A 
ENDROOT
BRANCH   1   8
ATOM      8  C1  UNL d   1       3.511   3.687   2.196  0.00  0.00     0.053 C 
ATOM      9  C   UNL d   1       4.898   3.065   2.175  0.00  0.00     0.018 C 
ENDBRANCH   1   8
TORSDOF 1
ENDMDL
