MODEL 1
REMARK minimizedAffinity 6.26320505
REMARK minimizedRMSD -1
REMARK  1 active torsions:
REMARK  status: ('A' for Active; 'I' for Inactive)
REMARK    1  A    between atoms: C1_2  and  C2_3 
ROOT
ATOM      1  C2  UNL d   1       4.780   5.415   2.197  0.00  0.00    -0.073 A 
ATOM      2  C3  UNL d   1       5.981   5.566   2.899  0.00  0.00    -0.002 A 
ATOM      3  C4  UNL d   1       5.968   5.857   4.264  0.00  0.00     0.004 A 
ATOM      4  C5  UNL d   1       4.757   5.993   4.941  0.00  0.00    -0.004 A 
ATOM      5  C6  UNL d   1       3.546   5.834   4.260  0.00  0.00    -0.075 A 
ATOM      6  C7  UNL d   1       2.234   5.980   4.973  0.00  0.00     0.076 C 
ATOM      7  C8  UNL d   1       3.567   5.545   2.889  0.00  0.00     0.001 A 
ENDROOT
BRANCH   1   8
ATOM      8  C1  UNL d   1       4.789   5.095   0.725  0.00  0.00     0.053 C 
ATOM      9  C   UNL d   1       5.973   5.727   0.011  0.00  0.00     0.018 C 
ENDBRANCH   1   8
TORSDOF 1
ENDMDL
