MODEL 1
REMARK minimizedAffinity 9.41196632
REMARK minimizedRMSD -1
REMARK  1 active torsions:
REMARK  status: ('A' for Active; 'I' for Inactive)
REMARK    1  A    between atoms: C1_2  and  C2_3 
ROOT
ATOM      1  C2  UNL d   1      -2.987  -0.968   1.891  0.00  0.00    -0.073 A 
ATOM      2  C3  UNL d   1      -3.390  -1.087   3.226  0.00  0.00    -0.002 A 
ATOM      3  C4  UNL d   1      -3.045  -2.217   3.968  0.00  0.00     0.004 A 
ATOM      4  C5  UNL d   1      -2.288  -3.234   3.387  0.00  0.00    -0.004 A 
ATOM      5  C6  UNL d   1      -1.866  -3.128   2.058  0.00  0.00    -0.075 A 
ATOM      6  C7  UNL d   1      -1.053  -4.215   1.418  0.00  0.00     0.076 C 
ATOM      7  C8  UNL d   1      -2.219  -1.992   1.318  0.00  0.00     0.001 A 
ENDROOT
BRANCH   1   8
ATOM      8  C1  UNL d   1      -3.353   0.253   1.087  0.00  0.00     0.053 C 
ATOM      9  C   UNL d   1      -2.132   1.085   0.727  0.00  0.00     0.018 C 
ENDBRANCH   1   8
TORSDOF 1
ENDMDL
