MODEL 1
REMARK minimizedAffinity -1.80261147
REMARK minimizedRMSD -1
REMARK  1 active torsions:
REMARK  status: ('A' for Active; 'I' for Inactive)
REMARK    1  A    between atoms: C1_2  and  C2_3 
ROOT
ATOM      1  C2  UNL d   1      -5.616   4.391  -4.821  0.00  0.00    -0.073 A 
ATOM      2  C3  UNL d   1      -5.596   3.168  -5.501  0.00  0.00    -0.002 A 
ATOM      3  C4  UNL d   1      -5.697   1.968  -4.796  0.00  0.00     0.004 A 
ATOM      4  C5  UNL d   1      -5.826   1.978  -3.407  0.00  0.00    -0.004 A 
ATOM      5  C6  UNL d   1      -5.860   3.191  -2.711  0.00  0.00    -0.075 A 
ATOM      6  C7  UNL d   1      -5.997   3.218  -1.217  0.00  0.00     0.076 C 
ATOM      7  C8  UNL d   1      -5.755   4.392  -3.425  0.00  0.00     0.001 A 
ENDROOT
BRANCH   1   8
ATOM      8  C1  UNL d   1      -5.513   5.690  -5.578  0.00  0.00     0.053 C 
ATOM      9  C   UNL d   1      -4.084   5.993  -5.999  0.00  0.00     0.018 C 
ENDBRANCH   1   8
TORSDOF 1
ENDMDL
