MODEL 1
REMARK minimizedAffinity 12.3403778
REMARK minimizedRMSD -1
REMARK  1 active torsions:
REMARK  status: ('A' for Active; 'I' for Inactive)
REMARK    1  A    between atoms: C1_2  and  C2_3 
ROOT
ATOM      1  C2  UNL d   1       5.575   3.667  -0.713  0.00  0.00    -0.073 A 
ATOM      2  C3  UNL d   1       4.812   4.840  -0.745  0.00  0.00    -0.002 A 
ATOM      3  C4  UNL d   1       4.429   5.463   0.443  0.00  0.00     0.004 A 
ATOM      4  C5  UNL d   1       4.809   4.925   1.673  0.00  0.00    -0.004 A 
ATOM      5  C6  UNL d   1       5.582   3.761   1.725  0.00  0.00    -0.075 A 
ATOM      6  C7  UNL d   1       5.997   3.168   3.039  0.00  0.00     0.076 C 
ATOM      7  C8  UNL d   1       5.961   3.139   0.527  0.00  0.00     0.001 A 
ENDROOT
BRANCH   1   8
ATOM      8  C1  UNL d   1       5.997   2.994  -1.994  0.00  0.00     0.053 C 
ATOM      9  C   UNL d   1       4.830   2.802  -2.948  0.00  0.00     0.018 C 
ENDBRANCH   1   8
TORSDOF 1
ENDMDL
