MODEL 1
REMARK minimizedAffinity 2.27275848
REMARK minimizedRMSD -1
REMARK  1 active torsions:
REMARK  status: ('A' for Active; 'I' for Inactive)
REMARK    1  A    between atoms: C1_2  and  C2_3 
ROOT
ATOM      1  C2  UNL d   1      -1.239   0.169   0.792  0.00  0.00    -0.073 A 
ATOM      2  C3  UNL d   1      -2.572   0.399   0.430  0.00  0.00    -0.002 A 
ATOM      3  C4  UNL d   1      -3.549  -0.562   0.694  0.00  0.00     0.004 A 
ATOM      4  C5  UNL d   1      -3.206  -1.757   1.327  0.00  0.00    -0.004 A 
ATOM      5  C6  UNL d   1      -1.882  -1.999   1.707  0.00  0.00    -0.075 A 
ATOM      6  C7  UNL d   1      -1.496  -3.280   2.386  0.00  0.00     0.076 C 
ATOM      7  C8  UNL d   1      -0.906  -1.031   1.436  0.00  0.00     0.001 A 
ENDROOT
BRANCH   1   8
ATOM      8  C1  UNL d   1      -0.182   1.207   0.515  0.00  0.00     0.053 C 
ATOM      9  C   UNL d   1       1.208   0.720   0.895  0.00  0.00     0.018 C 
ENDBRANCH   1   8
TORSDOF 1
ENDMDL
