MODEL 1
REMARK minimizedAffinity -2.27037311
REMARK minimizedRMSD -1
REMARK  1 active torsions:
REMARK  status: ('A' for Active; 'I' for Inactive)
REMARK    1  A    between atoms: C1_2  and  C2_3 
ROOT
ATOM      1  C2  UNL d   1      -2.819  -3.575  -0.717  0.00  0.00    -0.073 A 
ATOM      2  C3  UNL d   1      -2.467  -4.531   0.243  0.00  0.00    -0.002 A 
ATOM      3  C4  UNL d   1      -1.915  -4.136   1.462  0.00  0.00     0.004 A 
ATOM      4  C5  UNL d   1      -1.715  -2.783   1.736  0.00  0.00    -0.004 A 
ATOM      5  C6  UNL d   1      -2.071  -1.812   0.795  0.00  0.00    -0.075 A 
ATOM      6  C7  UNL d   1      -1.860  -0.353   1.074  0.00  0.00     0.076 C 
ATOM      7  C8  UNL d   1      -2.623  -2.217  -0.428  0.00  0.00     0.001 A 
ENDROOT
BRANCH   1   8
ATOM      8  C1  UNL d   1      -3.422  -3.996  -2.032  0.00  0.00     0.053 C 
ATOM      9  C   UNL d   1      -2.663  -5.153  -2.663  0.00  0.00     0.018 C 
ENDBRANCH   1   8
TORSDOF 1
ENDMDL
