MODEL 1
REMARK minimizedAffinity -2.72914219
REMARK minimizedRMSD -1
REMARK  0 active torsions:
REMARK  status: ('A' for Active; 'I' for Inactive)
ROOT
ATOM      1  C2' OXE d   1      -2.812   0.398  -0.129  0.00  0.00     0.078 C 
ATOM      2  C1' OXE d   1      -1.488   1.147   2.230  0.00  0.00     0.078 C 
ATOM      3  C1  OXE d   1      -0.679   0.464   1.156  0.00  0.00    -0.078 A 
ATOM      4  C2  OXE d   1      -1.345   0.059   0.024  0.00  0.00    -0.078 A 
ATOM      5  C3  OXE d   1      -0.636  -0.526  -1.021  0.00  0.00     0.003 A 
ATOM      6  C4  OXE d   1       0.718  -0.845  -0.867  0.00  0.00    -0.002 A 
ATOM      7  C5  OXE d   1       1.407  -0.477   0.294  0.00  0.00    -0.002 A 
ATOM      8  C6  OXE d   1       0.734   0.214   1.295  0.00  0.00     0.003 A 
ENDROOT
TORSDOF 0
ENDMDL
