MODEL 1
REMARK minimizedAffinity -3.56872129
REMARK minimizedRMSD -1
REMARK  0 active torsions:
REMARK  status: ('A' for Active; 'I' for Inactive)
ROOT
ATOM      1  C2' OXE d   1       0.418  -0.132  -1.164  0.00  0.00     0.078 C 
ATOM      2  C1' OXE d   1      -2.266   0.501  -0.644  0.00  0.00     0.078 C 
ATOM      3  C1  OXE d   1      -1.262   0.736   0.457  0.00  0.00    -0.078 A 
ATOM      4  C2  OXE d   1       0.042   0.379   0.210  0.00  0.00    -0.078 A 
ATOM      5  C3  OXE d   1       1.018   0.625   1.171  0.00  0.00     0.003 A 
ATOM      6  C4  OXE d   1       0.659   1.089   2.443  0.00  0.00    -0.002 A 
ATOM      7  C5  OXE d   1      -0.669   1.421   2.729  0.00  0.00    -0.002 A 
ATOM      8  C6  OXE d   1      -1.633   1.290   1.736  0.00  0.00     0.003 A 
ENDROOT
TORSDOF 0
ENDMDL
