MODEL 1
REMARK minimizedAffinity -3.25405121
REMARK minimizedRMSD -1
REMARK  0 active torsions:
REMARK  status: ('A' for Active; 'I' for Inactive)
ROOT
ATOM      1  C2' OXE d   1      -2.464  -0.826   0.104  0.00  0.00     0.078 C 
ATOM      2  C1' OXE d   1       0.003  -0.303  -1.131  0.00  0.00     0.078 C 
ATOM      3  C1  OXE d   1      -0.239   0.286   0.236  0.00  0.00    -0.078 A 
ATOM      4  C2  OXE d   1      -1.466   0.065   0.813  0.00  0.00    -0.078 A 
ATOM      5  C3  OXE d   1      -1.721   0.540   2.096  0.00  0.00     0.003 A 
ATOM      6  C4  OXE d   1      -0.796   1.371   2.741  0.00  0.00    -0.002 A 
ATOM      7  C5  OXE d   1       0.444   1.643   2.154  0.00  0.00    -0.002 A 
ATOM      8  C6  OXE d   1       0.755   1.074   0.923  0.00  0.00     0.003 A 
ENDROOT
TORSDOF 0
ENDMDL
