MODEL 1
REMARK minimizedAffinity 0.43193391
REMARK minimizedRMSD -1
REMARK  0 active torsions:
REMARK  status: ('A' for Active; 'I' for Inactive)
ROOT
ATOM      1  C2' OXE d   1       1.644  -0.076   1.553  0.00  0.00     0.078 C 
ATOM      2  C1' OXE d   1      -1.071   0.469   2.016  0.00  0.00     0.078 C 
ATOM      3  C1  OXE d   1      -0.660   0.079   0.618  0.00  0.00    -0.078 A 
ATOM      4  C2  OXE d   1       0.677  -0.141   0.390  0.00  0.00    -0.078 A 
ATOM      5  C3  OXE d   1       1.103  -0.556  -0.869  0.00  0.00     0.003 A 
ATOM      6  C4  OXE d   1       0.204  -0.603  -1.941  0.00  0.00    -0.002 A 
ATOM      7  C5  OXE d   1      -1.156  -0.345  -1.739  0.00  0.00    -0.002 A 
ATOM      8  C6  OXE d   1      -1.610  -0.044  -0.460  0.00  0.00     0.003 A 
ENDROOT
TORSDOF 0
ENDMDL
