MODEL 1
REMARK minimizedAffinity -3.36464572
REMARK minimizedRMSD -1
REMARK  0 active torsions:
REMARK  status: ('A' for Active; 'I' for Inactive)
ROOT
ATOM      1  C2' OXE d   1       2.022   0.111   1.351  0.00  0.00     0.078 C 
ATOM      2  C1' OXE d   1       0.759  -0.692  -1.023  0.00  0.00     0.078 C 
ATOM      3  C1  OXE d   1      -0.101  -0.104   0.067  0.00  0.00    -0.078 A 
ATOM      4  C2  OXE d   1       0.519   0.242   1.243  0.00  0.00    -0.078 A 
ATOM      5  C3  OXE d   1      -0.219   0.840   2.261  0.00  0.00     0.003 A 
ATOM      6  C4  OXE d   1      -1.611   0.949   2.157  0.00  0.00    -0.002 A 
ATOM      7  C5  OXE d   1      -2.268   0.565   0.983  0.00  0.00    -0.002 A 
ATOM      8  C6  OXE d   1      -1.524   0.077  -0.085  0.00  0.00     0.003 A 
ENDROOT
TORSDOF 0
ENDMDL
