MODEL 1
REMARK minimizedAffinity -2.69470382
REMARK minimizedRMSD -1
REMARK  0 active torsions:
REMARK  status: ('A' for Active; 'I' for Inactive)
ROOT
ATOM      1  C2' OXE d   1      -0.703   1.322   3.823  0.00  0.00     0.078 C 
ATOM      2  C1' OXE d   1      -2.525  -0.803   3.612  0.00  0.00     0.078 C 
ATOM      3  C1  OXE d   1      -1.923  -0.264   2.339  0.00  0.00    -0.078 A 
ATOM      4  C2  OXE d   1      -1.068   0.806   2.447  0.00  0.00    -0.078 A 
ATOM      5  C3  OXE d   1      -0.442   1.307   1.309  0.00  0.00     0.003 A 
ATOM      6  C4  OXE d   1      -0.793   0.831   0.040  0.00  0.00    -0.002 A 
ATOM      7  C5  OXE d   1      -1.692  -0.232  -0.096  0.00  0.00    -0.002 A 
ATOM      8  C6  OXE d   1      -2.232  -0.818   1.044  0.00  0.00     0.003 A 
ENDROOT
TORSDOF 0
ENDMDL
