MODEL 1
REMARK minimizedAffinity -5.67047977
REMARK minimizedRMSD -1
REMARK  0 active torsions:
REMARK  status: ('A' for Active; 'I' for Inactive)
ROOT
ATOM      1  C2' OXE d   1      -1.843  -0.435   0.383  0.00  0.00     0.078 C 
ATOM      2  C1' OXE d   1       0.853  -0.771  -0.324  0.00  0.00     0.078 C 
ATOM      3  C1  OXE d   1       0.550  -0.126   1.005  0.00  0.00    -0.078 A 
ATOM      4  C2  OXE d   1      -0.772   0.077   1.322  0.00  0.00    -0.078 A 
ATOM      5  C3  OXE d   1      -1.108   0.617   2.560  0.00  0.00     0.003 A 
ATOM      6  C4  OXE d   1      -0.112   1.097   3.419  0.00  0.00    -0.002 A 
ATOM      7  C5  OXE d   1       1.240   0.937   3.097  0.00  0.00    -0.002 A 
ATOM      8  C6  OXE d   1       1.587   0.290   1.916  0.00  0.00     0.003 A 
ENDROOT
TORSDOF 0
ENDMDL
