MODEL 1
REMARK minimizedAffinity -4.2388401
REMARK minimizedRMSD -1
REMARK  0 active torsions:
REMARK  status: ('A' for Active; 'I' for Inactive)
ROOT
ATOM      1  C2' OXE d   1      -1.596  -1.310   0.353  0.00  0.00     0.078 C 
ATOM      2  C1' OXE d   1       0.646  -0.126  -0.851  0.00  0.00     0.078 C 
ATOM      3  C1  OXE d   1       0.121   0.493   0.420  0.00  0.00    -0.078 A 
ATOM      4  C2  OXE d   1      -1.004  -0.065   0.977  0.00  0.00    -0.078 A 
ATOM      5  C3  OXE d   1      -1.498   0.434   2.179  0.00  0.00     0.003 A 
ATOM      6  C4  OXE d   1      -0.951   1.592   2.744  0.00  0.00    -0.002 A 
ATOM      7  C5  OXE d   1       0.172   2.199   2.172  0.00  0.00    -0.002 A 
ATOM      8  C6  OXE d   1       0.745   1.639   1.036  0.00  0.00     0.003 A 
ENDROOT
TORSDOF 0
ENDMDL
