MODEL 1
REMARK minimizedAffinity -3.26278329
REMARK minimizedRMSD -1
REMARK  1 active torsions:
REMARK  status: ('A' for Active; 'I' for Inactive)
REMARK    1  A    between atoms: C1_2  and  C2_3 
ROOT
ATOM      1  C2  UNL d   1       0.851  -0.160   0.165  0.00  0.00    -0.073 A 
ATOM      2  C3  UNL d   1       0.701  -1.440  -0.380  0.00  0.00    -0.002 A 
ATOM      3  C4  UNL d   1      -0.539  -1.860  -0.862  0.00  0.00     0.004 A 
ATOM      4  C5  UNL d   1      -1.639  -1.004  -0.810  0.00  0.00    -0.004 A 
ATOM      5  C6  UNL d   1      -1.507   0.283  -0.279  0.00  0.00    -0.075 A 
ATOM      6  C7  UNL d   1      -2.681   1.215  -0.214  0.00  0.00     0.076 C 
ATOM      7  C8  UNL d   1      -0.259   0.696   0.205  0.00  0.00     0.001 A 
ENDROOT
BRANCH   1   8
ATOM      8  C1  UNL d   1       2.190   0.300   0.681  0.00  0.00     0.053 C 
ATOM      9  C   UNL d   1       2.430   1.776   0.406  0.00  0.00     0.018 C 
ENDBRANCH   1   8
TORSDOF 1
ENDMDL
