MODEL 1
REMARK minimizedAffinity 7.75108671
REMARK minimizedRMSD -1
REMARK  1 active torsions:
REMARK  status: ('A' for Active; 'I' for Inactive)
REMARK    1  A    between atoms: C1_2  and  C2_3 
ROOT
ATOM      1  C2  UNL d   1      -1.655   0.360   2.115  0.00  0.00    -0.073 A 
ATOM      2  C3  UNL d   1      -1.189   1.640   2.435  0.00  0.00    -0.002 A 
ATOM      3  C4  UNL d   1       0.072   1.808   3.008  0.00  0.00     0.004 A 
ATOM      4  C5  UNL d   1       0.881   0.701   3.261  0.00  0.00    -0.004 A 
ATOM      5  C6  UNL d   1       0.438  -0.585   2.937  0.00  0.00    -0.075 A 
ATOM      6  C7  UNL d   1       1.296  -1.787   3.204  0.00  0.00     0.076 C 
ATOM      7  C8  UNL d   1      -0.830  -0.746   2.364  0.00  0.00     0.001 A 
ENDROOT
BRANCH   1   8
ATOM      8  C1  UNL d   1      -3.014   0.174   1.490  0.00  0.00     0.053 C 
ATOM      9  C   UNL d   1      -3.262   1.162   0.361  0.00  0.00     0.018 C 
ENDBRANCH   1   8
TORSDOF 1
ENDMDL
