MODEL 1
REMARK minimizedAffinity 0.751071751
REMARK minimizedRMSD -1
REMARK  1 active torsions:
REMARK  status: ('A' for Active; 'I' for Inactive)
REMARK    1  A    between atoms: C1_2  and  C2_3 
ROOT
ATOM      1  C2  UNL d   1      -0.709  -0.277   3.032  0.00  0.00    -0.073 A 
ATOM      2  C3  UNL d   1       0.617  -0.720   2.972  0.00  0.00    -0.002 A 
ATOM      3  C4  UNL d   1       1.358  -0.571   1.799  0.00  0.00     0.004 A 
ATOM      4  C5  UNL d   1       0.785   0.029   0.678  0.00  0.00    -0.004 A 
ATOM      5  C6  UNL d   1      -0.536   0.488   0.722  0.00  0.00    -0.075 A 
ATOM      6  C7  UNL d   1      -1.168   1.133  -0.477  0.00  0.00     0.076 C 
ATOM      7  C8  UNL d   1      -1.274   0.332   1.902  0.00  0.00     0.001 A 
ENDROOT
BRANCH   1   8
ATOM      8  C1  UNL d   1      -1.512  -0.431   4.298  0.00  0.00     0.053 C 
ATOM      9  C   UNL d   1      -0.903   0.345   5.456  0.00  0.00     0.018 C 
ENDBRANCH   1   8
TORSDOF 1
ENDMDL
