MODEL 1
REMARK minimizedAffinity -0.151285782
REMARK minimizedRMSD -1
REMARK  1 active torsions:
REMARK  status: ('A' for Active; 'I' for Inactive)
REMARK    1  A    between atoms: C1_2  and  C2_3 
ROOT
ATOM      1  C2  UNL d   1       0.209  -1.869   4.344  0.00  0.00    -0.073 A 
ATOM      2  C3  UNL d   1       0.544  -1.395   3.071  0.00  0.00    -0.002 A 
ATOM      3  C4  UNL d   1       1.873  -1.115   2.750  0.00  0.00     0.004 A 
ATOM      4  C5  UNL d   1       2.880  -1.311   3.696  0.00  0.00    -0.004 A 
ATOM      5  C6  UNL d   1       2.566  -1.795   4.970  0.00  0.00    -0.075 A 
ATOM      6  C7  UNL d   1       3.637  -2.010   5.999  0.00  0.00     0.076 C 
ATOM      7  C8  UNL d   1       1.229  -2.072   5.285  0.00  0.00     0.001 A 
ENDROOT
BRANCH   1   8
ATOM      8  C1  UNL d   1      -1.224  -2.179   4.693  0.00  0.00     0.053 C 
ATOM      9  C   UNL d   1      -2.201  -1.488   3.755  0.00  0.00     0.018 C 
ENDBRANCH   1   8
TORSDOF 1
ENDMDL
