MODEL 1
REMARK minimizedAffinity 8.46183586
REMARK minimizedRMSD -1
REMARK  0 active torsions:
REMARK  status: ('A' for Active; 'I' for Inactive)
ROOT
ATOM      1  N1  IND d   1      -4.352   2.598  -4.236  0.00  0.00    -0.196 N 
ATOM      2  C2  IND d   1      -3.547   3.384  -3.460  0.00  0.00     0.054 A 
ATOM      3  C3  IND d   1      -3.025   2.663  -2.443  0.00  0.00    -0.031 A 
ATOM      4  C4  IND d   1      -3.276   0.155  -1.918  0.00  0.00     0.051 A 
ATOM      5  C5  IND d   1      -3.941  -0.968  -2.322  0.00  0.00    -0.031 A 
ATOM      6  C6  IND d   1      -4.792  -0.961  -3.408  0.00  0.00     0.015 A 
ATOM      7  C7  IND d   1      -5.002   0.173  -4.141  0.00  0.00    -0.016 A 
ATOM      8  C8  IND d   1      -4.334   1.317  -3.730  0.00  0.00    -0.047 A 
ATOM      9  C9  IND d   1      -3.502   1.326  -2.603  0.00  0.00    -0.096 A 
ATOM     10  HN1 IND d   1      -4.796   2.860  -4.925  0.00  0.00     0.298 HD
ENDROOT
TORSDOF 0
ENDMDL
