MODEL 1
REMARK minimizedAffinity 7.58173895
REMARK minimizedRMSD -1
REMARK  0 active torsions:
REMARK  status: ('A' for Active; 'I' for Inactive)
ROOT
ATOM      1  N1  IND d   1      -1.933   1.228   2.337  0.00  0.00    -0.196 N 
ATOM      2  C2  IND d   1      -1.391   0.071   2.825  0.00  0.00     0.054 A 
ATOM      3  C3  IND d   1      -0.051   0.197   2.953  0.00  0.00    -0.031 A 
ATOM      4  C4  IND d   1       1.448   2.245   2.519  0.00  0.00     0.051 A 
ATOM      5  C5  IND d   1       1.414   3.521   2.030  0.00  0.00    -0.031 A 
ATOM      6  C6  IND d   1       0.238   4.111   1.614  0.00  0.00     0.015 A 
ATOM      7  C7  IND d   1      -0.955   3.447   1.681  0.00  0.00    -0.016 A 
ATOM      8  C8  IND d   1      -0.922   2.149   2.169  0.00  0.00    -0.047 A 
ATOM      9  C9  IND d   1       0.274   1.530   2.554  0.00  0.00    -0.096 A 
ATOM     10  HN1 IND d   1      -2.765   1.358   2.165  0.00  0.00     0.298 HD
ENDROOT
TORSDOF 0
ENDMDL
