MODEL 1
REMARK minimizedAffinity 12.6425142
REMARK minimizedRMSD -1
REMARK  0 active torsions:
REMARK  status: ('A' for Active; 'I' for Inactive)
ROOT
ATOM      1  N1  IND d   1       2.680   5.068   5.558  0.00  0.00    -0.196 N 
ATOM      2  C2  IND d   1       1.783   6.000   6.000  0.00  0.00     0.054 A 
ATOM      3  C3  IND d   1       0.665   5.975   5.240  0.00  0.00    -0.031 A 
ATOM      4  C4  IND d   1       0.052   4.417   3.284  0.00  0.00     0.051 A 
ATOM      5  C5  IND d   1       0.566   3.428   2.493  0.00  0.00    -0.031 A 
ATOM      6  C6  IND d   1       1.835   2.924   2.688  0.00  0.00     0.015 A 
ATOM      7  C7  IND d   1       2.637   3.383   3.694  0.00  0.00    -0.016 A 
ATOM      8  C8  IND d   1       2.121   4.392   4.495  0.00  0.00    -0.047 A 
ATOM      9  C9  IND d   1       0.850   4.937   4.275  0.00  0.00    -0.096 A 
ATOM     10  HN1 IND d   1       3.461   4.928   5.888  0.00  0.00     0.298 HD
ENDROOT
TORSDOF 0
ENDMDL
