MODEL 1
REMARK minimizedAffinity 12.8101549
REMARK minimizedRMSD -1
REMARK  0 active torsions:
REMARK  status: ('A' for Active; 'I' for Inactive)
ROOT
ATOM      1  N1  IND d   1       6.000  -4.955  -0.605  0.00  0.00    -0.196 N 
ATOM      2  C2  IND d   1       5.341  -6.000  -1.191  0.00  0.00     0.054 A 
ATOM      3  C3  IND d   1       4.017  -5.930  -0.923  0.00  0.00    -0.031 A 
ATOM      4  C4  IND d   1       2.703  -4.135   0.372  0.00  0.00     0.051 A 
ATOM      5  C5  IND d   1       2.874  -3.007   1.123  0.00  0.00    -0.031 A 
ATOM      6  C6  IND d   1       4.122  -2.457   1.339  0.00  0.00     0.015 A 
ATOM      7  C7  IND d   1       5.247  -3.012   0.800  0.00  0.00    -0.016 A 
ATOM      8  C8  IND d   1       5.078  -4.162   0.042  0.00  0.00    -0.047 A 
ATOM      9  C9  IND d   1       3.819  -4.748  -0.145  0.00  0.00    -0.096 A 
ATOM     10  HN1 IND d   1       6.848  -4.817  -0.635  0.00  0.00     0.298 HD
ENDROOT
TORSDOF 0
ENDMDL
