MODEL 1
REMARK minimizedAffinity 13.882514
REMARK minimizedRMSD -1
REMARK  0 active torsions:
REMARK  status: ('A' for Active; 'I' for Inactive)
ROOT
ATOM      1  N1  IND d   1       3.872  -2.964   0.688  0.00  0.00    -0.196 N 
ATOM      2  C2  IND d   1       4.332  -3.368   1.910  0.00  0.00     0.054 A 
ATOM      3  C3  IND d   1       3.489  -2.965   2.887  0.00  0.00    -0.031 A 
ATOM      4  C4  IND d   1       1.243  -1.720   2.698  0.00  0.00     0.051 A 
ATOM      5  C5  IND d   1       0.424  -1.108   1.791  0.00  0.00    -0.031 A 
ATOM      6  C6  IND d   1       0.717  -1.085   0.443  0.00  0.00     0.015 A 
ATOM      7  C7  IND d   1       1.839  -1.686  -0.052  0.00  0.00    -0.016 A 
ATOM      8  C8  IND d   1       2.677  -2.303   0.866  0.00  0.00    -0.047 A 
ATOM      9  C9  IND d   1       2.407  -2.292   2.241  0.00  0.00    -0.096 A 
ATOM     10  HN1 IND d   1       4.264  -3.100  -0.066  0.00  0.00     0.298 HD
ENDROOT
TORSDOF 0
ENDMDL
