MODEL 1
REMARK minimizedAffinity 7.86986303
REMARK minimizedRMSD -1
REMARK  0 active torsions:
REMARK  status: ('A' for Active; 'I' for Inactive)
ROOT
ATOM      1  N1  IND d   1       5.251  -3.405   2.317  0.00  0.00    -0.196 N 
ATOM      2  C2  IND d   1       5.100  -4.552   1.589  0.00  0.00     0.054 A 
ATOM      3  C3  IND d   1       5.278  -5.636   2.377  0.00  0.00    -0.031 A 
ATOM      4  C4  IND d   1       5.724  -5.761   4.909  0.00  0.00     0.051 A 
ATOM      5  C5  IND d   1       5.977  -4.976   5.999  0.00  0.00    -0.031 A 
ATOM      6  C6  IND d   1       6.000  -3.599   5.915  0.00  0.00     0.015 A 
ATOM      7  C7  IND d   1       5.757  -2.953   4.736  0.00  0.00    -0.016 A 
ATOM      8  C8  IND d   1       5.506  -3.747   3.627  0.00  0.00    -0.047 A 
ATOM      9  C9  IND d   1       5.524  -5.146   3.696  0.00  0.00    -0.096 A 
ATOM     10  HN1 IND d   1       5.195  -2.604   2.008  0.00  0.00     0.298 HD
ENDROOT
TORSDOF 0
ENDMDL
