MODEL 1
REMARK minimizedAffinity 3.40807962
REMARK minimizedRMSD -1
REMARK  0 active torsions:
REMARK  status: ('A' for Active; 'I' for Inactive)
ROOT
ATOM      1  N1  IND d   1       4.954  -4.224   3.836  0.00  0.00    -0.196 N 
ATOM      2  C2  IND d   1       4.904  -3.058   4.548  0.00  0.00     0.054 A 
ATOM      3  C3  IND d   1       4.272  -2.098   3.836  0.00  0.00    -0.031 A 
ATOM      4  C4  IND d   1       3.149  -2.250   1.524  0.00  0.00     0.051 A 
ATOM      5  C5  IND d   1       2.966  -3.099   0.469  0.00  0.00    -0.031 A 
ATOM      6  C6  IND d   1       3.444  -4.394   0.484  0.00  0.00     0.015 A 
ATOM      7  C7  IND d   1       4.116  -4.893   1.564  0.00  0.00    -0.016 A 
ATOM      8  C8  IND d   1       4.309  -4.031   2.634  0.00  0.00    -0.047 A 
ATOM      9  C9  IND d   1       3.864  -2.703   2.608  0.00  0.00    -0.096 A 
ATOM     10  HN1 IND d   1       5.326  -4.954   4.095  0.00  0.00     0.298 HD
ENDROOT
TORSDOF 0
ENDMDL
