MODEL 1
REMARK minimizedAffinity 19.1231804
REMARK minimizedRMSD -1
REMARK  0 active torsions:
REMARK  status: ('A' for Active; 'I' for Inactive)
ROOT
ATOM      1  N1  IND d   1      -2.983  -1.511  -1.554  0.00  0.00    -0.196 N 
ATOM      2  C2  IND d   1      -2.661  -0.254  -1.124  0.00  0.00     0.054 A 
ATOM      3  C3  IND d   1      -3.434   0.667  -1.743  0.00  0.00    -0.031 A 
ATOM      4  C4  IND d   1      -5.358   0.327  -3.419  0.00  0.00     0.051 A 
ATOM      5  C5  IND d   1      -5.998  -0.639  -4.143  0.00  0.00    -0.031 A 
ATOM      6  C6  IND d   1      -5.661  -1.973  -4.036  0.00  0.00     0.015 A 
ATOM      7  C7  IND d   1      -4.674  -2.393  -3.190  0.00  0.00    -0.016 A 
ATOM      8  C8  IND d   1      -4.017  -1.414  -2.459  0.00  0.00    -0.047 A 
ATOM      9  C9  IND d   1      -4.327  -0.054  -2.594  0.00  0.00    -0.096 A 
ATOM     10  HN1 IND d   1      -2.604  -2.240  -1.301  0.00  0.00     0.298 HD
ENDROOT
TORSDOF 0
ENDMDL
