MODEL 1
REMARK minimizedAffinity 7.66770506
REMARK minimizedRMSD -1
REMARK  0 active torsions:
REMARK  status: ('A' for Active; 'I' for Inactive)
ROOT
ATOM      1  N1  IND d   1       3.495  -1.668   4.259  0.00  0.00    -0.196 N 
ATOM      2  C2  IND d   1       4.591  -2.412   4.597  0.00  0.00     0.054 A 
ATOM      3  C3  IND d   1       4.828  -3.353   3.656  0.00  0.00    -0.031 A 
ATOM      4  C4  IND d   1       3.606  -3.788   1.432  0.00  0.00     0.051 A 
ATOM      5  C5  IND d   1       2.521  -3.389   0.704  0.00  0.00    -0.031 A 
ATOM      6  C6  IND d   1       1.689  -2.374   1.131  0.00  0.00     0.015 A 
ATOM      7  C7  IND d   1       1.920  -1.709   2.302  0.00  0.00    -0.016 A 
ATOM      8  C8  IND d   1       3.017  -2.116   3.047  0.00  0.00    -0.047 A 
ATOM      9  C9  IND d   1       3.840  -3.174   2.640  0.00  0.00    -0.096 A 
ATOM     10  HN1 IND d   1       3.160  -1.028   4.725  0.00  0.00     0.298 HD
ENDROOT
TORSDOF 0
ENDMDL
