MODEL 1
REMARK minimizedAffinity 11.438695
REMARK minimizedRMSD -1
REMARK  0 active torsions:
REMARK  status: ('A' for Active; 'I' for Inactive)
ROOT
ATOM      1  N1  IND d   1       0.185  -2.129   0.847  0.00  0.00    -0.196 N 
ATOM      2  C2  IND d   1       0.324  -1.022   1.637  0.00  0.00     0.054 A 
ATOM      3  C3  IND d   1       1.572  -0.967   2.154  0.00  0.00    -0.031 A 
ATOM      4  C4  IND d   1       3.578  -2.531   1.756  0.00  0.00     0.051 A 
ATOM      5  C5  IND d   1       3.926  -3.700   1.140  0.00  0.00    -0.031 A 
ATOM      6  C6  IND d   1       3.028  -4.418   0.377  0.00  0.00     0.015 A 
ATOM      7  C7  IND d   1       1.745  -3.986   0.192  0.00  0.00    -0.016 A 
ATOM      8  C8  IND d   1       1.386  -2.803   0.822  0.00  0.00    -0.047 A 
ATOM      9  C9  IND d   1       2.281  -2.092   1.632  0.00  0.00    -0.096 A 
ATOM     10  HN1 IND d   1      -0.532  -2.364   0.435  0.00  0.00     0.298 HD
ENDROOT
TORSDOF 0
ENDMDL
