MODEL 1
REMARK minimizedAffinity 4.63264084
REMARK minimizedRMSD -1
REMARK  0 active torsions:
REMARK  status: ('A' for Active; 'I' for Inactive)
ROOT
ATOM      1  N1  IND d   1       5.916  -3.773   2.266  0.00  0.00    -0.196 N 
ATOM      2  C2  IND d   1       5.587  -3.826   3.592  0.00  0.00     0.054 A 
ATOM      3  C3  IND d   1       4.274  -3.553   3.763  0.00  0.00    -0.031 A 
ATOM      4  C4  IND d   1       2.457  -3.092   1.998  0.00  0.00     0.051 A 
ATOM      5  C5  IND d   1       2.282  -2.904   0.656  0.00  0.00    -0.031 A 
ATOM      6  C6  IND d   1       3.330  -3.000  -0.236  0.00  0.00     0.015 A 
ATOM      7  C7  IND d   1       4.596  -3.301   0.181  0.00  0.00    -0.016 A 
ATOM      8  C8  IND d   1       4.778  -3.486   1.544  0.00  0.00    -0.047 A 
ATOM      9  C9  IND d   1       3.727  -3.347   2.459  0.00  0.00    -0.096 A 
ATOM     10  HN1 IND d   1       6.701  -3.897   1.939  0.00  0.00     0.298 HD
ENDROOT
TORSDOF 0
ENDMDL
