MODEL 1
REMARK minimizedAffinity -1.52894676
REMARK minimizedRMSD -1
REMARK  2 active torsions:
REMARK  status: ('A' for Active; 'I' for Inactive)
REMARK    1  A    between atoms: C1_2  and  C2_3 
REMARK    2  A    between atoms: C2_3  and  C3_4 
ROOT
ATOM      1  C3  UNL d   1      -0.538  -0.135   0.754  0.00  0.00    -0.075 A 
ATOM      2  C4  UNL d   1       0.273  -0.392   1.869  0.00  0.00     0.002 A 
ATOM      3  C5  UNL d   1       0.279   0.481   2.957  0.00  0.00     0.002 A 
ATOM      4  C6  UNL d   1      -0.515   1.626   2.940  0.00  0.00    -0.004 A 
ATOM      5  C7  UNL d   1      -1.312   1.900   1.830  0.00  0.00     0.002 A 
ATOM      6  C8  UNL d   1      -1.323   1.026   0.742  0.00  0.00     0.002 A 
ENDROOT
BRANCH   1   7
ATOM      7  C2  UNL d   1      -0.572  -1.091  -0.414  0.00  0.00     0.056 C 
BRANCH   7   8
ATOM      8  C1  UNL d   1       0.810  -1.430  -0.983  0.00  0.00     0.007 C 
ATOM      9  C   UNL d   1       0.921  -2.868  -1.474  0.00  0.00     0.009 C 
ENDBRANCH   7   8
ENDBRANCH   1   7
TORSDOF 2
ENDMDL
