MODEL 1
REMARK minimizedAffinity -4.25388861
REMARK minimizedRMSD -1
REMARK  2 active torsions:
REMARK  status: ('A' for Active; 'I' for Inactive)
REMARK    1  A    between atoms: C1_2  and  C2_3 
REMARK    2  A    between atoms: C2_3  and  C3_4 
ROOT
ATOM      1  C3  UNL d   1      -0.005  -1.173  -0.882  0.00  0.00    -0.075 A 
ATOM      2  C4  UNL d   1       0.667  -0.061  -0.354  0.00  0.00     0.002 A 
ATOM      3  C5  UNL d   1       0.295   0.472   0.880  0.00  0.00     0.002 A 
ATOM      4  C6  UNL d   1      -0.757  -0.093   1.597  0.00  0.00    -0.004 A 
ATOM      5  C7  UNL d   1      -1.443  -1.188   1.075  0.00  0.00     0.002 A 
ATOM      6  C8  UNL d   1      -1.069  -1.726  -0.158  0.00  0.00     0.002 A 
ENDROOT
BRANCH   1   7
ATOM      7  C2  UNL d   1       0.412  -1.773  -2.203  0.00  0.00     0.056 C 
BRANCH   7   8
ATOM      8  C1  UNL d   1       0.894  -3.224  -2.106  0.00  0.00     0.007 C 
ATOM      9  C   UNL d   1       1.990  -3.424  -1.068  0.00  0.00     0.009 C 
ENDBRANCH   7   8
ENDBRANCH   1   7
TORSDOF 2
ENDMDL
