MODEL 1
REMARK minimizedAffinity -3.4135406
REMARK minimizedRMSD -1
REMARK  2 active torsions:
REMARK  status: ('A' for Active; 'I' for Inactive)
REMARK    1  A    between atoms: C1_2  and  C2_3 
REMARK    2  A    between atoms: C2_3  and  C3_4 
ROOT
ATOM      1  C3  UNL d   1       0.416  -0.802   0.045  0.00  0.00    -0.075 A 
ATOM      2  C4  UNL d   1       0.897  -0.269   1.250  0.00  0.00     0.002 A 
ATOM      3  C5  UNL d   1       0.015   0.270   2.188  0.00  0.00     0.002 A 
ATOM      4  C6  UNL d   1      -1.353   0.292   1.930  0.00  0.00    -0.004 A 
ATOM      5  C7  UNL d   1      -1.841  -0.220   0.729  0.00  0.00     0.002 A 
ATOM      6  C8  UNL d   1      -0.961  -0.763  -0.209  0.00  0.00     0.002 A 
ENDROOT
BRANCH   1   7
ATOM      7  C2  UNL d   1       1.362  -1.413  -0.961  0.00  0.00     0.056 C 
BRANCH   7   8
ATOM      8  C1  UNL d   1       1.070  -2.883  -1.278  0.00  0.00     0.007 C 
ATOM      9  C   UNL d   1       0.616  -3.109  -2.714  0.00  0.00     0.009 C 
ENDBRANCH   7   8
ENDBRANCH   1   7
TORSDOF 2
ENDMDL
