MODEL 1
REMARK minimizedAffinity -4.00129938
REMARK minimizedRMSD -1
REMARK  2 active torsions:
REMARK  status: ('A' for Active; 'I' for Inactive)
REMARK    1  A    between atoms: C1_2  and  C2_3 
REMARK    2  A    between atoms: C2_3  and  C3_4 
ROOT
ATOM      1  C3  UNL d   1       0.498  -1.258  -0.843  0.00  0.00    -0.075 A 
ATOM      2  C4  UNL d   1      -0.159  -1.543  -2.049  0.00  0.00     0.002 A 
ATOM      3  C5  UNL d   1       0.186  -2.670  -2.795  0.00  0.00     0.002 A 
ATOM      4  C6  UNL d   1       1.197  -3.521  -2.350  0.00  0.00    -0.004 A 
ATOM      5  C7  UNL d   1       1.867  -3.239  -1.162  0.00  0.00     0.002 A 
ATOM      6  C8  UNL d   1       1.521  -2.114  -0.412  0.00  0.00     0.002 A 
ENDROOT
BRANCH   1   7
ATOM      7  C2  UNL d   1       0.109  -0.056  -0.017  0.00  0.00     0.056 C 
BRANCH   7   8
ATOM      8  C1  UNL d   1      -0.443  -0.404   1.370  0.00  0.00     0.007 C 
ATOM      9  C   UNL d   1      -0.910   0.816   2.153  0.00  0.00     0.009 C 
ENDBRANCH   7   8
ENDBRANCH   1   7
TORSDOF 2
ENDMDL
