MODEL 1
REMARK minimizedAffinity -1.2919333
REMARK minimizedRMSD -1
REMARK  2 active torsions:
REMARK  status: ('A' for Active; 'I' for Inactive)
REMARK    1  A    between atoms: C1_2  and  C2_3 
REMARK    2  A    between atoms: C2_3  and  C3_4 
ROOT
ATOM      1  C3  UNL d   1       0.138   0.769   0.382  0.00  0.00    -0.075 A 
ATOM      2  C4  UNL d   1      -0.569   1.677   1.185  0.00  0.00     0.002 A 
ATOM      3  C5  UNL d   1      -0.579   3.037   0.875  0.00  0.00     0.002 A 
ATOM      4  C6  UNL d   1       0.123   3.508  -0.232  0.00  0.00    -0.004 A 
ATOM      5  C7  UNL d   1       0.842   2.618  -1.027  0.00  0.00     0.002 A 
ATOM      6  C8  UNL d   1       0.851   1.255  -0.722  0.00  0.00     0.002 A 
ENDROOT
BRANCH   1   7
ATOM      7  C2  UNL d   1       0.129  -0.708   0.695  0.00  0.00     0.056 C 
BRANCH   7   8
ATOM      8  C1  UNL d   1      -0.344  -1.589  -0.466  0.00  0.00     0.007 C 
ATOM      9  C   UNL d   1      -1.721  -1.204  -0.989  0.00  0.00     0.009 C 
ENDBRANCH   7   8
ENDBRANCH   1   7
TORSDOF 2
ENDMDL
