MODEL 1
REMARK minimizedAffinity -4.6038866
REMARK minimizedRMSD -1
REMARK  2 active torsions:
REMARK  status: ('A' for Active; 'I' for Inactive)
REMARK    1  A    between atoms: C1_2  and  C2_3 
REMARK    2  A    between atoms: C2_3  and  C3_4 
ROOT
ATOM      1  C3  UNL d   1       0.223  -0.111  -0.043  0.00  0.00    -0.075 A 
ATOM      2  C4  UNL d   1      -0.223  -0.148   1.286  0.00  0.00     0.002 A 
ATOM      3  C5  UNL d   1      -0.776   0.987   1.879  0.00  0.00     0.002 A 
ATOM      4  C6  UNL d   1      -0.880   2.174   1.157  0.00  0.00    -0.004 A 
ATOM      5  C7  UNL d   1      -0.424   2.227  -0.158  0.00  0.00     0.002 A 
ATOM      6  C8  UNL d   1       0.126   1.091  -0.756  0.00  0.00     0.002 A 
ENDROOT
BRANCH   1   7
ATOM      7  C2  UNL d   1       0.795  -1.344  -0.701  0.00  0.00     0.056 C 
BRANCH   7   8
ATOM      8  C1  UNL d   1      -0.009  -1.838  -1.908  0.00  0.00     0.007 C 
ATOM      9  C   UNL d   1       0.323  -3.270  -2.306  0.00  0.00     0.009 C 
ENDBRANCH   7   8
ENDBRANCH   1   7
TORSDOF 2
ENDMDL
