MODEL 1
REMARK minimizedAffinity -3.79202437
REMARK minimizedRMSD -1
REMARK  2 active torsions:
REMARK  status: ('A' for Active; 'I' for Inactive)
REMARK    1  A    between atoms: C1_2  and  C2_3 
REMARK    2  A    between atoms: C2_3  and  C3_4 
ROOT
ATOM      1  C3  UNL d   1       0.488  -0.757  -0.121  0.00  0.00    -0.075 A 
ATOM      2  C4  UNL d   1       0.948  -0.387   1.152  0.00  0.00     0.002 A 
ATOM      3  C5  UNL d   1       0.045  -0.104   2.177  0.00  0.00     0.002 A 
ATOM      4  C6  UNL d   1      -1.326  -0.175   1.940  0.00  0.00    -0.004 A 
ATOM      5  C7  UNL d   1      -1.794  -0.525   0.675  0.00  0.00     0.002 A 
ATOM      6  C8  UNL d   1      -0.893  -0.813  -0.351  0.00  0.00     0.002 A 
ENDROOT
BRANCH   1   7
ATOM      7  C2  UNL d   1       1.461  -1.094  -1.226  0.00  0.00     0.056 C 
BRANCH   7   8
ATOM      8  C1  UNL d   1       1.293  -2.506  -1.795  0.00  0.00     0.007 C 
ATOM      9  C   UNL d   1       0.714  -2.521  -3.203  0.00  0.00     0.009 C 
ENDBRANCH   7   8
ENDBRANCH   1   7
TORSDOF 2
ENDMDL
