MODEL 1
REMARK minimizedAffinity -2.03171754
REMARK minimizedRMSD -1
REMARK  2 active torsions:
REMARK  status: ('A' for Active; 'I' for Inactive)
REMARK    1  A    between atoms: C1_2  and  C2_3 
REMARK    2  A    between atoms: C2_3  and  C3_4 
ROOT
ATOM      1  C3  UNL d   1       0.241   0.010  -0.093  0.00  0.00    -0.075 A 
ATOM      2  C4  UNL d   1       0.265   1.319   0.410  0.00  0.00     0.002 A 
ATOM      3  C5  UNL d   1      -0.781   1.793   1.202  0.00  0.00     0.002 A 
ATOM      4  C6  UNL d   1      -1.867   0.971   1.492  0.00  0.00    -0.004 A 
ATOM      5  C7  UNL d   1      -1.909  -0.326   0.985  0.00  0.00     0.002 A 
ATOM      6  C8  UNL d   1      -0.862  -0.805   0.196  0.00  0.00     0.002 A 
ENDROOT
BRANCH   1   7
ATOM      7  C2  UNL d   1       1.384  -0.519  -0.926  0.00  0.00     0.056 C 
BRANCH   7   8
ATOM      8  C1  UNL d   1       1.308  -2.024  -1.205  0.00  0.00     0.007 C 
ATOM      9  C   UNL d   1       1.141  -2.353  -2.682  0.00  0.00     0.009 C 
ENDBRANCH   7   8
ENDBRANCH   1   7
TORSDOF 2
ENDMDL
