MODEL 1
REMARK minimizedAffinity -4.76236534
REMARK minimizedRMSD -1
REMARK  2 active torsions:
REMARK  status: ('A' for Active; 'I' for Inactive)
REMARK    1  A    between atoms: C1_2  and  C2_3 
REMARK    2  A    between atoms: C2_3  and  C3_4 
ROOT
ATOM      1  C3  UNL d   1       0.672  -2.016  -0.790  0.00  0.00    -0.075 A 
ATOM      2  C4  UNL d   1       0.994  -0.652  -0.767  0.00  0.00     0.002 A 
ATOM      3  C5  UNL d   1       0.307   0.224   0.074  0.00  0.00     0.002 A 
ATOM      4  C6  UNL d   1      -0.715  -0.250   0.893  0.00  0.00    -0.004 A 
ATOM      5  C7  UNL d   1      -1.055  -1.601   0.866  0.00  0.00     0.002 A 
ATOM      6  C8  UNL d   1      -0.366  -2.480   0.029  0.00  0.00     0.002 A 
ENDROOT
BRANCH   1   7
ATOM      7  C2  UNL d   1       1.432  -2.974  -1.676  0.00  0.00     0.056 C 
BRANCH   7   8
ATOM      8  C1  UNL d   1       0.704  -3.332  -2.977  0.00  0.00     0.007 C 
ATOM      9  C   UNL d   1       0.618  -2.169  -3.956  0.00  0.00     0.009 C 
ENDBRANCH   7   8
ENDBRANCH   1   7
TORSDOF 2
ENDMDL
