MODEL 1
REMARK minimizedAffinity -3.98556519
REMARK minimizedRMSD -1
REMARK  2 active torsions:
REMARK  status: ('A' for Active; 'I' for Inactive)
REMARK    1  A    between atoms: C1_2  and  C2_3 
REMARK    2  A    between atoms: C2_3  and  C3_4 
ROOT
ATOM      1  C3  UNL d   1      -0.074   0.327   0.402  0.00  0.00    -0.075 A 
ATOM      2  C4  UNL d   1      -0.803   0.656   1.554  0.00  0.00     0.002 A 
ATOM      3  C5  UNL d   1      -1.093   1.988   1.852  0.00  0.00     0.002 A 
ATOM      4  C6  UNL d   1      -0.650   3.006   1.010  0.00  0.00    -0.004 A 
ATOM      5  C7  UNL d   1       0.089   2.691  -0.128  0.00  0.00     0.002 A 
ATOM      6  C8  UNL d   1       0.377   1.360  -0.431  0.00  0.00     0.002 A 
ENDROOT
BRANCH   1   7
ATOM      7  C2  UNL d   1       0.218  -1.114   0.058  0.00  0.00     0.056 C 
BRANCH   7   8
ATOM      8  C1  UNL d   1       1.367  -1.297  -0.939  0.00  0.00     0.007 C 
ATOM      9  C   UNL d   1       1.364  -2.662  -1.615  0.00  0.00     0.009 C 
ENDBRANCH   7   8
ENDBRANCH   1   7
TORSDOF 2
ENDMDL
