MODEL 1
REMARK minimizedAffinity -4.88887358
REMARK minimizedRMSD -1
REMARK  2 active torsions:
REMARK  status: ('A' for Active; 'I' for Inactive)
REMARK    1  A    between atoms: C1_2  and  C2_3 
REMARK    2  A    between atoms: C2_3  and  C3_4 
ROOT
ATOM      1  C3  UNL d   1      -0.322   1.901   0.312  0.00  0.00    -0.075 A 
ATOM      2  C4  UNL d   1       0.323   2.914  -0.412  0.00  0.00     0.002 A 
ATOM      3  C5  UNL d   1       0.631   4.132   0.195  0.00  0.00     0.002 A 
ATOM      4  C6  UNL d   1       0.290   4.357   1.526  0.00  0.00    -0.004 A 
ATOM      5  C7  UNL d   1      -0.367   3.364   2.250  0.00  0.00     0.002 A 
ATOM      6  C8  UNL d   1      -0.672   2.142   1.647  0.00  0.00     0.002 A 
ENDROOT
BRANCH   1   7
ATOM      7  C2  UNL d   1      -0.632   0.570  -0.330  0.00  0.00     0.056 C 
BRANCH   7   8
ATOM      8  C1  UNL d   1       0.197  -0.595   0.219  0.00  0.00     0.007 C 
ATOM      9  C   UNL d   1       1.384  -0.956  -0.664  0.00  0.00     0.009 C 
ENDBRANCH   7   8
ENDBRANCH   1   7
TORSDOF 2
ENDMDL
