MODEL 1
REMARK minimizedAffinity 2.79627609
REMARK minimizedRMSD -1
REMARK  0 active torsions:
REMARK  status: ('A' for Active; 'I' for Inactive)
ROOT
ATOM      1  C2' OXE d   1       5.807   2.610  -2.390  0.00  0.00     0.078 C 
ATOM      2  C1' OXE d   1       6.000   1.499  -4.961  0.00  0.00     0.078 C 
ATOM      3  C1  OXE d   1       5.937   3.001  -4.847  0.00  0.00    -0.078 A 
ATOM      4  C2  OXE d   1       5.796   3.535  -3.589  0.00  0.00    -0.078 A 
ATOM      5  C3  OXE d   1       5.788   4.917  -3.423  0.00  0.00     0.003 A 
ATOM      6  C4  OXE d   1       5.769   5.764  -4.537  0.00  0.00    -0.002 A 
ATOM      7  C5  OXE d   1       5.872   5.240  -5.830  0.00  0.00    -0.002 A 
ATOM      8  C6  OXE d   1       6.000   3.866  -5.999  0.00  0.00     0.003 A 
ENDROOT
TORSDOF 0
ENDMDL
