MODEL 1
REMARK minimizedAffinity -1.14137053
REMARK minimizedRMSD -1
REMARK  0 active torsions:
REMARK  status: ('A' for Active; 'I' for Inactive)
ROOT
ATOM      1  C2' OXE d   1      -0.138   5.972  -2.282  0.00  0.00     0.078 C 
ATOM      2  C1' OXE d   1      -1.491   5.990  -4.742  0.00  0.00     0.078 C 
ATOM      3  C1  OXE d   1       0.017   5.961  -4.768  0.00  0.00    -0.078 A 
ATOM      4  C2  OXE d   1       0.672   5.999  -3.560  0.00  0.00    -0.078 A 
ATOM      5  C3  OXE d   1       2.061   5.919  -3.526  0.00  0.00     0.003 A 
ATOM      6  C4  OXE d   1       2.802   5.955  -4.714  0.00  0.00    -0.002 A 
ATOM      7  C5  OXE d   1       2.156   5.956  -5.954  0.00  0.00    -0.002 A 
ATOM      8  C6  OXE d   1       0.767   5.916  -5.999  0.00  0.00     0.003 A 
ENDROOT
TORSDOF 0
ENDMDL
