MODEL 1
REMARK minimizedAffinity -1.54909492
REMARK minimizedRMSD -1
REMARK  0 active torsions:
REMARK  status: ('A' for Active; 'I' for Inactive)
ROOT
ATOM      1  C2' OXE d   1       2.720   3.055  -4.053  0.00  0.00     0.078 C 
ATOM      2  C1' OXE d   1       2.128   5.019  -5.970  0.00  0.00     0.078 C 
ATOM      3  C1  OXE d   1       3.501   5.036  -5.346  0.00  0.00    -0.078 A 
ATOM      4  C2  OXE d   1       3.767   4.100  -4.376  0.00  0.00    -0.078 A 
ATOM      5  C3  OXE d   1       5.036   4.037  -3.808  0.00  0.00     0.003 A 
ATOM      6  C4  OXE d   1       5.995   5.013  -4.104  0.00  0.00    -0.002 A 
ATOM      7  C5  OXE d   1       5.731   6.000  -5.061  0.00  0.00    -0.002 A 
ATOM      8  C6  OXE d   1       4.507   5.999  -5.721  0.00  0.00     0.003 A 
ENDROOT
TORSDOF 0
ENDMDL
