MODEL 1
REMARK minimizedAffinity -0.871065319
REMARK minimizedRMSD -1
REMARK  0 active torsions:
REMARK  status: ('A' for Active; 'I' for Inactive)
ROOT
ATOM      1  C2' OXE d   1      -2.104  -1.830  -4.847  0.00  0.00     0.078 C 
ATOM      2  C1' OXE d   1      -0.387   0.099  -5.948  0.00  0.00     0.078 C 
ATOM      3  C1  OXE d   1       0.236  -1.053  -5.201  0.00  0.00    -0.078 A 
ATOM      4  C2  OXE d   1      -0.613  -1.968  -4.626  0.00  0.00    -0.078 A 
ATOM      5  C3  OXE d   1      -0.090  -3.080  -3.973  0.00  0.00     0.003 A 
ATOM      6  C4  OXE d   1       1.290  -3.194  -3.764  0.00  0.00    -0.002 A 
ATOM      7  C5  OXE d   1       2.171  -2.253  -4.307  0.00  0.00    -0.002 A 
ATOM      8  C6  OXE d   1       1.664  -1.202  -5.063  0.00  0.00     0.003 A 
ENDROOT
TORSDOF 0
ENDMDL
