MODEL 1
REMARK minimizedAffinity 1.61619937
REMARK minimizedRMSD -1
REMARK  0 active torsions:
REMARK  status: ('A' for Active; 'I' for Inactive)
ROOT
ATOM      1  C2' OXE d   1       0.598   5.947  -4.635  0.00  0.00     0.078 C 
ATOM      2  C1' OXE d   1      -0.156   5.995  -1.931  0.00  0.00     0.078 C 
ATOM      3  C1  OXE d   1      -1.252   5.971  -2.967  0.00  0.00    -0.078 A 
ATOM      4  C2  OXE d   1      -0.874   5.995  -4.288  0.00  0.00    -0.078 A 
ATOM      5  C3  OXE d   1      -1.844   5.919  -5.284  0.00  0.00     0.003 A 
ATOM      6  C4  OXE d   1      -3.203   5.974  -4.955  0.00  0.00    -0.002 A 
ATOM      7  C5  OXE d   1      -3.610   5.990  -3.616  0.00  0.00    -0.002 A 
ATOM      8  C6  OXE d   1      -2.649   5.946  -2.612  0.00  0.00     0.003 A 
ENDROOT
TORSDOF 0
ENDMDL
