MODEL 1
REMARK minimizedAffinity -0.13159433
REMARK minimizedRMSD -1
REMARK  0 active torsions:
REMARK  status: ('A' for Active; 'I' for Inactive)
ROOT
ATOM      1  C2' OXE d   1       2.039   6.000  -3.738  0.00  0.00     0.078 C 
ATOM      2  C1' OXE d   1       0.376   5.979  -5.999  0.00  0.00     0.078 C 
ATOM      3  C1  OXE d   1      -0.282   5.981  -4.642  0.00  0.00    -0.078 A 
ATOM      4  C2  OXE d   1       0.539   5.944  -3.541  0.00  0.00    -0.078 A 
ATOM      5  C3  OXE d   1      -0.015   6.000  -2.266  0.00  0.00     0.003 A 
ATOM      6  C4  OXE d   1      -1.403   5.938  -2.093  0.00  0.00    -0.002 A 
ATOM      7  C5  OXE d   1      -2.257   5.935  -3.200  0.00  0.00    -0.002 A 
ATOM      8  C6  OXE d   1      -1.715   5.999  -4.479  0.00  0.00     0.003 A 
ENDROOT
TORSDOF 0
ENDMDL
