MODEL 1
REMARK minimizedAffinity 1.10336411
REMARK minimizedRMSD -1
REMARK  0 active torsions:
REMARK  status: ('A' for Active; 'I' for Inactive)
ROOT
ATOM      1  C2' OXE d   1      -3.009   5.990  -3.360  0.00  0.00     0.078 C 
ATOM      2  C1' OXE d   1      -0.897   5.970  -1.511  0.00  0.00     0.078 C 
ATOM      3  C1  OXE d   1      -0.547   5.977  -2.978  0.00  0.00    -0.078 A 
ATOM      4  C2  OXE d   1      -1.587   5.939  -3.876  0.00  0.00    -0.078 A 
ATOM      5  C3  OXE d   1      -1.321   5.999  -5.241  0.00  0.00     0.003 A 
ATOM      6  C4  OXE d   1      -0.003   5.942  -5.710  0.00  0.00    -0.002 A 
ATOM      7  C5  OXE d   1       1.070   5.940  -4.812  0.00  0.00    -0.002 A 
ATOM      8  C6  OXE d   1       0.816   6.000  -3.446  0.00  0.00     0.003 A 
ENDROOT
TORSDOF 0
ENDMDL
