MODEL 1
REMARK minimizedAffinity -0.499937683
REMARK minimizedRMSD -1
REMARK  0 active torsions:
REMARK  status: ('A' for Active; 'I' for Inactive)
ROOT
ATOM      1  C2' OXE d   1      -3.595   5.999  -2.230  0.00  0.00     0.078 C 
ATOM      2  C1' OXE d   1      -1.067   5.991  -1.010  0.00  0.00     0.078 C 
ATOM      3  C1  OXE d   1      -1.120   5.984  -2.517  0.00  0.00    -0.078 A 
ATOM      4  C2  OXE d   1      -2.361   5.940  -3.105  0.00  0.00    -0.078 A 
ATOM      5  C3  OXE d   1      -2.469   5.988  -4.492  0.00  0.00     0.003 A 
ATOM      6  C4  OXE d   1      -1.323   5.924  -5.294  0.00  0.00    -0.002 A 
ATOM      7  C5  OXE d   1      -0.050   5.927  -4.715  0.00  0.00    -0.002 A 
ATOM      8  C6  OXE d   1       0.070   6.000  -3.332  0.00  0.00     0.003 A 
ENDROOT
TORSDOF 0
ENDMDL
