MODEL 1
REMARK minimizedAffinity 4.52737856
REMARK minimizedRMSD -1
REMARK  0 active torsions:
REMARK  status: ('A' for Active; 'I' for Inactive)
ROOT
ATOM      1  C2' OXE d   1       5.627   3.760  -3.491  0.00  0.00     0.078 C 
ATOM      2  C1' OXE d   1       2.950   3.119  -2.940  0.00  0.00     0.078 C 
ATOM      3  C1  OXE d   1       3.222   4.122  -4.032  0.00  0.00    -0.078 A 
ATOM      4  C2  OXE d   1       4.533   4.465  -4.264  0.00  0.00    -0.078 A 
ATOM      5  C3  OXE d   1       4.844   5.344  -5.297  0.00  0.00     0.003 A 
ATOM      6  C4  OXE d   1       3.826   6.000  -6.000  0.00  0.00    -0.002 A 
ATOM      7  C5  OXE d   1       2.483   5.695  -5.753  0.00  0.00    -0.002 A 
ATOM      8  C6  OXE d   1       2.166   4.729  -4.804  0.00  0.00     0.003 A 
ENDROOT
TORSDOF 0
ENDMDL
