MODEL 1
REMARK minimizedAffinity 4.53203154
REMARK minimizedRMSD -1
REMARK  0 active torsions:
REMARK  status: ('A' for Active; 'I' for Inactive)
ROOT
ATOM      1  C2' OXE d   1      -2.168   5.983  -4.094  0.00  0.00     0.078 C 
ATOM      2  C1' OXE d   1      -0.425   5.966  -1.894  0.00  0.00     0.078 C 
ATOM      3  C1  OXE d   1       0.184   5.974  -3.274  0.00  0.00    -0.078 A 
ATOM      4  C2  OXE d   1      -0.676   5.935  -4.345  0.00  0.00    -0.078 A 
ATOM      5  C3  OXE d   1      -0.169   5.996  -5.640  0.00  0.00     0.003 A 
ATOM      6  C4  OXE d   1       1.212   5.941  -5.863  0.00  0.00    -0.002 A 
ATOM      7  C5  OXE d   1       2.106   5.940  -4.787  0.00  0.00    -0.002 A 
ATOM      8  C6  OXE d   1       1.610   5.999  -3.489  0.00  0.00     0.003 A 
ENDROOT
TORSDOF 0
ENDMDL
