MODEL 1
REMARK minimizedAffinity 7.34194517
REMARK minimizedRMSD -1
REMARK  0 active torsions:
REMARK  status: ('A' for Active; 'I' for Inactive)
ROOT
ATOM      1  C2' OXE d   1       1.237   1.530  -1.870  0.00  0.00     0.078 C 
ATOM      2  C1' OXE d   1       2.412   2.947   0.249  0.00  0.00     0.078 C 
ATOM      3  C1  OXE d   1       1.586   1.732   0.588  0.00  0.00    -0.078 A 
ATOM      4  C2  OXE d   1       0.976   1.071  -0.452  0.00  0.00    -0.078 A 
ATOM      5  C3  OXE d   1       0.248  -0.088  -0.200  0.00  0.00     0.003 A 
ATOM      6  C4  OXE d   1       0.003  -0.499   1.116  0.00  0.00    -0.002 A 
ATOM      7  C5  OXE d   1       0.581   0.182   2.192  0.00  0.00    -0.002 A 
ATOM      8  C6  OXE d   1       1.408   1.272   1.943  0.00  0.00     0.003 A 
ENDROOT
TORSDOF 0
ENDMDL
