MODEL 1
REMARK minimizedAffinity 5.24340391
REMARK minimizedRMSD -1
REMARK  0 active torsions:
REMARK  status: ('A' for Active; 'I' for Inactive)
ROOT
ATOM      1  C2' OXE d   1      -0.005   0.627   2.975  0.00  0.00     0.078 C 
ATOM      2  C1' OXE d   1      -0.483  -0.858   0.641  0.00  0.00     0.078 C 
ATOM      3  C1  OXE d   1       0.163   0.497   0.493  0.00  0.00    -0.078 A 
ATOM      4  C2  OXE d   1       0.350   1.236   1.637  0.00  0.00    -0.078 A 
ATOM      5  C3  OXE d   1       0.991   2.470   1.563  0.00  0.00     0.003 A 
ATOM      6  C4  OXE d   1       1.307   3.031   0.319  0.00  0.00    -0.002 A 
ATOM      7  C5  OXE d   1       1.089   2.311  -0.860  0.00  0.00    -0.002 A 
ATOM      8  C6  OXE d   1       0.558   1.028  -0.788  0.00  0.00     0.003 A 
ENDROOT
TORSDOF 0
ENDMDL
