MODEL 1
REMARK minimizedAffinity 2.57852197
REMARK minimizedRMSD -1
REMARK  0 active torsions:
REMARK  status: ('A' for Active; 'I' for Inactive)
ROOT
ATOM      1  C2' OXE d   1       1.507   2.786  -1.764  0.00  0.00     0.078 C 
ATOM      2  C1' OXE d   1       3.280   3.072   0.393  0.00  0.00     0.078 C 
ATOM      3  C1  OXE d   1       2.201   2.025   0.504  0.00  0.00    -0.078 A 
ATOM      4  C2  OXE d   1       1.309   1.923  -0.536  0.00  0.00    -0.078 A 
ATOM      5  C3  OXE d   1       0.327   0.937  -0.509  0.00  0.00     0.003 A 
ATOM      6  C4  OXE d   1       0.145   0.150   0.635  0.00  0.00    -0.002 A 
ATOM      7  C5  OXE d   1       1.017   0.265   1.722  0.00  0.00    -0.002 A 
ATOM      8  C6  OXE d   1       2.074   1.166   1.656  0.00  0.00     0.003 A 
ENDROOT
TORSDOF 0
ENDMDL
