MODEL 1
REMARK minimizedAffinity -0.86134541
REMARK minimizedRMSD -1
REMARK  0 active torsions:
REMARK  status: ('A' for Active; 'I' for Inactive)
ROOT
ATOM      1  C2' OXE d   1      -2.674   6.000  -4.440  0.00  0.00     0.078 C 
ATOM      2  C1' OXE d   1      -1.067   5.981  -2.138  0.00  0.00     0.078 C 
ATOM      3  C1  OXE d   1      -0.376   5.979  -3.478  0.00  0.00    -0.078 A 
ATOM      4  C2  OXE d   1      -1.170   5.941  -4.599  0.00  0.00    -0.078 A 
ATOM      5  C3  OXE d   1      -0.584   5.993  -5.861  0.00  0.00     0.003 A 
ATOM      6  C4  OXE d   1       0.808   5.929  -5.999  0.00  0.00    -0.002 A 
ATOM      7  C5  OXE d   1       1.634   5.927  -4.870  0.00  0.00    -0.002 A 
ATOM      8  C6  OXE d   1       1.060   5.995  -3.606  0.00  0.00     0.003 A 
ENDROOT
TORSDOF 0
ENDMDL
