MODEL 1
REMARK minimizedAffinity 0.22566776
REMARK minimizedRMSD -1
REMARK  0 active torsions:
REMARK  status: ('A' for Active; 'I' for Inactive)
ROOT
ATOM      1  C2' OXE d   1      -3.664   6.000  -4.491  0.00  0.00     0.078 C 
ATOM      2  C1' OXE d   1      -0.997   5.400  -5.132  0.00  0.00     0.078 C 
ATOM      3  C1  OXE d   1      -1.415   5.290  -3.687  0.00  0.00    -0.078 A 
ATOM      4  C2  OXE d   1      -2.710   5.630  -3.375  0.00  0.00    -0.078 A 
ATOM      5  C3  OXE d   1      -3.162   5.494  -2.066  0.00  0.00     0.003 A 
ATOM      6  C4  OXE d   1      -2.270   5.161  -1.039  0.00  0.00    -0.002 A 
ATOM      7  C5  OXE d   1      -0.938   4.849  -1.329  0.00  0.00    -0.002 A 
ATOM      8  C6  OXE d   1      -0.506   4.867  -2.651  0.00  0.00     0.003 A 
ENDROOT
TORSDOF 0
ENDMDL
