MODEL 1
REMARK minimizedAffinity 0.205700055
REMARK minimizedRMSD -1
REMARK  0 active torsions:
REMARK  status: ('A' for Active; 'I' for Inactive)
ROOT
ATOM      1  C2' OXE d   1      -1.844   5.938  -2.030  0.00  0.00     0.078 C 
ATOM      2  C1' OXE d   1      -3.498   5.995  -4.297  0.00  0.00     0.078 C 
ATOM      3  C1  OXE d   1      -2.006   5.973  -4.515  0.00  0.00    -0.078 A 
ATOM      4  C2  OXE d   1      -1.203   5.993  -3.400  0.00  0.00    -0.078 A 
ATOM      5  C3  OXE d   1       0.179   5.918  -3.544  0.00  0.00     0.003 A 
ATOM      6  C4  OXE d   1       0.764   5.979  -4.815  0.00  0.00    -0.002 A 
ATOM      7  C5  OXE d   1      -0.035   6.000  -5.963  0.00  0.00    -0.002 A 
ATOM      8  C6  OXE d   1      -1.418   5.954  -5.832  0.00  0.00     0.003 A 
ENDROOT
TORSDOF 0
ENDMDL
