MODEL 1
REMARK minimizedAffinity 7.15238333
REMARK minimizedRMSD -1
REMARK  0 active torsions:
REMARK  status: ('A' for Active; 'I' for Inactive)
ROOT
ATOM      1  C   UNL d   1      -1.112   5.767  -0.787  0.00  0.00     0.077 C 
ATOM      2  C1  UNL d   1      -0.308   4.880   0.116  0.00  0.00    -0.074 A 
ATOM      3  C2  UNL d   1       1.074   5.051   0.246  0.00  0.00    -0.005 A 
ATOM      4  C3  UNL d   1       1.808   4.225   1.098  0.00  0.00     0.006 A 
ATOM      5  C4  UNL d   1       1.168   3.222   1.827  0.00  0.00    -0.005 A 
ATOM      6  C5  UNL d   1      -0.213   3.037   1.711  0.00  0.00    -0.074 A 
ATOM      7  C6  UNL d   1      -0.918   1.970   2.495  0.00  0.00     0.077 C 
ATOM      8  C7  UNL d   1      -0.944   3.876   0.858  0.00  0.00    -0.001 A 
ENDROOT
TORSDOF 0
ENDMDL
