MODEL 1
REMARK minimizedAffinity 12.2110729
REMARK minimizedRMSD -1
REMARK  0 active torsions:
REMARK  status: ('A' for Active; 'I' for Inactive)
ROOT
ATOM      1  C   UNL d   1       0.725   5.999  -1.941  0.00  0.00     0.077 C 
ATOM      2  C1  UNL d   1       0.090   5.319  -0.764  0.00  0.00    -0.074 A 
ATOM      3  C2  UNL d   1      -0.816   6.000   0.056  0.00  0.00    -0.005 A 
ATOM      4  C3  UNL d   1      -1.405   5.352   1.142  0.00  0.00     0.006 A 
ATOM      5  C4  UNL d   1      -1.095   4.019   1.418  0.00  0.00    -0.005 A 
ATOM      6  C5  UNL d   1      -0.192   3.323   0.608  0.00  0.00    -0.074 A 
ATOM      7  C6  UNL d   1       0.144   1.888   0.885  0.00  0.00     0.077 C 
ATOM      8  C7  UNL d   1       0.391   3.979  -0.485  0.00  0.00    -0.001 A 
ENDROOT
TORSDOF 0
ENDMDL
