MODEL 1
REMARK minimizedAffinity 10.4924192
REMARK minimizedRMSD -1
REMARK  0 active torsions:
REMARK  status: ('A' for Active; 'I' for Inactive)
ROOT
ATOM      1  C   UNL d   1       3.066  -1.029   1.034  0.00  0.00     0.077 C 
ATOM      2  C1  UNL d   1       4.078  -1.849   0.291  0.00  0.00    -0.074 A 
ATOM      3  C2  UNL d   1       4.922  -1.263  -0.658  0.00  0.00    -0.005 A 
ATOM      4  C3  UNL d   1       5.865  -2.037  -1.333  0.00  0.00     0.006 A 
ATOM      5  C4  UNL d   1       5.974  -3.403  -1.068  0.00  0.00    -0.005 A 
ATOM      6  C5  UNL d   1       5.139  -4.006  -0.123  0.00  0.00    -0.074 A 
ATOM      7  C6  UNL d   1       5.248  -5.471   0.182  0.00  0.00     0.077 C 
ATOM      8  C7  UNL d   1       4.198  -3.220   0.558  0.00  0.00    -0.001 A 
ENDROOT
TORSDOF 0
ENDMDL
