MODEL 1
REMARK minimizedAffinity 9.32515049
REMARK minimizedRMSD -1
REMARK  0 active torsions:
REMARK  status: ('A' for Active; 'I' for Inactive)
ROOT
ATOM      1  C   UNL d   1       6.000  -5.483   0.319  0.00  0.00     0.077 C 
ATOM      2  C1  UNL d   1       5.535  -4.455  -0.668  0.00  0.00    -0.074 A 
ATOM      3  C2  UNL d   1       5.822  -3.098  -0.482  0.00  0.00    -0.005 A 
ATOM      4  C3  UNL d   1       5.392  -2.154  -1.415  0.00  0.00     0.006 A 
ATOM      5  C4  UNL d   1       4.672  -2.556  -2.540  0.00  0.00    -0.005 A 
ATOM      6  C5  UNL d   1       4.377  -3.908  -2.744  0.00  0.00    -0.074 A 
ATOM      7  C6  UNL d   1       3.613  -4.357  -3.954  0.00  0.00     0.077 C 
ATOM      8  C7  UNL d   1       4.819  -4.851  -1.806  0.00  0.00    -0.001 A 
ENDROOT
TORSDOF 0
ENDMDL
