MODEL 1
REMARK minimizedAffinity 5.85280085
REMARK minimizedRMSD -1
REMARK  0 active torsions:
REMARK  status: ('A' for Active; 'I' for Inactive)
ROOT
ATOM      1  C   UNL d   1      -1.915   5.992   2.880  0.00  0.00     0.077 C 
ATOM      2  C1  UNL d   1      -1.116   5.299   1.817  0.00  0.00    -0.074 A 
ATOM      3  C2  UNL d   1      -0.599   4.016   2.027  0.00  0.00    -0.005 A 
ATOM      4  C3  UNL d   1       0.134   3.381   1.025  0.00  0.00     0.006 A 
ATOM      5  C4  UNL d   1       0.357   4.019  -0.195  0.00  0.00    -0.005 A 
ATOM      6  C5  UNL d   1      -0.153   5.301  -0.424  0.00  0.00    -0.074 A 
ATOM      7  C6  UNL d   1       0.068   5.998  -1.734  0.00  0.00     0.077 C 
ATOM      8  C7  UNL d   1      -0.895   5.931   0.585  0.00  0.00    -0.001 A 
ENDROOT
TORSDOF 0
ENDMDL
