MODEL 1
REMARK minimizedAffinity 10.9370527
REMARK minimizedRMSD -1
REMARK  0 active torsions:
REMARK  status: ('A' for Active; 'I' for Inactive)
ROOT
ATOM      1  C   UNL d   1      -2.470   1.871   3.273  0.00  0.00     0.077 C 
ATOM      2  C1  UNL d   1      -1.122   2.326   2.800  0.00  0.00    -0.074 A 
ATOM      3  C2  UNL d   1       0.037   2.001   3.512  0.00  0.00    -0.005 A 
ATOM      4  C3  UNL d   1       1.285   2.424   3.054  0.00  0.00     0.006 A 
ATOM      5  C4  UNL d   1       1.386   3.176   1.883  0.00  0.00    -0.005 A 
ATOM      6  C5  UNL d   1       0.238   3.509   1.157  0.00  0.00    -0.074 A 
ATOM      7  C6  UNL d   1       0.330   4.308  -0.109  0.00  0.00     0.077 C 
ATOM      8  C7  UNL d   1      -1.011   3.075   1.619  0.00  0.00    -0.001 A 
ENDROOT
TORSDOF 0
ENDMDL
