MODEL 1
REMARK minimizedAffinity 8.91655922
REMARK minimizedRMSD -1
REMARK  0 active torsions:
REMARK  status: ('A' for Active; 'I' for Inactive)
ROOT
ATOM      1  C   UNL d   1       5.282  -5.618   0.742  0.00  0.00     0.077 C 
ATOM      2  C1  UNL d   1       5.078  -4.204   0.284  0.00  0.00    -0.074 A 
ATOM      3  C2  UNL d   1       5.628  -3.752  -0.919  0.00  0.00    -0.005 A 
ATOM      4  C3  UNL d   1       5.421  -2.437  -1.337  0.00  0.00     0.006 A 
ATOM      5  C4  UNL d   1       4.663  -1.563  -0.557  0.00  0.00    -0.005 A 
ATOM      6  C5  UNL d   1       4.104  -1.998   0.649  0.00  0.00    -0.074 A 
ATOM      7  C6  UNL d   1       3.278  -1.075   1.494  0.00  0.00     0.077 C 
ATOM      8  C7  UNL d   1       4.310  -3.323   1.058  0.00  0.00    -0.001 A 
ENDROOT
TORSDOF 0
ENDMDL
