MODEL 1
REMARK minimizedAffinity 7.7514782
REMARK minimizedRMSD -1
REMARK  0 active torsions:
REMARK  status: ('A' for Active; 'I' for Inactive)
ROOT
ATOM      1  C   UNL d   1      -2.750   5.620  -1.538  0.00  0.00     0.077 C 
ATOM      2  C1  UNL d   1      -1.264   5.474  -1.676  0.00  0.00    -0.074 A 
ATOM      3  C2  UNL d   1      -0.485   5.009  -0.611  0.00  0.00    -0.005 A 
ATOM      4  C3  UNL d   1       0.895   4.869  -0.758  0.00  0.00     0.006 A 
ATOM      5  C4  UNL d   1       1.509   5.192  -1.969  0.00  0.00    -0.005 A 
ATOM      6  C5  UNL d   1       0.747   5.658  -3.045  0.00  0.00    -0.074 A 
ATOM      7  C6  UNL d   1       1.390   6.000  -4.356  0.00  0.00     0.077 C 
ATOM      8  C7  UNL d   1      -0.640   5.789  -2.892  0.00  0.00    -0.001 A 
ENDROOT
TORSDOF 0
ENDMDL
