MODEL 1
REMARK minimizedAffinity 8.94764423
REMARK minimizedRMSD -1
REMARK  0 active torsions:
REMARK  status: ('A' for Active; 'I' for Inactive)
ROOT
ATOM      1  C   UNL d   1       0.749   4.872   0.104  0.00  0.00     0.077 C 
ATOM      2  C1  UNL d   1      -0.038   5.194  -1.132  0.00  0.00    -0.074 A 
ATOM      3  C2  UNL d   1       0.603   5.614  -2.302  0.00  0.00    -0.005 A 
ATOM      4  C3  UNL d   1      -0.141   5.901  -3.447  0.00  0.00     0.006 A 
ATOM      5  C4  UNL d   1      -1.530   5.771  -3.433  0.00  0.00    -0.005 A 
ATOM      6  C5  UNL d   1      -2.188   5.352  -2.272  0.00  0.00    -0.074 A 
ATOM      7  C6  UNL d   1      -3.680   5.198  -2.243  0.00  0.00     0.077 C 
ATOM      8  C7  UNL d   1      -1.433   5.059  -1.128  0.00  0.00    -0.001 A 
ENDROOT
TORSDOF 0
ENDMDL
