MODEL 1
REMARK minimizedAffinity 11.4804583
REMARK minimizedRMSD -1
REMARK  0 active torsions:
REMARK  status: ('A' for Active; 'I' for Inactive)
ROOT
ATOM      1  C   UNL d   1       3.408  -1.046   0.851  0.00  0.00     0.077 C 
ATOM      2  C1  UNL d   1       4.317  -1.920   0.040  0.00  0.00    -0.074 A 
ATOM      3  C2  UNL d   1       4.827  -3.112   0.566  0.00  0.00    -0.005 A 
ATOM      4  C3  UNL d   1       5.664  -3.919  -0.204  0.00  0.00     0.006 A 
ATOM      5  C4  UNL d   1       5.999  -3.544  -1.506  0.00  0.00    -0.005 A 
ATOM      6  C5  UNL d   1       5.498  -2.357  -2.049  0.00  0.00    -0.074 A 
ATOM      7  C6  UNL d   1       5.840  -1.944  -3.450  0.00  0.00     0.077 C 
ATOM      8  C7  UNL d   1       4.652  -1.554  -1.271  0.00  0.00    -0.001 A 
ENDROOT
TORSDOF 0
ENDMDL
