MODEL 1
REMARK minimizedAffinity 3.66706562
REMARK minimizedRMSD -1
REMARK  0 active torsions:
REMARK  status: ('A' for Active; 'I' for Inactive)
ROOT
ATOM      1  C   UNL d   1      -0.620   2.292   0.691  0.00  0.00     0.077 C 
ATOM      2  C1  UNL d   1      -0.203   3.587   0.060  0.00  0.00    -0.074 A 
ATOM      3  C2  UNL d   1       0.987   4.218   0.434  0.00  0.00    -0.005 A 
ATOM      4  C3  UNL d   1       1.367   5.417  -0.169  0.00  0.00     0.006 A 
ATOM      5  C4  UNL d   1       0.561   5.996  -1.150  0.00  0.00    -0.005 A 
ATOM      6  C5  UNL d   1      -0.632   5.379  -1.538  0.00  0.00    -0.074 A 
ATOM      7  C6  UNL d   1      -1.505   5.983  -2.598  0.00  0.00     0.077 C 
ATOM      8  C7  UNL d   1      -1.003   4.171  -0.932  0.00  0.00    -0.001 A 
ENDROOT
TORSDOF 0
ENDMDL
