MODEL 1
REMARK minimizedAffinity 15.6375446
REMARK minimizedRMSD -1
REMARK  0 active torsions:
REMARK  status: ('A' for Active; 'I' for Inactive)
ROOT
ATOM      1  C   UNL d   1       0.319   2.861   0.018  0.00  0.00     0.077 C 
ATOM      2  C1  UNL d   1      -0.511   1.681  -0.395  0.00  0.00    -0.074 A 
ATOM      3  C2  UNL d   1      -1.893   1.666  -0.185  0.00  0.00    -0.005 A 
ATOM      4  C3  UNL d   1      -2.653   0.566  -0.582  0.00  0.00     0.006 A 
ATOM      5  C4  UNL d   1      -2.040  -0.528  -1.193  0.00  0.00    -0.005 A 
ATOM      6  C5  UNL d   1      -0.658  -0.530  -1.413  0.00  0.00    -0.074 A 
ATOM      7  C6  UNL d   1       0.016  -1.694  -2.077  0.00  0.00     0.077 C 
ATOM      8  C7  UNL d   1       0.097   0.582  -1.016  0.00  0.00    -0.001 A 
ENDROOT
TORSDOF 0
ENDMDL
