MODEL 1
REMARK minimizedAffinity 3.84961867
REMARK minimizedRMSD -1
REMARK  0 active torsions:
REMARK  status: ('A' for Active; 'I' for Inactive)
ROOT
ATOM      1  C   UNL d   1       0.181  -2.105   3.530  0.00  0.00     0.078 C 
ATOM      2  C1  UNL d   1       0.959  -1.049   2.803  0.00  0.00    -0.077 A 
ATOM      3  C2  UNL d   1       1.773  -1.376   1.711  0.00  0.00    -0.001 A 
ATOM      4  C3  UNL d   1       2.499  -0.384   1.050  0.00  0.00     0.003 A 
ATOM      5  C4  UNL d   1       2.419   0.941   1.473  0.00  0.00    -0.005 A 
ATOM      6  C5  UNL d   1       1.614   1.276   2.560  0.00  0.00     0.003 A 
ATOM      7  C6  UNL d   1       0.887   0.285   3.223  0.00  0.00    -0.001 A 
ENDROOT
TORSDOF 0
ENDMDL
