MODEL 1
REMARK minimizedAffinity 9.11953068
REMARK minimizedRMSD -1
REMARK  0 active torsions:
REMARK  status: ('A' for Active; 'I' for Inactive)
ROOT
ATOM      1  C   UNL d   1      -6.000   4.372  -1.130  0.00  0.00     0.078 C 
ATOM      2  C1  UNL d   1      -5.086   3.411  -1.830  0.00  0.00    -0.077 A 
ATOM      3  C2  UNL d   1      -4.047   2.773  -1.142  0.00  0.00    -0.001 A 
ATOM      4  C3  UNL d   1      -3.197   1.888  -1.809  0.00  0.00     0.003 A 
ATOM      5  C4  UNL d   1      -3.377   1.636  -3.168  0.00  0.00    -0.005 A 
ATOM      6  C5  UNL d   1      -4.407   2.268  -3.861  0.00  0.00     0.003 A 
ATOM      7  C6  UNL d   1      -5.258   3.152  -3.196  0.00  0.00    -0.001 A 
ENDROOT
TORSDOF 0
ENDMDL
