MODEL 1
REMARK minimizedAffinity 11.091671
REMARK minimizedRMSD -1
REMARK  0 active torsions:
REMARK  status: ('A' for Active; 'I' for Inactive)
ROOT
ATOM      1  C   UNL d   1       2.787   1.692   1.245  0.00  0.00     0.078 C 
ATOM      2  C1  UNL d   1       2.112   0.380   1.514  0.00  0.00    -0.077 A 
ATOM      3  C2  UNL d   1       0.718   0.291   1.603  0.00  0.00    -0.001 A 
ATOM      4  C3  UNL d   1       0.104  -0.936   1.864  0.00  0.00     0.003 A 
ATOM      5  C4  UNL d   1       0.878  -2.081   2.039  0.00  0.00    -0.005 A 
ATOM      6  C5  UNL d   1       2.266  -2.002   1.955  0.00  0.00     0.003 A 
ATOM      7  C6  UNL d   1       2.881  -0.776   1.695  0.00  0.00    -0.001 A 
ENDROOT
TORSDOF 0
ENDMDL
