MODEL 1
REMARK minimizedAffinity 9.08048916
REMARK minimizedRMSD -1
REMARK  0 active torsions:
REMARK  status: ('A' for Active; 'I' for Inactive)
ROOT
ATOM      1  C   UNL d   1       3.869   5.472  -1.158  0.00  0.00     0.078 C 
ATOM      2  C1  UNL d   1       4.267   5.645  -2.594  0.00  0.00    -0.077 A 
ATOM      3  C2  UNL d   1       3.313   5.597  -3.618  0.00  0.00    -0.001 A 
ATOM      4  C3  UNL d   1       3.700   5.750  -4.950  0.00  0.00     0.003 A 
ATOM      5  C4  UNL d   1       5.041   5.950  -5.271  0.00  0.00    -0.005 A 
ATOM      6  C5  UNL d   1       5.998   5.997  -4.259  0.00  0.00     0.003 A 
ATOM      7  C6  UNL d   1       5.613   5.844  -2.926  0.00  0.00    -0.001 A 
ENDROOT
TORSDOF 0
ENDMDL
