MODEL 1
REMARK minimizedAffinity 7.46779013
REMARK minimizedRMSD -1
REMARK  0 active torsions:
REMARK  status: ('A' for Active; 'I' for Inactive)
ROOT
ATOM      1  C   UNL d   1      -2.693  -5.999  -3.854  0.00  0.00     0.078 C 
ATOM      2  C1  UNL d   1      -3.789  -5.287  -4.590  0.00  0.00    -0.077 A 
ATOM      3  C2  UNL d   1      -4.760  -6.000  -5.303  0.00  0.00    -0.001 A 
ATOM      4  C3  UNL d   1      -5.768  -5.323  -5.992  0.00  0.00     0.003 A 
ATOM      5  C4  UNL d   1      -5.814  -3.931  -5.974  0.00  0.00    -0.005 A 
ATOM      6  C5  UNL d   1      -4.851  -3.213  -5.269  0.00  0.00     0.003 A 
ATOM      7  C6  UNL d   1      -3.842  -3.887  -4.580  0.00  0.00    -0.001 A 
ENDROOT
TORSDOF 0
ENDMDL
