MODEL 1
REMARK minimizedAffinity 13.4142618
REMARK minimizedRMSD -1
REMARK  0 active torsions:
REMARK  status: ('A' for Active; 'I' for Inactive)
ROOT
ATOM      1  C   UNL d   1      -4.979   2.724  -4.267  0.00  0.00     0.078 C 
ATOM      2  C1  UNL d   1      -4.109   1.966  -3.309  0.00  0.00    -0.077 A 
ATOM      3  C2  UNL d   1      -3.544   2.597  -2.194  0.00  0.00    -0.001 A 
ATOM      4  C3  UNL d   1      -2.728   1.881  -1.317  0.00  0.00     0.003 A 
ATOM      5  C4  UNL d   1      -2.468   0.532  -1.546  0.00  0.00    -0.005 A 
ATOM      6  C5  UNL d   1      -3.024  -0.104  -2.654  0.00  0.00     0.003 A 
ATOM      7  C6  UNL d   1      -3.841   0.610  -3.533  0.00  0.00    -0.001 A 
ENDROOT
TORSDOF 0
ENDMDL
