MODEL 1
REMARK minimizedAffinity 0.336768299
REMARK minimizedRMSD -1
REMARK  0 active torsions:
REMARK  status: ('A' for Active; 'I' for Inactive)
ROOT
ATOM      1  C   UNL d   1      -4.509  -2.235  -3.240  0.00  0.00     0.078 C 
ATOM      2  C1  UNL d   1      -4.603  -3.552  -3.951  0.00  0.00    -0.077 A 
ATOM      3  C2  UNL d   1      -4.407  -4.757  -3.266  0.00  0.00    -0.001 A 
ATOM      4  C3  UNL d   1      -4.487  -5.975  -3.943  0.00  0.00     0.003 A 
ATOM      5  C4  UNL d   1      -4.762  -6.000  -5.309  0.00  0.00    -0.005 A 
ATOM      6  C5  UNL d   1      -4.957  -4.805  -6.000  0.00  0.00     0.003 A 
ATOM      7  C6  UNL d   1      -4.877  -3.586  -5.324  0.00  0.00    -0.001 A 
ENDROOT
TORSDOF 0
ENDMDL
