MODEL 1
REMARK minimizedAffinity -0.131367519
REMARK minimizedRMSD -1
REMARK  0 active torsions:
REMARK  status: ('A' for Active; 'I' for Inactive)
ROOT
ATOM      1  C   UNL d   1       2.240  -2.618   3.191  0.00  0.00     0.078 C 
ATOM      2  C1  UNL d   1       3.546  -2.667   3.928  0.00  0.00    -0.077 A 
ATOM      3  C2  UNL d   1       3.584  -2.685   5.328  0.00  0.00    -0.001 A 
ATOM      4  C3  UNL d   1       4.806  -2.721   6.000  0.00  0.00     0.003 A 
ATOM      5  C4  UNL d   1       6.000  -2.738   5.281  0.00  0.00    -0.005 A 
ATOM      6  C5  UNL d   1       5.972  -2.718   3.888  0.00  0.00     0.003 A 
ATOM      7  C6  UNL d   1       4.751  -2.682   3.214  0.00  0.00    -0.001 A 
ENDROOT
TORSDOF 0
ENDMDL
