MODEL 1
REMARK minimizedAffinity -2.57289982
REMARK minimizedRMSD -1
REMARK  0 active torsions:
REMARK  status: ('A' for Active; 'I' for Inactive)
ROOT
ATOM      1  C   UNL d   1       6.000  -4.495   2.057  0.00  0.00     0.172 C 
ATOM      2  N   UNL d   1       5.981  -3.877   3.361  0.00  0.00    -0.070 N 
ATOM      3  C1  UNL d   1       6.000  -2.530   3.607  0.00  0.00    -0.004 A 
ATOM      4  C2  UNL d   1       5.970  -2.349   4.973  0.00  0.00    -0.047 A 
ATOM      5  C3  UNL d   1       5.933  -3.632   5.569  0.00  0.00    -0.047 A 
ATOM      6  C4  UNL d   1       5.940  -4.559   4.549  0.00  0.00    -0.004 A 
ENDROOT
TORSDOF 0
ENDMDL
