MODEL 1
REMARK minimizedAffinity -2.21897602
REMARK minimizedRMSD -1
REMARK  0 active torsions:
REMARK  status: ('A' for Active; 'I' for Inactive)
ROOT
ATOM      1  C   UNL d   1       5.975  -4.068   2.333  0.00  0.00     0.172 C 
ATOM      2  N   UNL d   1       5.982  -3.441   3.634  0.00  0.00    -0.070 N 
ATOM      3  C1  UNL d   1       5.998  -2.092   3.870  0.00  0.00    -0.004 A 
ATOM      4  C2  UNL d   1       6.000  -1.903   5.235  0.00  0.00    -0.047 A 
ATOM      5  C3  UNL d   1       5.985  -3.182   5.840  0.00  0.00    -0.047 A 
ATOM      6  C4  UNL d   1       5.974  -4.116   4.826  0.00  0.00    -0.004 A 
ENDROOT
TORSDOF 0
ENDMDL
