MODEL 1
REMARK minimizedAffinity -1.06631064
REMARK minimizedRMSD -1
REMARK  0 active torsions:
REMARK  status: ('A' for Active; 'I' for Inactive)
ROOT
ATOM      1  C   UNL d   1       5.986  -2.121   5.977  0.00  0.00     0.172 C 
ATOM      2  N   UNL d   1       5.339  -3.412   5.965  0.00  0.00    -0.070 N 
ATOM      3  C1  UNL d   1       3.987  -3.628   5.996  0.00  0.00    -0.004 A 
ATOM      4  C2  UNL d   1       3.776  -4.990   5.970  0.00  0.00    -0.047 A 
ATOM      5  C3  UNL d   1       5.045  -5.614   5.922  0.00  0.00    -0.047 A 
ATOM      6  C4  UNL d   1       5.995  -4.614   5.920  0.00  0.00    -0.004 A 
ENDROOT
TORSDOF 0
ENDMDL
