MODEL 1
REMARK minimizedAffinity -2.17537951
REMARK minimizedRMSD -1
REMARK  0 active torsions:
REMARK  status: ('A' for Active; 'I' for Inactive)
ROOT
ATOM      1  C   UNL d   1       5.997  -1.610   5.999  0.00  0.00     0.172 C 
ATOM      2  N   UNL d   1       5.593  -2.844   5.369  0.00  0.00    -0.070 N 
ATOM      3  C1  UNL d   1       5.999  -3.282   4.137  0.00  0.00    -0.004 A 
ATOM      4  C2  UNL d   1       5.393  -4.496   3.899  0.00  0.00    -0.047 A 
ATOM      5  C3  UNL d   1       4.593  -4.799   5.027  0.00  0.00    -0.047 A 
ATOM      6  C4  UNL d   1       4.736  -3.759   5.922  0.00  0.00    -0.004 A 
ENDROOT
TORSDOF 0
ENDMDL
