MODEL 1
REMARK minimizedAffinity -2.20933676
REMARK minimizedRMSD -1
REMARK  0 active torsions:
REMARK  status: ('A' for Active; 'I' for Inactive)
ROOT
ATOM      1  C   UNL d   1       5.623  -4.062   2.725  0.00  0.00     0.172 C 
ATOM      2  N   UNL d   1       5.373  -3.399   3.983  0.00  0.00    -0.070 N 
ATOM      3  C1  UNL d   1       6.000  -2.265   4.426  0.00  0.00    -0.004 A 
ATOM      4  C2  UNL d   1       5.483  -1.954   5.665  0.00  0.00    -0.047 A 
ATOM      5  C3  UNL d   1       4.513  -2.935   5.978  0.00  0.00    -0.047 A 
ATOM      6  C4  UNL d   1       4.465  -3.818   4.920  0.00  0.00    -0.004 A 
ENDROOT
TORSDOF 0
ENDMDL
