MODEL 1
REMARK minimizedAffinity -2.580127
REMARK minimizedRMSD -1
REMARK  0 active torsions:
REMARK  status: ('A' for Active; 'I' for Inactive)
ROOT
ATOM      1  C   UNL d   1       4.863  -4.133  -0.734  0.00  0.00     0.172 C 
ATOM      2  N   UNL d   1       5.156  -4.574   0.609  0.00  0.00    -0.070 N 
ATOM      3  C1  UNL d   1       5.986  -5.610   0.946  0.00  0.00    -0.004 A 
ATOM      4  C2  UNL d   1       5.999  -5.710   2.321  0.00  0.00    -0.047 A 
ATOM      5  C3  UNL d   1       5.147  -4.700   2.827  0.00  0.00    -0.047 A 
ATOM      6  C4  UNL d   1       4.638  -4.012   1.746  0.00  0.00    -0.004 A 
ENDROOT
TORSDOF 0
ENDMDL
