MODEL 1
REMARK minimizedAffinity -2.59900498
REMARK minimizedRMSD -1
REMARK  0 active torsions:
REMARK  status: ('A' for Active; 'I' for Inactive)
ROOT
ATOM      1  C   UNL d   1       4.854  -5.632   6.000  0.00  0.00     0.172 C 
ATOM      2  N   UNL d   1       5.109  -4.379   5.328  0.00  0.00    -0.070 N 
ATOM      3  C1  UNL d   1       4.876  -3.134   5.847  0.00  0.00    -0.004 A 
ATOM      4  C2  UNL d   1       5.250  -2.205   4.900  0.00  0.00    -0.047 A 
ATOM      5  C3  UNL d   1       5.723  -2.917   3.772  0.00  0.00    -0.047 A 
ATOM      6  C4  UNL d   1       5.624  -4.261   4.065  0.00  0.00    -0.004 A 
ENDROOT
TORSDOF 0
ENDMDL
