MODEL 1
REMARK minimizedAffinity -1.81689692
REMARK minimizedRMSD -1
REMARK  0 active torsions:
REMARK  status: ('A' for Active; 'I' for Inactive)
ROOT
ATOM      1  C   UNL d   1       5.987  -3.121  -1.600  0.00  0.00     0.172 C 
ATOM      2  N   UNL d   1       5.991  -3.308  -0.168  0.00  0.00    -0.070 N 
ATOM      3  C1  UNL d   1       5.991  -2.308   0.767  0.00  0.00    -0.004 A 
ATOM      4  C2  UNL d   1       5.995  -2.896   2.013  0.00  0.00    -0.047 A 
ATOM      5  C3  UNL d   1       6.000  -4.298   1.820  0.00  0.00    -0.047 A 
ATOM      6  C4  UNL d   1       5.997  -4.525   0.460  0.00  0.00    -0.004 A 
ENDROOT
TORSDOF 0
ENDMDL
