MODEL 1
REMARK minimizedAffinity -2.02188706
REMARK minimizedRMSD -1
REMARK  0 active torsions:
REMARK  status: ('A' for Active; 'I' for Inactive)
ROOT
ATOM      1  C   UNL d   1       4.496  -4.125  -2.432  0.00  0.00     0.172 C 
ATOM      2  N   UNL d   1       4.771  -4.491  -3.802  0.00  0.00    -0.070 N 
ATOM      3  C1  UNL d   1       3.860  -4.503  -4.824  0.00  0.00    -0.004 A 
ATOM      4  C2  UNL d   1       4.513  -4.907  -5.968  0.00  0.00    -0.047 A 
ATOM      5  C3  UNL d   1       5.864  -5.146  -5.621  0.00  0.00    -0.047 A 
ATOM      6  C4  UNL d   1       5.996  -4.881  -4.275  0.00  0.00    -0.004 A 
ENDROOT
TORSDOF 0
ENDMDL
