MODEL 1
REMARK minimizedAffinity 0.786673605
REMARK minimizedRMSD -1
REMARK  0 active torsions:
REMARK  status: ('A' for Active; 'I' for Inactive)
ROOT
ATOM      1  C   UNL d   1       4.317  -4.654   5.999  0.00  0.00     0.172 C 
ATOM      2  N   UNL d   1       4.718  -3.778   4.923  0.00  0.00    -0.070 N 
ATOM      3  C1  UNL d   1       5.999  -3.599   4.475  0.00  0.00    -0.004 A 
ATOM      4  C2  UNL d   1       5.962  -2.687   3.442  0.00  0.00    -0.047 A 
ATOM      5  C3  UNL d   1       4.611  -2.305   3.263  0.00  0.00    -0.047 A 
ATOM      6  C4  UNL d   1       3.863  -2.995   4.193  0.00  0.00    -0.004 A 
ENDROOT
TORSDOF 0
ENDMDL
