MODEL 1
REMARK minimizedAffinity -2.48947144
REMARK minimizedRMSD -1
REMARK  0 active torsions:
REMARK  status: ('A' for Active; 'I' for Inactive)
ROOT
ATOM      1  C   UNL d   1       5.256  -2.358   5.999  0.00  0.00     0.172 C 
ATOM      2  N   UNL d   1       5.455  -3.142   4.803  0.00  0.00    -0.070 N 
ATOM      3  C1  UNL d   1       5.971  -2.680   3.622  0.00  0.00    -0.004 A 
ATOM      4  C2  UNL d   1       5.998  -3.732   2.732  0.00  0.00    -0.047 A 
ATOM      5  C3  UNL d   1       5.481  -4.866   3.402  0.00  0.00    -0.047 A 
ATOM      6  C4  UNL d   1       5.152  -4.473   4.682  0.00  0.00    -0.004 A 
ENDROOT
TORSDOF 0
ENDMDL
