MODEL 1
REMARK minimizedAffinity -2.70038366
REMARK minimizedRMSD -1
REMARK  0 active torsions:
REMARK  status: ('A' for Active; 'I' for Inactive)
ROOT
ATOM      1  C   UNL d   1       5.365  -2.640   5.476  0.00  0.00     0.172 C 
ATOM      2  N   UNL d   1       5.528  -3.042   4.098  0.00  0.00    -0.070 N 
ATOM      3  C1  UNL d   1       5.995  -2.248   3.085  0.00  0.00    -0.004 A 
ATOM      4  C2  UNL d   1       5.999  -2.999   1.929  0.00  0.00    -0.047 A 
ATOM      5  C3  UNL d   1       5.518  -4.288   2.259  0.00  0.00    -0.047 A 
ATOM      6  C4  UNL d   1       5.233  -4.287   3.609  0.00  0.00    -0.004 A 
ENDROOT
TORSDOF 0
ENDMDL
