MODEL 1
REMARK minimizedAffinity 11.0822849
REMARK minimizedRMSD -1
REMARK  0 active torsions:
REMARK  status: ('A' for Active; 'I' for Inactive)
ROOT
ATOM      1  C4' PXY d   1      -1.167   5.970  -3.860  0.00  0.00     0.077 C 
ATOM      2  C1' PXY d   1       3.898   3.527  -5.196  0.00  0.00     0.077 C 
ATOM      3  C1  PXY d   1       2.571   4.176  -4.855  0.00  0.00    -0.082 A 
ATOM      4  C2  PXY d   1       2.085   4.066  -3.630  0.00  0.00     0.003 A 
ATOM      5  C3  PXY d   1       0.871   4.620  -3.313  0.00  0.00     0.003 A 
ATOM      6  C4  PXY d   1       0.173   5.338  -4.246  0.00  0.00    -0.082 A 
ATOM      7  C5  PXY d   1       0.668   5.464  -5.496  0.00  0.00     0.003 A 
ATOM      8  C6  PXY d   1       1.882   4.860  -5.808  0.00  0.00     0.003 A 
ENDROOT
TORSDOF 0
ENDMDL
