MODEL 1
REMARK minimizedAffinity -1.35577273
REMARK minimizedRMSD -1
REMARK  0 active torsions:
REMARK  status: ('A' for Active; 'I' for Inactive)
ROOT
ATOM      1  C4' PXY d   1       1.124   1.768  -2.098  0.00  0.00     0.077 C 
ATOM      2  C1' PXY d   1       0.587   6.000  -5.998  0.00  0.00     0.077 C 
ATOM      3  C1  PXY d   1       0.740   4.887  -4.980  0.00  0.00    -0.082 A 
ATOM      4  C2  PXY d   1      -0.338   4.312  -4.473  0.00  0.00     0.003 A 
ATOM      5  C3  PXY d   1      -0.219   3.326  -3.528  0.00  0.00     0.003 A 
ATOM      6  C4  PXY d   1       1.018   2.888  -3.135  0.00  0.00    -0.082 A 
ATOM      7  C5  PXY d   1       2.123   3.463  -3.656  0.00  0.00     0.003 A 
ATOM      8  C6  PXY d   1       1.980   4.491  -4.584  0.00  0.00     0.003 A 
ENDROOT
TORSDOF 0
ENDMDL
