MODEL 1
REMARK minimizedAffinity -0.0756698474
REMARK minimizedRMSD -1
REMARK  0 active torsions:
REMARK  status: ('A' for Active; 'I' for Inactive)
ROOT
ATOM      1  C4' PXY d   1      -1.959  -4.209  -2.631  0.00  0.00     0.077 C 
ATOM      2  C1' PXY d   1      -4.634  -4.761   2.463  0.00  0.00     0.077 C 
ATOM      3  C1  PXY d   1      -3.942  -4.609   1.123  0.00  0.00    -0.082 A 
ATOM      4  C2  PXY d   1      -3.030  -5.493   0.754  0.00  0.00     0.003 A 
ATOM      5  C3  PXY d   1      -2.372  -5.353  -0.441  0.00  0.00     0.003 A 
ATOM      6  C4  PXY d   1      -2.689  -4.328  -1.291  0.00  0.00    -0.082 A 
ATOM      7  C5  PXY d   1      -3.627  -3.427  -0.926  0.00  0.00     0.003 A 
ATOM      8  C6  PXY d   1      -4.254  -3.564   0.309  0.00  0.00     0.003 A 
ENDROOT
TORSDOF 0
ENDMDL
