MODEL 1
REMARK minimizedAffinity 3.46777964
REMARK minimizedRMSD -1
REMARK  0 active torsions:
REMARK  status: ('A' for Active; 'I' for Inactive)
ROOT
ATOM      1  C4' PXY d   1       1.592   3.354  -2.682  0.00  0.00     0.077 C 
ATOM      2  C1' PXY d   1       3.142  -0.426   1.407  0.00  0.00     0.077 C 
ATOM      3  C1  PXY d   1       2.729   0.572   0.344  0.00  0.00    -0.082 A 
ATOM      4  C2  PXY d   1       2.710   0.204  -0.927  0.00  0.00     0.003 A 
ATOM      5  C3  PXY d   1       2.369   1.103  -1.905  0.00  0.00     0.003 A 
ATOM      6  C4  PXY d   1       1.994   2.377  -1.574  0.00  0.00    -0.082 A 
ATOM      7  C5  PXY d   1       2.000   2.757  -0.279  0.00  0.00     0.003 A 
ATOM      8  C6  PXY d   1       2.389   1.842   0.695  0.00  0.00     0.003 A 
ENDROOT
TORSDOF 0
ENDMDL
