MODEL 1
REMARK minimizedAffinity 0.995301604
REMARK minimizedRMSD -1
REMARK  0 active torsions:
REMARK  status: ('A' for Active; 'I' for Inactive)
ROOT
ATOM      1  C4' PXY d   1      -1.985   5.756  -5.035  0.00  0.00     0.077 C 
ATOM      2  C1' PXY d   1       3.491   4.028  -4.369  0.00  0.00     0.077 C 
ATOM      3  C1  PXY d   1       2.058   4.486  -4.555  0.00  0.00    -0.082 A 
ATOM      4  C2  PXY d   1       1.294   4.693  -3.495  0.00  0.00     0.003 A 
ATOM      5  C3  PXY d   1      -0.014   5.076  -3.646  0.00  0.00     0.003 A 
ATOM      6  C4  PXY d   1      -0.529   5.302  -4.894  0.00  0.00    -0.082 A 
ATOM      7  C5  PXY d   1       0.247   5.104  -5.980  0.00  0.00     0.003 A 
ATOM      8  C6  PXY d   1       1.559   4.675  -5.807  0.00  0.00     0.003 A 
ENDROOT
TORSDOF 0
ENDMDL
