MODEL 1
REMARK minimizedAffinity 14.5922308
REMARK minimizedRMSD -1
REMARK  0 active torsions:
REMARK  status: ('A' for Active; 'I' for Inactive)
ROOT
ATOM      1  C4' PXY d   1       1.198   2.015  -1.824  0.00  0.00     0.077 C 
ATOM      2  C1' PXY d   1       0.718   5.982  -6.000  0.00  0.00     0.077 C 
ATOM      3  C1  PXY d   1       0.857   4.942  -4.906  0.00  0.00    -0.082 A 
ATOM      4  C2  PXY d   1      -0.142   4.108  -4.666  0.00  0.00     0.003 A 
ATOM      5  C3  PXY d   1      -0.046   3.183  -3.659  0.00  0.00     0.003 A 
ATOM      6  C4  PXY d   1       1.105   3.074  -2.925  0.00  0.00    -0.082 A 
ATOM      7  C5  PXY d   1       2.133   3.915  -3.171  0.00  0.00     0.003 A 
ATOM      8  C6  PXY d   1       2.000   4.874  -4.170  0.00  0.00     0.003 A 
ENDROOT
TORSDOF 0
ENDMDL
