MODEL 1
REMARK minimizedAffinity 9.09906483
REMARK minimizedRMSD -1
REMARK  0 active torsions:
REMARK  status: ('A' for Active; 'I' for Inactive)
ROOT
ATOM      1  C4' PXY d   1      -1.041  -1.293   1.640  0.00  0.00     0.077 C 
ATOM      2  C1' PXY d   1       4.696  -0.635   1.381  0.00  0.00     0.077 C 
ATOM      3  C1  PXY d   1       3.193  -0.820   1.454  0.00  0.00    -0.082 A 
ATOM      4  C2  PXY d   1       2.409  -0.127   0.644  0.00  0.00     0.003 A 
ATOM      5  C3  PXY d   1       1.046  -0.258   0.718  0.00  0.00     0.003 A 
ATOM      6  C4  PXY d   1       0.483  -1.146   1.595  0.00  0.00    -0.082 A 
ATOM      7  C5  PXY d   1       1.276  -1.864   2.417  0.00  0.00     0.003 A 
ATOM      8  C6  PXY d   1       2.655  -1.687   2.354  0.00  0.00     0.003 A 
ENDROOT
TORSDOF 0
ENDMDL
