MODEL 1
REMARK minimizedAffinity 7.34386921
REMARK minimizedRMSD -1
REMARK  0 active torsions:
REMARK  status: ('A' for Active; 'I' for Inactive)
ROOT
ATOM      1  C4' PXY d   1       0.185   3.053  -2.519  0.00  0.00     0.077 C 
ATOM      2  C1' PXY d   1       3.615   0.649   1.465  0.00  0.00     0.077 C 
ATOM      3  C1  PXY d   1       2.706   1.282   0.430  0.00  0.00    -0.082 A 
ATOM      4  C2  PXY d   1       2.814   0.926  -0.840  0.00  0.00     0.003 A 
ATOM      5  C3  PXY d   1       2.022   1.511  -1.794  0.00  0.00     0.003 A 
ATOM      6  C4  PXY d   1       1.075   2.433  -1.438  0.00  0.00    -0.082 A 
ATOM      7  C5  PXY d   1       0.951   2.794  -0.143  0.00  0.00     0.003 A 
ATOM      8  C6  PXY d   1       1.792   2.218   0.805  0.00  0.00     0.003 A 
ENDROOT
TORSDOF 0
ENDMDL
