MODEL 1
REMARK minimizedAffinity 3.35970998
REMARK minimizedRMSD -1
REMARK  0 active torsions:
REMARK  status: ('A' for Active; 'I' for Inactive)
ROOT
ATOM      1  C4' PXY d   1      -5.954   2.980  -0.546  0.00  0.00     0.077 C 
ATOM      2  C1' PXY d   1      -5.998  -0.114  -5.429  0.00  0.00     0.077 C 
ATOM      3  C1  PXY d   1      -5.992   0.687  -4.142  0.00  0.00    -0.082 A 
ATOM      4  C2  PXY d   1      -5.976   2.009  -4.195  0.00  0.00     0.003 A 
ATOM      5  C3  PXY d   1      -5.938   2.749  -3.041  0.00  0.00     0.003 A 
ATOM      6  C4  PXY d   1      -5.970   2.130  -1.820  0.00  0.00    -0.082 A 
ATOM      7  C5  PXY d   1      -5.997   0.782  -1.758  0.00  0.00     0.003 A 
ATOM      8  C6  PXY d   1      -5.994   0.049  -2.941  0.00  0.00     0.003 A 
ENDROOT
TORSDOF 0
ENDMDL
