MODEL 1
REMARK minimizedAffinity 4.29672813
REMARK minimizedRMSD -1
REMARK  0 active torsions:
REMARK  status: ('A' for Active; 'I' for Inactive)
ROOT
ATOM      1  C4' PXY d   1      -0.782  -0.522   5.144  0.00  0.00     0.077 C 
ATOM      2  C1' PXY d   1      -4.906  -0.168   1.108  0.00  0.00     0.077 C 
ATOM      3  C1  PXY d   1      -3.829  -0.250   2.171  0.00  0.00    -0.082 A 
ATOM      4  C2  PXY d   1      -2.735  -0.958   1.941  0.00  0.00     0.003 A 
ATOM      5  C3  PXY d   1      -1.765  -1.068   2.904  0.00  0.00     0.003 A 
ATOM      6  C4  PXY d   1      -1.892  -0.404   4.095  0.00  0.00    -0.082 A 
ATOM      7  C5  PXY d   1      -3.000   0.329   4.333  0.00  0.00     0.003 A 
ATOM      8  C6  PXY d   1      -3.992   0.395   3.359  0.00  0.00     0.003 A 
ENDROOT
TORSDOF 0
ENDMDL
