MODEL 1
REMARK minimizedAffinity 0.287880749
REMARK minimizedRMSD -1
REMARK  0 active torsions:
REMARK  status: ('A' for Active; 'I' for Inactive)
ROOT
ATOM      1  C4' PXY d   1      -4.637   0.034   6.000  0.00  0.00     0.077 C 
ATOM      2  C1' PXY d   1      -1.255  -0.958   1.418  0.00  0.00     0.077 C 
ATOM      3  C1  PXY d   1      -2.131  -0.699   2.628  0.00  0.00    -0.082 A 
ATOM      4  C2  PXY d   1      -3.420  -0.992   2.576  0.00  0.00     0.003 A 
ATOM      5  C3  PXY d   1      -4.234  -0.734   3.649  0.00  0.00     0.003 A 
ATOM      6  C4  PXY d   1      -3.712  -0.220   4.806  0.00  0.00    -0.082 A 
ATOM      7  C5  PXY d   1      -2.396   0.072   4.870  0.00  0.00     0.003 A 
ATOM      8  C6  PXY d   1      -1.595  -0.159   3.756  0.00  0.00     0.003 A 
ENDROOT
TORSDOF 0
ENDMDL
