MODEL 1
REMARK minimizedAffinity -0.37894851
REMARK minimizedRMSD -1
REMARK  0 active torsions:
REMARK  status: ('A' for Active; 'I' for Inactive)
ROOT
ATOM      1  C4' PXY d   1      -2.625   0.378   6.000  0.00  0.00     0.077 C 
ATOM      2  C1' PXY d   1      -3.106  -2.316   0.909  0.00  0.00     0.077 C 
ATOM      3  C1  PXY d   1      -2.993  -1.609   2.245  0.00  0.00    -0.082 A 
ATOM      4  C2  PXY d   1      -1.895  -0.931   2.535  0.00  0.00     0.003 A 
ATOM      5  C3  PXY d   1      -1.763  -0.312   3.751  0.00  0.00     0.003 A 
ATOM      6  C4  PXY d   1      -2.787  -0.343   4.659  0.00  0.00    -0.082 A 
ATOM      7  C5  PXY d   1      -3.915  -1.024   4.367  0.00  0.00     0.003 A 
ATOM      8  C6  PXY d   1      -4.013  -1.680   3.143  0.00  0.00     0.003 A 
ENDROOT
TORSDOF 0
ENDMDL
