MODEL 1
REMARK minimizedAffinity -0.668881714
REMARK minimizedRMSD -1
REMARK  0 active torsions:
REMARK  status: ('A' for Active; 'I' for Inactive)
ROOT
ATOM      1  C4' PXY d   1      -5.984  -2.258   2.798  0.00  0.00     0.077 C 
ATOM      2  C1' PXY d   1      -0.592  -0.318   3.556  0.00  0.00     0.077 C 
ATOM      3  C1  PXY d   1      -2.004  -0.828   3.345  0.00  0.00    -0.082 A 
ATOM      4  C2  PXY d   1      -2.945  -0.531   4.225  0.00  0.00     0.003 A 
ATOM      5  C3  PXY d   1      -4.220  -1.010   4.066  0.00  0.00     0.003 A 
ATOM      6  C4  PXY d   1      -4.547  -1.757   2.967  0.00  0.00    -0.082 A 
ATOM      7  C5  PXY d   1      -3.594  -2.056   2.058  0.00  0.00     0.003 A 
ATOM      8  C6  PXY d   1      -2.297  -1.595   2.259  0.00  0.00     0.003 A 
ENDROOT
TORSDOF 0
ENDMDL
