MODEL 1
REMARK minimizedAffinity 1.25517869
REMARK minimizedRMSD -1
REMARK  0 active torsions:
REMARK  status: ('A' for Active; 'I' for Inactive)
ROOT
ATOM      1  C4' PXY d   1      -5.965  -1.977  -5.998  0.00  0.00     0.077 C 
ATOM      2  C1' PXY d   1      -6.000   1.563  -1.429  0.00  0.00     0.077 C 
ATOM      3  C1  PXY d   1      -5.996   0.644  -2.635  0.00  0.00    -0.082 A 
ATOM      4  C2  PXY d   1      -5.988  -0.667  -2.458  0.00  0.00     0.003 A 
ATOM      5  C3  PXY d   1      -5.952  -1.512  -3.537  0.00  0.00     0.003 A 
ATOM      6  C4  PXY d   1      -5.979  -1.011  -4.810  0.00  0.00    -0.082 A 
ATOM      7  C5  PXY d   1      -5.998   0.325  -4.999  0.00  0.00     0.003 A 
ATOM      8  C6  PXY d   1      -5.993   1.167  -3.891  0.00  0.00     0.003 A 
ENDROOT
TORSDOF 0
ENDMDL
