MODEL 1
REMARK minimizedAffinity 3.37453794
REMARK minimizedRMSD -1
REMARK  0 active torsions:
REMARK  status: ('A' for Active; 'I' for Inactive)
ROOT
ATOM      1  C4' PXY d   1      -1.162  -0.021   3.482  0.00  0.00     0.077 C 
ATOM      2  C1' PXY d   1      -5.698  -3.041   1.556  0.00  0.00     0.077 C 
ATOM      3  C1  PXY d   1      -4.517  -2.242   2.068  0.00  0.00    -0.082 A 
ATOM      4  C2  PXY d   1      -3.409  -2.176   1.347  0.00  0.00     0.003 A 
ATOM      5  C3  PXY d   1      -2.320  -1.484   1.811  0.00  0.00     0.003 A 
ATOM      6  C4  PXY d   1      -2.383  -0.808   3.000  0.00  0.00    -0.082 A 
ATOM      7  C5  PXY d   1      -3.513  -0.862   3.736  0.00  0.00     0.003 A 
ATOM      8  C6  PXY d   1      -4.593  -1.604   3.268  0.00  0.00     0.003 A 
ENDROOT
TORSDOF 0
ENDMDL
