MODEL 1
REMARK minimizedAffinity 6.09261417
REMARK minimizedRMSD -1
REMARK  0 active torsions:
REMARK  status: ('A' for Active; 'I' for Inactive)
ROOT
ATOM      1  C4' PXY d   1      -5.968   1.364  -0.497  0.00  0.00     0.077 C 
ATOM      2  C1' PXY d   1      -5.745  -0.397  -5.998  0.00  0.00     0.077 C 
ATOM      3  C1  PXY d   1      -5.799   0.077  -4.559  0.00  0.00    -0.082 A 
ATOM      4  C2  PXY d   1      -5.700  -0.803  -3.576  0.00  0.00     0.003 A 
ATOM      5  C3  PXY d   1      -5.779  -0.396  -2.269  0.00  0.00     0.003 A 
ATOM      6  C4  PXY d   1      -5.908   0.933  -1.965  0.00  0.00    -0.082 A 
ATOM      7  C5  PXY d   1      -6.000   1.838  -2.961  0.00  0.00     0.003 A 
ATOM      8  C6  PXY d   1      -5.958   1.400  -4.282  0.00  0.00     0.003 A 
ENDROOT
TORSDOF 0
ENDMDL
