MODEL 1
REMARK minimizedAffinity 3.66731
REMARK minimizedRMSD -1
REMARK  0 active torsions:
REMARK  status: ('A' for Active; 'I' for Inactive)
ROOT
ATOM      1  C4' PXY d   1       2.487   1.516  -1.871  0.00  0.00     0.077 C 
ATOM      2  C1' PXY d   1       0.247   5.523  -5.384  0.00  0.00     0.077 C 
ATOM      3  C1  PXY d   1       0.846   4.476  -4.466  0.00  0.00    -0.082 A 
ATOM      4  C2  PXY d   1       0.147   3.394  -4.163  0.00  0.00     0.003 A 
ATOM      5  C3  PXY d   1       0.661   2.453  -3.309  0.00  0.00     0.003 A 
ATOM      6  C4  PXY d   1       1.925   2.594  -2.802  0.00  0.00    -0.082 A 
ATOM      7  C5  PXY d   1       2.649   3.690  -3.114  0.00  0.00     0.003 A 
ATOM      8  C6  PXY d   1       2.093   4.654  -3.950  0.00  0.00     0.003 A 
ENDROOT
TORSDOF 0
ENDMDL
