MODEL 1
REMARK minimizedAffinity 4.54282713
REMARK minimizedRMSD -1
REMARK  0 active torsions:
REMARK  status: ('A' for Active; 'I' for Inactive)
ROOT
ATOM      1  C4' PXY d   1      -6.000   4.428   1.086  0.00  0.00     0.077 C 
ATOM      2  C1' PXY d   1      -5.980   1.025  -3.587  0.00  0.00     0.077 C 
ATOM      3  C1  PXY d   1      -5.990   1.908  -2.354  0.00  0.00    -0.082 A 
ATOM      4  C2  PXY d   1      -6.000   3.223  -2.492  0.00  0.00     0.003 A 
ATOM      5  C3  PXY d   1      -5.977   4.037  -1.389  0.00  0.00     0.003 A 
ATOM      6  C4  PXY d   1      -5.998   3.498  -0.130  0.00  0.00    -0.082 A 
ATOM      7  C5  PXY d   1      -6.000   2.156   0.019  0.00  0.00     0.003 A 
ATOM      8  C6  PXY d   1      -5.981   1.348  -1.114  0.00  0.00     0.003 A 
ENDROOT
TORSDOF 0
ENDMDL
