MODEL 1
REMARK minimizedAffinity 1.24559283
REMARK minimizedRMSD -1
REMARK  0 active torsions:
REMARK  status: ('A' for Active; 'I' for Inactive)
ROOT
ATOM      1  C4' PXY d   1      -5.972  -2.110  -5.988  0.00  0.00     0.077 C 
ATOM      2  C1' PXY d   1      -5.999   2.528  -2.538  0.00  0.00     0.077 C 
ATOM      3  C1  PXY d   1      -5.986   1.304  -3.433  0.00  0.00    -0.082 A 
ATOM      4  C2  PXY d   1      -5.973   1.455  -4.747  0.00  0.00     0.003 A 
ATOM      5  C3  PXY d   1      -5.994   0.360  -5.572  0.00  0.00     0.003 A 
ATOM      6  C4  PXY d   1      -5.975  -0.904  -5.046  0.00  0.00    -0.082 A 
ATOM      7  C5  PXY d   1      -5.978  -1.066  -3.705  0.00  0.00     0.003 A 
ATOM      8  C6  PXY d   1      -5.998   0.058  -2.886  0.00  0.00     0.003 A 
ENDROOT
TORSDOF 0
ENDMDL
