MODEL 1
REMARK minimizedAffinity -3.67901921
REMARK minimizedRMSD -1
REMARK  0 active torsions:
REMARK  status: ('A' for Active; 'I' for Inactive)
ROOT
ATOM      1  C1  DEN d   1       0.685  -0.407   0.773  0.00  0.00     0.130 A 
ATOM      2  C2  DEN d   1      -0.333  -0.482  -0.271  0.00  0.00    -0.031 A 
ATOM      3  C3  DEN d   1      -0.609   0.891  -0.739  0.00  0.00     0.027 A 
ATOM      4  C4  DEN d   1       0.440   3.114   0.043  0.00  0.00     0.027 A 
ATOM      5  C5  DEN d   1       1.341   3.684   0.915  0.00  0.00    -0.003 A 
ATOM      6  C6  DEN d   1       2.056   2.941   1.817  0.00  0.00     0.001 A 
ATOM      7  C7  DEN d   1       1.915   1.578   1.836  0.00  0.00     0.017 A 
ATOM      8  C8  DEN d   1       1.003   0.997   0.965  0.00  0.00    -0.094 A 
ATOM      9  C9  DEN d   1       0.299   1.764   0.053  0.00  0.00    -0.072 A 
ENDROOT
TORSDOF 0
ENDMDL
