MODEL 1
REMARK minimizedAffinity -4.23830223
REMARK minimizedRMSD -1
REMARK  0 active torsions:
REMARK  status: ('A' for Active; 'I' for Inactive)
ROOT
ATOM      1  C1  DEN d   1       0.110   0.051  -1.729  0.00  0.00     0.130 A 
ATOM      2  C2  DEN d   1       0.406   1.327  -1.084  0.00  0.00    -0.031 A 
ATOM      3  C3  DEN d   1      -0.023   1.236   0.326  0.00  0.00     0.027 A 
ATOM      4  C4  DEN d   1      -1.106  -0.749   1.568  0.00  0.00     0.027 A 
ATOM      5  C5  DEN d   1      -1.564  -2.041   1.435  0.00  0.00    -0.003 A 
ATOM      6  C6  DEN d   1      -1.527  -2.709   0.240  0.00  0.00     0.001 A 
ATOM      7  C7  DEN d   1      -0.981  -2.103  -0.860  0.00  0.00     0.017 A 
ATOM      8  C8  DEN d   1      -0.524  -0.798  -0.736  0.00  0.00    -0.094 A 
ATOM      9  C9  DEN d   1      -0.558  -0.143   0.484  0.00  0.00    -0.072 A 
ENDROOT
TORSDOF 0
ENDMDL
