MODEL 1
REMARK minimizedAffinity -1.58981073
REMARK minimizedRMSD -1
REMARK  0 active torsions:
REMARK  status: ('A' for Active; 'I' for Inactive)
ROOT
ATOM      1  C1  DEN d   1       1.038   0.994  -0.971  0.00  0.00     0.130 A 
ATOM      2  C2  DEN d   1       0.691   2.124  -0.114  0.00  0.00    -0.031 A 
ATOM      3  C3  DEN d   1      -0.214   1.633   0.945  0.00  0.00     0.027 A 
ATOM      4  C4  DEN d   1      -1.103  -0.756   1.340  0.00  0.00     0.027 A 
ATOM      5  C5  DEN d   1      -1.095  -2.049   0.867  0.00  0.00    -0.003 A 
ATOM      6  C6  DEN d   1      -0.408  -2.409  -0.262  0.00  0.00     0.001 A 
ATOM      7  C7  DEN d   1       0.336  -1.474  -0.931  0.00  0.00     0.017 A 
ATOM      8  C8  DEN d   1       0.326  -0.166  -0.465  0.00  0.00    -0.094 A 
ATOM      9  C9  DEN d   1      -0.364   0.176   0.686  0.00  0.00    -0.072 A 
ENDROOT
TORSDOF 0
ENDMDL
