MODEL 1
REMARK minimizedAffinity -3.14586139
REMARK minimizedRMSD -1
REMARK  0 active torsions:
REMARK  status: ('A' for Active; 'I' for Inactive)
ROOT
ATOM      1  C1  DEN d   1      -0.053   0.804  -1.784  0.00  0.00     0.130 A 
ATOM      2  C2  DEN d   1       0.546  -0.203  -2.655  0.00  0.00    -0.031 A 
ATOM      3  C3  DEN d   1       0.367  -1.523  -2.017  0.00  0.00     0.027 A 
ATOM      4  C4  DEN d   1      -0.776  -2.101   0.222  0.00  0.00     0.027 A 
ATOM      5  C5  DEN d   1      -1.424  -1.578   1.319  0.00  0.00    -0.003 A 
ATOM      6  C6  DEN d   1      -1.628  -0.233   1.474  0.00  0.00     0.001 A 
ATOM      7  C7  DEN d   1      -1.221   0.633   0.494  0.00  0.00     0.017 A 
ATOM      8  C8  DEN d   1      -0.560   0.114  -0.612  0.00  0.00    -0.094 A 
ATOM      9  C9  DEN d   1      -0.374  -1.250  -0.756  0.00  0.00    -0.072 A 
ENDROOT
TORSDOF 0
ENDMDL
