MODEL 1
REMARK minimizedAffinity -2.96068096
REMARK minimizedRMSD -1
REMARK  0 active torsions:
REMARK  status: ('A' for Active; 'I' for Inactive)
ROOT
ATOM      1  C1  DEN d   1       0.565   0.239  -2.126  0.00  0.00     0.130 A 
ATOM      2  C2  DEN d   1       0.591   1.459  -1.324  0.00  0.00    -0.031 A 
ATOM      3  C3  DEN d   1       0.090   1.128   0.025  0.00  0.00     0.027 A 
ATOM      4  C4  DEN d   1      -0.717  -1.142   0.946  0.00  0.00     0.027 A 
ATOM      5  C5  DEN d   1      -0.934  -2.466   0.635  0.00  0.00    -0.003 A 
ATOM      6  C6  DEN d   1      -0.701  -2.970  -0.617  0.00  0.00     0.001 A 
ATOM      7  C7  DEN d   1      -0.193  -2.154  -1.594  0.00  0.00     0.017 A 
ATOM      8  C8  DEN d   1       0.021  -0.816  -1.290  0.00  0.00    -0.094 A 
ATOM      9  C9  DEN d   1      -0.209  -0.328  -0.015  0.00  0.00    -0.072 A 
ENDROOT
TORSDOF 0
ENDMDL
