MODEL 1
REMARK minimizedAffinity -3.86148
REMARK minimizedRMSD -1
REMARK  0 active torsions:
REMARK  status: ('A' for Active; 'I' for Inactive)
ROOT
ATOM      1  C1  DEN d   1       0.460   0.063   1.187  0.00  0.00     0.130 A 
ATOM      2  C2  DEN d   1      -0.372  -0.050  -0.008  0.00  0.00    -0.031 A 
ATOM      3  C3  DEN d   1      -0.190   1.178  -0.808  0.00  0.00     0.027 A 
ATOM      4  C4  DEN d   1       1.294   3.230  -0.317  0.00  0.00     0.027 A 
ATOM      5  C5  DEN d   1       2.174   3.789   0.583  0.00  0.00    -0.003 A 
ATOM      6  C6  DEN d   1       2.515   3.166   1.754  0.00  0.00     0.001 A 
ATOM      7  C7  DEN d   1       2.008   1.925   2.035  0.00  0.00     0.017 A 
ATOM      8  C8  DEN d   1       1.114   1.358   1.136  0.00  0.00    -0.094 A 
ATOM      9  C9  DEN d   1       0.791   1.998  -0.048  0.00  0.00    -0.072 A 
ENDROOT
TORSDOF 0
ENDMDL
