MODEL 1
REMARK minimizedAffinity -4.32946348
REMARK minimizedRMSD -1
REMARK  0 active torsions:
REMARK  status: ('A' for Active; 'I' for Inactive)
ROOT
ATOM      1  C1  DEN d   1       0.404  -1.256  -2.280  0.00  0.00     0.130 A 
ATOM      2  C2  DEN d   1       0.186  -2.630  -2.724  0.00  0.00    -0.031 A 
ATOM      3  C3  DEN d   1      -0.446  -3.374  -1.616  0.00  0.00     0.027 A 
ATOM      4  C4  DEN d   1      -1.109  -2.534   0.731  0.00  0.00     0.027 A 
ATOM      5  C5  DEN d   1      -1.110  -1.445   1.575  0.00  0.00    -0.003 A 
ATOM      6  C6  DEN d   1      -0.581  -0.236   1.208  0.00  0.00     0.001 A 
ATOM      7  C7  DEN d   1      -0.068  -0.074  -0.052  0.00  0.00     0.017 A 
ATOM      8  C8  DEN d   1      -0.056  -1.170  -0.906  0.00  0.00    -0.094 A 
ATOM      9  C9  DEN d   1      -0.607  -2.380  -0.520  0.00  0.00    -0.072 A 
ENDROOT
TORSDOF 0
ENDMDL
