MODEL 1
REMARK minimizedAffinity -2.70893168
REMARK minimizedRMSD -1
REMARK  0 active torsions:
REMARK  status: ('A' for Active; 'I' for Inactive)
ROOT
ATOM      1  C1  DEN d   1       0.136  -1.914  -1.284  0.00  0.00     0.130 A 
ATOM      2  C2  DEN d   1      -0.340  -2.976  -0.401  0.00  0.00    -0.031 A 
ATOM      3  C3  DEN d   1      -0.867  -2.347   0.826  0.00  0.00     0.027 A 
ATOM      4  C4  DEN d   1      -0.998   0.154   1.441  0.00  0.00     0.027 A 
ATOM      5  C5  DEN d   1      -0.707   1.432   1.015  0.00  0.00    -0.003 A 
ATOM      6  C6  DEN d   1      -0.090   1.679  -0.182  0.00  0.00     0.001 A 
ATOM      7  C7  DEN d   1       0.217   0.637  -1.016  0.00  0.00     0.017 A 
ATOM      8  C8  DEN d   1      -0.066  -0.654  -0.590  0.00  0.00    -0.094 A 
ATOM      9  C9  DEN d   1      -0.702  -0.883   0.618  0.00  0.00    -0.072 A 
ENDROOT
TORSDOF 0
ENDMDL
