MODEL 1
REMARK minimizedAffinity -1.89053416
REMARK minimizedRMSD -1
REMARK  0 active torsions:
REMARK  status: ('A' for Active; 'I' for Inactive)
ROOT
ATOM      1  C1  DEN d   1      -0.611   0.965   0.668  0.00  0.00     0.130 A 
ATOM      2  C2  DEN d   1       0.143  -0.149   0.099  0.00  0.00    -0.031 A 
ATOM      3  C3  DEN d   1       1.529   0.307  -0.128  0.00  0.00     0.027 A 
ATOM      4  C4  DEN d   1       2.577   2.616   0.348  0.00  0.00     0.027 A 
ATOM      5  C5  DEN d   1       2.327   3.886   0.818  0.00  0.00    -0.003 A 
ATOM      6  C6  DEN d   1       1.084   4.279   1.237  0.00  0.00     0.001 A 
ATOM      7  C7  DEN d   1       0.051   3.378   1.235  0.00  0.00     0.017 A 
ATOM      8  C8  DEN d   1       0.293   2.098   0.755  0.00  0.00    -0.094 A 
ATOM      9  C9  DEN d   1       1.560   1.717   0.348  0.00  0.00    -0.072 A 
ENDROOT
TORSDOF 0
ENDMDL
