MODEL 1
REMARK minimizedAffinity 1.00835729
REMARK minimizedRMSD -1
REMARK  0 active torsions:
REMARK  status: ('A' for Active; 'I' for Inactive)
ROOT
ATOM      1  C1  DEN d   1      -0.129  -2.153  -1.168  0.00  0.00     0.130 A 
ATOM      2  C2  DEN d   1      -0.717  -3.084  -0.209  0.00  0.00    -0.031 A 
ATOM      3  C3  DEN d   1      -1.085  -2.321   1.001  0.00  0.00     0.027 A 
ATOM      4  C4  DEN d   1      -0.806   0.198   1.478  0.00  0.00     0.027 A 
ATOM      5  C5  DEN d   1      -0.347   1.393   0.969  0.00  0.00    -0.003 A 
ATOM      6  C6  DEN d   1       0.243   1.483  -0.264  0.00  0.00     0.001 A 
ATOM      7  C7  DEN d   1       0.349   0.365  -1.049  0.00  0.00     0.017 A 
ATOM      8  C8  DEN d   1      -0.105  -0.844  -0.540  0.00  0.00    -0.094 A 
ATOM      9  C9  DEN d   1      -0.710  -0.912   0.704  0.00  0.00    -0.072 A 
ENDROOT
TORSDOF 0
ENDMDL
