MODEL 1
REMARK minimizedAffinity -0.39420855
REMARK minimizedRMSD -1
REMARK  0 active torsions:
REMARK  status: ('A' for Active; 'I' for Inactive)
ROOT
ATOM      1  C1  DEN d   1      -1.425  -1.333   1.704  0.00  0.00     0.130 A 
ATOM      2  C2  DEN d   1      -1.404  -2.687   1.157  0.00  0.00    -0.031 A 
ATOM      3  C3  DEN d   1      -0.687  -2.648  -0.133  0.00  0.00     0.027 A 
ATOM      4  C4  DEN d   1       0.391  -0.633  -1.330  0.00  0.00     0.027 A 
ATOM      5  C5  DEN d   1       0.619   0.724  -1.259  0.00  0.00    -0.003 A 
ATOM      6  C6  DEN d   1       0.156   1.489  -0.222  0.00  0.00     0.001 A 
ATOM      7  C7  DEN d   1      -0.520   0.895   0.811  0.00  0.00     0.017 A 
ATOM      8  C8  DEN d   1      -0.761  -0.471   0.743  0.00  0.00    -0.094 A 
ATOM      9  C9  DEN d   1      -0.274  -1.229  -0.308  0.00  0.00    -0.072 A 
ENDROOT
TORSDOF 0
ENDMDL
