MODEL 1
REMARK minimizedAffinity -3.46001315
REMARK minimizedRMSD -1
REMARK  0 active torsions:
REMARK  status: ('A' for Active; 'I' for Inactive)
ROOT
ATOM      1  C1  DEN d   1       0.730  -2.118  -2.578  0.00  0.00     0.130 A 
ATOM      2  C2  DEN d   1       1.061  -1.181  -3.648  0.00  0.00    -0.031 A 
ATOM      3  C3  DEN d   1       0.789   0.185  -3.160  0.00  0.00     0.027 A 
ATOM      4  C4  DEN d   1      -0.102   0.939  -0.860  0.00  0.00     0.027 A 
ATOM      5  C5  DEN d   1      -0.538   0.504   0.373  0.00  0.00    -0.003 A 
ATOM      6  C6  DEN d   1      -0.613  -0.825   0.693  0.00  0.00     0.001 A 
ATOM      7  C7  DEN d   1      -0.204  -1.767  -0.214  0.00  0.00     0.017 A 
ATOM      8  C8  DEN d   1       0.230  -1.337  -1.461  0.00  0.00    -0.094 A 
ATOM      9  C9  DEN d   1       0.310   0.013  -1.762  0.00  0.00    -0.072 A 
ENDROOT
TORSDOF 0
ENDMDL
