MODEL 1
REMARK minimizedAffinity -5.42633533
REMARK minimizedRMSD -1
REMARK  0 active torsions:
REMARK  status: ('A' for Active; 'I' for Inactive)
ROOT
ATOM      1  C1  DEN d   1       0.084   0.021  -1.194  0.00  0.00     0.130 A 
ATOM      2  C2  DEN d   1       0.185   0.645   0.123  0.00  0.00    -0.031 A 
ATOM      3  C3  DEN d   1       0.082  -0.420   1.141  0.00  0.00     0.027 A 
ATOM      4  C4  DEN d   1      -0.217  -2.960   0.808  0.00  0.00     0.027 A 
ATOM      5  C5  DEN d   1      -0.365  -3.960  -0.128  0.00  0.00    -0.003 A 
ATOM      6  C6  DEN d   1      -0.408  -3.701  -1.472  0.00  0.00     0.001 A 
ATOM      7  C7  DEN d   1      -0.255  -2.416  -1.921  0.00  0.00     0.017 A 
ATOM      8  C8  DEN d   1      -0.113  -1.402  -0.983  0.00  0.00    -0.094 A 
ATOM      9  C9  DEN d   1      -0.060  -1.685   0.371  0.00  0.00    -0.072 A 
ENDROOT
TORSDOF 0
ENDMDL
