MODEL 1
REMARK minimizedAffinity 0.410991699
REMARK minimizedRMSD -1
REMARK  1 active torsions:
REMARK  status: ('A' for Active; 'I' for Inactive)
REMARK    1  A    between atoms: C1_2  and  C2_3 
ROOT
ATOM      1  C2  UNL d   1       5.052   1.620  -1.437  0.00  0.00    -0.077 A 
ATOM      2  C3  UNL d   1       5.339   1.875  -0.089  0.00  0.00     0.002 A 
ATOM      3  C4  UNL d   1       4.499   1.389   0.916  0.00  0.00     0.002 A 
ATOM      4  C5  UNL d   1       3.371   0.643   0.583  0.00  0.00    -0.004 A 
ATOM      5  C6  UNL d   1       3.076   0.386  -0.755  0.00  0.00     0.002 A 
ATOM      6  C7  UNL d   1       3.913   0.871  -1.761  0.00  0.00     0.002 A 
ENDROOT
BRANCH   1   7
ATOM      7  C1  UNL d   1       5.983   2.101  -2.520  0.00  0.00     0.055 C 
ATOM      8  C   UNL d   1       6.000   3.620  -2.601  0.00  0.00     0.019 C 
ENDBRANCH   1   7
TORSDOF 1
ENDMDL
