MODEL 1
REMARK minimizedAffinity 0.63218677
REMARK minimizedRMSD -1
REMARK  1 active torsions:
REMARK  status: ('A' for Active; 'I' for Inactive)
REMARK    1  A    between atoms: C1_2  and  C2_3 
ROOT
ATOM      1  C2  UNL d   1      -1.529  -2.903  -3.468  0.00  0.00    -0.077 A 
ATOM      2  C3  UNL d   1      -2.193  -1.821  -4.061  0.00  0.00     0.002 A 
ATOM      3  C4  UNL d   1      -3.237  -2.040  -4.962  0.00  0.00     0.002 A 
ATOM      4  C5  UNL d   1      -3.628  -3.340  -5.275  0.00  0.00    -0.004 A 
ATOM      5  C6  UNL d   1      -2.972  -4.424  -4.691  0.00  0.00     0.002 A 
ATOM      6  C7  UNL d   1      -1.928  -4.206  -3.791  0.00  0.00     0.002 A 
ENDROOT
BRANCH   1   7
ATOM      7  C1  UNL d   1      -0.436  -2.668  -2.458  0.00  0.00     0.055 C 
ATOM      8  C   UNL d   1      -0.849  -1.628  -1.427  0.00  0.00     0.019 C 
ENDBRANCH   1   7
TORSDOF 1
ENDMDL
