MODEL 1
REMARK minimizedAffinity 10.0358715
REMARK minimizedRMSD -1
REMARK  1 active torsions:
REMARK  status: ('A' for Active; 'I' for Inactive)
REMARK    1  A    between atoms: C1_2  and  C2_3 
ROOT
ATOM      1  C2  UNL d   1       4.221   1.439   0.200  0.00  0.00    -0.077 A 
ATOM      2  C3  UNL d   1       3.684   0.809   1.332  0.00  0.00     0.002 A 
ATOM      3  C4  UNL d   1       2.565  -0.018   1.215  0.00  0.00     0.002 A 
ATOM      4  C5  UNL d   1       1.975  -0.224  -0.030  0.00  0.00    -0.004 A 
ATOM      5  C6  UNL d   1       2.501   0.400  -1.161  0.00  0.00     0.002 A 
ATOM      6  C7  UNL d   1       3.619   1.227  -1.046  0.00  0.00     0.002 A 
ENDROOT
BRANCH   1   7
ATOM      7  C1  UNL d   1       5.458   2.291   0.316  0.00  0.00     0.055 C 
ATOM      8  C   UNL d   1       5.995   2.675  -1.055  0.00  0.00     0.019 C 
ENDBRANCH   1   7
TORSDOF 1
ENDMDL
