MODEL 1
REMARK minimizedAffinity 5.1669178
REMARK minimizedRMSD -1
REMARK  1 active torsions:
REMARK  status: ('A' for Active; 'I' for Inactive)
REMARK    1  A    between atoms: C1_2  and  C2_3 
ROOT
ATOM      1  C2  UNL d   1      -5.251  -0.025   0.223  0.00  0.00    -0.077 A 
ATOM      2  C3  UNL d   1      -5.935   0.846   1.084  0.00  0.00     0.002 A 
ATOM      3  C4  UNL d   1      -5.259   1.895   1.711  0.00  0.00     0.002 A 
ATOM      4  C5  UNL d   1      -3.899   2.085   1.481  0.00  0.00    -0.004 A 
ATOM      5  C6  UNL d   1      -3.209   1.223   0.629  0.00  0.00     0.002 A 
ATOM      6  C7  UNL d   1      -3.882   0.174   0.002  0.00  0.00     0.002 A 
ENDROOT
BRANCH   1   7
ATOM      7  C1  UNL d   1      -5.988  -1.126  -0.492  0.00  0.00     0.055 C 
ATOM      8  C   UNL d   1      -6.000  -0.898  -1.997  0.00  0.00     0.019 C 
ENDBRANCH   1   7
TORSDOF 1
ENDMDL
