MODEL 1
REMARK minimizedAffinity 5.13724422
REMARK minimizedRMSD -1
REMARK  1 active torsions:
REMARK  status: ('A' for Active; 'I' for Inactive)
REMARK    1  A    between atoms: C1_2  and  C2_3 
ROOT
ATOM      1  C2  UNL d   1       3.813   1.260  -0.169  0.00  0.00    -0.077 A 
ATOM      2  C3  UNL d   1       4.732   1.860   0.704  0.00  0.00     0.002 A 
ATOM      3  C4  UNL d   1       5.821   2.574   0.201  0.00  0.00     0.002 A 
ATOM      4  C5  UNL d   1       6.000   2.699  -1.175  0.00  0.00    -0.004 A 
ATOM      5  C6  UNL d   1       5.093   2.105  -2.051  0.00  0.00     0.002 A 
ATOM      6  C7  UNL d   1       4.004   1.389  -1.551  0.00  0.00     0.002 A 
ENDROOT
BRANCH   1   7
ATOM      7  C1  UNL d   1       2.611   0.532   0.371  0.00  0.00     0.055 C 
ATOM      8  C   UNL d   1       2.956  -0.250   1.630  0.00  0.00     0.019 C 
ENDBRANCH   1   7
TORSDOF 1
ENDMDL
