MODEL 1
REMARK minimizedAffinity 7.20088291
REMARK minimizedRMSD -1
REMARK  1 active torsions:
REMARK  status: ('A' for Active; 'I' for Inactive)
REMARK    1  A    between atoms: C1_2  and  C2_3 
ROOT
ATOM      1  C2  UNL d   1       1.362   3.167   3.448  0.00  0.00    -0.077 A 
ATOM      2  C3  UNL d   1       0.346   3.975   2.918  0.00  0.00     0.002 A 
ATOM      3  C4  UNL d   1       0.268   4.200   1.542  0.00  0.00     0.002 A 
ATOM      4  C5  UNL d   1       1.199   3.618   0.685  0.00  0.00    -0.004 A 
ATOM      5  C6  UNL d   1       2.214   2.814   1.203  0.00  0.00     0.002 A 
ATOM      6  C7  UNL d   1       2.295   2.589   2.578  0.00  0.00     0.002 A 
ENDROOT
BRANCH   1   7
ATOM      7  C1  UNL d   1       1.418   2.883   4.926  0.00  0.00     0.055 C 
ATOM      8  C   UNL d   1       1.758   1.424   5.197  0.00  0.00     0.019 C 
ENDBRANCH   1   7
TORSDOF 1
ENDMDL
