MODEL 1
REMARK minimizedAffinity 4.33043289
REMARK minimizedRMSD -1
REMARK  0 active torsions:
REMARK  status: ('A' for Active; 'I' for Inactive)
ROOT
ATOM      1  C   UNL d   1      -2.040   2.027  -1.521  0.00  0.00     0.124 A 
ATOM      2  C1  UNL d   1      -1.491   1.477  -2.672  0.00  0.00     0.062 A 
ATOM      3  C2  UNL d   1      -0.373   0.652  -2.589  0.00  0.00     0.162 A 
ATOM      4  C3  UNL d   1       0.205   0.372  -1.351  0.00  0.00    -0.034 A 
ATOM      5  C4  UNL d   1      -0.352   0.929  -0.198  0.00  0.00     0.162 A 
ATOM      6  C5  UNL d   1      -1.470   1.752  -0.286  0.00  0.00     0.062 A 
ATOM      7  F   UNL d   1      -1.998   2.283   0.826  0.00  0.00    -0.097 F 
ATOM      8  F1  UNL d   1       0.178   0.680   1.008  0.00  0.00    -0.096 F 
ATOM      9  I   UNL d   1       1.877  -0.861  -1.223  0.00  0.00    -0.060 I 
ATOM     10  F2  UNL d   1       0.136   0.135  -3.717  0.00  0.00    -0.096 F 
ATOM     11  F3  UNL d   1      -2.040   1.741  -3.867  0.00  0.00    -0.097 F 
ATOM     12  F4  UNL d   1      -3.115   2.820  -1.604  0.00  0.00    -0.092 F 
ENDROOT
TORSDOF 0
ENDMDL
