MODEL 1
REMARK minimizedAffinity -1.26471889
REMARK minimizedRMSD -1
REMARK  0 active torsions:
REMARK  status: ('A' for Active; 'I' for Inactive)
ROOT
ATOM      1  C   UNL d   1       0.532  -1.682   2.147  0.00  0.00     0.124 A 
ATOM      2  C1  UNL d   1       1.133  -1.644   0.897  0.00  0.00     0.062 A 
ATOM      3  C2  UNL d   1       0.748  -0.685  -0.036  0.00  0.00     0.162 A 
ATOM      4  C3  UNL d   1      -0.243   0.244   0.279  0.00  0.00    -0.034 A 
ATOM      5  C4  UNL d   1      -0.844   0.199   1.538  0.00  0.00     0.162 A 
ATOM      6  C5  UNL d   1      -0.456  -0.761   2.467  0.00  0.00     0.062 A 
ATOM      7  F   UNL d   1      -1.037  -0.797   3.674  0.00  0.00    -0.097 F 
ATOM      8  F1  UNL d   1      -1.800   1.077   1.873  0.00  0.00    -0.096 F 
ATOM      9  I   UNL d   1      -0.822   1.679  -1.113  0.00  0.00    -0.060 I 
ATOM     10  F2  UNL d   1       1.346  -0.672  -1.236  0.00  0.00    -0.096 F 
ATOM     11  F3  UNL d   1       2.087  -2.533   0.586  0.00  0.00    -0.097 F 
ATOM     12  F4  UNL d   1       0.904  -2.606   3.043  0.00  0.00    -0.092 F 
ENDROOT
TORSDOF 0
ENDMDL
