MODEL 1
REMARK minimizedAffinity 1.40770602
REMARK minimizedRMSD -1
REMARK  0 active torsions:
REMARK  status: ('A' for Active; 'I' for Inactive)
ROOT
ATOM      1  C   UNL d   1       0.509  -1.325   1.980  0.00  0.00     0.124 A 
ATOM      2  C1  UNL d   1       1.264  -1.105   0.836  0.00  0.00     0.062 A 
ATOM      3  C2  UNL d   1       0.857  -0.159  -0.100  0.00  0.00     0.162 A 
ATOM      4  C3  UNL d   1      -0.311   0.576   0.105  0.00  0.00    -0.034 A 
ATOM      5  C4  UNL d   1      -1.065   0.349   1.257  0.00  0.00     0.162 A 
ATOM      6  C5  UNL d   1      -0.654  -0.598   2.190  0.00  0.00     0.062 A 
ATOM      7  F   UNL d   1      -1.384  -0.809   3.294  0.00  0.00    -0.097 F 
ATOM      8  F1  UNL d   1      -2.193   1.038   1.485  0.00  0.00    -0.096 F 
ATOM      9  I   UNL d   1      -0.923   1.993  -1.292  0.00  0.00    -0.060 I 
ATOM     10  F2  UNL d   1       1.606   0.033  -1.196  0.00  0.00    -0.096 F 
ATOM     11  F3  UNL d   1       2.388  -1.807   0.631  0.00  0.00    -0.097 F 
ATOM     12  F4  UNL d   1       0.903  -2.237   2.878  0.00  0.00    -0.092 F 
ENDROOT
TORSDOF 0
ENDMDL
