MODEL 1
REMARK minimizedAffinity -4.5605545
REMARK minimizedRMSD -1
REMARK  0 active torsions:
REMARK  status: ('A' for Active; 'I' for Inactive)
ROOT
ATOM      1  C   UNL d   1       0.780  -1.613   1.769  0.00  0.00     0.124 A 
ATOM      2  C1  UNL d   1      -0.329  -0.843   2.089  0.00  0.00     0.062 A 
ATOM      3  C2  UNL d   1      -0.809   0.102   1.188  0.00  0.00     0.162 A 
ATOM      4  C3  UNL d   1      -0.181   0.282  -0.045  0.00  0.00    -0.034 A 
ATOM      5  C4  UNL d   1       0.935  -0.495  -0.359  0.00  0.00     0.162 A 
ATOM      6  C5  UNL d   1       1.411  -1.439   0.545  0.00  0.00     0.062 A 
ATOM      7  F   UNL d   1       2.483  -2.182   0.234  0.00  0.00    -0.097 F 
ATOM      8  F1  UNL d   1       1.563  -0.348  -1.535  0.00  0.00    -0.096 F 
ATOM      9  I   UNL d   1      -0.896   1.695  -1.396  0.00  0.00    -0.060 I 
ATOM     10  F2  UNL d   1      -1.883   0.832   1.524  0.00  0.00    -0.096 F 
ATOM     11  F3  UNL d   1      -0.940  -1.009   3.271  0.00  0.00    -0.097 F 
ATOM     12  F4  UNL d   1       1.241  -2.521   2.639  0.00  0.00    -0.092 F 
ENDROOT
TORSDOF 0
ENDMDL
