MODEL 1
REMARK minimizedAffinity -3.44053721
REMARK minimizedRMSD -1
REMARK  0 active torsions:
REMARK  status: ('A' for Active; 'I' for Inactive)
ROOT
ATOM      1  C   UNL d   1       0.485  -1.511   1.896  0.00  0.00     0.124 A 
ATOM      2  C1  UNL d   1      -0.586  -0.700   2.245  0.00  0.00     0.062 A 
ATOM      3  C2  UNL d   1      -1.051   0.266   1.358  0.00  0.00     0.162 A 
ATOM      4  C3  UNL d   1      -0.445   0.426   0.111  0.00  0.00    -0.034 A 
ATOM      5  C4  UNL d   1       0.632  -0.393  -0.232  0.00  0.00     0.162 A 
ATOM      6  C5  UNL d   1       1.093  -1.357   0.659  0.00  0.00     0.062 A 
ATOM      7  F   UNL d   1       2.128  -2.140   0.320  0.00  0.00    -0.097 F 
ATOM      8  F1  UNL d   1       1.237  -0.266  -1.422  0.00  0.00    -0.096 F 
ATOM      9  I   UNL d   1      -1.137   1.869  -1.219  0.00  0.00    -0.060 I 
ATOM     10  F2  UNL d   1      -2.087   1.036   1.721  0.00  0.00    -0.096 F 
ATOM     11  F3  UNL d   1      -1.174  -0.847   3.441  0.00  0.00    -0.097 F 
ATOM     12  F4  UNL d   1       0.931  -2.439   2.753  0.00  0.00    -0.092 F 
ENDROOT
TORSDOF 0
ENDMDL
