MODEL 1
REMARK minimizedAffinity 0.583350897
REMARK minimizedRMSD -1
REMARK  0 active torsions:
REMARK  status: ('A' for Active; 'I' for Inactive)
ROOT
ATOM      1  C   UNL d   1      -2.155   1.682  -2.933  0.00  0.00     0.124 A 
ATOM      2  C1  UNL d   1      -1.626   2.434  -1.893  0.00  0.00     0.062 A 
ATOM      3  C2  UNL d   1      -0.998   1.803  -0.823  0.00  0.00     0.162 A 
ATOM      4  C3  UNL d   1      -0.895   0.413  -0.787  0.00  0.00    -0.034 A 
ATOM      5  C4  UNL d   1      -1.431  -0.337  -1.836  0.00  0.00     0.162 A 
ATOM      6  C5  UNL d   1      -2.057   0.298  -2.903  0.00  0.00     0.062 A 
ATOM      7  F   UNL d   1      -2.569  -0.430  -3.907  0.00  0.00    -0.097 F 
ATOM      8  F1  UNL d   1      -1.349  -1.676  -1.833  0.00  0.00    -0.096 F 
ATOM      9  I   UNL d   1       0.043  -0.534   0.811  0.00  0.00    -0.060 I 
ATOM     10  F2  UNL d   1      -0.495   2.555   0.168  0.00  0.00    -0.096 F 
ATOM     11  F3  UNL d   1      -1.720   3.771  -1.919  0.00  0.00    -0.097 F 
ATOM     12  F4  UNL d   1      -2.760   2.291  -3.961  0.00  0.00    -0.092 F 
ENDROOT
TORSDOF 0
ENDMDL
