MODEL 1
REMARK minimizedAffinity 0.165729493
REMARK minimizedRMSD -1
REMARK  0 active torsions:
REMARK  status: ('A' for Active; 'I' for Inactive)
ROOT
ATOM      1  C   UNL d   1       0.514  -1.141   1.745  0.00  0.00     0.124 A 
ATOM      2  C1  UNL d   1       1.250  -0.994   0.578  0.00  0.00     0.062 A 
ATOM      3  C2  UNL d   1       0.835  -0.099  -0.404  0.00  0.00     0.162 A 
ATOM      4  C3  UNL d   1      -0.323   0.657  -0.222  0.00  0.00    -0.034 A 
ATOM      5  C4  UNL d   1      -1.058   0.504   0.954  0.00  0.00     0.162 A 
ATOM      6  C5  UNL d   1      -0.639  -0.392   1.932  0.00  0.00     0.062 A 
ATOM      7  F   UNL d   1      -1.352  -0.533   3.060  0.00  0.00    -0.097 F 
ATOM      8  F1  UNL d   1      -2.176   1.215   1.161  0.00  0.00    -0.096 F 
ATOM      9  I   UNL d   1      -0.947   1.997  -1.688  0.00  0.00    -0.060 I 
ATOM     10  F2  UNL d   1       1.566   0.022  -1.522  0.00  0.00    -0.096 F 
ATOM     11  F3  UNL d   1       2.365  -1.717   0.394  0.00  0.00    -0.097 F 
ATOM     12  F4  UNL d   1       0.915  -2.003   2.688  0.00  0.00    -0.092 F 
ENDROOT
TORSDOF 0
ENDMDL
