MODEL 1
REMARK minimizedAffinity 3.15523911
REMARK minimizedRMSD -1
REMARK  0 active torsions:
REMARK  status: ('A' for Active; 'I' for Inactive)
ROOT
ATOM      1  C   UNL d   1       0.990  -1.358   1.435  0.00  0.00     0.124 A 
ATOM      2  C1  UNL d   1      -0.323  -0.913   1.501  0.00  0.00     0.062 A 
ATOM      3  C2  UNL d   1      -0.807  -0.018   0.552  0.00  0.00     0.162 A 
ATOM      4  C3  UNL d   1       0.022   0.439  -0.472  0.00  0.00    -0.034 A 
ATOM      5  C4  UNL d   1       1.342  -0.012  -0.532  0.00  0.00     0.162 A 
ATOM      6  C5  UNL d   1       1.821  -0.907   0.419  0.00  0.00     0.062 A 
ATOM      7  F   UNL d   1       3.090  -1.336   0.353  0.00  0.00    -0.097 F 
ATOM      8  F1  UNL d   1       2.166   0.407  -1.504  0.00  0.00    -0.096 F 
ATOM      9  I   UNL d   1      -0.698   1.778  -1.893  0.00  0.00    -0.060 I 
ATOM     10  F2  UNL d   1      -2.080   0.395   0.641  0.00  0.00    -0.096 F 
ATOM     11  F3  UNL d   1      -1.127  -1.347   2.483  0.00  0.00    -0.097 F 
ATOM     12  F4  UNL d   1       1.454  -2.219   2.350  0.00  0.00    -0.092 F 
ENDROOT
TORSDOF 0
ENDMDL
