MODEL 1
REMARK minimizedAffinity 9.83084297
REMARK minimizedRMSD -1
REMARK  0 active torsions:
REMARK  status: ('A' for Active; 'I' for Inactive)
ROOT
ATOM      1  C   UNL d   1      -0.167  -1.779   1.763  0.00  0.00     0.124 A 
ATOM      2  C1  UNL d   1      -0.520  -0.444   1.623  0.00  0.00     0.062 A 
ATOM      3  C2  UNL d   1       0.333   0.441   0.971  0.00  0.00     0.162 A 
ATOM      4  C3  UNL d   1       1.549  -0.006   0.453  0.00  0.00    -0.034 A 
ATOM      5  C4  UNL d   1       1.897  -1.350   0.599  0.00  0.00     0.162 A 
ATOM      6  C5  UNL d   1       1.041  -2.230   1.251  0.00  0.00     0.062 A 
ATOM      7  F   UNL d   1       1.384  -3.520   1.386  0.00  0.00    -0.097 F 
ATOM      8  F1  UNL d   1       3.059  -1.813   0.112  0.00  0.00    -0.096 F 
ATOM      9  I   UNL d   1       2.828   1.314  -0.523  0.00  0.00    -0.060 I 
ATOM     10  F2  UNL d   1      -0.034   1.726   0.849  0.00  0.00    -0.096 F 
ATOM     11  F3  UNL d   1      -1.687  -0.005   2.117  0.00  0.00    -0.097 F 
ATOM     12  F4  UNL d   1      -0.990  -2.628   2.392  0.00  0.00    -0.092 F 
ENDROOT
TORSDOF 0
ENDMDL
