MODEL 1
REMARK minimizedAffinity 3.38325858
REMARK minimizedRMSD -1
REMARK  0 active torsions:
REMARK  status: ('A' for Active; 'I' for Inactive)
ROOT
ATOM      1  C   UNL d   1       1.728  -1.214   1.875  0.00  0.00     0.124 A 
ATOM      2  C1  UNL d   1       0.450  -0.784   2.203  0.00  0.00     0.062 A 
ATOM      3  C2  UNL d   1      -0.266   0.020   1.321  0.00  0.00     0.162 A 
ATOM      4  C3  UNL d   1       0.294   0.398   0.101  0.00  0.00    -0.034 A 
ATOM      5  C4  UNL d   1       1.580  -0.037  -0.221  0.00  0.00     0.162 A 
ATOM      6  C5  UNL d   1       2.292  -0.840   0.664  0.00  0.00     0.062 A 
ATOM      7  F   UNL d   1       3.527  -1.255   0.345  0.00  0.00    -0.097 F 
ATOM      8  F1  UNL d   1       2.149   0.308  -1.386  0.00  0.00    -0.096 F 
ATOM      9  I   UNL d   1      -0.774   1.600  -1.221  0.00  0.00    -0.060 I 
ATOM     10  F2  UNL d   1      -1.499   0.421   1.664  0.00  0.00    -0.096 F 
ATOM     11  F3  UNL d   1      -0.097  -1.143   3.374  0.00  0.00    -0.097 F 
ATOM     12  F4  UNL d   1       2.415  -1.986   2.726  0.00  0.00    -0.092 F 
ENDROOT
TORSDOF 0
ENDMDL
