MODEL 1
REMARK minimizedAffinity 1.31610334
REMARK minimizedRMSD -1
REMARK  0 active torsions:
REMARK  status: ('A' for Active; 'I' for Inactive)
ROOT
ATOM      1  C   UNL d   1      -2.140   1.693  -1.350  0.00  0.00     0.124 A 
ATOM      2  C1  UNL d   1      -1.271   1.244  -2.334  0.00  0.00     0.062 A 
ATOM      3  C2  UNL d   1      -0.182   0.445  -1.995  0.00  0.00     0.162 A 
ATOM      4  C3  UNL d   1       0.042   0.089  -0.665  0.00  0.00    -0.034 A 
ATOM      5  C4  UNL d   1      -0.836   0.545   0.319  0.00  0.00     0.162 A 
ATOM      6  C5  UNL d   1      -1.922   1.343  -0.024  0.00  0.00     0.062 A 
ATOM      7  F   UNL d   1      -2.761   1.776   0.928  0.00  0.00    -0.097 F 
ATOM      8  F1  UNL d   1      -0.649   0.222   1.608  0.00  0.00    -0.096 F 
ATOM      9  I   UNL d   1       1.669  -1.105  -0.154  0.00  0.00    -0.060 I 
ATOM     10  F2  UNL d   1       0.641   0.025  -2.967  0.00  0.00    -0.096 F 
ATOM     11  F3  UNL d   1      -1.479   1.581  -3.615  0.00  0.00    -0.097 F 
ATOM     12  F4  UNL d   1      -3.186   2.462  -1.678  0.00  0.00    -0.092 F 
ENDROOT
TORSDOF 0
ENDMDL
