MODEL 1
REMARK minimizedAffinity -3.57054162
REMARK minimizedRMSD -1
REMARK  0 active torsions:
REMARK  status: ('A' for Active; 'I' for Inactive)
ROOT
ATOM      1  C   UNL d   1       0.891  -1.798   2.312  0.00  0.00     0.124 A 
ATOM      2  C1  UNL d   1       1.442  -1.587   1.055  0.00  0.00     0.062 A 
ATOM      3  C2  UNL d   1       0.848  -0.690   0.172  0.00  0.00     0.162 A 
ATOM      4  C3  UNL d   1      -0.303   0.006   0.543  0.00  0.00    -0.034 A 
ATOM      5  C4  UNL d   1      -0.851  -0.212   1.808  0.00  0.00     0.162 A 
ATOM      6  C5  UNL d   1      -0.255  -1.110   2.687  0.00  0.00     0.062 A 
ATOM      7  F   UNL d   1      -0.789  -1.312   3.900  0.00  0.00    -0.097 F 
ATOM      8  F1  UNL d   1      -1.957   0.440   2.197  0.00  0.00    -0.096 F 
ATOM      9  I   UNL d   1      -1.192   1.349  -0.774  0.00  0.00    -0.060 I 
ATOM     10  F2  UNL d   1       1.402  -0.506  -1.035  0.00  0.00    -0.096 F 
ATOM     11  F3  UNL d   1       2.548  -2.251   0.690  0.00  0.00    -0.097 F 
ATOM     12  F4  UNL d   1       1.463  -2.663   3.159  0.00  0.00    -0.092 F 
ENDROOT
TORSDOF 0
ENDMDL
