MODEL 1
REMARK minimizedAffinity 2.47800851
REMARK minimizedRMSD -1
REMARK  0 active torsions:
REMARK  status: ('A' for Active; 'I' for Inactive)
ROOT
ATOM      1  C   UNL d   1      -2.001   2.781  -3.366  0.00  0.00     0.124 A 
ATOM      2  C1  UNL d   1      -2.911   1.741  -3.235  0.00  0.00     0.062 A 
ATOM      3  C2  UNL d   1      -2.973   1.011  -2.052  0.00  0.00     0.162 A 
ATOM      4  C3  UNL d   1      -2.124   1.318  -0.989  0.00  0.00    -0.034 A 
ATOM      5  C4  UNL d   1      -1.211   2.365  -1.129  0.00  0.00     0.162 A 
ATOM      6  C5  UNL d   1      -1.152   3.092  -2.313  0.00  0.00     0.062 A 
ATOM      7  F   UNL d   1      -0.273   4.097  -2.438  0.00  0.00    -0.097 F 
ATOM      8  F1  UNL d   1      -0.379   2.688  -0.127  0.00  0.00    -0.096 F 
ATOM      9  I   UNL d   1      -2.214   0.228   0.781  0.00  0.00    -0.060 I 
ATOM     10  F2  UNL d   1      -3.862   0.011  -1.953  0.00  0.00    -0.096 F 
ATOM     11  F3  UNL d   1      -3.731   1.438  -4.251  0.00  0.00    -0.097 F 
ATOM     12  F4  UNL d   1      -1.942   3.482  -4.506  0.00  0.00    -0.092 F 
ENDROOT
TORSDOF 0
ENDMDL
