MODEL 1
REMARK minimizedAffinity -1.01057518
REMARK minimizedRMSD -1
REMARK  0 active torsions:
REMARK  status: ('A' for Active; 'I' for Inactive)
ROOT
ATOM      1  C   UNL d   1      -0.447  -1.532   2.715  0.00  0.00     0.124 A 
ATOM      2  C1  UNL d   1      -1.067  -0.920   1.635  0.00  0.00     0.062 A 
ATOM      3  C2  UNL d   1      -0.316  -0.510   0.537  0.00  0.00     0.162 A 
ATOM      4  C3  UNL d   1       1.064  -0.711   0.513  0.00  0.00    -0.034 A 
ATOM      5  C4  UNL d   1       1.681  -1.327   1.604  0.00  0.00     0.162 A 
ATOM      6  C5  UNL d   1       0.926  -1.735   2.699  0.00  0.00     0.062 A 
ATOM      7  F   UNL d   1       1.526  -2.325   3.742  0.00  0.00    -0.097 F 
ATOM      8  F1  UNL d   1       3.005  -1.536   1.615  0.00  0.00    -0.096 F 
ATOM      9  I   UNL d   1       2.191  -0.100  -1.126  0.00  0.00    -0.060 I 
ATOM     10  F2  UNL d   1      -0.942   0.079  -0.493  0.00  0.00    -0.096 F 
ATOM     11  F3  UNL d   1      -2.393  -0.722   1.648  0.00  0.00    -0.097 F 
ATOM     12  F4  UNL d   1      -1.172  -1.924   3.771  0.00  0.00    -0.092 F 
ENDROOT
TORSDOF 0
ENDMDL
