MODEL 1
REMARK minimizedAffinity 5.70553255
REMARK minimizedRMSD -1
REMARK  0 active torsions:
REMARK  status: ('A' for Active; 'I' for Inactive)
ROOT
ATOM      1  C   UNL d   1       1.276  -1.432   1.694  0.00  0.00     0.124 A 
ATOM      2  C1  UNL d   1       1.924  -1.037   0.532  0.00  0.00     0.062 A 
ATOM      3  C2  UNL d   1       1.298  -0.167  -0.356  0.00  0.00     0.162 A 
ATOM      4  C3  UNL d   1       0.018   0.316  -0.085  0.00  0.00    -0.034 A 
ATOM      5  C4  UNL d   1      -0.627  -0.086   1.086  0.00  0.00     0.162 A 
ATOM      6  C5  UNL d   1       0.002  -0.957   1.970  0.00  0.00     0.062 A 
ATOM      7  F   UNL d   1      -0.625  -1.337   3.093  0.00  0.00    -0.097 F 
ATOM      8  F1  UNL d   1      -1.858   0.359   1.378  0.00  0.00    -0.096 F 
ATOM      9  I   UNL d   1      -0.920   1.618  -1.410  0.00  0.00    -0.060 I 
ATOM     10  F2  UNL d   1       1.947   0.198  -1.472  0.00  0.00    -0.096 F 
ATOM     11  F3  UNL d   1       3.154  -1.496   0.263  0.00  0.00    -0.097 F 
ATOM     12  F4  UNL d   1       1.880  -2.270   2.547  0.00  0.00    -0.092 F 
ENDROOT
TORSDOF 0
ENDMDL
