MODEL 1
REMARK minimizedAffinity -3.97443295
REMARK minimizedRMSD -1
REMARK  0 active torsions:
REMARK  status: ('A' for Active; 'I' for Inactive)
ROOT
ATOM      1  C   UNL d   1       0.619  -2.182   2.092  0.00  0.00     0.124 A 
ATOM      2  C1  UNL d   1       1.076  -2.180   0.782  0.00  0.00     0.062 A 
ATOM      3  C2  UNL d   1       0.624  -1.218  -0.116  0.00  0.00     0.162 A 
ATOM      4  C3  UNL d   1      -0.292  -0.248   0.293  0.00  0.00    -0.034 A 
ATOM      5  C4  UNL d   1      -0.748  -0.257   1.613  0.00  0.00     0.162 A 
ATOM      6  C5  UNL d   1      -0.292  -1.220   2.506  0.00  0.00     0.062 A 
ATOM      7  F   UNL d   1      -0.735  -1.221   3.772  0.00  0.00    -0.097 F 
ATOM      8  F1  UNL d   1      -1.628   0.661   2.040  0.00  0.00    -0.096 F 
ATOM      9  I   UNL d   1      -0.971   1.193  -1.046  0.00  0.00    -0.060 I 
ATOM     10  F2  UNL d   1       1.082  -1.240  -1.377  0.00  0.00    -0.096 F 
ATOM     11  F3  UNL d   1       1.956  -3.108   0.379  0.00  0.00    -0.097 F 
ATOM     12  F4  UNL d   1       1.055  -3.109   2.954  0.00  0.00    -0.092 F 
ENDROOT
TORSDOF 0
ENDMDL
