MODEL 1
REMARK minimizedAffinity -2.28354073
REMARK minimizedRMSD -1
REMARK  0 active torsions:
REMARK  status: ('A' for Active; 'I' for Inactive)
ROOT
ATOM      1  C   UNL d   1       0.270   0.894  -0.370  0.00  0.00     0.124 A 
ATOM      2  C1  UNL d   1       1.323   0.020  -0.135  0.00  0.00     0.062 A 
ATOM      3  C2  UNL d   1       1.271  -0.865   0.938  0.00  0.00     0.162 A 
ATOM      4  C3  UNL d   1       0.162  -0.882   1.784  0.00  0.00    -0.034 A 
ATOM      5  C4  UNL d   1      -0.892   0.001   1.541  0.00  0.00     0.162 A 
ATOM      6  C5  UNL d   1      -0.836   0.883   0.468  0.00  0.00     0.062 A 
ATOM      7  F   UNL d   1      -1.854   1.727   0.242  0.00  0.00    -0.097 F 
ATOM      8  F1  UNL d   1      -1.973   0.011   2.335  0.00  0.00    -0.096 F 
ATOM      9  I   UNL d   1       0.081  -2.203   3.389  0.00  0.00    -0.060 I 
ATOM     10  F2  UNL d   1       2.303  -1.698   1.142  0.00  0.00    -0.096 F 
ATOM     11  F3  UNL d   1       2.393   0.029  -0.943  0.00  0.00    -0.097 F 
ATOM     12  F4  UNL d   1       0.323   1.745  -1.403  0.00  0.00    -0.092 F 
ENDROOT
TORSDOF 0
ENDMDL
