MODEL 1
REMARK minimizedAffinity -5.04996967
REMARK minimizedRMSD -1
REMARK  0 active torsions:
REMARK  status: ('A' for Active; 'I' for Inactive)
ROOT
ATOM      1  C   UNL d   1       1.347  -1.922   1.671  0.00  0.00     0.124 A 
ATOM      2  C1  UNL d   1       1.843  -1.386   0.490  0.00  0.00     0.062 A 
ATOM      3  C2  UNL d   1       1.136  -0.390  -0.177  0.00  0.00     0.162 A 
ATOM      4  C3  UNL d   1      -0.074   0.078   0.334  0.00  0.00    -0.034 A 
ATOM      5  C4  UNL d   1      -0.567  -0.467   1.521  0.00  0.00     0.162 A 
ATOM      6  C5  UNL d   1       0.143  -1.463   2.185  0.00  0.00     0.062 A 
ATOM      7  F   UNL d   1      -0.338  -1.979   3.325  0.00  0.00    -0.097 F 
ATOM      8  F1  UNL d   1      -1.728  -0.041   2.041  0.00  0.00    -0.096 F 
ATOM      9  I   UNL d   1      -1.134   1.567  -0.661  0.00  0.00    -0.060 I 
ATOM     10  F2  UNL d   1       1.639   0.110  -1.316  0.00  0.00    -0.096 F 
ATOM     11  F3  UNL d   1       3.006  -1.829  -0.009  0.00  0.00    -0.097 F 
ATOM     12  F4  UNL d   1       2.029  -2.881   2.310  0.00  0.00    -0.092 F 
ENDROOT
TORSDOF 0
ENDMDL
