MODEL 1
REMARK minimizedAffinity 7.50310946
REMARK minimizedRMSD -1
REMARK  0 active torsions:
REMARK  status: ('A' for Active; 'I' for Inactive)
ROOT
ATOM      1  C   UNL d   1      -0.477  -1.350  -0.902  0.00  0.00     0.078 C 
ATOM      2  C1  UNL d   1       0.703  -1.753  -0.069  0.00  0.00    -0.077 A 
ATOM      3  C2  UNL d   1       1.417  -0.807   0.676  0.00  0.00    -0.001 A 
ATOM      4  C3  UNL d   1       2.519  -1.195   1.440  0.00  0.00     0.003 A 
ATOM      5  C4  UNL d   1       2.917  -2.530   1.465  0.00  0.00    -0.005 A 
ATOM      6  C5  UNL d   1       2.214  -3.479   0.725  0.00  0.00     0.003 A 
ATOM      7  C6  UNL d   1       1.112  -3.092  -0.039  0.00  0.00    -0.001 A 
ENDROOT
TORSDOF 0
ENDMDL
