MODEL 1
REMARK minimizedAffinity 12.0043163
REMARK minimizedRMSD -1
REMARK  0 active torsions:
REMARK  status: ('A' for Active; 'I' for Inactive)
ROOT
ATOM      1  C   UNL d   1      -5.194   1.565  -5.369  0.00  0.00     0.078 C 
ATOM      2  C1  UNL d   1      -3.794   1.926  -4.970  0.00  0.00    -0.077 A 
ATOM      3  C2  UNL d   1      -3.544   2.661  -3.805  0.00  0.00    -0.001 A 
ATOM      4  C3  UNL d   1      -2.237   2.999  -3.450  0.00  0.00     0.003 A 
ATOM      5  C4  UNL d   1      -1.170   2.607  -4.256  0.00  0.00    -0.005 A 
ATOM      6  C5  UNL d   1      -1.409   1.877  -5.419  0.00  0.00     0.003 A 
ATOM      7  C6  UNL d   1      -2.716   1.538  -5.775  0.00  0.00    -0.001 A 
ENDROOT
TORSDOF 0
ENDMDL
