MODEL 1
REMARK minimizedAffinity 9.44782734
REMARK minimizedRMSD -1
REMARK  0 active torsions:
REMARK  status: ('A' for Active; 'I' for Inactive)
ROOT
ATOM      1  C   UNL d   1       3.427  -1.978   5.256  0.00  0.00     0.078 C 
ATOM      2  C1  UNL d   1       3.900  -3.375   5.523  0.00  0.00    -0.077 A 
ATOM      3  C2  UNL d   1       5.253  -3.645   5.762  0.00  0.00    -0.001 A 
ATOM      4  C3  UNL d   1       5.681  -4.952   6.000  0.00  0.00     0.003 A 
ATOM      5  C4  UNL d   1       4.763  -6.000   6.000  0.00  0.00    -0.005 A 
ATOM      6  C5  UNL d   1       3.415  -5.742   5.761  0.00  0.00     0.003 A 
ATOM      7  C6  UNL d   1       2.985  -4.435   5.523  0.00  0.00    -0.001 A 
ENDROOT
TORSDOF 0
ENDMDL
