MODEL 1
REMARK minimizedAffinity 12.4983988
REMARK minimizedRMSD -1
REMARK  0 active torsions:
REMARK  status: ('A' for Active; 'I' for Inactive)
ROOT
ATOM      1  C   UNL d   1       5.266   1.439   0.264  0.00  0.00     0.078 C 
ATOM      2  C1  UNL d   1       5.508   2.885   0.579  0.00  0.00    -0.077 A 
ATOM      3  C2  UNL d   1       5.500   3.854  -0.431  0.00  0.00    -0.001 A 
ATOM      4  C3  UNL d   1       5.736   5.195  -0.125  0.00  0.00     0.003 A 
ATOM      5  C4  UNL d   1       5.982   5.579   1.192  0.00  0.00    -0.005 A 
ATOM      6  C5  UNL d   1       5.994   4.621   2.204  0.00  0.00     0.003 A 
ATOM      7  C6  UNL d   1       5.758   3.280   1.899  0.00  0.00    -0.001 A 
ENDROOT
TORSDOF 0
ENDMDL
