MODEL 1
REMARK minimizedAffinity 4.86496258
REMARK minimizedRMSD -1
REMARK  0 active torsions:
REMARK  status: ('A' for Active; 'I' for Inactive)
ROOT
ATOM      1  C   UNL d   1       6.000  -6.000   5.845  0.00  0.00     0.078 C 
ATOM      2  C1  UNL d   1       5.221  -4.721   5.766  0.00  0.00    -0.077 A 
ATOM      3  C2  UNL d   1       5.855  -3.506   5.480  0.00  0.00    -0.001 A 
ATOM      4  C3  UNL d   1       5.119  -2.322   5.420  0.00  0.00     0.003 A 
ATOM      5  C4  UNL d   1       3.744  -2.340   5.646  0.00  0.00    -0.005 A 
ATOM      6  C5  UNL d   1       3.104  -3.544   5.934  0.00  0.00     0.003 A 
ATOM      7  C6  UNL d   1       3.839  -4.729   5.995  0.00  0.00    -0.001 A 
ENDROOT
TORSDOF 0
ENDMDL
