MODEL 1
REMARK minimizedAffinity 0.121867798
REMARK minimizedRMSD -1
REMARK  0 active torsions:
REMARK  status: ('A' for Active; 'I' for Inactive)
ROOT
ATOM      1  C   UNL d   1       1.802   4.851  -5.951  0.00  0.00     0.078 C 
ATOM      2  C1  UNL d   1       3.264   4.892  -5.620  0.00  0.00    -0.077 A 
ATOM      3  C2  UNL d   1       4.060   5.980  -6.000  0.00  0.00    -0.001 A 
ATOM      4  C3  UNL d   1       5.421   6.000  -5.693  0.00  0.00     0.003 A 
ATOM      5  C4  UNL d   1       6.000   4.934  -5.007  0.00  0.00    -0.005 A 
ATOM      6  C5  UNL d   1       5.217   3.846  -4.628  0.00  0.00     0.003 A 
ATOM      7  C6  UNL d   1       3.855   3.824  -4.933  0.00  0.00    -0.001 A 
ENDROOT
TORSDOF 0
ENDMDL
