MODEL 1
REMARK minimizedAffinity 1.0623188
REMARK minimizedRMSD -1
REMARK  0 active torsions:
REMARK  status: ('A' for Active; 'I' for Inactive)
ROOT
ATOM      1  C   UNL d   1       2.177   5.999  -5.686  0.00  0.00     0.078 C 
ATOM      2  C1  UNL d   1       3.514   5.349  -5.484  0.00  0.00    -0.077 A 
ATOM      3  C2  UNL d   1       4.695   5.997  -5.865  0.00  0.00    -0.001 A 
ATOM      4  C3  UNL d   1       5.932   5.376  -5.680  0.00  0.00     0.003 A 
ATOM      5  C4  UNL d   1       5.998   4.103  -5.116  0.00  0.00    -0.005 A 
ATOM      6  C5  UNL d   1       4.827   3.450  -4.737  0.00  0.00     0.003 A 
ATOM      7  C6  UNL d   1       3.590   4.069  -4.920  0.00  0.00    -0.001 A 
ENDROOT
TORSDOF 0
ENDMDL
