MODEL 1
REMARK minimizedAffinity 2.79503822
REMARK minimizedRMSD -1
REMARK  0 active torsions:
REMARK  status: ('A' for Active; 'I' for Inactive)
ROOT
ATOM      1  C   UNL d   1       4.782   4.986  -5.990  0.00  0.00     0.078 C 
ATOM      2  C1  UNL d   1       3.345   4.996  -5.560  0.00  0.00    -0.077 A 
ATOM      3  C2  UNL d   1       2.468   5.996  -6.000  0.00  0.00    -0.001 A 
ATOM      4  C3  UNL d   1       1.136   5.999  -5.584  0.00  0.00     0.003 A 
ATOM      5  C4  UNL d   1       0.669   5.006  -4.725  0.00  0.00    -0.005 A 
ATOM      6  C5  UNL d   1       1.535   4.009  -4.280  0.00  0.00     0.003 A 
ATOM      7  C6  UNL d   1       2.867   4.004  -4.695  0.00  0.00    -0.001 A 
ENDROOT
TORSDOF 0
ENDMDL
