MODEL 1
REMARK minimizedAffinity 8.22135639
REMARK minimizedRMSD -1
REMARK  0 active torsions:
REMARK  status: ('A' for Active; 'I' for Inactive)
ROOT
ATOM      1  C   UNL d   1       2.879  -5.913   5.957  0.00  0.00     0.078 C 
ATOM      2  C1  UNL d   1       3.769  -4.706   5.960  0.00  0.00    -0.077 A 
ATOM      3  C2  UNL d   1       3.232  -3.414   5.989  0.00  0.00    -0.001 A 
ATOM      4  C3  UNL d   1       4.072  -2.299   5.982  0.00  0.00     0.003 A 
ATOM      5  C4  UNL d   1       5.455  -2.466   5.945  0.00  0.00    -0.005 A 
ATOM      6  C5  UNL d   1       5.999  -3.749   5.914  0.00  0.00     0.003 A 
ATOM      7  C6  UNL d   1       5.160  -4.864   5.921  0.00  0.00    -0.001 A 
ENDROOT
TORSDOF 0
ENDMDL
