MODEL 1
REMARK minimizedAffinity 1.06434894
REMARK minimizedRMSD -1
REMARK  3 active torsions:
REMARK  status: ('A' for Active; 'I' for Inactive)
REMARK    1  A    between atoms: C3'_2  and  C2'_3 
REMARK    2  A    between atoms: C2'_3  and  C1'_4 
REMARK    3  A    between atoms: C1'_4  and  C1_5 
ROOT
ATOM      1  C1  N4B d   1       0.716   0.691   0.547  0.00  0.00    -0.075 A 
ATOM      2  C2  N4B d   1       0.958   1.645  -0.465  0.00  0.00     0.002 A 
ATOM      3  C3  N4B d   1       2.148   2.331  -0.492  0.00  0.00     0.002 A 
ATOM      4  C4  N4B d   1       3.098   2.094   0.490  0.00  0.00    -0.004 A 
ATOM      5  C5  N4B d   1       2.866   1.153   1.450  0.00  0.00     0.002 A 
ATOM      6  C6  N4B d   1       1.677   0.453   1.487  0.00  0.00     0.002 A 
ENDROOT
BRANCH   1   7
ATOM      7  C1' N4B d   1      -0.603  -0.022   0.668  0.00  0.00     0.057 C 
BRANCH   7   8
ATOM      8  C2' N4B d   1      -0.351  -1.516   0.845  0.00  0.00     0.009 C 
BRANCH   8   9
ATOM      9  C3' N4B d   1      -1.639  -2.320   0.798  0.00  0.00     0.004 C 
ATOM     10  C4' N4B d   1      -1.421  -3.742   0.376  0.00  0.00     0.003 C 
ENDBRANCH   8   9
ENDBRANCH   7   8
ENDBRANCH   1   7
TORSDOF 3
ENDMDL
