MODEL 1
REMARK minimizedAffinity 4.48192263
REMARK minimizedRMSD -1
REMARK  3 active torsions:
REMARK  status: ('A' for Active; 'I' for Inactive)
REMARK    1  A    between atoms: C3'_2  and  C2'_3 
REMARK    2  A    between atoms: C2'_3  and  C1'_4 
REMARK    3  A    between atoms: C1'_4  and  C1_5 
ROOT
ATOM      1  C1  N4B d   1       0.221  -3.459  -1.525  0.00  0.00    -0.075 A 
ATOM      2  C2  N4B d   1      -0.487  -4.680  -1.518  0.00  0.00     0.002 A 
ATOM      3  C3  N4B d   1      -1.861  -4.677  -1.516  0.00  0.00     0.002 A 
ATOM      4  C4  N4B d   1      -2.544  -3.470  -1.502  0.00  0.00    -0.004 A 
ATOM      5  C5  N4B d   1      -1.852  -2.295  -1.535  0.00  0.00     0.002 A 
ATOM      6  C6  N4B d   1      -0.472  -2.283  -1.542  0.00  0.00     0.002 A 
ENDROOT
BRANCH   1   7
ATOM      7  C1' N4B d   1       1.723  -3.411  -1.441  0.00  0.00     0.057 C 
BRANCH   7   8
ATOM      8  C2' N4B d   1       2.211  -4.552  -0.555  0.00  0.00     0.009 C 
BRANCH   8   9
ATOM      9  C3' N4B d   1       3.656  -4.919  -0.846  0.00  0.00     0.004 C 
ATOM     10  C4' N4B d   1       3.986  -4.867  -2.308  0.00  0.00     0.003 C 
ENDBRANCH   8   9
ENDBRANCH   7   8
ENDBRANCH   1   7
TORSDOF 3
ENDMDL
