MODEL 1
REMARK minimizedAffinity 11.9641094
REMARK minimizedRMSD -1
REMARK  3 active torsions:
REMARK  status: ('A' for Active; 'I' for Inactive)
REMARK    1  A    between atoms: C3'_2  and  C2'_3 
REMARK    2  A    between atoms: C2'_3  and  C1'_4 
REMARK    3  A    between atoms: C1'_4  and  C1_5 
ROOT
ATOM      1  C1  N4B d   1      -3.617   1.634   0.337  0.00  0.00    -0.075 A 
ATOM      2  C2  N4B d   1      -3.616   1.555  -1.073  0.00  0.00     0.002 A 
ATOM      3  C3  N4B d   1      -4.802   1.602  -1.764  0.00  0.00     0.002 A 
ATOM      4  C4  N4B d   1      -5.997   1.708  -1.068  0.00  0.00    -0.004 A 
ATOM      5  C5  N4B d   1      -5.987   1.809   0.292  0.00  0.00     0.002 A 
ATOM      6  C6  N4B d   1      -4.803   1.767   0.999  0.00  0.00     0.002 A 
ENDROOT
BRANCH   1   7
ATOM      7  C1' N4B d   1      -2.352   1.500   1.140  0.00  0.00     0.057 C 
BRANCH   7   8
ATOM      8  C2' N4B d   1      -2.307   0.115   1.777  0.00  0.00     0.009 C 
BRANCH   8   9
ATOM      9  C3' N4B d   1      -1.014  -0.616   1.459  0.00  0.00     0.004 C 
ATOM     10  C4' N4B d   1      -1.069  -2.074   1.807  0.00  0.00     0.003 C 
ENDBRANCH   8   9
ENDBRANCH   7   8
ENDBRANCH   1   7
TORSDOF 3
ENDMDL
