MODEL 1
REMARK minimizedAffinity 4.52735901
REMARK minimizedRMSD -1
REMARK  3 active torsions:
REMARK  status: ('A' for Active; 'I' for Inactive)
REMARK    1  A    between atoms: C3'_2  and  C2'_3 
REMARK    2  A    between atoms: C2'_3  and  C1'_4 
REMARK    3  A    between atoms: C1'_4  and  C1_5 
ROOT
ATOM      1  C1  N4B d   1       1.349  -0.671   1.130  0.00  0.00    -0.075 A 
ATOM      2  C2  N4B d   1       0.800  -1.951   0.895  0.00  0.00     0.002 A 
ATOM      3  C3  N4B d   1       0.468  -2.760   1.954  0.00  0.00     0.002 A 
ATOM      4  C4  N4B d   1       0.693  -2.321   3.250  0.00  0.00    -0.004 A 
ATOM      5  C5  N4B d   1       1.200  -1.073   3.469  0.00  0.00     0.002 A 
ATOM      6  C6  N4B d   1       1.534  -0.248   2.414  0.00  0.00     0.002 A 
ENDROOT
BRANCH   1   7
ATOM      7  C1' N4B d   1       1.808   0.215   0.004  0.00  0.00     0.057 C 
BRANCH   7   8
ATOM      8  C2' N4B d   1       1.288   1.631   0.238  0.00  0.00     0.009 C 
BRANCH   8   9
ATOM      9  C3' N4B d   1       0.766   2.263  -1.041  0.00  0.00     0.004 C 
ATOM     10  C4' N4B d   1      -0.541   2.971  -0.847  0.00  0.00     0.003 C 
ENDBRANCH   8   9
ENDBRANCH   7   8
ENDBRANCH   1   7
TORSDOF 3
ENDMDL
