MODEL 1
REMARK minimizedAffinity 5.50471592
REMARK minimizedRMSD -1
REMARK  1 active torsions:
REMARK  status: ('A' for Active; 'I' for Inactive)
REMARK    1  A    between atoms: N_2  and  C1_3 
ROOT
ATOM      1  C1  UNL d   1       3.530  -3.239   3.369  0.00  0.00     0.143 A 
ATOM      2  C2  UNL d   1       3.162  -2.294   2.406  0.00  0.00    -0.057 A 
ATOM      3  C3  UNL d   1       1.878  -1.735   2.390  0.00  0.00     0.033 A 
ATOM      4  C4  UNL d   1       0.928  -2.134   3.324  0.00  0.00    -0.042 A 
ATOM      5  C5  UNL d   1       1.264  -3.090   4.276  0.00  0.00     0.033 A 
ATOM      6  C6  UNL d   1       2.550  -3.640   4.291  0.00  0.00    -0.057 A 
ENDROOT
BRANCH   1   7
ATOM      7  N   UNL d   1       4.759  -3.904   3.377  0.00  0.00    -0.732 N 
ATOM      8  C   UNL d   1       5.999  -3.162   3.307  0.00  0.00     0.284 C 
ATOM      9  H3  UNL d   1       4.776  -4.681   4.034  0.00  0.00     0.395 HD
ENDBRANCH   1   7
TORSDOF 1
ENDMDL
