MODEL 1
REMARK minimizedAffinity -0.388498098
REMARK minimizedRMSD -1
REMARK  1 active torsions:
REMARK  status: ('A' for Active; 'I' for Inactive)
REMARK    1  A    between atoms: N_2  and  C1_3 
ROOT
ATOM      1  C1  UNL d   1       3.263  -5.916  -3.108  0.00  0.00     0.143 A 
ATOM      2  C2  UNL d   1       2.947  -5.926  -1.746  0.00  0.00    -0.057 A 
ATOM      3  C3  UNL d   1       3.949  -5.944  -0.768  0.00  0.00     0.033 A 
ATOM      4  C4  UNL d   1       5.289  -5.981  -1.138  0.00  0.00    -0.042 A 
ATOM      5  C5  UNL d   1       5.626  -5.998  -2.487  0.00  0.00     0.033 A 
ATOM      6  C6  UNL d   1       4.621  -5.973  -3.458  0.00  0.00    -0.057 A 
ENDROOT
BRANCH   1   7
ATOM      7  N   UNL d   1       2.312  -5.998  -4.128  0.00  0.00    -0.732 N 
ATOM      8  C   UNL d   1       2.718  -5.997  -5.517  0.00  0.00     0.284 C 
ATOM      9  H3  UNL d   1       1.568  -6.658  -3.913  0.00  0.00     0.395 HD
ENDBRANCH   1   7
TORSDOF 1
ENDMDL
