MODEL 1
REMARK minimizedAffinity -1.74686444
REMARK minimizedRMSD -1
REMARK  1 active torsions:
REMARK  status: ('A' for Active; 'I' for Inactive)
REMARK    1  A    between atoms: N_2  and  C1_3 
ROOT
ATOM      1  C1  UNL d   1       3.416  -5.997  -4.505  0.00  0.00     0.143 A 
ATOM      2  C2  UNL d   1       4.786  -5.929  -4.228  0.00  0.00    -0.057 A 
ATOM      3  C3  UNL d   1       5.260  -5.911  -2.911  0.00  0.00     0.033 A 
ATOM      4  C4  UNL d   1       4.368  -5.931  -1.843  0.00  0.00    -0.042 A 
ATOM      5  C5  UNL d   1       3.001  -5.973  -2.095  0.00  0.00     0.033 A 
ATOM      6  C6  UNL d   1       2.534  -5.997  -3.413  0.00  0.00    -0.057 A 
ENDROOT
BRANCH   1   7
ATOM      7  N   UNL d   1       2.878  -5.918  -5.792  0.00  0.00    -0.732 N 
ATOM      8  C   UNL d   1       1.446  -5.962  -5.996  0.00  0.00     0.284 C 
ATOM      9  H3  UNL d   1       3.361  -5.237  -6.374  0.00  0.00     0.395 HD
ENDBRANCH   1   7
TORSDOF 1
ENDMDL
