MODEL 1
REMARK minimizedAffinity 3.49594903
REMARK minimizedRMSD -1
REMARK  1 active torsions:
REMARK  status: ('A' for Active; 'I' for Inactive)
REMARK    1  A    between atoms: N_2  and  C1_3 
ROOT
ATOM      1  C1  UNL d   1       3.684  -3.004   4.423  0.00  0.00     0.143 A 
ATOM      2  C2  UNL d   1       2.982  -2.010   3.734  0.00  0.00    -0.057 A 
ATOM      3  C3  UNL d   1       1.704  -2.250   3.215  0.00  0.00     0.033 A 
ATOM      4  C4  UNL d   1       1.116  -3.503   3.351  0.00  0.00    -0.042 A 
ATOM      5  C5  UNL d   1       1.806  -4.515   4.010  0.00  0.00     0.033 A 
ATOM      6  C6  UNL d   1       3.079  -4.266   4.532  0.00  0.00    -0.057 A 
ENDROOT
BRANCH   1   7
ATOM      7  N   UNL d   1       4.997  -2.857   4.876  0.00  0.00    -0.732 N 
ATOM      8  C   UNL d   1       6.000  -2.230   4.041  0.00  0.00     0.284 C 
ATOM      9  H3  UNL d   1       5.042  -2.584   5.855  0.00  0.00     0.395 HD
ENDBRANCH   1   7
TORSDOF 1
ENDMDL
