MODEL 1
REMARK minimizedAffinity 7.38888454
REMARK minimizedRMSD -1
REMARK  1 active torsions:
REMARK  status: ('A' for Active; 'I' for Inactive)
REMARK    1  A    between atoms: N_2  and  C1_3 
ROOT
ATOM      1  C1  UNL d   1       0.274  -2.032   0.858  0.00  0.00     0.143 A 
ATOM      2  C2  UNL d   1       0.595  -2.825   1.965  0.00  0.00    -0.057 A 
ATOM      3  C3  UNL d   1       1.373  -2.325   3.016  0.00  0.00     0.033 A 
ATOM      4  C4  UNL d   1       1.870  -1.027   2.964  0.00  0.00    -0.042 A 
ATOM      5  C5  UNL d   1       1.585  -0.229   1.862  0.00  0.00     0.033 A 
ATOM      6  C6  UNL d   1       0.802  -0.732   0.819  0.00  0.00    -0.057 A 
ENDROOT
BRANCH   1   7
ATOM      7  N   UNL d   1      -0.412  -2.504  -0.264  0.00  0.00    -0.732 N 
ATOM      8  C   UNL d   1      -0.616  -1.651  -1.416  0.00  0.00     0.284 C 
ATOM      9  H3  UNL d   1      -0.166  -3.463  -0.495  0.00  0.00     0.395 HD
ENDBRANCH   1   7
TORSDOF 1
ENDMDL
