MODEL 1
REMARK minimizedAffinity 0.263679802
REMARK minimizedRMSD -1
REMARK  1 active torsions:
REMARK  status: ('A' for Active; 'I' for Inactive)
REMARK    1  A    between atoms: N_2  and  C1_3 
ROOT
ATOM      1  C1  UNL d   1       2.159  -1.507   3.775  0.00  0.00     0.143 A 
ATOM      2  C2  UNL d   1       2.987  -2.100   4.734  0.00  0.00    -0.057 A 
ATOM      3  C3  UNL d   1       3.057  -3.492   4.872  0.00  0.00     0.033 A 
ATOM      4  C4  UNL d   1       2.274  -4.316   4.071  0.00  0.00    -0.042 A 
ATOM      5  C5  UNL d   1       1.425  -3.748   3.128  0.00  0.00     0.033 A 
ATOM      6  C6  UNL d   1       1.365  -2.358   2.990  0.00  0.00    -0.057 A 
ENDROOT
BRANCH   1   7
ATOM      7  N   UNL d   1       1.972  -0.128   3.654  0.00  0.00    -0.732 N 
ATOM      8  C   UNL d   1       2.563   0.603   2.554  0.00  0.00     0.284 C 
ATOM      9  H3  UNL d   1       1.021   0.156   3.880  0.00  0.00     0.395 HD
ENDBRANCH   1   7
TORSDOF 1
ENDMDL
