MODEL 1
REMARK minimizedAffinity 4.39880514
REMARK minimizedRMSD -1
REMARK  1 active torsions:
REMARK  status: ('A' for Active; 'I' for Inactive)
REMARK    1  A    between atoms: N_2  and  C1_3 
ROOT
ATOM      1  C1  UNL d   1      -4.821   1.835  -2.346  0.00  0.00     0.143 A 
ATOM      2  C2  UNL d   1      -5.911   1.817  -1.470  0.00  0.00    -0.057 A 
ATOM      3  C3  UNL d   1      -5.734   1.948  -0.087  0.00  0.00     0.033 A 
ATOM      4  C4  UNL d   1      -4.456   2.070   0.448  0.00  0.00    -0.042 A 
ATOM      5  C5  UNL d   1      -3.355   2.065  -0.402  0.00  0.00     0.033 A 
ATOM      6  C6  UNL d   1      -3.539   1.940  -1.783  0.00  0.00    -0.057 A 
ENDROOT
BRANCH   1   7
ATOM      7  N   UNL d   1      -4.924   1.611  -3.721  0.00  0.00    -0.732 N 
ATOM      8  C   UNL d   1      -5.726   2.482  -4.552  0.00  0.00     0.284 C 
ATOM      9  H3  UNL d   1      -4.036   1.340  -4.138  0.00  0.00     0.395 HD
ENDBRANCH   1   7
TORSDOF 1
ENDMDL
