MODEL 1
REMARK minimizedAffinity 6.00858545
REMARK minimizedRMSD -1
REMARK  1 active torsions:
REMARK  status: ('A' for Active; 'I' for Inactive)
REMARK    1  A    between atoms: C1_2  and  C2_3 
ROOT
ATOM      1  C2  UNL d   1      -0.229   3.208   1.070  0.00  0.00    -0.076 A 
ATOM      2  C3  UNL d   1       0.301   2.429   0.027  0.00  0.00     0.004 A 
ATOM      3  C4  UNL d   1      -0.075   2.651  -1.296  0.00  0.00    -0.003 A 
ATOM      4  C5  UNL d   1      -0.987   3.656  -1.599  0.00  0.00     0.000 A 
ATOM      5  C6  UNL d   1      -1.511   4.449  -0.578  0.00  0.00     0.000 A 
ATOM      6  C7  UNL d   1      -1.129   4.250   0.760  0.00  0.00    -0.073 A 
ATOM      7  C8  UNL d   1      -1.730   5.131   1.821  0.00  0.00     0.078 C 
ENDROOT
BRANCH   1   8
ATOM      8  C1  UNL d   1       0.195   2.904   2.489  0.00  0.00     0.053 C 
ATOM      9  C   UNL d   1      -0.751   1.937   3.186  0.00  0.00     0.018 C 
ENDBRANCH   1   8
TORSDOF 1
ENDMDL
