MODEL 1
REMARK minimizedAffinity 0.00546355825
REMARK minimizedRMSD -1
REMARK  1 active torsions:
REMARK  status: ('A' for Active; 'I' for Inactive)
REMARK    1  A    between atoms: C1_2  and  C2_3 
ROOT
ATOM      1  C2  UNL d   1      -5.887   2.785  -4.507  0.00  0.00    -0.076 A 
ATOM      2  C3  UNL d   1      -5.997   2.198  -3.234  0.00  0.00     0.004 A 
ATOM      3  C4  UNL d   1      -5.876   2.966  -2.077  0.00  0.00    -0.003 A 
ATOM      4  C5  UNL d   1      -5.644   4.334  -2.174  0.00  0.00     0.000 A 
ATOM      5  C6  UNL d   1      -5.550   4.935  -3.429  0.00  0.00     0.000 A 
ATOM      6  C7  UNL d   1      -5.686   4.178  -4.605  0.00  0.00    -0.073 A 
ATOM      7  C8  UNL d   1      -5.569   4.878  -5.931  0.00  0.00     0.078 C 
ENDROOT
BRANCH   1   8
ATOM      8  C1  UNL d   1      -6.000   1.897  -5.725  0.00  0.00     0.053 C 
ATOM      9  C   UNL d   1      -5.995   0.418  -5.371  0.00  0.00     0.018 C 
ENDBRANCH   1   8
TORSDOF 1
ENDMDL
