MODEL 1
REMARK minimizedAffinity 3.4693315
REMARK minimizedRMSD -1
REMARK  1 active torsions:
REMARK  status: ('A' for Active; 'I' for Inactive)
REMARK    1  A    between atoms: C1_2  and  C2_3 
ROOT
ATOM      1  C2  UNL d   1      -0.202  -2.962  -1.418  0.00  0.00    -0.076 A 
ATOM      2  C3  UNL d   1      -0.223  -1.572  -1.211  0.00  0.00     0.004 A 
ATOM      3  C4  UNL d   1       0.751  -0.948  -0.432  0.00  0.00    -0.003 A 
ATOM      4  C5  UNL d   1       1.761  -1.705   0.152  0.00  0.00     0.000 A 
ATOM      5  C6  UNL d   1       1.806  -3.083  -0.057  0.00  0.00     0.000 A 
ATOM      6  C7  UNL d   1       0.842  -3.725  -0.853  0.00  0.00    -0.073 A 
ATOM      7  C8  UNL d   1       0.936  -5.214  -1.040  0.00  0.00     0.078 C 
ENDROOT
BRANCH   1   8
ATOM      8  C1  UNL d   1      -1.300  -3.587  -2.250  0.00  0.00     0.053 C 
ATOM      9  C   UNL d   1      -1.048  -3.450  -3.743  0.00  0.00     0.018 C 
ENDBRANCH   1   8
TORSDOF 1
ENDMDL
