MODEL 1
REMARK minimizedAffinity 23.0432625
REMARK minimizedRMSD -1
REMARK  1 active torsions:
REMARK  status: ('A' for Active; 'I' for Inactive)
REMARK    1  A    between atoms: C1_2  and  C2_3 
ROOT
ATOM      1  C2  UNL d   1       4.694  -4.675  -2.892  0.00  0.00    -0.076 A 
ATOM      2  C3  UNL d   1       4.334  -5.863  -2.233  0.00  0.00     0.004 A 
ATOM      3  C4  UNL d   1       4.498  -5.998  -0.855  0.00  0.00    -0.003 A 
ATOM      4  C5  UNL d   1       5.025  -4.946  -0.114  0.00  0.00     0.000 A 
ATOM      5  C6  UNL d   1       5.371  -3.754  -0.748  0.00  0.00     0.000 A 
ATOM      6  C7  UNL d   1       5.197  -3.596  -2.134  0.00  0.00    -0.073 A 
ATOM      7  C8  UNL d   1       5.593  -2.290  -2.767  0.00  0.00     0.078 C 
ENDROOT
BRANCH   1   8
ATOM      8  C1  UNL d   1       4.518  -4.596  -4.391  0.00  0.00     0.053 C 
ATOM      9  C   UNL d   1       4.192  -5.946  -5.011  0.00  0.00     0.018 C 
ENDBRANCH   1   8
TORSDOF 1
ENDMDL
