MODEL 1
REMARK minimizedAffinity 6.76680756
REMARK minimizedRMSD -1
REMARK  1 active torsions:
REMARK  status: ('A' for Active; 'I' for Inactive)
REMARK    1  A    between atoms: C1_2  and  C2_3 
ROOT
ATOM      1  C2  UNL d   1      -0.389   5.301  -2.508  0.00  0.00    -0.076 A 
ATOM      2  C3  UNL d   1       0.902   5.103  -1.990  0.00  0.00     0.004 A 
ATOM      3  C4  UNL d   1       1.092   4.487  -0.754  0.00  0.00    -0.003 A 
ATOM      4  C5  UNL d   1      -0.006   4.057  -0.018  0.00  0.00     0.000 A 
ATOM      5  C6  UNL d   1      -1.293   4.229  -0.525  0.00  0.00     0.000 A 
ATOM      6  C7  UNL d   1      -1.502   4.834  -1.776  0.00  0.00    -0.073 A 
ATOM      7  C8  UNL d   1      -2.912   4.999  -2.272  0.00  0.00     0.078 C 
ENDROOT
BRANCH   1   8
ATOM      8  C1  UNL d   1      -0.536   6.000  -3.841  0.00  0.00     0.053 C 
ATOM      9  C   UNL d   1       0.756   6.000  -4.644  0.00  0.00     0.018 C 
ENDBRANCH   1   8
TORSDOF 1
ENDMDL
