MODEL 1
REMARK minimizedAffinity 10.593153
REMARK minimizedRMSD -1
REMARK  1 active torsions:
REMARK  status: ('A' for Active; 'I' for Inactive)
REMARK    1  A    between atoms: C1_2  and  C2_3 
ROOT
ATOM      1  C2  UNL d   1      -5.758   1.926  -3.249  0.00  0.00    -0.076 A 
ATOM      2  C3  UNL d   1      -5.721   2.875  -4.285  0.00  0.00     0.004 A 
ATOM      3  C4  UNL d   1      -5.809   2.485  -5.620  0.00  0.00    -0.003 A 
ATOM      4  C5  UNL d   1      -5.938   1.138  -5.941  0.00  0.00     0.000 A 
ATOM      5  C6  UNL d   1      -5.994   0.184  -4.926  0.00  0.00     0.000 A 
ATOM      6  C7  UNL d   1      -5.923   0.562  -3.574  0.00  0.00    -0.073 A 
ATOM      7  C8  UNL d   1      -5.982  -0.509  -2.520  0.00  0.00     0.078 C 
ENDROOT
BRANCH   1   8
ATOM      8  C1  UNL d   1      -5.630   2.406  -1.821  0.00  0.00     0.053 C 
ATOM      9  C   UNL d   1      -4.660   3.569  -1.682  0.00  0.00     0.018 C 
ENDBRANCH   1   8
TORSDOF 1
ENDMDL
