MODEL 1
REMARK minimizedAffinity 9.64446068
REMARK minimizedRMSD -1
REMARK  1 active torsions:
REMARK  status: ('A' for Active; 'I' for Inactive)
REMARK    1  A    between atoms: C1_2  and  C2_3 
ROOT
ATOM      1  C2  UNL d   1       3.307  -1.581   0.438  0.00  0.00    -0.076 A 
ATOM      2  C3  UNL d   1       3.583  -0.404   1.156  0.00  0.00     0.004 A 
ATOM      3  C4  UNL d   1       2.959  -0.145   2.375  0.00  0.00    -0.003 A 
ATOM      4  C5  UNL d   1       2.051  -1.059   2.897  0.00  0.00     0.000 A 
ATOM      5  C6  UNL d   1       1.778  -2.240   2.207  0.00  0.00     0.000 A 
ATOM      6  C7  UNL d   1       2.410  -2.524   0.984  0.00  0.00    -0.073 A 
ATOM      7  C8  UNL d   1       2.075  -3.810   0.280  0.00  0.00     0.078 C 
ENDROOT
BRANCH   1   8
ATOM      8  C1  UNL d   1       3.993  -1.796  -0.892  0.00  0.00     0.053 C 
ATOM      9  C   UNL d   1       5.353  -2.461  -0.746  0.00  0.00     0.018 C 
ENDBRANCH   1   8
TORSDOF 1
ENDMDL
