MODEL 1
REMARK minimizedAffinity 9.71440506
REMARK minimizedRMSD -1
REMARK  1 active torsions:
REMARK  status: ('A' for Active; 'I' for Inactive)
REMARK    1  A    between atoms: C1_2  and  C2_3 
ROOT
ATOM      1  C2  UNL d   1      -5.500   3.180  -4.006  0.00  0.00    -0.076 A 
ATOM      2  C3  UNL d   1      -5.979   2.730  -2.763  0.00  0.00     0.004 A 
ATOM      3  C4  UNL d   1      -5.656   3.401  -1.585  0.00  0.00    -0.003 A 
ATOM      4  C5  UNL d   1      -4.850   4.533  -1.630  0.00  0.00     0.000 A 
ATOM      5  C6  UNL d   1      -4.381   5.004  -2.856  0.00  0.00     0.000 A 
ATOM      6  C7  UNL d   1      -4.710   4.348  -4.055  0.00  0.00    -0.073 A 
ATOM      7  C8  UNL d   1      -4.171   4.895  -5.349  0.00  0.00     0.078 C 
ENDROOT
BRANCH   1   8
ATOM      8  C1  UNL d   1      -5.861   2.396  -5.247  0.00  0.00     0.053 C 
ATOM      9  C   UNL d   1      -5.985   0.904  -4.979  0.00  0.00     0.018 C 
ENDBRANCH   1   8
TORSDOF 1
ENDMDL
