MODEL 1
REMARK minimizedAffinity -4.61381435
REMARK minimizedRMSD -1
REMARK  1 active torsions:
REMARK  status: ('A' for Active; 'I' for Inactive)
REMARK    1  A    between atoms: C1_2  and  C2_3 
ROOT
ATOM      1  C2  UNL d   1      -0.136  -1.859  -0.783  0.00  0.00    -0.073 A 
ATOM      2  C3  UNL d   1       0.670  -2.325  -1.827  0.00  0.00    -0.002 A 
ATOM      3  C4  UNL d   1       0.279  -3.434  -2.578  0.00  0.00     0.004 A 
ATOM      4  C5  UNL d   1      -0.923  -4.084  -2.298  0.00  0.00    -0.004 A 
ATOM      5  C6  UNL d   1      -1.748  -3.625  -1.266  0.00  0.00    -0.075 A 
ATOM      6  C7  UNL d   1      -3.043  -4.314  -0.951  0.00  0.00     0.076 C 
ATOM      7  C8  UNL d   1      -1.347  -2.513  -0.515  0.00  0.00     0.001 A 
ENDROOT
BRANCH   1   8
ATOM      8  C1  UNL d   1       0.279  -0.658   0.027  0.00  0.00     0.053 C 
ATOM      9  C   UNL d   1      -0.830   0.378   0.119  0.00  0.00     0.018 C 
ENDBRANCH   1   8
TORSDOF 1
ENDMDL
