MODEL 1
REMARK minimizedAffinity -4.36237764
REMARK minimizedRMSD -1
REMARK  1 active torsions:
REMARK  status: ('A' for Active; 'I' for Inactive)
REMARK    1  A    between atoms: C1_2  and  C2_3 
ROOT
ATOM      1  C2  UNL d   1      -0.728  -0.255  -0.394  0.00  0.00    -0.073 A 
ATOM      2  C3  UNL d   1      -1.694   0.755  -0.312  0.00  0.00    -0.002 A 
ATOM      3  C4  UNL d   1      -1.358   2.013   0.190  0.00  0.00     0.004 A 
ATOM      4  C5  UNL d   1      -0.053   2.276   0.607  0.00  0.00    -0.004 A 
ATOM      5  C6  UNL d   1       0.929   1.284   0.522  0.00  0.00    -0.075 A 
ATOM      6  C7  UNL d   1       2.336   1.551   0.968  0.00  0.00     0.076 C 
ATOM      7  C8  UNL d   1       0.583   0.023   0.019  0.00  0.00     0.001 A 
ENDROOT
BRANCH   1   8
ATOM      8  C1  UNL d   1      -1.085  -1.612  -0.941  0.00  0.00     0.053 C 
ATOM      9  C   UNL d   1      -0.323  -1.931  -2.218  0.00  0.00     0.018 C 
ENDBRANCH   1   8
TORSDOF 1
ENDMDL
