MODEL 1
REMARK minimizedAffinity -3.55388856
REMARK minimizedRMSD -1
REMARK  1 active torsions:
REMARK  status: ('A' for Active; 'I' for Inactive)
REMARK    1  A    between atoms: C1_2  and  C2_3 
ROOT
ATOM      1  C2  UNL d   1       1.396   0.089   0.490  0.00  0.00    -0.073 A 
ATOM      2  C3  UNL d   1       0.473  -0.962   0.529  0.00  0.00    -0.002 A 
ATOM      3  C4  UNL d   1      -0.897  -0.699   0.483  0.00  0.00     0.004 A 
ATOM      4  C5  UNL d   1      -1.357   0.614   0.391  0.00  0.00    -0.004 A 
ATOM      5  C6  UNL d   1      -0.450   1.677   0.339  0.00  0.00    -0.075 A 
ATOM      6  C7  UNL d   1      -0.928   3.096   0.242  0.00  0.00     0.076 C 
ATOM      7  C8  UNL d   1       0.924   1.405   0.389  0.00  0.00     0.001 A 
ENDROOT
BRANCH   1   8
ATOM      8  C1  UNL d   1       2.876  -0.191   0.534  0.00  0.00     0.053 C 
ATOM      9  C   UNL d   1       3.694   1.085   0.664  0.00  0.00     0.018 C 
ENDBRANCH   1   8
TORSDOF 1
ENDMDL
