MODEL 1
REMARK minimizedAffinity -3.38300109
REMARK minimizedRMSD -1
REMARK  1 active torsions:
REMARK  status: ('A' for Active; 'I' for Inactive)
REMARK    1  A    between atoms: C1_2  and  C2_3 
ROOT
ATOM      1  C2  UNL d   1      -1.958  -4.181  -0.754  0.00  0.00    -0.073 A 
ATOM      2  C3  UNL d   1      -1.642  -4.562  -2.063  0.00  0.00    -0.002 A 
ATOM      3  C4  UNL d   1      -0.473  -4.100  -2.669  0.00  0.00     0.004 A 
ATOM      4  C5  UNL d   1       0.395  -3.259  -1.972  0.00  0.00    -0.004 A 
ATOM      5  C6  UNL d   1       0.102  -2.877  -0.659  0.00  0.00    -0.075 A 
ATOM      6  C7  UNL d   1       1.024  -1.972   0.105  0.00  0.00     0.076 C 
ATOM      7  C8  UNL d   1      -1.075  -3.343  -0.058  0.00  0.00     0.001 A 
ENDROOT
BRANCH   1   8
ATOM      8  C1  UNL d   1      -3.216  -4.682  -0.093  0.00  0.00     0.053 C 
ATOM      9  C   UNL d   1      -4.253  -5.133  -1.109  0.00  0.00     0.018 C 
ENDBRANCH   1   8
TORSDOF 1
ENDMDL
