MODEL 1
REMARK minimizedAffinity -5.18997526
REMARK minimizedRMSD -1
REMARK  1 active torsions:
REMARK  status: ('A' for Active; 'I' for Inactive)
REMARK    1  A    between atoms: C1_2  and  C2_3 
ROOT
ATOM      1  C2  UNL d   1       0.266   0.711   0.696  0.00  0.00    -0.073 A 
ATOM      2  C3  UNL d   1       1.608   0.327   0.594  0.00  0.00    -0.002 A 
ATOM      3  C4  UNL d   1       1.965  -1.019   0.694  0.00  0.00     0.004 A 
ATOM      4  C5  UNL d   1       0.986  -1.993   0.889  0.00  0.00    -0.004 A 
ATOM      5  C6  UNL d   1      -0.361  -1.630   0.982  0.00  0.00    -0.075 A 
ATOM      6  C7  UNL d   1      -1.427  -2.665   1.194  0.00  0.00     0.076 C 
ATOM      7  C8  UNL d   1      -0.712  -0.276   0.883  0.00  0.00     0.001 A 
ENDROOT
BRANCH   1   8
ATOM      8  C1  UNL d   1      -0.125   2.162   0.583  0.00  0.00     0.053 C 
ATOM      9  C   UNL d   1      -0.119   2.861   1.933  0.00  0.00     0.018 C 
ENDBRANCH   1   8
TORSDOF 1
ENDMDL
