MODEL 1
REMARK minimizedAffinity -5.37245035
REMARK minimizedRMSD -1
REMARK  1 active torsions:
REMARK  status: ('A' for Active; 'I' for Inactive)
REMARK    1  A    between atoms: C1_2  and  C2_3 
ROOT
ATOM      1  C2  UNL d   1      -0.007  -0.681   0.246  0.00  0.00    -0.073 A 
ATOM      2  C3  UNL d   1      -1.309  -0.769   0.750  0.00  0.00    -0.002 A 
ATOM      3  C4  UNL d   1      -2.108   0.371   0.844  0.00  0.00     0.004 A 
ATOM      4  C5  UNL d   1      -1.615   1.609   0.430  0.00  0.00    -0.004 A 
ATOM      5  C6  UNL d   1      -0.320   1.716  -0.087  0.00  0.00    -0.075 A 
ATOM      6  C7  UNL d   1       0.225   3.040  -0.534  0.00  0.00     0.076 C 
ATOM      7  C8  UNL d   1       0.476   0.566  -0.176  0.00  0.00     0.001 A 
ENDROOT
BRANCH   1   8
ATOM      8  C1  UNL d   1       0.857  -1.911   0.136  0.00  0.00     0.053 C 
ATOM      9  C   UNL d   1       0.588  -2.683  -1.146  0.00  0.00     0.018 C 
ENDBRANCH   1   8
TORSDOF 1
ENDMDL
