MODEL 1
REMARK minimizedAffinity -2.06721759
REMARK minimizedRMSD -1
REMARK  1 active torsions:
REMARK  status: ('A' for Active; 'I' for Inactive)
REMARK    1  A    between atoms: C1_2  and  C2_3 
ROOT
ATOM      1  C2  UNL d   1      -0.516  -1.633  -1.323  0.00  0.00    -0.073 A 
ATOM      2  C3  UNL d   1       0.729  -1.601  -0.686  0.00  0.00    -0.002 A 
ATOM      3  C4  UNL d   1       1.030  -0.586   0.223  0.00  0.00     0.004 A 
ATOM      4  C5  UNL d   1       0.088   0.402   0.510  0.00  0.00    -0.004 A 
ATOM      5  C6  UNL d   1      -1.167   0.380  -0.108  0.00  0.00    -0.075 A 
ATOM      6  C7  UNL d   1      -2.190   1.436   0.188  0.00  0.00     0.076 C 
ATOM      7  C8  UNL d   1      -1.460  -0.641  -1.022  0.00  0.00     0.001 A 
ENDROOT
BRANCH   1   8
ATOM      8  C1  UNL d   1      -0.848  -2.731  -2.301  0.00  0.00     0.053 C 
ATOM      9  C   UNL d   1      -2.349  -2.910  -2.469  0.00  0.00     0.018 C 
ENDBRANCH   1   8
TORSDOF 1
ENDMDL
