MODEL 1
REMARK minimizedAffinity -4.12745905
REMARK minimizedRMSD -1
REMARK  1 active torsions:
REMARK  status: ('A' for Active; 'I' for Inactive)
REMARK    1  A    between atoms: C1_2  and  C2_3 
ROOT
ATOM      1  C2  UNL d   1       0.887   1.702   0.651  0.00  0.00    -0.073 A 
ATOM      2  C3  UNL d   1      -0.390   2.239   0.846  0.00  0.00    -0.002 A 
ATOM      3  C4  UNL d   1      -1.523   1.441   0.686  0.00  0.00     0.004 A 
ATOM      4  C5  UNL d   1      -1.391   0.096   0.338  0.00  0.00    -0.004 A 
ATOM      5  C6  UNL d   1      -0.123  -0.462   0.151  0.00  0.00    -0.075 A 
ATOM      6  C7  UNL d   1       0.037  -1.906  -0.226  0.00  0.00     0.076 C 
ATOM      7  C8  UNL d   1       1.010   0.347   0.310  0.00  0.00     0.001 A 
ENDROOT
BRANCH   1   8
ATOM      8  C1  UNL d   1       2.114   2.559   0.828  0.00  0.00     0.053 C 
ATOM      9  C   UNL d   1       3.358   1.726   1.095  0.00  0.00     0.018 C 
ENDBRANCH   1   8
TORSDOF 1
ENDMDL
