MODEL 1
REMARK minimizedAffinity -5.73985052
REMARK minimizedRMSD -1
REMARK  1 active torsions:
REMARK  status: ('A' for Active; 'I' for Inactive)
REMARK    1  A    between atoms: C1_2  and  C2_3 
ROOT
ATOM      1  C2  UNL d   1      -0.205  -0.465   0.118  0.00  0.00    -0.073 A 
ATOM      2  C3  UNL d   1      -1.208   0.389   0.589  0.00  0.00    -0.002 A 
ATOM      3  C4  UNL d   1      -1.010   1.771   0.598  0.00  0.00     0.004 A 
ATOM      4  C5  UNL d   1       0.188   2.311   0.131  0.00  0.00    -0.004 A 
ATOM      5  C6  UNL d   1       1.198   1.474  -0.354  0.00  0.00    -0.075 A 
ATOM      6  C7  UNL d   1       2.493   2.040  -0.858  0.00  0.00     0.076 C 
ATOM      7  C8  UNL d   1       0.993   0.088  -0.358  0.00  0.00     0.001 A 
ENDROOT
BRANCH   1   8
ATOM      8  C1  UNL d   1      -0.416  -1.957   0.100  0.00  0.00     0.053 C 
ATOM      9  C   UNL d   1      -0.595  -2.491  -1.312  0.00  0.00     0.018 C 
ENDBRANCH   1   8
TORSDOF 1
ENDMDL
