MODEL 1
REMARK minimizedAffinity 0.287724137
REMARK minimizedRMSD -1
REMARK  1 active torsions:
REMARK  status: ('A' for Active; 'I' for Inactive)
REMARK    1  A    between atoms: C1_2  and  C2_3 
ROOT
ATOM      1  C2  UNL d   1       0.181   0.222   0.528  0.00  0.00    -0.073 A 
ATOM      2  C3  UNL d   1      -1.192   0.011   0.692  0.00  0.00    -0.002 A 
ATOM      3  C4  UNL d   1      -2.083   1.083   0.631  0.00  0.00     0.004 A 
ATOM      4  C5  UNL d   1      -1.611   2.375   0.399  0.00  0.00    -0.004 A 
ATOM      5  C6  UNL d   1      -0.242   2.605   0.220  0.00  0.00    -0.075 A 
ATOM      6  C7  UNL d   1       0.282   3.988  -0.028  0.00  0.00     0.076 C 
ATOM      7  C8  UNL d   1       0.646   1.523   0.286  0.00  0.00     0.001 A 
ENDROOT
BRANCH   1   8
ATOM      8  C1  UNL d   1       1.146  -0.934   0.587  0.00  0.00     0.053 C 
ATOM      9  C   UNL d   1       2.593  -0.472   0.536  0.00  0.00     0.018 C 
ENDBRANCH   1   8
TORSDOF 1
ENDMDL
