MODEL 1
REMARK minimizedAffinity -4.10858202
REMARK minimizedRMSD -1
REMARK  1 active torsions:
REMARK  status: ('A' for Active; 'I' for Inactive)
REMARK    1  A    between atoms: C1_2  and  C2_3 
ROOT
ATOM      1  C2  UNL d   1       0.578   1.406  -0.184  0.00  0.00    -0.073 A 
ATOM      2  C3  UNL d   1       1.135   0.123  -0.245  0.00  0.00    -0.002 A 
ATOM      3  C4  UNL d   1       0.335  -1.002  -0.041  0.00  0.00     0.004 A 
ATOM      4  C5  UNL d   1      -1.028  -0.857   0.219  0.00  0.00    -0.004 A 
ATOM      5  C6  UNL d   1      -1.604   0.416   0.272  0.00  0.00    -0.075 A 
ATOM      6  C7  UNL d   1      -3.068   0.589   0.553  0.00  0.00     0.076 C 
ATOM      7  C8  UNL d   1      -0.794   1.541   0.069  0.00  0.00     0.001 A 
ENDROOT
BRANCH   1   8
ATOM      8  C1  UNL d   1       1.436   2.624  -0.409  0.00  0.00     0.053 C 
ATOM      9  C   UNL d   1       0.745   3.900   0.044  0.00  0.00     0.018 C 
ENDBRANCH   1   8
TORSDOF 1
ENDMDL
