MODEL 1
REMARK minimizedAffinity 3.20680618
REMARK minimizedRMSD -1
REMARK  0 active torsions:
REMARK  status: ('A' for Active; 'I' for Inactive)
ROOT
ATOM      1  C1  BNZ d   1       1.184  -0.371  -5.997  0.00  0.00     0.000 A 
ATOM      2  C2  BNZ d   1      -0.128  -0.763  -6.000  0.00  0.00     0.000 A 
ATOM      3  C3  BNZ d   1      -0.697  -1.315  -4.886  0.00  0.00     0.000 A 
ATOM      4  C4  BNZ d   1       0.057  -1.511  -3.785  0.00  0.00     0.000 A 
ATOM      5  C5  BNZ d   1       1.384  -1.130  -3.769  0.00  0.00     0.000 A 
ATOM      6  C6  BNZ d   1       1.942  -0.539  -4.879  0.00  0.00     0.000 A 
ENDROOT
TORSDOF 0
ENDMDL
