MODEL 1
REMARK minimizedAffinity -2.88003159
REMARK minimizedRMSD -1
REMARK  0 active torsions:
REMARK  status: ('A' for Active; 'I' for Inactive)
ROOT
ATOM      1  C1  BNZ d   1       0.659  -5.939  -3.430  0.00  0.00     0.000 A 
ATOM      2  C2  BNZ d   1      -0.195  -5.930  -4.501  0.00  0.00     0.000 A 
ATOM      3  C3  BNZ d   1       0.286  -5.981  -5.780  0.00  0.00     0.000 A 
ATOM      4  C4  BNZ d   1       1.619  -6.000  -5.986  0.00  0.00     0.000 A 
ATOM      5  C5  BNZ d   1       2.492  -6.000  -4.917  0.00  0.00     0.000 A 
ATOM      6  C6  BNZ d   1       2.004  -5.988  -3.631  0.00  0.00     0.000 A 
ENDROOT
TORSDOF 0
ENDMDL
