MODEL 1
REMARK minimizedAffinity 4.11513424
REMARK minimizedRMSD -1
REMARK  0 active torsions:
REMARK  status: ('A' for Active; 'I' for Inactive)
ROOT
ATOM      1  C1  BNZ d   1       1.435  -0.871   5.060  0.00  0.00     0.000 A 
ATOM      2  C2  BNZ d   1       0.364  -0.657   4.235  0.00  0.00     0.000 A 
ATOM      3  C3  BNZ d   1       0.353  -1.148   2.959  0.00  0.00     0.000 A 
ATOM      4  C4  BNZ d   1       1.428  -1.819   2.498  0.00  0.00     0.000 A 
ATOM      5  C5  BNZ d   1       2.520  -2.035   3.315  0.00  0.00     0.000 A 
ATOM      6  C6  BNZ d   1       2.512  -1.572   4.611  0.00  0.00     0.000 A 
ENDROOT
TORSDOF 0
ENDMDL
