MODEL 1
REMARK minimizedAffinity 3.41866064
REMARK minimizedRMSD -1
REMARK  0 active torsions:
REMARK  status: ('A' for Active; 'I' for Inactive)
ROOT
ATOM      1  C1  BNZ d   1       2.209   0.325  -6.000  0.00  0.00     0.000 A 
ATOM      2  C2  BNZ d   1       3.578   0.345  -6.000  0.00  0.00     0.000 A 
ATOM      3  C3  BNZ d   1       4.289  -0.389  -5.091  0.00  0.00     0.000 A 
ATOM      4  C4  BNZ d   1       3.630  -1.108  -4.160  0.00  0.00     0.000 A 
ATOM      5  C5  BNZ d   1       2.250  -1.131  -4.141  0.00  0.00     0.000 A 
ATOM      6  C6  BNZ d   1       1.538  -0.422  -5.081  0.00  0.00     0.000 A 
ENDROOT
TORSDOF 0
ENDMDL
