MODEL 1
REMARK minimizedAffinity -0.20562613
REMARK minimizedRMSD -1
REMARK  0 active torsions:
REMARK  status: ('A' for Active; 'I' for Inactive)
ROOT
ATOM      1  C1  BNZ d   1       2.426  -0.577  -5.061  0.00  0.00     0.000 A 
ATOM      2  C2  BNZ d   1       1.497  -0.207  -5.997  0.00  0.00     0.000 A 
ATOM      3  C3  BNZ d   1       0.246  -0.757  -5.996  0.00  0.00     0.000 A 
ATOM      4  C4  BNZ d   1      -0.062  -1.703  -5.086  0.00  0.00     0.000 A 
ATOM      5  C5  BNZ d   1       0.867  -2.093  -4.141  0.00  0.00     0.000 A 
ATOM      6  C6  BNZ d   1       2.113  -1.509  -4.121  0.00  0.00     0.000 A 
ENDROOT
TORSDOF 0
ENDMDL
