MODEL 1
REMARK minimizedAffinity 0.0501960963
REMARK minimizedRMSD -1
REMARK  0 active torsions:
REMARK  status: ('A' for Active; 'I' for Inactive)
ROOT
ATOM      1  C1  BNZ d   1       0.543  -0.532  -6.000  0.00  0.00     0.000 A 
ATOM      2  C2  BNZ d   1       1.871  -0.200  -5.999  0.00  0.00     0.000 A 
ATOM      3  C3  BNZ d   1       2.671  -0.519  -4.937  0.00  0.00     0.000 A 
ATOM      4  C4  BNZ d   1       2.135  -1.133  -3.863  0.00  0.00     0.000 A 
ATOM      5  C5  BNZ d   1       0.795  -1.466  -3.846  0.00  0.00     0.000 A 
ATOM      6  C6  BNZ d   1       0.001  -1.178  -4.932  0.00  0.00     0.000 A 
ENDROOT
TORSDOF 0
ENDMDL
