MODEL 1
REMARK minimizedAffinity -1.61560881
REMARK minimizedRMSD -1
REMARK  0 active torsions:
REMARK  status: ('A' for Active; 'I' for Inactive)
ROOT
ATOM      1  C1  BNZ d   1      -0.065  -0.548  -5.998  0.00  0.00     0.000 A 
ATOM      2  C2  BNZ d   1      -0.680  -1.208  -4.968  0.00  0.00     0.000 A 
ATOM      3  C3  BNZ d   1       0.019  -1.562  -3.847  0.00  0.00     0.000 A 
ATOM      4  C4  BNZ d   1       1.338  -1.291  -3.775  0.00  0.00     0.000 A 
ATOM      5  C5  BNZ d   1       1.974  -0.634  -4.809  0.00  0.00     0.000 A 
ATOM      6  C6  BNZ d   1       1.259  -0.245  -5.919  0.00  0.00     0.000 A 
ENDROOT
TORSDOF 0
ENDMDL
