MODEL 1
REMARK minimizedAffinity -1.38764274
REMARK minimizedRMSD -1
REMARK  0 active torsions:
REMARK  status: ('A' for Active; 'I' for Inactive)
ROOT
ATOM      1  C1  BNZ d   1      -1.243  -0.239   2.374  0.00  0.00     0.000 A 
ATOM      2  C2  BNZ d   1      -0.017   0.344   2.549  0.00  0.00     0.000 A 
ATOM      3  C3  BNZ d   1       1.089  -0.416   2.809  0.00  0.00     0.000 A 
ATOM      4  C4  BNZ d   1       0.961  -1.753   2.932  0.00  0.00     0.000 A 
ATOM      5  C5  BNZ d   1      -0.271  -2.355   2.768  0.00  0.00     0.000 A 
ATOM      6  C6  BNZ d   1      -1.375  -1.590   2.468  0.00  0.00     0.000 A 
ENDROOT
TORSDOF 0
ENDMDL
