MODEL 1
REMARK minimizedAffinity -4.08010626
REMARK minimizedRMSD -1
REMARK  0 active torsions:
REMARK  status: ('A' for Active; 'I' for Inactive)
ROOT
ATOM      1  C1  BNZ d   1       0.863   0.082   1.412  0.00  0.00     0.000 A 
ATOM      2  C2  BNZ d   1      -0.303   0.570   0.887  0.00  0.00     0.000 A 
ATOM      3  C3  BNZ d   1      -1.512   0.061   1.272  0.00  0.00     0.000 A 
ATOM      4  C4  BNZ d   1      -1.551  -0.962   2.150  0.00  0.00     0.000 A 
ATOM      5  C5  BNZ d   1      -0.383  -1.472   2.681  0.00  0.00     0.000 A 
ATOM      6  C6  BNZ d   1       0.830  -0.931   2.321  0.00  0.00     0.000 A 
ENDROOT
TORSDOF 0
ENDMDL
