MODEL 1
REMARK minimizedAffinity -3.97164631
REMARK minimizedRMSD -1
REMARK  0 active torsions:
REMARK  status: ('A' for Active; 'I' for Inactive)
ROOT
ATOM      1  C   UNL d   1       2.202  -0.119  -0.106  0.00  0.00     0.124 A 
ATOM      2  C1  UNL d   1       1.352  -1.180  -0.386  0.00  0.00     0.062 A 
ATOM      3  C2  UNL d   1      -0.021  -0.970  -0.482  0.00  0.00     0.162 A 
ATOM      4  C3  UNL d   1      -0.552   0.306  -0.301  0.00  0.00    -0.034 A 
ATOM      5  C4  UNL d   1       0.309   1.368  -0.019  0.00  0.00     0.162 A 
ATOM      6  C5  UNL d   1       1.680   1.154   0.077  0.00  0.00     0.062 A 
ATOM      7  F   UNL d   1       2.500   2.180   0.347  0.00  0.00    -0.097 F 
ATOM      8  F1  UNL d   1      -0.168   2.609   0.161  0.00  0.00    -0.096 F 
ATOM      9  I   UNL d   1      -2.604   0.624  -0.444  0.00  0.00    -0.060 I 
ATOM     10  F2  UNL d   1      -0.819  -2.014  -0.753  0.00  0.00    -0.096 F 
ATOM     11  F3  UNL d   1       1.854  -2.411  -0.562  0.00  0.00    -0.097 F 
ATOM     12  F4  UNL d   1       3.522  -0.324  -0.013  0.00  0.00    -0.092 F 
ENDROOT
TORSDOF 0
ENDMDL
