MODEL 1
REMARK minimizedAffinity 0.935682476
REMARK minimizedRMSD -1
REMARK  0 active torsions:
REMARK  status: ('A' for Active; 'I' for Inactive)
ROOT
ATOM      1  C   UNL d   1       2.832  -0.435  -0.108  0.00  0.00     0.124 A 
ATOM      2  C1  UNL d   1       1.983  -1.528  -0.213  0.00  0.00     0.062 A 
ATOM      3  C2  UNL d   1       0.610  -1.338  -0.348  0.00  0.00     0.162 A 
ATOM      4  C3  UNL d   1       0.078  -0.049  -0.381  0.00  0.00    -0.034 A 
ATOM      5  C4  UNL d   1       0.938   1.046  -0.274  0.00  0.00     0.162 A 
ATOM      6  C5  UNL d   1       2.309   0.851  -0.139  0.00  0.00     0.062 A 
ATOM      7  F   UNL d   1       3.128   1.908  -0.037  0.00  0.00    -0.097 F 
ATOM      8  F1  UNL d   1       0.460   2.299  -0.302  0.00  0.00    -0.096 F 
ATOM      9  I   UNL d   1      -1.973   0.240  -0.584  0.00  0.00    -0.060 I 
ATOM     10  F2  UNL d   1      -0.186  -2.412  -0.448  0.00  0.00    -0.096 F 
ATOM     11  F3  UNL d   1       2.485  -2.770  -0.182  0.00  0.00    -0.097 F 
ATOM     12  F4  UNL d   1       4.151  -0.620   0.024  0.00  0.00    -0.092 F 
ENDROOT
TORSDOF 0
ENDMDL
