MODEL 1
REMARK minimizedAffinity 1.88583255
REMARK minimizedRMSD -1
REMARK  0 active torsions:
REMARK  status: ('A' for Active; 'I' for Inactive)
ROOT
ATOM      1  C   UNL d   1       0.147  -1.415  -0.338  0.00  0.00     0.124 A 
ATOM      2  C1  UNL d   1       1.506  -1.694  -0.358  0.00  0.00     0.062 A 
ATOM      3  C2  UNL d   1       2.435  -0.664  -0.244  0.00  0.00     0.162 A 
ATOM      4  C3  UNL d   1       2.007   0.657  -0.108  0.00  0.00    -0.034 A 
ATOM      5  C4  UNL d   1       0.638   0.931  -0.089  0.00  0.00     0.162 A 
ATOM      6  C5  UNL d   1      -0.286  -0.103  -0.203  0.00  0.00     0.062 A 
ATOM      7  F   UNL d   1      -1.599   0.169  -0.184  0.00  0.00    -0.097 F 
ATOM      8  F1  UNL d   1       0.192   2.189   0.041  0.00  0.00    -0.096 F 
ATOM      9  I   UNL d   1       3.392   2.201   0.063  0.00  0.00    -0.060 I 
ATOM     10  F2  UNL d   1       3.742  -0.963  -0.266  0.00  0.00    -0.096 F 
ATOM     11  F3  UNL d   1       1.927  -2.961  -0.488  0.00  0.00    -0.097 F 
ATOM     12  F4  UNL d   1      -0.744  -2.408  -0.448  0.00  0.00    -0.092 F 
ENDROOT
TORSDOF 0
ENDMDL
