MODEL 1
REMARK minimizedAffinity -0.305145264
REMARK minimizedRMSD -1
REMARK  0 active torsions:
REMARK  status: ('A' for Active; 'I' for Inactive)
ROOT
ATOM      1  C   UNL d   1       1.956  -0.461  -0.651  0.00  0.00     0.124 A 
ATOM      2  C1  UNL d   1       1.136  -1.578  -0.717  0.00  0.00     0.062 A 
ATOM      3  C2  UNL d   1      -0.246  -1.439  -0.626  0.00  0.00     0.162 A 
ATOM      4  C3  UNL d   1      -0.817  -0.176  -0.469  0.00  0.00    -0.034 A 
ATOM      5  C4  UNL d   1       0.015   0.943  -0.402  0.00  0.00     0.162 A 
ATOM      6  C5  UNL d   1       1.395   0.799  -0.494  0.00  0.00     0.062 A 
ATOM      7  F   UNL d   1       2.186   1.880  -0.430  0.00  0.00    -0.097 F 
ATOM      8  F1  UNL d   1      -0.501   2.172  -0.251  0.00  0.00    -0.096 F 
ATOM      9  I   UNL d   1      -2.883   0.036  -0.331  0.00  0.00    -0.060 I 
ATOM     10  F2  UNL d   1      -1.014  -2.537  -0.693  0.00  0.00    -0.096 F 
ATOM     11  F3  UNL d   1       1.676  -2.796  -0.868  0.00  0.00    -0.097 F 
ATOM     12  F4  UNL d   1       3.286  -0.598  -0.739  0.00  0.00    -0.092 F 
ENDROOT
TORSDOF 0
ENDMDL
