MODEL 1
REMARK minimizedAffinity 0.140556544
REMARK minimizedRMSD -1
REMARK  0 active torsions:
REMARK  status: ('A' for Active; 'I' for Inactive)
ROOT
ATOM      1  C   UNL d   1       0.702  -0.257  -0.367  0.00  0.00     0.124 A 
ATOM      2  C1  UNL d   1       0.044  -1.391   0.088  0.00  0.00     0.062 A 
ATOM      3  C2  UNL d   1      -1.287  -1.315   0.488  0.00  0.00     0.162 A 
ATOM      4  C3  UNL d   1      -1.970  -0.100   0.432  0.00  0.00    -0.034 A 
ATOM      5  C4  UNL d   1      -1.302   1.036  -0.026  0.00  0.00     0.162 A 
ATOM      6  C5  UNL d   1       0.029   0.955  -0.424  0.00  0.00     0.062 A 
ATOM      7  F   UNL d   1       0.662   2.052  -0.864  0.00  0.00    -0.097 F 
ATOM      8  F1  UNL d   1      -1.929   2.220  -0.092  0.00  0.00    -0.096 F 
ATOM      9  I   UNL d   1      -3.961   0.018   1.029  0.00  0.00    -0.060 I 
ATOM     10  F2  UNL d   1      -1.898  -2.427   0.924  0.00  0.00    -0.096 F 
ATOM     11  F3  UNL d   1       0.692  -2.563   0.145  0.00  0.00    -0.097 F 
ATOM     12  F4  UNL d   1       1.983  -0.332  -0.750  0.00  0.00    -0.092 F 
ENDROOT
TORSDOF 0
ENDMDL
