MODEL 1
REMARK minimizedAffinity 0.89590317
REMARK minimizedRMSD -1
REMARK  0 active torsions:
REMARK  status: ('A' for Active; 'I' for Inactive)
ROOT
ATOM      1  C   UNL d   1       2.036  -0.556   0.008  0.00  0.00     0.124 A 
ATOM      2  C1  UNL d   1       1.606   0.724  -0.315  0.00  0.00     0.062 A 
ATOM      3  C2  UNL d   1       0.245   1.004  -0.399  0.00  0.00     0.162 A 
ATOM      4  C3  UNL d   1      -0.696   0.003  -0.159  0.00  0.00    -0.034 A 
ATOM      5  C4  UNL d   1      -0.256  -1.281   0.164  0.00  0.00     0.162 A 
ATOM      6  C5  UNL d   1       1.105  -1.557   0.247  0.00  0.00     0.062 A 
ATOM      7  F   UNL d   1       1.519  -2.794   0.559  0.00  0.00    -0.097 F 
ATOM      8  F1  UNL d   1      -1.134  -2.267   0.401  0.00  0.00    -0.096 F 
ATOM      9  I   UNL d   1      -2.732   0.419  -0.284  0.00  0.00    -0.060 I 
ATOM     10  F2  UNL d   1      -0.142   2.250  -0.713  0.00  0.00    -0.096 F 
ATOM     11  F3  UNL d   1       2.503   1.693  -0.548  0.00  0.00    -0.097 F 
ATOM     12  F4  UNL d   1       3.346  -0.823   0.087  0.00  0.00    -0.092 F 
ENDROOT
TORSDOF 0
ENDMDL
