MODEL 1
REMARK minimizedAffinity 0.77924639
REMARK minimizedRMSD -1
REMARK  0 active torsions:
REMARK  status: ('A' for Active; 'I' for Inactive)
ROOT
ATOM      1  C   UNL d   1       2.405  -0.336  -0.287  0.00  0.00     0.124 A 
ATOM      2  C1  UNL d   1       1.505  -1.388  -0.191  0.00  0.00     0.062 A 
ATOM      3  C2  UNL d   1       0.141  -1.134  -0.075  0.00  0.00     0.162 A 
ATOM      4  C3  UNL d   1      -0.331   0.178  -0.055  0.00  0.00    -0.034 A 
ATOM      5  C4  UNL d   1       0.580   1.231  -0.150  0.00  0.00     0.162 A 
ATOM      6  C5  UNL d   1       1.942   0.972  -0.266  0.00  0.00     0.062 A 
ATOM      7  F   UNL d   1       2.811   1.990  -0.358  0.00  0.00    -0.097 F 
ATOM      8  F1  UNL d   1       0.160   2.505  -0.133  0.00  0.00    -0.096 F 
ATOM      9  I   UNL d   1      -2.369   0.562   0.119  0.00  0.00    -0.060 I 
ATOM     10  F2  UNL d   1      -0.706  -2.170   0.015  0.00  0.00    -0.096 F 
ATOM     11  F3  UNL d   1       1.949  -2.653  -0.210  0.00  0.00    -0.097 F 
ATOM     12  F4  UNL d   1       3.717  -0.583  -0.398  0.00  0.00    -0.092 F 
ENDROOT
TORSDOF 0
ENDMDL
