MODEL 1
REMARK minimizedAffinity -1.14525414
REMARK minimizedRMSD -1
REMARK  0 active torsions:
REMARK  status: ('A' for Active; 'I' for Inactive)
ROOT
ATOM      1  C   UNL d   1       2.215   1.055  -0.184  0.00  0.00     0.124 A 
ATOM      2  C1  UNL d   1       2.684  -0.249  -0.260  0.00  0.00     0.062 A 
ATOM      3  C2  UNL d   1       1.796  -1.301  -0.466  0.00  0.00     0.162 A 
ATOM      4  C3  UNL d   1       0.430  -1.053  -0.599  0.00  0.00    -0.034 A 
ATOM      5  C4  UNL d   1      -0.034   0.261  -0.521  0.00  0.00     0.162 A 
ATOM      6  C5  UNL d   1       0.857   1.309  -0.315  0.00  0.00     0.062 A 
ATOM      7  F   UNL d   1       0.403   2.569  -0.243  0.00  0.00    -0.097 F 
ATOM      8  F1  UNL d   1      -1.341   0.535  -0.645  0.00  0.00    -0.096 F 
ATOM      9  I   UNL d   1      -0.901  -2.623  -0.907  0.00  0.00    -0.060 I 
ATOM     10  F2  UNL d   1       2.276  -2.551  -0.534  0.00  0.00    -0.096 F 
ATOM     11  F3  UNL d   1       3.995  -0.497  -0.133  0.00  0.00    -0.097 F 
ATOM     12  F4  UNL d   1       3.071   2.065   0.015  0.00  0.00    -0.092 F 
ENDROOT
TORSDOF 0
ENDMDL
