MODEL 1
REMARK minimizedAffinity -3.89298463
REMARK minimizedRMSD -1
REMARK  0 active torsions:
REMARK  status: ('A' for Active; 'I' for Inactive)
ROOT
ATOM      1  C   UNL d   1       3.039  -0.230  -0.014  0.00  0.00     0.124 A 
ATOM      2  C1  UNL d   1       2.055  -1.204  -0.107  0.00  0.00     0.062 A 
ATOM      3  C2  UNL d   1       0.717  -0.839  -0.224  0.00  0.00     0.162 A 
ATOM      4  C3  UNL d   1       0.354   0.507  -0.250  0.00  0.00    -0.034 A 
ATOM      5  C4  UNL d   1       1.349   1.482  -0.155  0.00  0.00     0.162 A 
ATOM      6  C5  UNL d   1       2.685   1.112  -0.038  0.00  0.00     0.062 A 
ATOM      7  F   UNL d   1       3.634   2.055   0.052  0.00  0.00    -0.097 F 
ATOM      8  F1  UNL d   1       1.036   2.786  -0.177  0.00  0.00    -0.096 F 
ATOM      9  I   UNL d   1      -1.645   1.057  -0.425  0.00  0.00    -0.060 I 
ATOM     10  F2  UNL d   1      -0.213  -1.802  -0.313  0.00  0.00    -0.096 F 
ATOM     11  F3  UNL d   1       2.393  -2.501  -0.083  0.00  0.00    -0.097 F 
ATOM     12  F4  UNL d   1       4.325  -0.584   0.100  0.00  0.00    -0.092 F 
ENDROOT
TORSDOF 0
ENDMDL
