MODEL 1
REMARK minimizedAffinity 0.308292866
REMARK minimizedRMSD -1
REMARK  0 active torsions:
REMARK  status: ('A' for Active; 'I' for Inactive)
ROOT
ATOM      1  C   UNL d   1       1.739  -2.140  -0.970  0.00  0.00     0.124 A 
ATOM      2  C1  UNL d   1       2.573  -1.260  -0.295  0.00  0.00     0.062 A 
ATOM      3  C2  UNL d   1       2.115   0.006   0.060  0.00  0.00     0.162 A 
ATOM      4  C3  UNL d   1       0.816   0.400  -0.261  0.00  0.00    -0.034 A 
ATOM      5  C4  UNL d   1      -0.017  -0.490  -0.942  0.00  0.00     0.162 A 
ATOM      6  C5  UNL d   1       0.445  -1.754  -1.293  0.00  0.00     0.062 A 
ATOM      7  F   UNL d   1      -0.362  -2.603  -1.946  0.00  0.00    -0.097 F 
ATOM      8  F1  UNL d   1      -1.272  -0.144  -1.265  0.00  0.00    -0.096 F 
ATOM      9  I   UNL d   1       0.128   2.292   0.267  0.00  0.00    -0.060 I 
ATOM     10  F2  UNL d   1       2.943   0.836   0.712  0.00  0.00    -0.096 F 
ATOM     11  F3  UNL d   1       3.823  -1.630   0.018  0.00  0.00    -0.097 F 
ATOM     12  F4  UNL d   1       2.182  -3.357  -1.311  0.00  0.00    -0.092 F 
ENDROOT
TORSDOF 0
ENDMDL
