MODEL 1
REMARK minimizedAffinity 7.23198938
REMARK minimizedRMSD -1
REMARK  0 active torsions:
REMARK  status: ('A' for Active; 'I' for Inactive)
ROOT
ATOM      1  C   UNL d   1       2.529  -2.250   0.799  0.00  0.00     0.020 A 
ATOM      2  C1  UNL d   1       2.838  -1.141   0.012  0.00  0.00     0.020 A 
ATOM      3  C2  UNL d   1       2.109  -0.887  -1.152  0.00  0.00     0.034 A 
ATOM      4  C3  UNL d   1       1.068  -1.742  -1.532  0.00  0.00     0.017 A 
ATOM      5  C4  UNL d   1       0.759  -2.855  -0.740  0.00  0.00     0.017 A 
ATOM      6  C5  UNL d   1       1.492  -3.105   0.424  0.00  0.00     0.034 A 
ATOM      7 Cl   UNL d   1      -0.511  -3.955  -1.144  0.00  0.00    -0.070 Cl
ATOM      8 Cl1  UNL d   1       0.209  -1.367  -2.983  0.00  0.00    -0.070 Cl
ENDROOT
TORSDOF 0
ENDMDL
