MODEL 1
REMARK minimizedAffinity 3.78154898
REMARK minimizedRMSD -1
REMARK  0 active torsions:
REMARK  status: ('A' for Active; 'I' for Inactive)
ROOT
ATOM      1  C   UNL d   1      -4.458   0.780  -4.464  0.00  0.00     0.020 A 
ATOM      2  C1  UNL d   1      -3.263   1.334  -4.924  0.00  0.00     0.020 A 
ATOM      3  C2  UNL d   1      -2.042   0.854  -4.447  0.00  0.00     0.034 A 
ATOM      4  C3  UNL d   1      -2.012  -0.183  -3.507  0.00  0.00     0.017 A 
ATOM      5  C4  UNL d   1      -3.211  -0.738  -3.046  0.00  0.00     0.017 A 
ATOM      6  C5  UNL d   1      -4.431  -0.254  -3.528  0.00  0.00     0.034 A 
ATOM      7 Cl   UNL d   1      -3.254  -2.020  -1.888  0.00  0.00    -0.070 Cl
ATOM      8 Cl1  UNL d   1      -0.466  -0.727  -2.961  0.00  0.00    -0.070 Cl
ENDROOT
TORSDOF 0
ENDMDL
