MODEL 1
REMARK minimizedAffinity 3.28828502
REMARK minimizedRMSD -1
REMARK  0 active torsions:
REMARK  status: ('A' for Active; 'I' for Inactive)
ROOT
ATOM      1  C   UNL d   1       4.098   1.187   0.590  0.00  0.00     0.020 A 
ATOM      2  C1  UNL d   1       3.085   2.103   0.308  0.00  0.00     0.020 A 
ATOM      3  C2  UNL d   1       1.838   1.652  -0.130  0.00  0.00     0.034 A 
ATOM      4  C3  UNL d   1       1.601   0.281  -0.288  0.00  0.00     0.017 A 
ATOM      5  C4  UNL d   1       2.619  -0.637  -0.005  0.00  0.00     0.017 A 
ATOM      6  C5  UNL d   1       3.865  -0.180   0.433  0.00  0.00     0.034 A 
ATOM      7 Cl   UNL d   1       2.401  -2.343  -0.176  0.00  0.00    -0.070 Cl
ATOM      8 Cl1  UNL d   1       0.035  -0.206  -0.834  0.00  0.00    -0.070 Cl
ENDROOT
TORSDOF 0
ENDMDL
