MODEL 1
REMARK minimizedAffinity 10.8714027
REMARK minimizedRMSD -1
REMARK  0 active torsions:
REMARK  status: ('A' for Active; 'I' for Inactive)
ROOT
ATOM      1  C   UNL d   1      -4.059   3.096  -5.361  0.00  0.00     0.020 A 
ATOM      2  C1  UNL d   1      -5.421   2.984  -5.635  0.00  0.00     0.020 A 
ATOM      3  C2  UNL d   1      -5.999   1.723  -5.796  0.00  0.00     0.034 A 
ATOM      4  C3  UNL d   1      -5.215   0.569  -5.683  0.00  0.00     0.017 A 
ATOM      5  C4  UNL d   1      -3.847   0.683  -5.408  0.00  0.00     0.017 A 
ATOM      6  C5  UNL d   1      -3.274   1.948  -5.247  0.00  0.00     0.034 A 
ATOM      7 Cl   UNL d   1      -2.815  -0.695  -5.254  0.00  0.00    -0.070 Cl
ATOM      8 Cl1  UNL d   1      -5.996  -0.958  -5.894  0.00  0.00    -0.070 Cl
ENDROOT
TORSDOF 0
ENDMDL
