MODEL 1
REMARK minimizedAffinity 8.96432114
REMARK minimizedRMSD -1
REMARK  0 active torsions:
REMARK  status: ('A' for Active; 'I' for Inactive)
ROOT
ATOM      1  C   UNL d   1       3.726  -1.341   1.596  0.00  0.00     0.020 A 
ATOM      2  C1  UNL d   1       3.513  -2.344   0.651  0.00  0.00     0.020 A 
ATOM      3  C2  UNL d   1       2.538  -2.179  -0.334  0.00  0.00     0.034 A 
ATOM      4  C3  UNL d   1       1.771  -1.009  -0.377  0.00  0.00     0.017 A 
ATOM      5  C4  UNL d   1       1.985  -0.002   0.572  0.00  0.00     0.017 A 
ATOM      6  C5  UNL d   1       2.964  -0.173   1.556  0.00  0.00     0.034 A 
ATOM      7 Cl   UNL d   1       1.079   1.469   0.583  0.00  0.00    -0.070 Cl
ATOM      8 Cl1  UNL d   1       0.582  -0.872  -1.623  0.00  0.00    -0.070 Cl
ENDROOT
TORSDOF 0
ENDMDL
