MODEL 1
REMARK minimizedAffinity 9.84085751
REMARK minimizedRMSD -1
REMARK  0 active torsions:
REMARK  status: ('A' for Active; 'I' for Inactive)
ROOT
ATOM      1  C   UNL d   1       4.112   0.264   0.338  0.00  0.00     0.020 A 
ATOM      2  C1  UNL d   1       3.293  -0.738   0.857  0.00  0.00     0.020 A 
ATOM      3  C2  UNL d   1       2.012  -0.425   1.317  0.00  0.00     0.034 A 
ATOM      4  C3  UNL d   1       1.547   0.893   1.260  0.00  0.00     0.017 A 
ATOM      5  C4  UNL d   1       2.369   1.899   0.739  0.00  0.00     0.017 A 
ATOM      6  C5  UNL d   1       3.651   1.580   0.280  0.00  0.00     0.034 A 
ATOM      7 Cl   UNL d   1       1.864   3.549   0.636  0.00  0.00    -0.070 Cl
ATOM      8 Cl1  UNL d   1      -0.048   1.208   1.846  0.00  0.00    -0.070 Cl
ENDROOT
TORSDOF 0
ENDMDL
