MODEL 1
REMARK minimizedAffinity 2.79906034
REMARK minimizedRMSD -1
REMARK  0 active torsions:
REMARK  status: ('A' for Active; 'I' for Inactive)
ROOT
ATOM      1  C   UNL d   1      -4.980   1.351  -1.673  0.00  0.00     0.020 A 
ATOM      2  C1  UNL d   1      -4.046   0.632  -0.928  0.00  0.00     0.020 A 
ATOM      3  C2  UNL d   1      -2.853   0.214  -1.522  0.00  0.00     0.034 A 
ATOM      4  C3  UNL d   1      -2.591   0.514  -2.864  0.00  0.00     0.017 A 
ATOM      5  C4  UNL d   1      -3.530   1.236  -3.610  0.00  0.00     0.017 A 
ATOM      6  C5  UNL d   1      -4.723   1.652  -3.011  0.00  0.00     0.034 A 
ATOM      7 Cl   UNL d   1      -3.278   1.644  -5.271  0.00  0.00    -0.070 Cl
ATOM      8 Cl1  UNL d   1      -1.096  -0.034  -3.533  0.00  0.00    -0.070 Cl
ENDROOT
TORSDOF 0
ENDMDL
