MODEL 1
REMARK minimizedAffinity 5.57545328
REMARK minimizedRMSD -1
REMARK  0 active torsions:
REMARK  status: ('A' for Active; 'I' for Inactive)
ROOT
ATOM      1  C   UNL d   1       3.489  -1.918   0.846  0.00  0.00     0.020 A 
ATOM      2  C1  UNL d   1       3.488  -0.731   1.578  0.00  0.00     0.020 A 
ATOM      3  C2  UNL d   1       2.630   0.311   1.219  0.00  0.00     0.034 A 
ATOM      4  C3  UNL d   1       1.770   0.167   0.124  0.00  0.00     0.017 A 
ATOM      5  C4  UNL d   1       1.771  -1.024  -0.610  0.00  0.00     0.017 A 
ATOM      6  C5  UNL d   1       2.633  -2.064  -0.245  0.00  0.00     0.034 A 
ATOM      7 Cl   UNL d   1       0.738  -1.275  -1.972  0.00  0.00    -0.070 Cl
ATOM      8 Cl1  UNL d   1       0.735   1.496  -0.263  0.00  0.00    -0.070 Cl
ENDROOT
TORSDOF 0
ENDMDL
