MODEL 1
REMARK minimizedAffinity 5.37414694
REMARK minimizedRMSD -1
REMARK  0 active torsions:
REMARK  status: ('A' for Active; 'I' for Inactive)
ROOT
ATOM      1  C   UNL d   1      -4.510   0.884  -5.542  0.00  0.00     0.020 A 
ATOM      2  C1  UNL d   1      -5.537   0.007  -5.192  0.00  0.00     0.020 A 
ATOM      3  C2  UNL d   1      -5.336  -0.936  -4.182  0.00  0.00     0.034 A 
ATOM      4  C3  UNL d   1      -4.106  -1.004  -3.517  0.00  0.00     0.017 A 
ATOM      5  C4  UNL d   1      -3.076  -0.123  -3.869  0.00  0.00     0.017 A 
ATOM      6  C5  UNL d   1      -3.283   0.819  -4.881  0.00  0.00     0.034 A 
ATOM      7 Cl   UNL d   1      -1.531  -0.147  -3.094  0.00  0.00    -0.070 Cl
ATOM      8 Cl1  UNL d   1      -3.927  -2.194  -2.277  0.00  0.00    -0.070 Cl
ENDROOT
TORSDOF 0
ENDMDL
