MODEL 1
REMARK minimizedAffinity 3.24471235
REMARK minimizedRMSD -1
REMARK  0 active torsions:
REMARK  status: ('A' for Active; 'I' for Inactive)
ROOT
ATOM      1  C   UNL d   1       4.354   1.863   1.143  0.00  0.00     0.020 A 
ATOM      2  C1  UNL d   1       3.489   2.922   1.413  0.00  0.00     0.020 A 
ATOM      3  C2  UNL d   1       2.125   2.798   1.137  0.00  0.00     0.034 A 
ATOM      4  C3  UNL d   1       1.624   1.611   0.589  0.00  0.00     0.017 A 
ATOM      5  C4  UNL d   1       2.494   0.549   0.319  0.00  0.00     0.017 A 
ATOM      6  C5  UNL d   1       3.858   0.679   0.597  0.00  0.00     0.034 A 
ATOM      7 Cl   UNL d   1       1.949  -0.946  -0.356  0.00  0.00    -0.070 Cl
ATOM      8 Cl1  UNL d   1      -0.073   1.526   0.274  0.00  0.00    -0.070 Cl
ENDROOT
TORSDOF 0
ENDMDL
