MODEL 1
REMARK minimizedAffinity -2.89798188
REMARK minimizedRMSD -1
REMARK  0 active torsions:
REMARK  status: ('A' for Active; 'I' for Inactive)
ROOT
ATOM      1  C   UNL d   1       0.783  -0.169   3.113  0.00  0.00     0.023 A 
ATOM      2  C1  UNL d   1       1.054   1.032   2.457  0.00  0.00     0.003 A 
ATOM      3  C2  UNL d   1       0.657   1.209   1.130  0.00  0.00     0.048 A 
ATOM      4  C3  UNL d   1      -0.011   0.181   0.465  0.00  0.00     0.023 A 
ATOM      5  C4  UNL d   1      -0.285  -1.022   1.118  0.00  0.00     0.048 A 
ATOM      6  C5  UNL d   1       0.115  -1.194   2.445  0.00  0.00     0.003 A 
ATOM      7  I   UNL d   1      -0.603   0.442  -1.510  0.00  0.00    -0.146 I 
ENDROOT
TORSDOF 0
ENDMDL
