MODEL 1
REMARK minimizedAffinity -4.47806692
REMARK minimizedRMSD -1
REMARK  0 active torsions:
REMARK  status: ('A' for Active; 'I' for Inactive)
ROOT
ATOM      1  C   UNL d   1      -1.888   4.535  -2.972  0.00  0.00     0.023 A 
ATOM      2  C1  UNL d   1      -0.672   3.852  -3.002  0.00  0.00     0.003 A 
ATOM      3  C2  UNL d   1      -0.317   3.008  -1.947  0.00  0.00     0.048 A 
ATOM      4  C3  UNL d   1      -1.183   2.852  -0.866  0.00  0.00     0.023 A 
ATOM      5  C4  UNL d   1      -2.401   3.532  -0.831  0.00  0.00     0.048 A 
ATOM      6  C5  UNL d   1      -2.751   4.375  -1.888  0.00  0.00     0.003 A 
ATOM      7  I   UNL d   1      -0.656   1.597   0.705  0.00  0.00    -0.146 I 
ENDROOT
TORSDOF 0
ENDMDL
