MODEL 1
REMARK minimizedAffinity -4.35717106
REMARK minimizedRMSD -1
REMARK  0 active torsions:
REMARK  status: ('A' for Active; 'I' for Inactive)
ROOT
ATOM      1  C   UNL d   1      -1.002   2.778  -1.911  0.00  0.00     0.023 A 
ATOM      2  C1  UNL d   1      -1.835   3.822  -1.508  0.00  0.00     0.003 A 
ATOM      3  C2  UNL d   1      -3.187   3.812  -1.857  0.00  0.00     0.048 A 
ATOM      4  C3  UNL d   1      -3.700   2.756  -2.608  0.00  0.00     0.023 A 
ATOM      5  C4  UNL d   1      -2.870   1.709  -3.013  0.00  0.00     0.048 A 
ATOM      6  C5  UNL d   1      -1.519   1.723  -2.663  0.00  0.00     0.003 A 
ATOM      7  I   UNL d   1      -5.712   2.739  -3.129  0.00  0.00    -0.146 I 
ENDROOT
TORSDOF 0
ENDMDL
