MODEL 1
REMARK minimizedAffinity -2.66912866
REMARK minimizedRMSD -1
REMARK  0 active torsions:
REMARK  status: ('A' for Active; 'I' for Inactive)
ROOT
ATOM      1  C   UNL d   1      -1.834   3.704  -3.540  0.00  0.00     0.023 A 
ATOM      2  C1  UNL d   1      -0.757   2.973  -4.041  0.00  0.00     0.003 A 
ATOM      3  C2  UNL d   1      -0.204   1.936  -3.286  0.00  0.00     0.048 A 
ATOM      4  C3  UNL d   1      -0.734   1.635  -2.032  0.00  0.00     0.023 A 
ATOM      5  C4  UNL d   1      -1.813   2.363  -1.527  0.00  0.00     0.048 A 
ATOM      6  C5  UNL d   1      -2.361   3.400  -2.285  0.00  0.00     0.003 A 
ATOM      7  I   UNL d   1       0.087   0.092  -0.907  0.00  0.00    -0.146 I 
ENDROOT
TORSDOF 0
ENDMDL
