MODEL 1
REMARK minimizedAffinity -4.39682531
REMARK minimizedRMSD -1
REMARK  0 active torsions:
REMARK  status: ('A' for Active; 'I' for Inactive)
ROOT
ATOM      1  C   UNL d   1       1.024  -0.672   2.934  0.00  0.00     0.023 A 
ATOM      2  C1  UNL d   1      -0.338  -0.769   2.650  0.00  0.00     0.003 A 
ATOM      3  C2  UNL d   1      -0.805  -0.500   1.361  0.00  0.00     0.048 A 
ATOM      4  C3  UNL d   1       0.096  -0.136   0.362  0.00  0.00     0.023 A 
ATOM      5  C4  UNL d   1       1.460  -0.038   0.641  0.00  0.00     0.048 A 
ATOM      6  C5  UNL d   1       1.922  -0.307   1.931  0.00  0.00     0.003 A 
ATOM      7  I   UNL d   1      -0.596   0.264  -1.557  0.00  0.00    -0.146 I 
ENDROOT
TORSDOF 0
ENDMDL
