MODEL 1
REMARK minimizedAffinity -3.52768397
REMARK minimizedRMSD -1
REMARK  0 active torsions:
REMARK  status: ('A' for Active; 'I' for Inactive)
ROOT
ATOM      1  C   UNL d   1       1.347  -1.842   1.931  0.00  0.00     0.023 A 
ATOM      2  C1  UNL d   1       0.224  -1.064   2.212  0.00  0.00     0.003 A 
ATOM      3  C2  UNL d   1      -0.381  -0.317   1.200  0.00  0.00     0.048 A 
ATOM      4  C3  UNL d   1       0.141  -0.354  -0.093  0.00  0.00     0.023 A 
ATOM      5  C4  UNL d   1       1.264  -1.131  -0.379  0.00  0.00     0.048 A 
ATOM      6  C5  UNL d   1       1.867  -1.876   0.637  0.00  0.00     0.003 A 
ATOM      7  I   UNL d   1      -0.758   0.757  -1.602  0.00  0.00    -0.146 I 
ENDROOT
TORSDOF 0
ENDMDL
