MODEL 1
REMARK minimizedAffinity -0.212385833
REMARK minimizedRMSD -1
REMARK  0 active torsions:
REMARK  status: ('A' for Active; 'I' for Inactive)
ROOT
ATOM      1  C   UNL d   1       0.281  -0.637   0.739  0.00  0.00     0.023 A 
ATOM      2  C1  UNL d   1       0.803  -0.418  -0.536  0.00  0.00     0.003 A 
ATOM      3  C2  UNL d   1       0.170   0.470  -1.408  0.00  0.00     0.048 A 
ATOM      4  C3  UNL d   1      -0.983   1.138  -0.998  0.00  0.00     0.023 A 
ATOM      5  C4  UNL d   1      -1.509   0.923   0.277  0.00  0.00     0.048 A 
ATOM      6  C5  UNL d   1      -0.874   0.033   1.145  0.00  0.00     0.003 A 
ATOM      7  I   UNL d   1      -1.926   2.461  -2.294  0.00  0.00    -0.146 I 
ENDROOT
TORSDOF 0
ENDMDL
