MODEL 1
REMARK minimizedAffinity -1.54405177
REMARK minimizedRMSD -1
REMARK  0 active torsions:
REMARK  status: ('A' for Active; 'I' for Inactive)
ROOT
ATOM      1  C   UNL d   1      -4.776   2.443  -2.397  0.00  0.00     0.023 A 
ATOM      2  C1  UNL d   1      -3.762   1.485  -2.378  0.00  0.00     0.003 A 
ATOM      3  C2  UNL d   1      -2.450   1.848  -2.690  0.00  0.00     0.048 A 
ATOM      4  C3  UNL d   1      -2.159   3.172  -3.019  0.00  0.00     0.023 A 
ATOM      5  C4  UNL d   1      -3.170   4.134  -3.039  0.00  0.00     0.048 A 
ATOM      6  C5  UNL d   1      -4.480   3.766  -2.727  0.00  0.00     0.003 A 
ATOM      7  I   UNL d   1      -0.207   3.715  -3.483  0.00  0.00    -0.146 I 
ENDROOT
TORSDOF 0
ENDMDL
