MODEL 1
REMARK minimizedAffinity -2.8755095
REMARK minimizedRMSD -1
REMARK  0 active torsions:
REMARK  status: ('A' for Active; 'I' for Inactive)
ROOT
ATOM      1  C   UNL d   1       1.802  -2.639   2.199  0.00  0.00     0.023 A 
ATOM      2  C1  UNL d   1       2.255  -2.696   0.881  0.00  0.00     0.003 A 
ATOM      3  C2  UNL d   1       1.652  -1.905  -0.100  0.00  0.00     0.048 A 
ATOM      4  C3  UNL d   1       0.598  -1.060   0.244  0.00  0.00     0.023 A 
ATOM      5  C4  UNL d   1       0.142  -0.999   1.562  0.00  0.00     0.048 A 
ATOM      6  C5  UNL d   1       0.747  -1.792   2.539  0.00  0.00     0.003 A 
ATOM      7  I   UNL d   1      -0.300   0.118  -1.214  0.00  0.00    -0.146 I 
ENDROOT
TORSDOF 0
ENDMDL
