MODEL 1
REMARK minimizedAffinity -3.35026455
REMARK minimizedRMSD -1
REMARK  0 active torsions:
REMARK  status: ('A' for Active; 'I' for Inactive)
ROOT
ATOM      1  C   UNL d   1      -0.698  -0.112   1.983  0.00  0.00     0.023 A 
ATOM      2  C1  UNL d   1       0.114  -1.194   2.323  0.00  0.00     0.003 A 
ATOM      3  C2  UNL d   1       1.044  -1.686   1.405  0.00  0.00     0.048 A 
ATOM      4  C3  UNL d   1       1.158  -1.090   0.150  0.00  0.00     0.023 A 
ATOM      5  C4  UNL d   1       0.348  -0.007  -0.195  0.00  0.00     0.048 A 
ATOM      6  C5  UNL d   1      -0.581   0.481   0.726  0.00  0.00     0.003 A 
ATOM      7  I   UNL d   1       2.542  -1.820  -1.218  0.00  0.00    -0.146 I 
ENDROOT
TORSDOF 0
ENDMDL
