MODEL 1
REMARK minimizedAffinity -1.38172352
REMARK minimizedRMSD -1
REMARK  0 active torsions:
REMARK  status: ('A' for Active; 'I' for Inactive)
ROOT
ATOM      1  C   UNL d   1       1.364  -0.805   3.163  0.00  0.00     0.023 A 
ATOM      2  C1  UNL d   1       2.160  -0.586   2.039  0.00  0.00     0.003 A 
ATOM      3  C2  UNL d   1       1.568  -0.300   0.807  0.00  0.00     0.048 A 
ATOM      4  C3  UNL d   1       0.179  -0.233   0.707  0.00  0.00     0.023 A 
ATOM      5  C4  UNL d   1      -0.622  -0.451   1.830  0.00  0.00     0.048 A 
ATOM      6  C5  UNL d   1      -0.025  -0.738   3.059  0.00  0.00     0.003 A 
ATOM      7  I   UNL d   1      -0.706   0.192  -1.125  0.00  0.00    -0.146 I 
ENDROOT
TORSDOF 0
ENDMDL
