MODEL 1
REMARK minimizedAffinity -1.43697846
REMARK minimizedRMSD -1
REMARK  0 active torsions:
REMARK  status: ('A' for Active; 'I' for Inactive)
ROOT
ATOM      1  C   UNL d   1      -1.254  -0.237   2.047  0.00  0.00     0.023 A 
ATOM      2  C1  UNL d   1       0.032  -0.590   2.455  0.00  0.00     0.003 A 
ATOM      3  C2  UNL d   1       1.028  -0.825   1.505  0.00  0.00     0.048 A 
ATOM      4  C3  UNL d   1       0.730  -0.704   0.148  0.00  0.00     0.023 A 
ATOM      5  C4  UNL d   1      -0.555  -0.350  -0.265  0.00  0.00     0.048 A 
ATOM      6  C5  UNL d   1      -1.547  -0.117   0.689  0.00  0.00     0.003 A 
ATOM      7  I   UNL d   1       2.211  -1.053  -1.269  0.00  0.00    -0.146 I 
ENDROOT
TORSDOF 0
ENDMDL
