MODEL 1
REMARK minimizedAffinity -0.377775669
REMARK minimizedRMSD -1
REMARK  0 active torsions:
REMARK  status: ('A' for Active; 'I' for Inactive)
ROOT
ATOM      1  C   UNL d   1       0.880  -1.725   0.686  0.00  0.00     0.023 A 
ATOM      2  C1  UNL d   1       0.011  -0.787   1.244  0.00  0.00     0.003 A 
ATOM      3  C2  UNL d   1      -0.419   0.304   0.486  0.00  0.00     0.048 A 
ATOM      4  C3  UNL d   1       0.023   0.451  -0.828  0.00  0.00     0.023 A 
ATOM      5  C4  UNL d   1       0.891  -0.486  -1.390  0.00  0.00     0.048 A 
ATOM      6  C5  UNL d   1       1.320  -1.575  -0.629  0.00  0.00     0.003 A 
ATOM      7  I   UNL d   1      -0.617   2.074  -1.958  0.00  0.00    -0.146 I 
ENDROOT
TORSDOF 0
ENDMDL
