MODEL 1
REMARK minimizedAffinity -2.46316004
REMARK minimizedRMSD -1
REMARK  0 active torsions:
REMARK  status: ('A' for Active; 'I' for Inactive)
ROOT
ATOM      1  C   UNL d   1       0.745  -1.086   2.580  0.00  0.00     0.023 A 
ATOM      2  C1  UNL d   1       1.798  -0.667   1.767  0.00  0.00     0.003 A 
ATOM      3  C2  UNL d   1       1.567  -0.364   0.424  0.00  0.00     0.048 A 
ATOM      4  C3  UNL d   1       0.280  -0.481  -0.100  0.00  0.00     0.023 A 
ATOM      5  C4  UNL d   1      -0.777  -0.898   0.710  0.00  0.00     0.048 A 
ATOM      6  C5  UNL d   1      -0.541  -1.201   2.052  0.00  0.00     0.003 A 
ATOM      7  I   UNL d   1      -0.066  -0.030  -2.099  0.00  0.00    -0.146 I 
ENDROOT
TORSDOF 0
ENDMDL
