MODEL 1
REMARK minimizedAffinity -1.87490845
REMARK minimizedRMSD -1
REMARK  0 active torsions:
REMARK  status: ('A' for Active; 'I' for Inactive)
ROOT
ATOM      1  C4' PXY d   1      -1.622   1.912   1.801  0.00  0.00     0.077 C 
ATOM      2  C1' PXY d   1       3.800   1.074  -0.020  0.00  0.00     0.077 C 
ATOM      3  C1  PXY d   1       2.381   1.289   0.469  0.00  0.00    -0.082 A 
ATOM      4  C2  PXY d   1       1.393   1.377  -0.407  0.00  0.00     0.003 A 
ATOM      5  C3  PXY d   1       0.109   1.603   0.016  0.00  0.00     0.003 A 
ATOM      6  C4  PXY d   1      -0.175   1.686   1.353  0.00  0.00    -0.082 A 
ATOM      7  C5  PXY d   1       0.825   1.586   2.253  0.00  0.00     0.003 A 
ATOM      8  C6  PXY d   1       2.128   1.398   1.801  0.00  0.00     0.003 A 
ENDROOT
TORSDOF 0
ENDMDL
