MODEL 1
REMARK minimizedAffinity 10.0458326
REMARK minimizedRMSD -1
REMARK  0 active torsions:
REMARK  status: ('A' for Active; 'I' for Inactive)
ROOT
ATOM      1  C4' PXY d   1       1.001  -4.536  -0.721  0.00  0.00     0.077 C 
ATOM      2  C1' PXY d   1       4.072   0.254   0.298  0.00  0.00     0.077 C 
ATOM      3  C1  PXY d   1       3.261  -0.997   0.020  0.00  0.00    -0.082 A 
ATOM      4  C2  PXY d   1       2.964  -1.818   1.014  0.00  0.00     0.003 A 
ATOM      5  C3  PXY d   1       2.260  -2.970   0.775  0.00  0.00     0.003 A 
ATOM      6  C4  PXY d   1       1.809  -3.257  -0.485  0.00  0.00    -0.082 A 
ATOM      7  C5  PXY d   1       2.099  -2.419  -1.503  0.00  0.00     0.003 A 
ATOM      8  C6  PXY d   1       2.850  -1.276  -1.246  0.00  0.00     0.003 A 
ENDROOT
TORSDOF 0
ENDMDL
