MODEL 1
REMARK minimizedAffinity 0.759729087
REMARK minimizedRMSD -1
REMARK  0 active torsions:
REMARK  status: ('A' for Active; 'I' for Inactive)
ROOT
ATOM      1  C4' PXY d   1       3.871   1.548  -0.590  0.00  0.00     0.077 C 
ATOM      2  C1' PXY d   1      -0.416  -2.330  -0.620  0.00  0.00     0.077 C 
ATOM      3  C1  PXY d   1       0.700  -1.304  -0.617  0.00  0.00    -0.082 A 
ATOM      4  C2  PXY d   1       1.960  -1.707  -0.659  0.00  0.00     0.003 A 
ATOM      5  C3  PXY d   1       2.982  -0.794  -0.625  0.00  0.00     0.003 A 
ATOM      6  C4  PXY d   1       2.712   0.548  -0.601  0.00  0.00    -0.082 A 
ATOM      7  C5  PXY d   1       1.429   0.968  -0.569  0.00  0.00     0.003 A 
ATOM      8  C6  PXY d   1       0.407   0.024  -0.563  0.00  0.00     0.003 A 
ENDROOT
TORSDOF 0
ENDMDL
