MODEL 1
REMARK minimizedAffinity 1.09337044
REMARK minimizedRMSD -1
REMARK  0 active torsions:
REMARK  status: ('A' for Active; 'I' for Inactive)
ROOT
ATOM      1  C4' PXY d   1       5.998   1.564  -1.740  0.00  0.00     0.077 C 
ATOM      2  C1' PXY d   1       0.660   1.261   0.458  0.00  0.00     0.077 C 
ATOM      3  C1  PXY d   1       2.061   1.327  -0.118  0.00  0.00    -0.082 A 
ATOM      4  C2  PXY d   1       2.768   2.439   0.007  0.00  0.00     0.003 A 
ATOM      5  C3  PXY d   1       4.024   2.527  -0.536  0.00  0.00     0.003 A 
ATOM      6  C4  PXY d   1       4.583   1.448  -1.166  0.00  0.00    -0.082 A 
ATOM      7  C5  PXY d   1       3.873   0.307  -1.288  0.00  0.00     0.003 A 
ATOM      8  C6  PXY d   1       2.584   0.251  -0.766  0.00  0.00     0.003 A 
ENDROOT
TORSDOF 0
ENDMDL
