MODEL 1
REMARK minimizedAffinity 0.725616038
REMARK minimizedRMSD -1
REMARK  0 active torsions:
REMARK  status: ('A' for Active; 'I' for Inactive)
ROOT
ATOM      1  C4' PXY d   1       1.581   1.161  -0.410  0.00  0.00     0.077 C 
ATOM      2  C1' PXY d   1      -1.369  -3.723  -1.335  0.00  0.00     0.077 C 
ATOM      3  C1  PXY d   1      -0.588  -2.448  -1.084  0.00  0.00    -0.082 A 
ATOM      4  C2  PXY d   1      -1.145  -1.277  -1.344  0.00  0.00     0.003 A 
ATOM      5  C3  PXY d   1      -0.442  -0.116  -1.153  0.00  0.00     0.003 A 
ATOM      6  C4  PXY d   1       0.827  -0.151  -0.639  0.00  0.00    -0.082 A 
ATOM      7  C5  PXY d   1       1.399  -1.342  -0.361  0.00  0.00     0.003 A 
ATOM      8  C6  PXY d   1       0.683  -2.511  -0.601  0.00  0.00     0.003 A 
ENDROOT
TORSDOF 0
ENDMDL
