MODEL 1
REMARK minimizedAffinity -2.51429415
REMARK minimizedRMSD -1
REMARK  0 active torsions:
REMARK  status: ('A' for Active; 'I' for Inactive)
ROOT
ATOM      1  C4' PXY d   1       3.711   1.729  -0.485  0.00  0.00     0.077 C 
ATOM      2  C1' PXY d   1      -0.294  -2.440  -0.534  0.00  0.00     0.077 C 
ATOM      3  C1  PXY d   1       0.747  -1.338  -0.524  0.00  0.00    -0.082 A 
ATOM      4  C2  PXY d   1       2.024  -1.642  -0.695  0.00  0.00     0.003 A 
ATOM      5  C3  PXY d   1       2.982  -0.662  -0.657  0.00  0.00     0.003 A 
ATOM      6  C4  PXY d   1       2.624   0.650  -0.497  0.00  0.00    -0.082 A 
ATOM      7  C5  PXY d   1       1.323   0.970  -0.333  0.00  0.00     0.003 A 
ATOM      8  C6  PXY d   1       0.370  -0.045  -0.333  0.00  0.00     0.003 A 
ENDROOT
TORSDOF 0
ENDMDL
