MODEL 1
REMARK minimizedAffinity 2.12332201
REMARK minimizedRMSD -1
REMARK  0 active torsions:
REMARK  status: ('A' for Active; 'I' for Inactive)
ROOT
ATOM      1  C4' PXY d   1       0.453  -1.699  -0.491  0.00  0.00     0.077 C 
ATOM      2  C1' PXY d   1       4.386   2.533  -0.705  0.00  0.00     0.077 C 
ATOM      3  C1  PXY d   1       3.349   1.429  -0.639  0.00  0.00    -0.082 A 
ATOM      4  C2  PXY d   1       3.632   0.234  -1.132  0.00  0.00     0.003 A 
ATOM      5  C3  PXY d   1       2.695  -0.766  -1.109  0.00  0.00     0.003 A 
ATOM      6  C4  PXY d   1       1.473  -0.557  -0.528  0.00  0.00    -0.082 A 
ATOM      7  C5  PXY d   1       1.180   0.656  -0.013  0.00  0.00     0.003 A 
ATOM      8  C6  PXY d   1       2.130   1.670  -0.083  0.00  0.00     0.003 A 
ENDROOT
TORSDOF 0
ENDMDL
