MODEL 1
REMARK minimizedAffinity -5.31426954
REMARK minimizedRMSD -1
REMARK  0 active torsions:
REMARK  status: ('A' for Active; 'I' for Inactive)
ROOT
ATOM      1  C4' PXY d   1      -0.135  -1.079  -0.387  0.00  0.00     0.077 C 
ATOM      2  C1' PXY d   1       5.247   0.938   0.227  0.00  0.00     0.077 C 
ATOM      3  C1  PXY d   1       3.840   0.399   0.058  0.00  0.00    -0.082 A 
ATOM      4  C2  PXY d   1       2.806   1.211   0.212  0.00  0.00     0.003 A 
ATOM      5  C3  PXY d   1       1.526   0.733   0.095  0.00  0.00     0.003 A 
ATOM      6  C4  PXY d   1       1.303  -0.576  -0.236  0.00  0.00    -0.082 A 
ATOM      7  C5  PXY d   1       2.353  -1.408  -0.405  0.00  0.00     0.003 A 
ATOM      8  C6  PXY d   1       3.643  -0.913  -0.241  0.00  0.00     0.003 A 
ENDROOT
TORSDOF 0
ENDMDL
