MODEL 1
REMARK minimizedAffinity -3.29139638
REMARK minimizedRMSD -1
REMARK  1 active torsions:
REMARK  status: ('A' for Active; 'I' for Inactive)
REMARK    1  A    between atoms: C3_4  and  O_7 
ROOT
ATOM      1  C   UNL d   1       0.051  -0.427  -0.650  0.00  0.00    -0.033 A 
ATOM      2  C1  UNL d   1      -0.643   0.714  -1.056  0.00  0.00     0.039 A 
ATOM      3  C2  UNL d   1      -1.161   1.594  -0.105  0.00  0.00    -0.080 A 
ATOM      4  C3  UNL d   1      -0.978   1.323   1.249  0.00  0.00     0.150 A 
ATOM      5  C4  UNL d   1      -0.284   0.190   1.661  0.00  0.00    -0.007 A 
ATOM      6  C5  UNL d   1       0.232  -0.688   0.709  0.00  0.00     0.039 A 
ENDROOT
BRANCH   4   7
ATOM      7  O   UNL d   1      -1.470   2.150   2.214  0.00  0.00    -0.526 OA
ATOM      8  H5  UNL d   1      -1.950   2.876   1.782  0.00  0.00     0.418 HD
ENDBRANCH   4   7
TORSDOF 1
ENDMDL
