MODEL 1
REMARK minimizedAffinity -2.96057224
REMARK minimizedRMSD -1
REMARK  1 active torsions:
REMARK  status: ('A' for Active; 'I' for Inactive)
REMARK    1  A    between atoms: C3_4  and  O_7 
ROOT
ATOM      1  C   UNL d   1       0.074   0.962   3.038  0.00  0.00    -0.033 A 
ATOM      2  C1  UNL d   1       0.729  -0.269   2.976  0.00  0.00     0.039 A 
ATOM      3  C2  UNL d   1       1.163  -0.770   1.747  0.00  0.00    -0.080 A 
ATOM      4  C3  UNL d   1       0.938  -0.031   0.590  0.00  0.00     0.150 A 
ATOM      5  C4  UNL d   1       0.289   1.199   0.645  0.00  0.00    -0.007 A 
ATOM      6  C5  UNL d   1      -0.144   1.697   1.872  0.00  0.00     0.039 A 
ENDROOT
BRANCH   4   7
ATOM      7  O   UNL d   1       1.339  -0.481  -0.633  0.00  0.00    -0.526 OA
ATOM      8  H5  UNL d   1       1.746  -1.356  -0.520  0.00  0.00     0.418 HD
ENDBRANCH   4   7
TORSDOF 1
ENDMDL
