MODEL 1
REMARK minimizedAffinity -0.0689864084
REMARK minimizedRMSD -1
REMARK  1 active torsions:
REMARK  status: ('A' for Active; 'I' for Inactive)
REMARK    1  A    between atoms: C3_4  and  O_7 
ROOT
ATOM      1  C   UNL d   1      -0.150   1.504   3.098  0.00  0.00    -0.033 A 
ATOM      2  C1  UNL d   1      -0.217   2.299   1.952  0.00  0.00     0.039 A 
ATOM      3  C2  UNL d   1       0.147   1.772   0.712  0.00  0.00    -0.080 A 
ATOM      4  C3  UNL d   1       0.575   0.450   0.631  0.00  0.00     0.150 A 
ATOM      5  C4  UNL d   1       0.640  -0.349   1.767  0.00  0.00    -0.007 A 
ATOM      6  C5  UNL d   1       0.277   0.179   3.005  0.00  0.00     0.039 A 
ENDROOT
BRANCH   4   7
ATOM      7  O   UNL d   1       0.946  -0.108  -0.557  0.00  0.00    -0.526 OA
ATOM      8  H5  UNL d   1       0.877   0.570  -1.250  0.00  0.00     0.418 HD
ENDBRANCH   4   7
TORSDOF 1
ENDMDL
