MODEL 1
REMARK minimizedAffinity -4.59992027
REMARK minimizedRMSD -1
REMARK  1 active torsions:
REMARK  status: ('A' for Active; 'I' for Inactive)
REMARK    1  A    between atoms: C3_4  and  O_7 
ROOT
ATOM      1  C   UNL d   1      -0.918   2.581   1.510  0.00  0.00    -0.033 A 
ATOM      2  C1  UNL d   1      -0.445   1.493   2.247  0.00  0.00     0.039 A 
ATOM      3  C2  UNL d   1      -0.117   0.299   1.601  0.00  0.00    -0.080 A 
ATOM      4  C3  UNL d   1      -0.266   0.207   0.220  0.00  0.00     0.150 A 
ATOM      5  C4  UNL d   1      -0.734   1.287  -0.521  0.00  0.00    -0.007 A 
ATOM      6  C5  UNL d   1      -1.061   2.478   0.126  0.00  0.00     0.039 A 
ENDROOT
BRANCH   4   7
ATOM      7  O   UNL d   1       0.036  -0.939  -0.454  0.00  0.00    -0.526 OA
ATOM      8  H5  UNL d   1       0.319  -1.609   0.190  0.00  0.00     0.418 HD
ENDBRANCH   4   7
TORSDOF 1
ENDMDL
