MODEL 1
REMARK minimizedAffinity -3.63564706
REMARK minimizedRMSD -1
REMARK  1 active torsions:
REMARK  status: ('A' for Active; 'I' for Inactive)
REMARK    1  A    between atoms: C3_4  and  O_7 
ROOT
ATOM      1  C   UNL d   1       1.646  -4.050  -0.988  0.00  0.00    -0.033 A 
ATOM      2  C1  UNL d   1       1.233  -5.226  -0.359  0.00  0.00     0.039 A 
ATOM      3  C2  UNL d   1      -0.112  -5.409  -0.030  0.00  0.00    -0.080 A 
ATOM      4  C3  UNL d   1      -1.032  -4.410  -0.336  0.00  0.00     0.150 A 
ATOM      5  C4  UNL d   1      -0.628  -3.237  -0.966  0.00  0.00    -0.007 A 
ATOM      6  C5  UNL d   1       0.715  -3.056  -1.292  0.00  0.00     0.039 A 
ENDROOT
BRANCH   4   7
ATOM      7  O   UNL d   1      -2.354  -4.541  -0.031  0.00  0.00    -0.526 OA
ATOM      8  H5  UNL d   1      -2.481  -5.389   0.427  0.00  0.00     0.418 HD
ENDBRANCH   4   7
TORSDOF 1
ENDMDL
