MODEL 1
REMARK minimizedAffinity -0.15965651
REMARK minimizedRMSD -1
REMARK  1 active torsions:
REMARK  status: ('A' for Active; 'I' for Inactive)
REMARK    1  A    between atoms: C3_4  and  O_7 
ROOT
ATOM      1  C   UNL d   1      -1.880   1.205   0.048  0.00  0.00    -0.033 A 
ATOM      2  C1  UNL d   1      -0.582   0.698   0.133  0.00  0.00     0.039 A 
ATOM      3  C2  UNL d   1       0.292   1.174   1.112  0.00  0.00    -0.080 A 
ATOM      4  C3  UNL d   1      -0.143   2.154   1.999  0.00  0.00     0.150 A 
ATOM      5  C4  UNL d   1      -1.436   2.661   1.923  0.00  0.00    -0.007 A 
ATOM      6  C5  UNL d   1      -2.308   2.186   0.944  0.00  0.00     0.039 A 
ENDROOT
BRANCH   4   7
ATOM      7  O   UNL d   1       0.676   2.653   2.968  0.00  0.00    -0.526 OA
ATOM      8  H5  UNL d   1       1.547   2.231   2.883  0.00  0.00     0.418 HD
ENDBRANCH   4   7
TORSDOF 1
ENDMDL
