MODEL 1
REMARK minimizedAffinity -3.81022263
REMARK minimizedRMSD -1
REMARK  1 active torsions:
REMARK  status: ('A' for Active; 'I' for Inactive)
REMARK    1  A    between atoms: C3_4  and  O_7 
ROOT
ATOM      1  C   UNL d   1      -0.638   2.588   1.231  0.00  0.00    -0.033 A 
ATOM      2  C1  UNL d   1       0.261   1.629   1.701  0.00  0.00     0.039 A 
ATOM      3  C2  UNL d   1       0.279   0.351   1.138  0.00  0.00    -0.080 A 
ATOM      4  C3  UNL d   1      -0.605   0.047   0.107  0.00  0.00     0.150 A 
ATOM      5  C4  UNL d   1      -1.501   0.999  -0.369  0.00  0.00    -0.007 A 
ATOM      6  C5  UNL d   1      -1.518   2.273   0.195  0.00  0.00     0.039 A 
ENDROOT
BRANCH   4   7
ATOM      7  O   UNL d   1      -0.628  -1.188  -0.471  0.00  0.00    -0.526 OA
ATOM      8  H5  UNL d   1       0.025  -1.750  -0.021  0.00  0.00     0.418 HD
ENDBRANCH   4   7
TORSDOF 1
ENDMDL
