MODEL 1
REMARK minimizedAffinity -4.63551855
REMARK minimizedRMSD -1
REMARK  1 active torsions:
REMARK  status: ('A' for Active; 'I' for Inactive)
REMARK    1  A    between atoms: C3_4  and  O_7 
ROOT
ATOM      1  C   UNL d   1       0.119  -0.298   0.133  0.00  0.00    -0.033 A 
ATOM      2  C1  UNL d   1      -1.060   0.184  -0.440  0.00  0.00     0.039 A 
ATOM      3  C2  UNL d   1      -1.726   1.268   0.135  0.00  0.00    -0.080 A 
ATOM      4  C3  UNL d   1      -1.204   1.860   1.282  0.00  0.00     0.150 A 
ATOM      5  C4  UNL d   1      -0.029   1.388   1.856  0.00  0.00    -0.007 A 
ATOM      6  C5  UNL d   1       0.635   0.305   1.281  0.00  0.00     0.039 A 
ENDROOT
BRANCH   4   7
ATOM      7  O   UNL d   1      -1.822   2.917   1.882  0.00  0.00    -0.526 OA
ATOM      8  H5  UNL d   1      -2.637   3.116   1.392  0.00  0.00     0.418 HD
ENDBRANCH   4   7
TORSDOF 1
ENDMDL
