MODEL 1
REMARK minimizedAffinity 8.14686775
REMARK minimizedRMSD -1
REMARK  0 active torsions:
REMARK  status: ('A' for Active; 'I' for Inactive)
ROOT
ATOM      1  C   UNL d   1       5.057  -5.832  -5.745  0.00  0.00     0.077 C 
ATOM      2  C1  UNL d   1       3.810  -5.884  -4.913  0.00  0.00    -0.074 A 
ATOM      3  C2  UNL d   1       2.548  -5.941  -5.512  0.00  0.00    -0.005 A 
ATOM      4  C3  UNL d   1       1.397  -5.999  -4.726  0.00  0.00     0.006 A 
ATOM      5  C4  UNL d   1       1.497  -6.000  -3.334  0.00  0.00    -0.005 A 
ATOM      6  C5  UNL d   1       2.751  -5.944  -2.717  0.00  0.00    -0.074 A 
ATOM      7  C6  UNL d   1       2.876  -5.954  -1.222  0.00  0.00     0.077 C 
ATOM      8  C7  UNL d   1       3.902  -5.893  -3.514  0.00  0.00    -0.001 A 
ENDROOT
TORSDOF 0
ENDMDL
