MODEL 1
REMARK minimizedAffinity 10.958189
REMARK minimizedRMSD -1
REMARK  0 active torsions:
REMARK  status: ('A' for Active; 'I' for Inactive)
ROOT
ATOM      1  C   UNL d   1      -1.904   2.367   0.016  0.00  0.00     0.077 C 
ATOM      2  C1  UNL d   1      -3.335   2.731   0.281  0.00  0.00    -0.074 A 
ATOM      3  C2  UNL d   1      -4.120   1.972   1.155  0.00  0.00    -0.005 A 
ATOM      4  C3  UNL d   1      -5.446   2.329   1.399  0.00  0.00     0.006 A 
ATOM      5  C4  UNL d   1      -6.000   3.446   0.773  0.00  0.00    -0.005 A 
ATOM      6  C5  UNL d   1      -5.230   4.218  -0.103  0.00  0.00    -0.074 A 
ATOM      7  C6  UNL d   1      -5.807   5.428  -0.776  0.00  0.00     0.077 C 
ATOM      8  C7  UNL d   1      -3.896   3.857  -0.338  0.00  0.00    -0.001 A 
ENDROOT
TORSDOF 0
ENDMDL
