MODEL 1
REMARK minimizedAffinity 1.20651579
REMARK minimizedRMSD -1
REMARK  0 active torsions:
REMARK  status: ('A' for Active; 'I' for Inactive)
ROOT
ATOM      1  C   UNL d   1       1.838  -1.079   3.177  0.00  0.00     0.077 C 
ATOM      2  C1  UNL d   1       1.743  -2.558   3.409  0.00  0.00    -0.074 A 
ATOM      3  C2  UNL d   1       2.415  -3.460   2.578  0.00  0.00    -0.005 A 
ATOM      4  C3  UNL d   1       2.325  -4.832   2.811  0.00  0.00     0.006 A 
ATOM      5  C4  UNL d   1       1.564  -5.315   3.876  0.00  0.00    -0.005 A 
ATOM      6  C5  UNL d   1       0.886  -4.428   4.718  0.00  0.00    -0.074 A 
ATOM      7  C6  UNL d   1       0.071  -4.930   5.873  0.00  0.00     0.077 C 
ATOM      8  C7  UNL d   1       0.987  -3.050   4.481  0.00  0.00    -0.001 A 
ENDROOT
TORSDOF 0
ENDMDL
