MODEL 1
REMARK minimizedAffinity 1.1434046
REMARK minimizedRMSD -1
REMARK  0 active torsions:
REMARK  status: ('A' for Active; 'I' for Inactive)
ROOT
ATOM      1  C   UNL d   1       1.513  -2.978   2.998  0.00  0.00     0.077 C 
ATOM      2  C1  UNL d   1       1.702  -1.495   3.124  0.00  0.00    -0.074 A 
ATOM      3  C2  UNL d   1       1.193  -0.796   4.223  0.00  0.00    -0.005 A 
ATOM      4  C3  UNL d   1       1.384   0.581   4.330  0.00  0.00     0.006 A 
ATOM      5  C4  UNL d   1       2.086   1.273   3.342  0.00  0.00    -0.005 A 
ATOM      6  C5  UNL d   1       2.603   0.590   2.236  0.00  0.00    -0.074 A 
ATOM      7  C6  UNL d   1       3.367   1.316   1.169  0.00  0.00     0.077 C 
ATOM      8  C7  UNL d   1       2.412  -0.795   2.138  0.00  0.00    -0.001 A 
ENDROOT
TORSDOF 0
ENDMDL
