MODEL 1
REMARK minimizedAffinity 1.86086845
REMARK minimizedRMSD -1
REMARK  0 active torsions:
REMARK  status: ('A' for Active; 'I' for Inactive)
ROOT
ATOM      1  C   UNL d   1       1.931  -5.983  -5.947  0.00  0.00     0.077 C 
ATOM      2  C1  UNL d   1       2.603  -5.995  -4.607  0.00  0.00    -0.074 A 
ATOM      3  C2  UNL d   1       3.998  -5.995  -4.502  0.00  0.00    -0.005 A 
ATOM      4  C3  UNL d   1       4.609  -5.997  -3.248  0.00  0.00     0.006 A 
ATOM      5  C4  UNL d   1       3.833  -6.000  -2.088  0.00  0.00    -0.005 A 
ATOM      6  C5  UNL d   1       2.437  -6.000  -2.173  0.00  0.00    -0.074 A 
ATOM      7  C6  UNL d   1       1.589  -5.993  -0.937  0.00  0.00     0.077 C 
ATOM      8  C7  UNL d   1       1.831  -5.990  -3.437  0.00  0.00    -0.001 A 
ENDROOT
TORSDOF 0
ENDMDL
