MODEL 1
REMARK minimizedAffinity 3.73584867
REMARK minimizedRMSD -1
REMARK  0 active torsions:
REMARK  status: ('A' for Active; 'I' for Inactive)
ROOT
ATOM      1  C   UNL d   1       1.938  -6.000  -5.700  0.00  0.00     0.077 C 
ATOM      2  C1  UNL d   1       2.399  -5.992  -4.273  0.00  0.00    -0.074 A 
ATOM      3  C2  UNL d   1       1.479  -5.997  -3.220  0.00  0.00    -0.005 A 
ATOM      4  C3  UNL d   1       1.923  -5.999  -1.897  0.00  0.00     0.006 A 
ATOM      5  C4  UNL d   1       3.290  -5.997  -1.615  0.00  0.00    -0.005 A 
ATOM      6  C5  UNL d   1       4.225  -5.993  -2.655  0.00  0.00    -0.074 A 
ATOM      7  C6  UNL d   1       5.697  -6.000  -2.370  0.00  0.00     0.077 C 
ATOM      8  C7  UNL d   1       3.771  -5.997  -3.981  0.00  0.00    -0.001 A 
ENDROOT
TORSDOF 0
ENDMDL
