MODEL 1
REMARK minimizedAffinity 8.50969887
REMARK minimizedRMSD -1
REMARK  0 active torsions:
REMARK  status: ('A' for Active; 'I' for Inactive)
ROOT
ATOM      1  C   UNL d   1      -5.915  -5.399  -6.000  0.00  0.00     0.077 C 
ATOM      2  C1  UNL d   1      -5.453  -4.117  -5.374  0.00  0.00    -0.074 A 
ATOM      3  C2  UNL d   1      -5.682  -2.887  -6.000  0.00  0.00    -0.005 A 
ATOM      4  C3  UNL d   1      -5.254  -1.703  -5.401  0.00  0.00     0.006 A 
ATOM      5  C4  UNL d   1      -4.594  -1.735  -4.172  0.00  0.00    -0.005 A 
ATOM      6  C5  UNL d   1      -4.357  -2.955  -3.530  0.00  0.00    -0.074 A 
ATOM      7  C6  UNL d   1      -3.658  -3.006  -2.204  0.00  0.00     0.077 C 
ATOM      8  C7  UNL d   1      -4.796  -4.140  -4.135  0.00  0.00    -0.001 A 
ENDROOT
TORSDOF 0
ENDMDL
