MODEL 1
REMARK minimizedAffinity 10.5187092
REMARK minimizedRMSD -1
REMARK  0 active torsions:
REMARK  status: ('A' for Active; 'I' for Inactive)
ROOT
ATOM      1  C   UNL d   1      -5.999   1.327  -2.345  0.00  0.00     0.077 C 
ATOM      2  C1  UNL d   1      -5.952   2.246  -1.162  0.00  0.00    -0.074 A 
ATOM      3  C2  UNL d   1      -5.917   1.740   0.141  0.00  0.00    -0.005 A 
ATOM      4  C3  UNL d   1      -5.863   2.607   1.232  0.00  0.00     0.006 A 
ATOM      5  C4  UNL d   1      -5.843   3.988   1.031  0.00  0.00    -0.005 A 
ATOM      6  C5  UNL d   1      -5.877   4.513  -0.265  0.00  0.00    -0.074 A 
ATOM      7  C6  UNL d   1      -5.846   5.994  -0.498  0.00  0.00     0.077 C 
ATOM      8  C7  UNL d   1      -5.924   3.635  -1.356  0.00  0.00    -0.001 A 
ENDROOT
TORSDOF 0
ENDMDL
