MODEL 1
REMARK minimizedAffinity -2.85229325
REMARK minimizedRMSD -1
REMARK  0 active torsions:
REMARK  status: ('A' for Active; 'I' for Inactive)
ROOT
ATOM      1  C   UNL d   1       5.074  -1.464   1.552  0.00  0.00     0.077 C 
ATOM      2  C1  UNL d   1       3.768  -1.966   2.094  0.00  0.00    -0.074 A 
ATOM      3  C2  UNL d   1       3.128  -3.069   1.520  0.00  0.00    -0.005 A 
ATOM      4  C3  UNL d   1       1.919  -3.530   2.040  0.00  0.00     0.006 A 
ATOM      5  C4  UNL d   1       1.339  -2.894   3.139  0.00  0.00    -0.005 A 
ATOM      6  C5  UNL d   1       1.965  -1.790   3.727  0.00  0.00    -0.074 A 
ATOM      7  C6  UNL d   1       1.360  -1.101   4.914  0.00  0.00     0.077 C 
ATOM      8  C7  UNL d   1       3.183  -1.337   3.202  0.00  0.00    -0.001 A 
ENDROOT
TORSDOF 0
ENDMDL
