MODEL 1
REMARK minimizedAffinity -1.74242544
REMARK minimizedRMSD -1
REMARK  0 active torsions:
REMARK  status: ('A' for Active; 'I' for Inactive)
ROOT
ATOM      1  C   UNL d   1       1.187  -1.135   1.161  0.00  0.00     0.077 C 
ATOM      2  C1  UNL d   1       1.833  -1.874   2.295  0.00  0.00    -0.074 A 
ATOM      3  C2  UNL d   1       1.084  -2.712   3.127  0.00  0.00    -0.005 A 
ATOM      4  C3  UNL d   1       1.700  -3.400   4.172  0.00  0.00     0.006 A 
ATOM      5  C4  UNL d   1       3.070  -3.257   4.396  0.00  0.00    -0.005 A 
ATOM      6  C5  UNL d   1       3.836  -2.424   3.574  0.00  0.00    -0.074 A 
ATOM      7  C6  UNL d   1       5.311  -2.267   3.794  0.00  0.00     0.077 C 
ATOM      8  C7  UNL d   1       3.210  -1.742   2.522  0.00  0.00    -0.001 A 
ENDROOT
TORSDOF 0
ENDMDL
