MODEL 1
REMARK minimizedAffinity -2.9413383
REMARK minimizedRMSD -1
REMARK  0 active torsions:
REMARK  status: ('A' for Active; 'I' for Inactive)
ROOT
ATOM      1  C2' OXE d   1       0.777  -1.160  -1.982  0.00  0.00     0.078 C 
ATOM      2  C1' OXE d   1      -0.881   1.085  -1.681  0.00  0.00     0.078 C 
ATOM      3  C1  OXE d   1      -0.447   0.359  -0.432  0.00  0.00    -0.078 A 
ATOM      4  C2  OXE d   1       0.327  -0.766  -0.591  0.00  0.00    -0.078 A 
ATOM      5  C3  OXE d   1       0.800  -1.441   0.530  0.00  0.00     0.003 A 
ATOM      6  C4  OXE d   1       0.370  -1.076   1.811  0.00  0.00    -0.002 A 
ATOM      7  C5  OXE d   1      -0.450   0.043   1.993  0.00  0.00    -0.002 A 
ATOM      8  C6  OXE d   1      -0.831   0.795   0.888  0.00  0.00     0.003 A 
ENDROOT
TORSDOF 0
ENDMDL
