MODEL 1
REMARK minimizedAffinity -5.72528791
REMARK minimizedRMSD -1
REMARK  0 active torsions:
REMARK  status: ('A' for Active; 'I' for Inactive)
ROOT
ATOM      1  C2' OXE d   1      -1.495  -0.133   1.455  0.00  0.00     0.078 C 
ATOM      2  C1' OXE d   1       0.036   0.073  -0.889  0.00  0.00     0.078 C 
ATOM      3  C1  OXE d   1       0.727  -0.411   0.362  0.00  0.00    -0.078 A 
ATOM      4  C2  OXE d   1      -0.019  -0.464   1.515  0.00  0.00    -0.078 A 
ATOM      5  C3  OXE d   1       0.555  -0.956   2.684  0.00  0.00     0.003 A 
ATOM      6  C4  OXE d   1       1.923  -1.250   2.733  0.00  0.00    -0.002 A 
ATOM      7  C5  OXE d   1       2.709  -1.164   1.580  0.00  0.00    -0.002 A 
ATOM      8  C6  OXE d   1       2.118  -0.788   0.379  0.00  0.00     0.003 A 
ENDROOT
TORSDOF 0
ENDMDL
