MODEL 1
REMARK minimizedAffinity -5.17593241
REMARK minimizedRMSD -1
REMARK  0 active torsions:
REMARK  status: ('A' for Active; 'I' for Inactive)
ROOT
ATOM      1  C2' OXE d   1      -1.031   0.332   1.429  0.00  0.00     0.078 C 
ATOM      2  C1' OXE d   1       1.106   0.542  -0.379  0.00  0.00     0.078 C 
ATOM      3  C1  OXE d   1       1.324  -0.264   0.877  0.00  0.00    -0.078 A 
ATOM      4  C2  OXE d   1       0.289  -0.322   1.778  0.00  0.00    -0.078 A 
ATOM      5  C3  OXE d   1       0.418  -1.097   2.927  0.00  0.00     0.003 A 
ATOM      6  C4  OXE d   1       1.645  -1.691   3.247  0.00  0.00    -0.002 A 
ATOM      7  C5  OXE d   1       2.725  -1.610   2.362  0.00  0.00    -0.002 A 
ATOM      8  C6  OXE d   1       2.568  -0.938   1.155  0.00  0.00     0.003 A 
ENDROOT
TORSDOF 0
ENDMDL
