MODEL 1
REMARK minimizedAffinity -5.48840141
REMARK minimizedRMSD -1
REMARK  0 active torsions:
REMARK  status: ('A' for Active; 'I' for Inactive)
ROOT
ATOM      1  C2' OXE d   1       2.590  -2.300  -0.118  0.00  0.00     0.078 C 
ATOM      2  C1' OXE d   1       0.201  -0.825  -0.127  0.00  0.00     0.078 C 
ATOM      3  C1  OXE d   1       0.975  -0.902   1.165  0.00  0.00    -0.078 A 
ATOM      4  C2  OXE d   1       2.118  -1.665   1.173  0.00  0.00    -0.078 A 
ATOM      5  C3  OXE d   1       2.899  -1.725   2.323  0.00  0.00     0.003 A 
ATOM      6  C4  OXE d   1       2.451  -1.143   3.515  0.00  0.00    -0.002 A 
ATOM      7  C5  OXE d   1       1.269  -0.395   3.540  0.00  0.00    -0.002 A 
ATOM      8  C6  OXE d   1       0.543  -0.230   2.365  0.00  0.00     0.003 A 
ENDROOT
TORSDOF 0
ENDMDL
