MODEL 1
REMARK minimizedAffinity -5.11836672
REMARK minimizedRMSD -1
REMARK  0 active torsions:
REMARK  status: ('A' for Active; 'I' for Inactive)
ROOT
ATOM      1  C2' OXE d   1      -0.911  -0.482   1.156  0.00  0.00     0.078 C 
ATOM      2  C1' OXE d   1       1.069  -0.566  -0.833  0.00  0.00     0.078 C 
ATOM      3  C1  OXE d   1       1.482  -0.872   0.585  0.00  0.00    -0.078 A 
ATOM      4  C2  OXE d   1       0.517  -0.783   1.559  0.00  0.00    -0.078 A 
ATOM      5  C3  OXE d   1       0.832  -1.108   2.875  0.00  0.00     0.003 A 
ATOM      6  C4  OXE d   1       2.157  -1.376   3.241  0.00  0.00    -0.002 A 
ATOM      7  C5  OXE d   1       3.164  -1.434   2.271  0.00  0.00    -0.002 A 
ATOM      8  C6  OXE d   1       2.836  -1.226   0.935  0.00  0.00     0.003 A 
ENDROOT
TORSDOF 0
ENDMDL
