MODEL 1
REMARK minimizedAffinity -3.53949451
REMARK minimizedRMSD -1
REMARK  0 active torsions:
REMARK  status: ('A' for Active; 'I' for Inactive)
ROOT
ATOM      1  C2' OXE d   1      -0.482   3.626  -2.248  0.00  0.00     0.078 C 
ATOM      2  C1' OXE d   1      -1.294   1.261  -3.523  0.00  0.00     0.078 C 
ATOM      3  C1  OXE d   1      -0.776   1.156  -2.111  0.00  0.00    -0.078 A 
ATOM      4  C2  OXE d   1      -0.337   2.312  -1.511  0.00  0.00    -0.078 A 
ATOM      5  C3  OXE d   1       0.100   2.280  -0.190  0.00  0.00     0.003 A 
ATOM      6  C4  OXE d   1       0.240   1.060   0.481  0.00  0.00    -0.002 A 
ATOM      7  C5  OXE d   1      -0.164  -0.135  -0.125  0.00  0.00    -0.002 A 
ATOM      8  C6  OXE d   1      -0.712  -0.098  -1.403  0.00  0.00     0.003 A 
ENDROOT
TORSDOF 0
ENDMDL
