MODEL 1
REMARK minimizedAffinity 8.38371944
REMARK minimizedRMSD -1
REMARK  3 active torsions:
REMARK  status: ('A' for Active; 'I' for Inactive)
REMARK    1  A    between atoms: C3'_2  and  C2'_3 
REMARK    2  A    between atoms: C2'_3  and  C1'_4 
REMARK    3  A    between atoms: C1'_4  and  C1_5 
ROOT
ATOM      1  C1  N4B d   1       1.290  -4.197   2.725  0.00  0.00    -0.075 A 
ATOM      2  C2  N4B d   1       1.158  -4.880   3.954  0.00  0.00     0.002 A 
ATOM      3  C3  N4B d   1       0.537  -4.268   5.016  0.00  0.00     0.002 A 
ATOM      4  C4  N4B d   1       0.060  -2.973   4.879  0.00  0.00    -0.004 A 
ATOM      5  C5  N4B d   1       0.170  -2.330   3.680  0.00  0.00     0.002 A 
ATOM      6  C6  N4B d   1       0.787  -2.934   2.604  0.00  0.00     0.002 A 
ENDROOT
BRANCH   1   7
ATOM      7  C1' N4B d   1       2.036  -4.792   1.563  0.00  0.00     0.057 C 
BRANCH   7   8
ATOM      8  C2' N4B d   1       1.222  -4.589   0.288  0.00  0.00     0.009 C 
BRANCH   8   9
ATOM      9  C3' N4B d   1       1.624  -5.566  -0.804  0.00  0.00     0.004 C 
ATOM     10  C4' N4B d   1       1.946  -4.886  -2.101  0.00  0.00     0.003 C 
ENDBRANCH   8   9
ENDBRANCH   7   8
ENDBRANCH   1   7
TORSDOF 3
ENDMDL
