MODEL 1
REMARK minimizedAffinity -1.1026876
REMARK minimizedRMSD -1
REMARK  3 active torsions:
REMARK  status: ('A' for Active; 'I' for Inactive)
REMARK    1  A    between atoms: C3'_2  and  C2'_3 
REMARK    2  A    between atoms: C2'_3  and  C1'_4 
REMARK    3  A    between atoms: C1'_4  and  C1_5 
ROOT
ATOM      1  C1  N4B d   1       4.423  -0.526  -4.864  0.00  0.00    -0.075 A 
ATOM      2  C2  N4B d   1       3.505   0.547  -4.884  0.00  0.00     0.002 A 
ATOM      3  C3  N4B d   1       3.860   1.743  -5.458  0.00  0.00     0.002 A 
ATOM      4  C4  N4B d   1       5.128   1.894  -6.000  0.00  0.00    -0.004 A 
ATOM      5  C5  N4B d   1       5.999   0.845  -5.999  0.00  0.00     0.002 A 
ATOM      6  C6  N4B d   1       5.655  -0.364  -5.429  0.00  0.00     0.002 A 
ENDROOT
BRANCH   1   7
ATOM      7  C1' N4B d   1       4.111  -1.825  -4.171  0.00  0.00     0.057 C 
BRANCH   7   8
ATOM      8  C2' N4B d   1       3.276  -1.540  -2.926  0.00  0.00     0.009 C 
BRANCH   8   9
ATOM      9  C3' N4B d   1       1.918  -2.218  -2.986  0.00  0.00     0.004 C 
ATOM     10  C4' N4B d   1       1.558  -2.909  -1.704  0.00  0.00     0.003 C 
ENDBRANCH   8   9
ENDBRANCH   7   8
ENDBRANCH   1   7
TORSDOF 3
ENDMDL
