MODEL 1
REMARK minimizedAffinity 9.73658466
REMARK minimizedRMSD -1
REMARK  3 active torsions:
REMARK  status: ('A' for Active; 'I' for Inactive)
REMARK    1  A    between atoms: C3'_2  and  C2'_3 
REMARK    2  A    between atoms: C2'_3  and  C1'_4 
REMARK    3  A    between atoms: C1'_4  and  C1_5 
ROOT
ATOM      1  C1  N4B d   1       0.902  -2.788   4.302  0.00  0.00    -0.075 A 
ATOM      2  C2  N4B d   1       1.660  -3.547   3.383  0.00  0.00     0.002 A 
ATOM      3  C3  N4B d   1       2.077  -2.980   2.204  0.00  0.00     0.002 A 
ATOM      4  C4  N4B d   1       1.735  -1.668   1.915  0.00  0.00    -0.004 A 
ATOM      5  C5  N4B d   1       1.025  -0.933   2.819  0.00  0.00     0.002 A 
ATOM      6  C6  N4B d   1       0.602  -1.489   4.010  0.00  0.00     0.002 A 
ENDROOT
BRANCH   1   7
ATOM      7  C1' N4B d   1       0.350  -3.391   5.565  0.00  0.00     0.057 C 
BRANCH   7   8
ATOM      8  C2' N4B d   1       1.181  -4.614   5.941  0.00  0.00     0.009 C 
BRANCH   8   9
ATOM      9  C3' N4B d   1       0.347  -5.883   5.963  0.00  0.00     0.004 C 
ATOM     10  C4' N4B d   1      -1.127  -5.609   5.994  0.00  0.00     0.003 C 
ENDBRANCH   8   9
ENDBRANCH   7   8
ENDBRANCH   1   7
TORSDOF 3
ENDMDL
