MODEL 1
REMARK minimizedAffinity 4.15323782
REMARK minimizedRMSD -1
REMARK  3 active torsions:
REMARK  status: ('A' for Active; 'I' for Inactive)
REMARK    1  A    between atoms: C3'_2  and  C2'_3 
REMARK    2  A    between atoms: C2'_3  and  C1'_4 
REMARK    3  A    between atoms: C1'_4  and  C1_5 
ROOT
ATOM      1  C1  N4B d   1       0.880  -1.351   2.906  0.00  0.00    -0.075 A 
ATOM      2  C2  N4B d   1       0.945   0.010   2.535  0.00  0.00     0.002 A 
ATOM      3  C3  N4B d   1       1.404   0.361   1.290  0.00  0.00     0.002 A 
ATOM      4  C4  N4B d   1       1.819  -0.626   0.409  0.00  0.00    -0.004 A 
ATOM      5  C5  N4B d   1       1.729  -1.940   0.765  0.00  0.00     0.002 A 
ATOM      6  C6  N4B d   1       1.266  -2.307   2.013  0.00  0.00     0.002 A 
ENDROOT
BRANCH   1   7
ATOM      7  C1' N4B d   1       0.466  -1.778   4.288  0.00  0.00     0.057 C 
BRANCH   7   8
ATOM      8  C2' N4B d   1       0.443  -3.302   4.355  0.00  0.00     0.009 C 
BRANCH   8   9
ATOM      9  C3' N4B d   1       1.480  -3.844   5.323  0.00  0.00     0.004 C 
ATOM     10  C4' N4B d   1       2.473  -2.806   5.751  0.00  0.00     0.003 C 
ENDBRANCH   8   9
ENDBRANCH   7   8
ENDBRANCH   1   7
TORSDOF 3
ENDMDL
