MODEL 1
REMARK minimizedAffinity 9.14485455
REMARK minimizedRMSD -1
REMARK  3 active torsions:
REMARK  status: ('A' for Active; 'I' for Inactive)
REMARK    1  A    between atoms: C3'_2  and  C2'_3 
REMARK    2  A    between atoms: C2'_3  and  C1'_4 
REMARK    3  A    between atoms: C1'_4  and  C1_5 
ROOT
ATOM      1  C1  N4B d   1       1.223   0.243   2.265  0.00  0.00    -0.075 A 
ATOM      2  C2  N4B d   1       0.967  -0.281   3.552  0.00  0.00     0.002 A 
ATOM      3  C3  N4B d   1       1.302  -1.580   3.843  0.00  0.00     0.002 A 
ATOM      4  C4  N4B d   1       1.875  -2.377   2.863  0.00  0.00    -0.004 A 
ATOM      5  C5  N4B d   1       2.142  -1.856   1.631  0.00  0.00     0.002 A 
ATOM      6  C6  N4B d   1       1.814  -0.551   1.325  0.00  0.00     0.002 A 
ENDROOT
BRANCH   1   7
ATOM      7  C1' N4B d   1       0.797   1.631   1.874  0.00  0.00     0.057 C 
BRANCH   7   8
ATOM      8  C2' N4B d   1       1.869   2.626   2.307  0.00  0.00     0.009 C 
BRANCH   8   9
ATOM      9  C3' N4B d   1       2.758   3.043   1.148  0.00  0.00     0.004 C 
ATOM     10  C4' N4B d   1       2.126   4.087   0.277  0.00  0.00     0.003 C 
ENDBRANCH   8   9
ENDBRANCH   7   8
ENDBRANCH   1   7
TORSDOF 3
ENDMDL
