MODEL 1
REMARK minimizedAffinity 2.1746757
REMARK minimizedRMSD -1
REMARK  0 active torsions:
REMARK  status: ('A' for Active; 'I' for Inactive)
ROOT
ATOM      1  C4' PXY d   1       4.649   5.961  -6.000  0.00  0.00     0.077 C 
ATOM      2  C1' PXY d   1       3.462   0.364  -5.178  0.00  0.00     0.077 C 
ATOM      3  C1  PXY d   1       3.761   1.834  -5.395  0.00  0.00    -0.082 A 
ATOM      4  C2  PXY d   1       4.955   2.202  -5.829  0.00  0.00     0.003 A 
ATOM      5  C3  PXY d   1       5.252   3.530  -6.000  0.00  0.00     0.003 A 
ATOM      6  C4  PXY d   1       4.300   4.487  -5.776  0.00  0.00    -0.082 A 
ATOM      7  C5  PXY d   1       3.075   4.119  -5.343  0.00  0.00     0.003 A 
ATOM      8  C6  PXY d   1       2.807   2.770  -5.136  0.00  0.00     0.003 A 
ENDROOT
TORSDOF 0
ENDMDL
