MODEL 1
REMARK minimizedAffinity 3.53386259
REMARK minimizedRMSD -1
REMARK  0 active torsions:
REMARK  status: ('A' for Active; 'I' for Inactive)
ROOT
ATOM      1  C4' PXY d   1       5.261   1.019  -3.754  0.00  0.00     0.077 C 
ATOM      2  C1' PXY d   1       1.453   4.748  -5.992  0.00  0.00     0.077 C 
ATOM      3  C1  PXY d   1       2.461   3.779  -5.406  0.00  0.00    -0.082 A 
ATOM      4  C2  PXY d   1       2.232   2.477  -5.472  0.00  0.00     0.003 A 
ATOM      5  C3  PXY d   1       3.117   1.588  -4.919  0.00  0.00     0.003 A 
ATOM      6  C4  PXY d   1       4.275   2.034  -4.340  0.00  0.00    -0.082 A 
ATOM      7  C5  PXY d   1       4.522   3.359  -4.279  0.00  0.00     0.003 A 
ATOM      8  C6  PXY d   1       3.590   4.247  -4.810  0.00  0.00     0.003 A 
ENDROOT
TORSDOF 0
ENDMDL
