MODEL 1
REMARK minimizedAffinity -1.12009335
REMARK minimizedRMSD -1
REMARK  0 active torsions:
REMARK  status: ('A' for Active; 'I' for Inactive)
ROOT
ATOM      1  C4' PXY d   1       6.000   2.639  -5.999  0.00  0.00     0.077 C 
ATOM      2  C1' PXY d   1       0.909   5.272  -5.244  0.00  0.00     0.077 C 
ATOM      3  C1  PXY d   1       2.241   4.572  -5.434  0.00  0.00    -0.082 A 
ATOM      4  C2  PXY d   1       3.303   5.273  -5.792  0.00  0.00     0.003 A 
ATOM      5  C3  PXY d   1       4.508   4.651  -6.000  0.00  0.00     0.003 A 
ATOM      6  C4  PXY d   1       4.638   3.305  -5.787  0.00  0.00    -0.082 A 
ATOM      7  C5  PXY d   1       3.560   2.584  -5.411  0.00  0.00     0.003 A 
ATOM      8  C6  PXY d   1       2.337   3.228  -5.245  0.00  0.00     0.003 A 
ENDROOT
TORSDOF 0
ENDMDL
