MODEL 1
REMARK minimizedAffinity -1.90189612
REMARK minimizedRMSD -1
REMARK  0 active torsions:
REMARK  status: ('A' for Active; 'I' for Inactive)
ROOT
ATOM      1  C4' PXY d   1       0.456   5.186  -5.635  0.00  0.00     0.077 C 
ATOM      2  C1' PXY d   1       5.971   3.495  -6.000  0.00  0.00     0.077 C 
ATOM      3  C1  PXY d   1       4.521   3.927  -5.908  0.00  0.00    -0.082 A 
ATOM      4  C2  PXY d   1       4.215   5.212  -5.988  0.00  0.00     0.003 A 
ATOM      5  C3  PXY d   1       2.911   5.622  -5.875  0.00  0.00     0.003 A 
ATOM      6  C4  PXY d   1       1.906   4.704  -5.732  0.00  0.00    -0.082 A 
ATOM      7  C5  PXY d   1       2.209   3.391  -5.660  0.00  0.00     0.003 A 
ATOM      8  C6  PXY d   1       3.542   2.998  -5.736  0.00  0.00     0.003 A 
ENDROOT
TORSDOF 0
ENDMDL
