MODEL 1
REMARK minimizedAffinity -2.3746078
REMARK minimizedRMSD -1
REMARK  0 active torsions:
REMARK  status: ('A' for Active; 'I' for Inactive)
ROOT
ATOM      1  C4' PXY d   1       0.755   5.644  -5.044  0.00  0.00     0.077 C 
ATOM      2  C1' PXY d   1       6.000   3.409  -5.998  0.00  0.00     0.077 C 
ATOM      3  C1  PXY d   1       4.629   4.003  -5.739  0.00  0.00    -0.082 A 
ATOM      4  C2  PXY d   1       3.547   3.289  -6.000  0.00  0.00     0.003 A 
ATOM      5  C3  PXY d   1       2.299   3.822  -5.802  0.00  0.00     0.003 A 
ATOM      6  C4  PXY d   1       2.159   5.081  -5.281  0.00  0.00    -0.082 A 
ATOM      7  C5  PXY d   1       3.259   5.812  -5.002  0.00  0.00     0.003 A 
ATOM      8  C6  PXY d   1       4.516   5.267  -5.249  0.00  0.00     0.003 A 
ENDROOT
TORSDOF 0
ENDMDL
