MODEL 1
REMARK minimizedAffinity -1.98481369
REMARK minimizedRMSD -1
REMARK  0 active torsions:
REMARK  status: ('A' for Active; 'I' for Inactive)
ROOT
ATOM      1  C4' PXY d   1       0.238   4.165  -5.933  0.00  0.00     0.077 C 
ATOM      2  C1' PXY d   1       6.000   3.802  -5.644  0.00  0.00     0.077 C 
ATOM      3  C1  PXY d   1       4.488   3.885  -5.723  0.00  0.00    -0.082 A 
ATOM      4  C2  PXY d   1       3.908   5.051  -5.955  0.00  0.00     0.003 A 
ATOM      5  C3  PXY d   1       2.541   5.149  -5.998  0.00  0.00     0.003 A 
ATOM      6  C4  PXY d   1       1.761   4.033  -5.854  0.00  0.00    -0.082 A 
ATOM      7  C5  PXY d   1       2.346   2.838  -5.628  0.00  0.00     0.003 A 
ATOM      8  C6  PXY d   1       3.734   2.766  -5.548  0.00  0.00     0.003 A 
ENDROOT
TORSDOF 0
ENDMDL
