MODEL 1
REMARK minimizedAffinity -3.94169593
REMARK minimizedRMSD -1
REMARK  0 active torsions:
REMARK  status: ('A' for Active; 'I' for Inactive)
ROOT
ATOM      1  C4' PXY d   1       0.398   4.128  -4.585  0.00  0.00     0.077 C 
ATOM      2  C1' PXY d   1       5.995   4.424  -6.000  0.00  0.00     0.077 C 
ATOM      3  C1  PXY d   1       4.528   4.333  -5.628  0.00  0.00    -0.082 A 
ATOM      4  C2  PXY d   1       3.699   5.296  -5.996  0.00  0.00     0.003 A 
ATOM      5  C3  PXY d   1       2.376   5.246  -5.641  0.00  0.00     0.003 A 
ATOM      6  C4  PXY d   1       1.885   4.173  -4.947  0.00  0.00    -0.082 A 
ATOM      7  C5  PXY d   1       2.723   3.181  -4.576  0.00  0.00     0.003 A 
ATOM      8  C6  PXY d   1       4.071   3.271  -4.911  0.00  0.00     0.003 A 
ENDROOT
TORSDOF 0
ENDMDL
