MODEL 1
REMARK minimizedAffinity 1.4551487
REMARK minimizedRMSD -1
REMARK  0 active torsions:
REMARK  status: ('A' for Active; 'I' for Inactive)
ROOT
ATOM      1  C4' PXY d   1       2.669   0.585  -5.629  0.00  0.00     0.077 C 
ATOM      2  C1' PXY d   1       4.667   5.997  -5.998  0.00  0.00     0.077 C 
ATOM      3  C1  PXY d   1       4.133   4.582  -5.894  0.00  0.00    -0.082 A 
ATOM      4  C2  PXY d   1       4.965   3.559  -5.999  0.00  0.00     0.003 A 
ATOM      5  C3  PXY d   1       4.495   2.272  -5.940  0.00  0.00     0.003 A 
ATOM      6  C4  PXY d   1       3.165   2.031  -5.718  0.00  0.00    -0.082 A 
ATOM      7  C5  PXY d   1       2.311   3.069  -5.599  0.00  0.00     0.003 A 
ATOM      8  C6  PXY d   1       2.803   4.367  -5.703  0.00  0.00     0.003 A 
ENDROOT
TORSDOF 0
ENDMDL
