MODEL 1
REMARK minimizedAffinity -1.87852812
REMARK minimizedRMSD -1
REMARK  0 active torsions:
REMARK  status: ('A' for Active; 'I' for Inactive)
ROOT
ATOM      1  C4' PXY d   1       0.251   4.108  -5.645  0.00  0.00     0.077 C 
ATOM      2  C1' PXY d   1       5.996   4.649  -6.000  0.00  0.00     0.077 C 
ATOM      3  C1  PXY d   1       4.488   4.519  -5.903  0.00  0.00    -0.082 A 
ATOM      4  C2  PXY d   1       3.943   3.324  -5.741  0.00  0.00     0.003 A 
ATOM      5  C3  PXY d   1       2.580   3.186  -5.683  0.00  0.00     0.003 A 
ATOM      6  C4  PXY d   1       1.769   4.287  -5.739  0.00  0.00    -0.082 A 
ATOM      7  C5  PXY d   1       2.318   5.511  -5.893  0.00  0.00     0.003 A 
ATOM      8  C6  PXY d   1       3.701   5.626  -5.991  0.00  0.00     0.003 A 
ENDROOT
TORSDOF 0
ENDMDL
