MODEL 1
REMARK minimizedAffinity 5.80233288
REMARK minimizedRMSD -1
REMARK  0 active torsions:
REMARK  status: ('A' for Active; 'I' for Inactive)
ROOT
ATOM      1  C4' PXY d   1       5.145   1.769  -5.981  0.00  0.00     0.077 C 
ATOM      2  C1' PXY d   1       0.415   5.093  -5.998  0.00  0.00     0.077 C 
ATOM      3  C1  PXY d   1       1.663   4.231  -5.999  0.00  0.00    -0.082 A 
ATOM      4  C2  PXY d   1       1.547   2.913  -6.000  0.00  0.00     0.003 A 
ATOM      5  C3  PXY d   1       2.664   2.118  -5.968  0.00  0.00     0.003 A 
ATOM      6  C4  PXY d   1       3.913   2.679  -5.989  0.00  0.00    -0.082 A 
ATOM      7  C5  PXY d   1       4.040   4.023  -5.999  0.00  0.00     0.003 A 
ATOM      8  C6  PXY d   1       2.893   4.812  -5.990  0.00  0.00     0.003 A 
ENDROOT
TORSDOF 0
ENDMDL
