MODEL 1
REMARK minimizedAffinity -1.92226052
REMARK minimizedRMSD -1
REMARK  0 active torsions:
REMARK  status: ('A' for Active; 'I' for Inactive)
ROOT
ATOM      1  C4' PXY d   1       6.000   3.024  -6.000  0.00  0.00     0.077 C 
ATOM      2  C1' PXY d   1       0.791   5.159  -4.686  0.00  0.00     0.077 C 
ATOM      3  C1  PXY d   1       2.162   4.611  -5.030  0.00  0.00    -0.082 A 
ATOM      4  C2  PXY d   1       2.263   3.470  -5.692  0.00  0.00     0.003 A 
ATOM      5  C3  PXY d   1       3.496   2.944  -5.983  0.00  0.00     0.003 A 
ATOM      6  C4  PXY d   1       4.636   3.620  -5.639  0.00  0.00    -0.082 A 
ATOM      7  C5  PXY d   1       4.541   4.790  -4.973  0.00  0.00     0.003 A 
ATOM      8  C6  PXY d   1       3.281   5.286  -4.651  0.00  0.00     0.003 A 
ENDROOT
TORSDOF 0
ENDMDL
