MODEL 1
REMARK minimizedAffinity -1.67466366
REMARK minimizedRMSD -1
REMARK  0 active torsions:
REMARK  status: ('A' for Active; 'I' for Inactive)
ROOT
ATOM      1  C4' PXY d   1       4.896   2.605  -4.932  0.00  0.00     0.077 C 
ATOM      2  C1' PXY d   1       0.340   5.999  -6.000  0.00  0.00     0.077 C 
ATOM      3  C1  PXY d   1       1.542   5.115  -5.729  0.00  0.00    -0.082 A 
ATOM      4  C2  PXY d   1       1.364   3.907  -5.220  0.00  0.00     0.003 A 
ATOM      5  C3  PXY d   1       2.441   3.107  -4.939  0.00  0.00     0.003 A 
ATOM      6  C4  PXY d   1       3.711   3.528  -5.231  0.00  0.00    -0.082 A 
ATOM      7  C5  PXY d   1       3.900   4.755  -5.760  0.00  0.00     0.003 A 
ATOM      8  C6  PXY d   1       2.796   5.568  -6.000  0.00  0.00     0.003 A 
ENDROOT
TORSDOF 0
ENDMDL
