MODEL 1
REMARK minimizedAffinity -2.2623558
REMARK minimizedRMSD -1
REMARK  0 active torsions:
REMARK  status: ('A' for Active; 'I' for Inactive)
ROOT
ATOM      1  C4' PXY d   1       6.000   3.386  -5.991  0.00  0.00     0.077 C 
ATOM      2  C1' PXY d   1       0.380   4.509  -5.231  0.00  0.00     0.077 C 
ATOM      3  C1  PXY d   1       1.855   4.225  -5.438  0.00  0.00    -0.082 A 
ATOM      4  C2  PXY d   1       2.317   2.998  -5.257  0.00  0.00     0.003 A 
ATOM      5  C3  PXY d   1       3.653   2.731  -5.409  0.00  0.00     0.003 A 
ATOM      6  C4  PXY d   1       4.517   3.717  -5.802  0.00  0.00    -0.082 A 
ATOM      7  C5  PXY d   1       4.052   4.969  -6.000  0.00  0.00     0.003 A 
ATOM      8  C6  PXY d   1       2.699   5.229  -5.800  0.00  0.00     0.003 A 
ENDROOT
TORSDOF 0
ENDMDL
