MODEL 1
REMARK minimizedAffinity -3.43919849
REMARK minimizedRMSD -1
REMARK  0 active torsions:
REMARK  status: ('A' for Active; 'I' for Inactive)
ROOT
ATOM      1  C4' PXY d   1       2.103   5.993  -5.239  0.00  0.00     0.077 C 
ATOM      2  C1' PXY d   1       5.676   1.514  -6.000  0.00  0.00     0.077 C 
ATOM      3  C1  PXY d   1       4.748   2.694  -5.792  0.00  0.00    -0.082 A 
ATOM      4  C2  PXY d   1       3.449   2.549  -5.999  0.00  0.00     0.003 A 
ATOM      5  C3  PXY d   1       2.599   3.614  -5.847  0.00  0.00     0.003 A 
ATOM      6  C4  PXY d   1       3.077   4.827  -5.428  0.00  0.00    -0.082 A 
ATOM      7  C5  PXY d   1       4.399   4.980  -5.204  0.00  0.00     0.003 A 
ATOM      8  C6  PXY d   1       5.251   3.897  -5.404  0.00  0.00     0.003 A 
ENDROOT
TORSDOF 0
ENDMDL
