MODEL 1
REMARK minimizedAffinity -0.297138691
REMARK minimizedRMSD -1
REMARK  0 active torsions:
REMARK  status: ('A' for Active; 'I' for Inactive)
ROOT
ATOM      1  C4' PXY d   1       4.447   0.947  -5.607  0.00  0.00     0.077 C 
ATOM      2  C1' PXY d   1       1.666   6.000  -5.996  0.00  0.00     0.077 C 
ATOM      3  C1  PXY d   1       2.405   4.680  -5.900  0.00  0.00    -0.082 A 
ATOM      4  C2  PXY d   1       1.722   3.557  -5.743  0.00  0.00     0.003 A 
ATOM      5  C3  PXY d   1       2.377   2.358  -5.623  0.00  0.00     0.003 A 
ATOM      6  C4  PXY d   1       3.741   2.301  -5.718  0.00  0.00    -0.082 A 
ATOM      7  C5  PXY d   1       4.445   3.441  -5.889  0.00  0.00     0.003 A 
ATOM      8  C6  PXY d   1       3.764   4.652  -5.967  0.00  0.00     0.003 A 
ENDROOT
TORSDOF 0
ENDMDL
