MODEL 1
REMARK minimizedAffinity -3.84345603
REMARK minimizedRMSD -1
REMARK  0 active torsions:
REMARK  status: ('A' for Active; 'I' for Inactive)
ROOT
ATOM      1  C4' PXY d   1       5.986   1.597  -5.240  0.00  0.00     0.077 C 
ATOM      2  C1' PXY d   1       1.344   5.042  -5.230  0.00  0.00     0.077 C 
ATOM      3  C1  PXY d   1       2.554   4.129  -5.237  0.00  0.00    -0.082 A 
ATOM      4  C2  PXY d   1       3.611   4.438  -4.503  0.00  0.00     0.003 A 
ATOM      5  C3  PXY d   1       4.726   3.639  -4.522  0.00  0.00     0.003 A 
ATOM      6  C4  PXY d   1       4.739   2.485  -5.257  0.00  0.00    -0.082 A 
ATOM      7  C5  PXY d   1       3.660   2.157  -6.000  0.00  0.00     0.003 A 
ATOM      8  C6  PXY d   1       2.554   3.002  -5.999  0.00  0.00     0.003 A 
ENDROOT
TORSDOF 0
ENDMDL
