MODEL 1
REMARK minimizedAffinity -0.083287023
REMARK minimizedRMSD -1
REMARK  0 active torsions:
REMARK  status: ('A' for Active; 'I' for Inactive)
ROOT
ATOM      1  C4' PXY d   1       6.000   5.991  -5.508  0.00  0.00     0.077 C 
ATOM      2  C1' PXY d   1       0.947   3.224  -5.984  0.00  0.00     0.077 C 
ATOM      3  C1  PXY d   1       2.277   3.940  -5.852  0.00  0.00    -0.082 A 
ATOM      4  C2  PXY d   1       2.330   5.253  -6.000  0.00  0.00     0.003 A 
ATOM      5  C3  PXY d   1       3.529   5.913  -5.915  0.00  0.00     0.003 A 
ATOM      6  C4  PXY d   1       4.678   5.227  -5.624  0.00  0.00    -0.082 A 
ATOM      7  C5  PXY d   1       4.630   3.888  -5.461  0.00  0.00     0.003 A 
ATOM      8  C6  PXY d   1       3.410   3.232  -5.592  0.00  0.00     0.003 A 
ENDROOT
TORSDOF 0
ENDMDL
