MODEL 1
REMARK minimizedAffinity 0.950607121
REMARK minimizedRMSD -1
REMARK  0 active torsions:
REMARK  status: ('A' for Active; 'I' for Inactive)
ROOT
ATOM      1  C4' PXY d   1       3.826   0.239  -5.979  0.00  0.00     0.077 C 
ATOM      2  C1' PXY d   1       4.412   5.990  -5.997  0.00  0.00     0.077 C 
ATOM      3  C1  PXY d   1       4.270   4.481  -5.998  0.00  0.00    -0.082 A 
ATOM      4  C2  PXY d   1       3.064   3.937  -5.998  0.00  0.00     0.003 A 
ATOM      5  C3  PXY d   1       2.918   2.574  -5.967  0.00  0.00     0.003 A 
ATOM      6  C4  PXY d   1       4.017   1.758  -5.988  0.00  0.00    -0.082 A 
ATOM      7  C5  PXY d   1       5.251   2.305  -5.999  0.00  0.00     0.003 A 
ATOM      8  C6  PXY d   1       5.379   3.691  -5.989  0.00  0.00     0.003 A 
ENDROOT
TORSDOF 0
ENDMDL
