MODEL 1
REMARK minimizedAffinity 9.56158066
REMARK minimizedRMSD -1
REMARK  0 active torsions:
REMARK  status: ('A' for Active; 'I' for Inactive)
ROOT
ATOM      1  C4' PXY d   1       2.216  -4.421  -5.978  0.00  0.00     0.077 C 
ATOM      2  C1' PXY d   1      -3.248  -2.536  -5.906  0.00  0.00     0.077 C 
ATOM      3  C1  PXY d   1      -1.811  -3.019  -5.929  0.00  0.00    -0.082 A 
ATOM      4  C2  PXY d   1      -1.558  -4.316  -6.000  0.00  0.00     0.003 A 
ATOM      5  C3  PXY d   1      -0.265  -4.771  -5.990  0.00  0.00     0.003 A 
ATOM      6  C4  PXY d   1       0.781  -3.888  -5.961  0.00  0.00    -0.082 A 
ATOM      7  C5  PXY d   1       0.531  -2.563  -5.900  0.00  0.00     0.003 A 
ATOM      8  C6  PXY d   1      -0.789  -2.122  -5.870  0.00  0.00     0.003 A 
ENDROOT
TORSDOF 0
ENDMDL
