MODEL 1
REMARK minimizedAffinity -1.45359957
REMARK minimizedRMSD -1
REMARK  0 active torsions:
REMARK  status: ('A' for Active; 'I' for Inactive)
ROOT
ATOM      1  C4' PXY d   1       1.818   5.575  -5.930  0.00  0.00     0.077 C 
ATOM      2  C1' PXY d   1       5.997   1.582  -5.999  0.00  0.00     0.077 C 
ATOM      3  C1  PXY d   1       4.909   2.638  -5.976  0.00  0.00    -0.082 A 
ATOM      4  C2  PXY d   1       3.639   2.268  -5.988  0.00  0.00     0.003 A 
ATOM      5  C3  PXY d   1       2.643   3.210  -5.999  0.00  0.00     0.003 A 
ATOM      6  C4  PXY d   1       2.949   4.543  -5.943  0.00  0.00    -0.082 A 
ATOM      7  C5  PXY d   1       4.243   4.928  -5.920  0.00  0.00     0.003 A 
ATOM      8  C6  PXY d   1       5.240   3.957  -5.951  0.00  0.00     0.003 A 
ENDROOT
TORSDOF 0
ENDMDL
