MODEL 1
REMARK minimizedAffinity 12.18466
REMARK minimizedRMSD -1
REMARK  0 active torsions:
REMARK  status: ('A' for Active; 'I' for Inactive)
ROOT
ATOM      1  C1  BNZ d   1      -4.824  -0.457   4.857  0.00  0.00     0.000 A 
ATOM      2  C2  BNZ d   1      -5.714   0.406   5.440  0.00  0.00     0.000 A 
ATOM      3  C3  BNZ d   1      -5.288   1.581   5.993  0.00  0.00     0.000 A 
ATOM      4  C4  BNZ d   1      -3.972   1.873   5.999  0.00  0.00     0.000 A 
ATOM      5  C5  BNZ d   1      -3.061   1.009   5.424  0.00  0.00     0.000 A 
ATOM      6  C6  BNZ d   1      -3.498  -0.155   4.834  0.00  0.00     0.000 A 
ENDROOT
TORSDOF 0
ENDMDL
