MODEL 1
REMARK minimizedAffinity 11.3052473
REMARK minimizedRMSD -1
REMARK  0 active torsions:
REMARK  status: ('A' for Active; 'I' for Inactive)
ROOT
ATOM      1  C1  BNZ d   1      -5.053  -0.378   5.441  0.00  0.00     0.000 A 
ATOM      2  C2  BNZ d   1      -5.931   0.630   5.739  0.00  0.00     0.000 A 
ATOM      3  C3  BNZ d   1      -5.482   1.894   5.999  0.00  0.00     0.000 A 
ATOM      4  C4  BNZ d   1      -4.156   2.140   6.000  0.00  0.00     0.000 A 
ATOM      5  C5  BNZ d   1      -3.258   1.133   5.711  0.00  0.00     0.000 A 
ATOM      6  C6  BNZ d   1      -3.715  -0.130   5.411  0.00  0.00     0.000 A 
ENDROOT
TORSDOF 0
ENDMDL
