MODEL 1
REMARK minimizedAffinity 7.49539804
REMARK minimizedRMSD -1
REMARK  0 active torsions:
REMARK  status: ('A' for Active; 'I' for Inactive)
ROOT
ATOM      1  C1  BNZ d   1      -1.566   2.717  -4.534  0.00  0.00     0.000 A 
ATOM      2  C2  BNZ d   1      -0.334   2.126  -4.447  0.00  0.00     0.000 A 
ATOM      3  C3  BNZ d   1      -0.183   0.907  -3.846  0.00  0.00     0.000 A 
ATOM      4  C4  BNZ d   1      -1.255   0.301  -3.299  0.00  0.00     0.000 A 
ATOM      5  C5  BNZ d   1      -2.503   0.888  -3.370  0.00  0.00     0.000 A 
ATOM      6  C6  BNZ d   1      -2.658   2.096  -4.010  0.00  0.00     0.000 A 
ENDROOT
TORSDOF 0
ENDMDL
