MODEL 1
REMARK minimizedAffinity 9.3759594
REMARK minimizedRMSD -1
REMARK  0 active torsions:
REMARK  status: ('A' for Active; 'I' for Inactive)
ROOT
ATOM      1  C1  BNZ d   1      -0.466  -3.848  -0.659  0.00  0.00     0.000 A 
ATOM      2  C2  BNZ d   1      -0.775  -2.582  -0.237  0.00  0.00     0.000 A 
ATOM      3  C3  BNZ d   1      -1.301  -1.664  -1.103  0.00  0.00     0.000 A 
ATOM      4  C4  BNZ d   1      -1.482  -2.001  -2.396  0.00  0.00     0.000 A 
ATOM      5  C5  BNZ d   1      -1.167  -3.270  -2.839  0.00  0.00     0.000 A 
ATOM      6  C6  BNZ d   1      -0.674  -4.203  -1.956  0.00  0.00     0.000 A 
ENDROOT
TORSDOF 0
ENDMDL
