MODEL 1
REMARK minimizedAffinity 7.1659193
REMARK minimizedRMSD -1
REMARK  0 active torsions:
REMARK  status: ('A' for Active; 'I' for Inactive)
ROOT
ATOM      1  C1  BNZ d   1       1.408  -2.337   3.048  0.00  0.00     0.000 A 
ATOM      2  C2  BNZ d   1       1.889  -1.910   4.257  0.00  0.00     0.000 A 
ATOM      3  C3  BNZ d   1       1.048  -1.723   5.319  0.00  0.00     0.000 A 
ATOM      4  C4  BNZ d   1      -0.276  -1.923   5.159  0.00  0.00     0.000 A 
ATOM      5  C5  BNZ d   1      -0.777  -2.344   3.943  0.00  0.00     0.000 A 
ATOM      6  C6  BNZ d   1       0.077  -2.569   2.888  0.00  0.00     0.000 A 
ENDROOT
TORSDOF 0
ENDMDL
