MODEL 1
REMARK minimizedAffinity 8.00319386
REMARK minimizedRMSD -1
REMARK  0 active torsions:
REMARK  status: ('A' for Active; 'I' for Inactive)
ROOT
ATOM      1  C1  BNZ d   1      -1.380   2.115  -6.000  0.00  0.00     0.000 A 
ATOM      2  C2  BNZ d   1      -2.749   2.066  -6.000  0.00  0.00     0.000 A 
ATOM      3  C3  BNZ d   1      -3.481   2.968  -5.279  0.00  0.00     0.000 A 
ATOM      4  C4  BNZ d   1      -2.844   3.891  -4.530  0.00  0.00     0.000 A 
ATOM      5  C5  BNZ d   1      -1.465   3.947  -4.512  0.00  0.00     0.000 A 
ATOM      6  C6  BNZ d   1      -0.732   3.062  -5.269  0.00  0.00     0.000 A 
ENDROOT
TORSDOF 0
ENDMDL
