MODEL 1
REMARK minimizedAffinity 8.73455238
REMARK minimizedRMSD -1
REMARK  0 active torsions:
REMARK  status: ('A' for Active; 'I' for Inactive)
ROOT
ATOM      1  C1  BNZ d   1      -0.428  -2.992  -0.464  0.00  0.00     0.000 A 
ATOM      2  C2  BNZ d   1      -0.830  -1.861  -1.122  0.00  0.00     0.000 A 
ATOM      3  C3  BNZ d   1      -1.883  -1.120  -0.661  0.00  0.00     0.000 A 
ATOM      4  C4  BNZ d   1      -2.555  -1.533   0.433  0.00  0.00     0.000 A 
ATOM      5  C5  BNZ d   1      -2.167  -2.676   1.102  0.00  0.00     0.000 A 
ATOM      6  C6  BNZ d   1      -1.083  -3.398   0.658  0.00  0.00     0.000 A 
ENDROOT
TORSDOF 0
ENDMDL
