MODEL 1
REMARK minimizedAffinity 9.00546169
REMARK minimizedRMSD -1
REMARK  0 active torsions:
REMARK  status: ('A' for Active; 'I' for Inactive)
ROOT
ATOM      1  C1  BNZ d   1      -1.946  -1.394  -0.710  0.00  0.00     0.000 A 
ATOM      2  C2  BNZ d   1      -1.592  -2.399   0.150  0.00  0.00     0.000 A 
ATOM      3  C3  BNZ d   1      -0.950  -3.517  -0.306  0.00  0.00     0.000 A 
ATOM      4  C4  BNZ d   1      -0.699  -3.646  -1.625  0.00  0.00     0.000 A 
ATOM      5  C5  BNZ d   1      -1.059  -2.646  -2.506  0.00  0.00     0.000 A 
ATOM      6  C6  BNZ d   1      -1.670  -1.505  -2.038  0.00  0.00     0.000 A 
ENDROOT
TORSDOF 0
ENDMDL
