MODEL 1
REMARK minimizedAffinity 8.21044064
REMARK minimizedRMSD -1
REMARK  0 active torsions:
REMARK  status: ('A' for Active; 'I' for Inactive)
ROOT
ATOM      1  C1  BNZ d   1      -3.371   1.873   5.999  0.00  0.00     0.000 A 
ATOM      2  C2  BNZ d   1      -2.890   0.823   5.263  0.00  0.00     0.000 A 
ATOM      3  C3  BNZ d   1      -3.731   0.050   4.513  0.00  0.00     0.000 A 
ATOM      4  C4  BNZ d   1      -5.056   0.302   4.531  0.00  0.00     0.000 A 
ATOM      5  C5  BNZ d   1      -5.558   1.351   5.275  0.00  0.00     0.000 A 
ATOM      6  C6  BNZ d   1      -4.703   2.152   5.998  0.00  0.00     0.000 A 
ENDROOT
TORSDOF 0
ENDMDL
