MODEL 1
REMARK minimizedAffinity 11.527132
REMARK minimizedRMSD -1
REMARK  0 active torsions:
REMARK  status: ('A' for Active; 'I' for Inactive)
ROOT
ATOM      1  C1  BNZ d   1      -3.934   4.902  -4.150  0.00  0.00     0.000 A 
ATOM      2  C2  BNZ d   1      -4.778   5.977  -4.232  0.00  0.00     0.000 A 
ATOM      3  C3  BNZ d   1      -5.811   5.990  -5.127  0.00  0.00     0.000 A 
ATOM      4  C4  BNZ d   1      -5.975   4.946  -5.966  0.00  0.00     0.000 A 
ATOM      5  C5  BNZ d   1      -5.126   3.859  -5.903  0.00  0.00     0.000 A 
ATOM      6  C6  BNZ d   1      -4.111   3.833  -4.974  0.00  0.00     0.000 A 
ENDROOT
TORSDOF 0
ENDMDL
