MODEL 1
REMARK minimizedAffinity 3.09953403
REMARK minimizedRMSD -1
REMARK  0 active torsions:
REMARK  status: ('A' for Active; 'I' for Inactive)
ROOT
ATOM      1  C1  BNZ d   1      -3.747   4.877  -0.032  0.00  0.00     0.000 A 
ATOM      2  C2  BNZ d   1      -4.567   5.974  -0.006  0.00  0.00     0.000 A 
ATOM      3  C3  BNZ d   1      -5.676   6.000   0.794  0.00  0.00     0.000 A 
ATOM      4  C4  BNZ d   1      -5.984   4.916   1.535  0.00  0.00     0.000 A 
ATOM      5  C5  BNZ d   1      -5.172   3.799   1.512  0.00  0.00     0.000 A 
ATOM      6  C6  BNZ d   1      -4.036   3.792   0.736  0.00  0.00     0.000 A 
ENDROOT
TORSDOF 0
ENDMDL
