MODEL 1
REMARK minimizedAffinity 11.1383858
REMARK minimizedRMSD -1
REMARK  0 active torsions:
REMARK  status: ('A' for Active; 'I' for Inactive)
ROOT
ATOM      1  C1  BNZ d   1      -1.738   3.539  -5.997  0.00  0.00     0.000 A 
ATOM      2  C2  BNZ d   1      -2.987   2.978  -5.997  0.00  0.00     0.000 A 
ATOM      3  C3  BNZ d   1      -3.264   1.885  -5.224  0.00  0.00     0.000 A 
ATOM      4  C4  BNZ d   1      -2.283   1.331  -4.484  0.00  0.00     0.000 A 
ATOM      5  C5  BNZ d   1      -1.015   1.879  -4.480  0.00  0.00     0.000 A 
ATOM      6  C6  BNZ d   1      -0.750   3.002  -5.229  0.00  0.00     0.000 A 
ENDROOT
TORSDOF 0
ENDMDL
