MODEL 1
REMARK minimizedAffinity 10.2398119
REMARK minimizedRMSD -1
REMARK  0 active torsions:
REMARK  status: ('A' for Active; 'I' for Inactive)
ROOT
ATOM      1  C1  BNZ d   1      -2.645   3.674  -4.136  0.00  0.00     0.000 A 
ATOM      2  C2  BNZ d   1      -1.276   3.640  -4.147  0.00  0.00     0.000 A 
ATOM      3  C3  BNZ d   1      -0.601   2.919  -5.092  0.00  0.00     0.000 A 
ATOM      4  C4  BNZ d   1      -1.295   2.202  -5.999  0.00  0.00     0.000 A 
ATOM      5  C5  BNZ d   1      -2.675   2.219  -5.996  0.00  0.00     0.000 A 
ATOM      6  C6  BNZ d   1      -3.351   2.977  -5.068  0.00  0.00     0.000 A 
ENDROOT
TORSDOF 0
ENDMDL
