MODEL 1
REMARK minimizedAffinity 7.37663317
REMARK minimizedRMSD -1
REMARK  0 active torsions:
REMARK  status: ('A' for Active; 'I' for Inactive)
ROOT
ATOM      1  C1  BNZ d   1      -0.519  -4.232  -0.587  0.00  0.00     0.000 A 
ATOM      2  C2  BNZ d   1      -0.817  -3.012  -0.040  0.00  0.00     0.000 A 
ATOM      3  C3  BNZ d   1      -1.214  -1.969  -0.830  0.00  0.00     0.000 A 
ATOM      4  C4  BNZ d   1      -1.273  -2.135  -2.167  0.00  0.00     0.000 A 
ATOM      5  C5  BNZ d   1      -0.966  -3.356  -2.734  0.00  0.00     0.000 A 
ATOM      6  C6  BNZ d   1      -0.605  -4.414  -1.933  0.00  0.00     0.000 A 
ENDROOT
TORSDOF 0
ENDMDL
