MODEL 1
REMARK minimizedAffinity 5.05729342
REMARK minimizedRMSD -1
REMARK  0 active torsions:
REMARK  status: ('A' for Active; 'I' for Inactive)
ROOT
ATOM      1  C1  BNZ d   1      -0.467  -0.814  -3.066  0.00  0.00     0.000 A 
ATOM      2  C2  BNZ d   1      -1.639  -1.413  -2.689  0.00  0.00     0.000 A 
ATOM      3  C3  BNZ d   1      -2.041  -1.405  -1.382  0.00  0.00     0.000 A 
ATOM      4  C4  BNZ d   1      -1.253  -0.833  -0.450  0.00  0.00     0.000 A 
ATOM      5  C5  BNZ d   1      -0.064  -0.232  -0.813  0.00  0.00     0.000 A 
ATOM      6  C6  BNZ d   1       0.319  -0.208  -2.134  0.00  0.00     0.000 A 
ENDROOT
TORSDOF 0
ENDMDL
