MODEL 1
REMARK minimizedAffinity 5.78279161
REMARK minimizedRMSD -1
REMARK  0 active torsions:
REMARK  status: ('A' for Active; 'I' for Inactive)
ROOT
ATOM      1  C1  BNZ d   1       4.871   3.142   5.238  0.00  0.00     0.000 A 
ATOM      2  C2  BNZ d   1       3.733   2.886   4.521  0.00  0.00     0.000 A 
ATOM      3  C3  BNZ d   1       3.708   1.896   3.578  0.00  0.00     0.000 A 
ATOM      4  C4  BNZ d   1       4.830   1.193   3.325  0.00  0.00     0.000 A 
ATOM      5  C5  BNZ d   1       5.988   1.446   4.033  0.00  0.00     0.000 A 
ATOM      6  C6  BNZ d   1       5.999   2.416   5.008  0.00  0.00     0.000 A 
ENDROOT
TORSDOF 0
ENDMDL
