MODEL 1
REMARK minimizedAffinity -0.837256312
REMARK minimizedRMSD -1
REMARK  0 active torsions:
REMARK  status: ('A' for Active; 'I' for Inactive)
ROOT
ATOM      1  N1  IND d   1       1.277  -0.828   0.097  0.00  0.00    -0.196 N 
ATOM      2  C2  IND d   1       1.149  -1.646   1.184  0.00  0.00     0.054 A 
ATOM      3  C3  IND d   1      -0.147  -1.980   1.372  0.00  0.00    -0.031 A 
ATOM      4  C4  IND d   1      -2.212  -1.379  -0.044  0.00  0.00     0.051 A 
ATOM      5  C5  IND d   1      -2.601  -0.624  -1.115  0.00  0.00    -0.031 A 
ATOM      6  C6  IND d   1      -1.699   0.115  -1.853  0.00  0.00     0.015 A 
ATOM      7  C7  IND d   1      -0.366   0.117  -1.553  0.00  0.00    -0.016 A 
ATOM      8  C8  IND d   1       0.032  -0.643  -0.462  0.00  0.00    -0.047 A 
ATOM      9  C9  IND d   1      -0.885  -1.361   0.316  0.00  0.00    -0.096 A 
ATOM     10  HN1 IND d   1       2.012  -0.485  -0.190  0.00  0.00     0.298 HD
ENDROOT
TORSDOF 0
ENDMDL
