MODEL 1
REMARK minimizedAffinity 0.723915279
REMARK minimizedRMSD -1
REMARK  0 active torsions:
REMARK  status: ('A' for Active; 'I' for Inactive)
ROOT
ATOM      1  N1  IND d   1       1.999   0.922   1.235  0.00  0.00    -0.196 N 
ATOM      2  C2  IND d   1       2.729   1.967   0.743  0.00  0.00     0.054 A 
ATOM      3  C3  IND d   1       2.198   2.405  -0.421  0.00  0.00    -0.031 A 
ATOM      4  C4  IND d   1       0.076   1.619  -1.649  0.00  0.00     0.051 A 
ATOM      5  C5  IND d   1      -0.903   0.667  -1.605  0.00  0.00    -0.031 A 
ATOM      6  C6  IND d   1      -0.969  -0.265  -0.590  0.00  0.00     0.015 A 
ATOM      7  C7  IND d   1      -0.059  -0.274   0.429  0.00  0.00    -0.016 A 
ATOM      8  C8  IND d   1       0.941   0.687   0.384  0.00  0.00    -0.047 A 
ATOM      9  C9  IND d   1       1.037   1.609  -0.666  0.00  0.00    -0.096 A 
ATOM     10  HN1 IND d   1       2.171   0.484   1.955  0.00  0.00     0.298 HD
ENDROOT
TORSDOF 0
ENDMDL
