MODEL 1
REMARK minimizedAffinity -3.73115396
REMARK minimizedRMSD -1
REMARK  0 active torsions:
REMARK  status: ('A' for Active; 'I' for Inactive)
ROOT
ATOM      1  N1  IND d   1       2.970   1.710   0.767  0.00  0.00    -0.196 N 
ATOM      2  C2  IND d   1       2.768   3.007   1.149  0.00  0.00     0.054 A 
ATOM      3  C3  IND d   1       1.484   3.368   0.929  0.00  0.00    -0.031 A 
ATOM      4  C4  IND d   1      -0.482   1.961   0.044  0.00  0.00     0.051 A 
ATOM      5  C5  IND d   1      -0.779   0.731  -0.474  0.00  0.00    -0.031 A 
ATOM      6  C6  IND d   1       0.176  -0.256  -0.604  0.00  0.00     0.015 A 
ATOM      7  C7  IND d   1       1.469  -0.052  -0.210  0.00  0.00    -0.016 A 
ATOM      8  C8  IND d   1       1.776   1.197   0.309  0.00  0.00    -0.047 A 
ATOM      9  C9  IND d   1       0.820   2.217   0.405  0.00  0.00    -0.096 A 
ATOM     10  HN1 IND d   1       3.717   1.287   0.805  0.00  0.00     0.298 HD
ENDROOT
TORSDOF 0
ENDMDL
