MODEL 1
REMARK minimizedAffinity -3.8147018
REMARK minimizedRMSD -1
REMARK  0 active torsions:
REMARK  status: ('A' for Active; 'I' for Inactive)
ROOT
ATOM      1  N1  IND d   1      -0.159  -2.607   1.093  0.00  0.00    -0.196 N 
ATOM      2  C2  IND d   1      -1.247  -3.415   0.915  0.00  0.00     0.054 A 
ATOM      3  C3  IND d   1      -2.096  -2.869   0.015  0.00  0.00    -0.031 A 
ATOM      4  C4  IND d   1      -1.850  -0.710  -1.364  0.00  0.00     0.051 A 
ATOM      5  C5  IND d   1      -1.043   0.382  -1.522  0.00  0.00    -0.031 A 
ATOM      6  C6  IND d   1       0.125   0.534  -0.804  0.00  0.00     0.015 A 
ATOM      7  C7  IND d   1       0.537  -0.409   0.095  0.00  0.00    -0.016 A 
ATOM      8  C8  IND d   1      -0.283  -1.515   0.263  0.00  0.00    -0.047 A 
ATOM      9  C9  IND d   1      -1.492  -1.655  -0.432  0.00  0.00    -0.096 A 
ATOM     10  HN1 IND d   1       0.494  -2.757   1.632  0.00  0.00     0.298 HD
ENDROOT
TORSDOF 0
ENDMDL
