MODEL 1
REMARK minimizedAffinity -2.57831335
REMARK minimizedRMSD -1
REMARK  0 active torsions:
REMARK  status: ('A' for Active; 'I' for Inactive)
ROOT
ATOM      1  N1  IND d   1       1.220   2.265   0.586  0.00  0.00    -0.196 N 
ATOM      2  C2  IND d   1       2.313   1.463   0.761  0.00  0.00     0.054 A 
ATOM      3  C3  IND d   1       2.064   0.220   0.292  0.00  0.00    -0.031 A 
ATOM      4  C4  IND d   1      -0.031  -0.691  -0.894  0.00  0.00     0.051 A 
ATOM      5  C5  IND d   1      -1.304  -0.344  -1.250  0.00  0.00    -0.031 A 
ATOM      6  C6  IND d   1      -1.810   0.917  -1.010  0.00  0.00     0.015 A 
ATOM      7  C7  IND d   1      -1.054   1.886  -0.412  0.00  0.00    -0.016 A 
ATOM      8  C8  IND d   1       0.237   1.535  -0.043  0.00  0.00    -0.047 A 
ATOM      9  C9  IND d   1       0.741   0.244  -0.246  0.00  0.00    -0.096 A 
ATOM     10  HN1 IND d   1       1.158   3.088   0.829  0.00  0.00     0.298 HD
ENDROOT
TORSDOF 0
ENDMDL
