MODEL 1
REMARK minimizedAffinity -2.08547235
REMARK minimizedRMSD -1
REMARK  0 active torsions:
REMARK  status: ('A' for Active; 'I' for Inactive)
ROOT
ATOM      1  N1  IND d   1      -1.017   1.100  -0.067  0.00  0.00    -0.196 N 
ATOM      2  C2  IND d   1      -1.021   0.162  -1.061  0.00  0.00     0.054 A 
ATOM      3  C3  IND d   1       0.232  -0.297  -1.280  0.00  0.00    -0.031 A 
ATOM      4  C4  IND d   1       2.421   0.277  -0.053  0.00  0.00     0.051 A 
ATOM      5  C5  IND d   1       2.934   1.108   0.903  0.00  0.00    -0.031 A 
ATOM      6  C6  IND d   1       2.140   1.994   1.602  0.00  0.00     0.015 A 
ATOM      7  C7  IND d   1       0.795   2.075   1.376  0.00  0.00    -0.016 A 
ATOM      8  C8  IND d   1       0.272   1.238   0.400  0.00  0.00    -0.047 A 
ATOM      9  C9  IND d   1       1.080   0.367  -0.341  0.00  0.00    -0.096 A 
ATOM     10  HN1 IND d   1      -1.704   1.531   0.219  0.00  0.00     0.298 HD
ENDROOT
TORSDOF 0
ENDMDL
