MODEL 1
REMARK minimizedAffinity -3.00527763
REMARK minimizedRMSD -1
REMARK  0 active torsions:
REMARK  status: ('A' for Active; 'I' for Inactive)
ROOT
ATOM      1  N1  IND d   1      -1.244   1.222  -0.437  0.00  0.00    -0.196 N 
ATOM      2  C2  IND d   1      -1.373   0.188  -1.322  0.00  0.00     0.054 A 
ATOM      3  C3  IND d   1      -0.247  -0.561  -1.337  0.00  0.00    -0.031 A 
ATOM      4  C4  IND d   1       1.889  -0.332   0.081  0.00  0.00     0.051 A 
ATOM      5  C5  IND d   1       2.489   0.482   1.002  0.00  0.00    -0.031 A 
ATOM      6  C6  IND d   1       1.861   1.604   1.502  0.00  0.00     0.015 A 
ATOM      7  C7  IND d   1       0.601   1.951   1.106  0.00  0.00    -0.016 A 
ATOM      8  C8  IND d   1      -0.009   1.132   0.167  0.00  0.00    -0.047 A 
ATOM      9  C9  IND d   1       0.640   0.015  -0.376  0.00  0.00    -0.096 A 
ATOM     10  HN1 IND d   1      -1.835   1.828  -0.284  0.00  0.00     0.298 HD
ENDROOT
TORSDOF 0
ENDMDL
