MODEL 1
REMARK minimizedAffinity -2.33228302
REMARK minimizedRMSD -1
REMARK  0 active torsions:
REMARK  status: ('A' for Active; 'I' for Inactive)
ROOT
ATOM      1  N1  IND d   1       1.128   2.029   0.213  0.00  0.00    -0.196 N 
ATOM      2  C2  IND d   1       2.119   1.121   0.462  0.00  0.00     0.054 A 
ATOM      3  C3  IND d   1       1.809  -0.076  -0.085  0.00  0.00    -0.031 A 
ATOM      4  C4  IND d   1      -0.225  -0.742  -1.515  0.00  0.00     0.051 A 
ATOM      5  C5  IND d   1      -1.418  -0.263  -1.982  0.00  0.00    -0.031 A 
ATOM      6  C6  IND d   1      -1.829   1.031  -1.738  0.00  0.00     0.015 A 
ATOM      7  C7  IND d   1      -1.055   1.902  -1.024  0.00  0.00    -0.016 A 
ATOM      8  C8  IND d   1       0.153   1.417  -0.543  0.00  0.00    -0.047 A 
ATOM      9  C9  IND d   1       0.556   0.092  -0.752  0.00  0.00    -0.096 A 
ATOM     10  HN1 IND d   1       1.115   2.845   0.484  0.00  0.00     0.298 HD
ENDROOT
TORSDOF 0
ENDMDL
