MODEL 1
REMARK minimizedAffinity -2.10546112
REMARK minimizedRMSD -1
REMARK  0 active torsions:
REMARK  status: ('A' for Active; 'I' for Inactive)
ROOT
ATOM      1  N1  IND d   1       1.028   0.488   0.420  0.00  0.00    -0.196 N 
ATOM      2  C2  IND d   1       0.985   1.497  -0.501  0.00  0.00     0.054 A 
ATOM      3  C3  IND d   1      -0.018   1.286  -1.382  0.00  0.00    -0.031 A 
ATOM      4  C4  IND d   1      -1.776  -0.594  -1.441  0.00  0.00     0.051 A 
ATOM      5  C5  IND d   1      -2.121  -1.766  -0.828  0.00  0.00    -0.031 A 
ATOM      6  C6  IND d   1      -1.421  -2.255   0.256  0.00  0.00     0.015 A 
ATOM      7  C7  IND d   1      -0.352  -1.581   0.777  0.00  0.00    -0.016 A 
ATOM      8  C8  IND d   1       0.005  -0.395   0.153  0.00  0.00    -0.047 A 
ATOM      9  C9  IND d   1      -0.675   0.085  -0.974  0.00  0.00    -0.096 A 
ATOM     10  HN1 IND d   1       1.599   0.416   1.059  0.00  0.00     0.298 HD
ENDROOT
TORSDOF 0
ENDMDL
