MODEL 1
REMARK minimizedAffinity -2.56548119
REMARK minimizedRMSD -1
REMARK  0 active torsions:
REMARK  status: ('A' for Active; 'I' for Inactive)
ROOT
ATOM      1  N1  IND d   1       0.026  -2.603   1.342  0.00  0.00    -0.196 N 
ATOM      2  C2  IND d   1      -1.049  -3.444   1.412  0.00  0.00     0.054 A 
ATOM      3  C3  IND d   1      -2.033  -3.019   0.587  0.00  0.00    -0.031 A 
ATOM      4  C4  IND d   1      -2.054  -1.027  -1.043  0.00  0.00     0.051 A 
ATOM      5  C5  IND d   1      -1.313   0.053  -1.433  0.00  0.00    -0.031 A 
ATOM      6  C6  IND d   1      -0.061   0.307  -0.910  0.00  0.00     0.015 A 
ATOM      7  C7  IND d   1       0.503  -0.521   0.019  0.00  0.00    -0.016 A 
ATOM      8  C8  IND d   1      -0.249  -1.615   0.423  0.00  0.00    -0.047 A 
ATOM      9  C9  IND d   1      -1.537  -1.853  -0.073  0.00  0.00    -0.096 A 
ATOM     10  HN1 IND d   1       0.753  -2.679   1.796  0.00  0.00     0.298 HD
ENDROOT
TORSDOF 0
ENDMDL
