MODEL 1
REMARK minimizedAffinity -0.754971206
REMARK minimizedRMSD -1
REMARK  0 active torsions:
REMARK  status: ('A' for Active; 'I' for Inactive)
ROOT
ATOM      1  N1  IND d   1       1.223  -0.473   0.455  0.00  0.00    -0.196 N 
ATOM      2  C2  IND d   1       1.820   0.738   0.240  0.00  0.00     0.054 A 
ATOM      3  C3  IND d   1       0.995   1.552  -0.457  0.00  0.00    -0.031 A 
ATOM      4  C4  IND d   1      -1.417   1.140  -1.256  0.00  0.00     0.051 A 
ATOM      5  C5  IND d   1      -2.378   0.171  -1.326  0.00  0.00    -0.031 A 
ATOM      6  C6  IND d   1      -2.185  -1.087  -0.793  0.00  0.00     0.015 A 
ATOM      7  C7  IND d   1      -1.023  -1.421  -0.157  0.00  0.00    -0.016 A 
ATOM      8  C8  IND d   1      -0.042  -0.441  -0.090  0.00  0.00    -0.047 A 
ATOM      9  C9  IND d   1      -0.216   0.824  -0.667  0.00  0.00    -0.096 A 
ATOM     10  HN1 IND d   1       1.578  -1.142   0.863  0.00  0.00     0.298 HD
ENDROOT
TORSDOF 0
ENDMDL
