MODEL 1
REMARK minimizedAffinity -1.53923273
REMARK minimizedRMSD -1
REMARK  0 active torsions:
REMARK  status: ('A' for Active; 'I' for Inactive)
ROOT
ATOM      1  N1  IND d   1      -0.687  -2.746   1.406  0.00  0.00    -0.196 N 
ATOM      2  C2  IND d   1      -1.735  -3.581   1.134  0.00  0.00     0.054 A 
ATOM      3  C3  IND d   1      -2.495  -3.072   0.138  0.00  0.00    -0.031 A 
ATOM      4  C4  IND d   1      -2.148  -0.936  -1.255  0.00  0.00     0.051 A 
ATOM      5  C5  IND d   1      -1.351   0.170  -1.352  0.00  0.00    -0.031 A 
ATOM      6  C6  IND d   1      -0.268   0.363  -0.518  0.00  0.00     0.015 A 
ATOM      7  C7  IND d   1       0.066  -0.553   0.439  0.00  0.00    -0.016 A 
ATOM      8  C8  IND d   1      -0.746  -1.673   0.544  0.00  0.00    -0.047 A 
ATOM      9  C9  IND d   1      -1.871  -1.854  -0.270  0.00  0.00    -0.096 A 
ATOM     10  HN1 IND d   1      -0.092  -2.870   2.014  0.00  0.00     0.298 HD
ENDROOT
TORSDOF 0
ENDMDL
