MODEL 1
REMARK minimizedAffinity -0.810356081
REMARK minimizedRMSD -1
REMARK  0 active torsions:
REMARK  status: ('A' for Active; 'I' for Inactive)
ROOT
ATOM      1  N1  IND d   1      -0.587  -2.269   1.527  0.00  0.00    -0.196 N 
ATOM      2  C2  IND d   1      -1.507  -3.264   1.344  0.00  0.00     0.054 A 
ATOM      3  C3  IND d   1      -2.318  -2.969   0.303  0.00  0.00    -0.031 A 
ATOM      4  C4  IND d   1      -2.251  -0.960  -1.305  0.00  0.00     0.051 A 
ATOM      5  C5  IND d   1      -1.612   0.230  -1.516  0.00  0.00    -0.031 A 
ATOM      6  C6  IND d   1      -0.576   0.654  -0.710  0.00  0.00     0.015 A 
ATOM      7  C7  IND d   1      -0.131  -0.104   0.336  0.00  0.00    -0.016 A 
ATOM      8  C8  IND d   1      -0.782  -1.309   0.558  0.00  0.00    -0.047 A 
ATOM      9  C9  IND d   1      -1.862  -1.725  -0.231  0.00  0.00    -0.096 A 
ATOM     10  HN1 IND d   1       0.012  -2.247   2.143  0.00  0.00     0.298 HD
ENDROOT
TORSDOF 0
ENDMDL
