MODEL 1
REMARK minimizedAffinity -2.26126146
REMARK minimizedRMSD -1
REMARK  0 active torsions:
REMARK  status: ('A' for Active; 'I' for Inactive)
ROOT
ATOM      1  N1  IND d   1       0.384  -1.126   0.810  0.00  0.00    -0.196 N 
ATOM      2  C2  IND d   1       0.598   0.021   0.098  0.00  0.00     0.054 A 
ATOM      3  C3  IND d   1      -0.367   0.182  -0.835  0.00  0.00    -0.031 A 
ATOM      4  C4  IND d   1      -2.448  -1.261  -1.302  0.00  0.00     0.051 A 
ATOM      5  C5  IND d   1      -3.052  -2.430  -0.934  0.00  0.00    -0.031 A 
ATOM      6  C6  IND d   1      -2.533  -3.240   0.055  0.00  0.00     0.015 A 
ATOM      7  C7  IND d   1      -1.391  -2.903   0.725  0.00  0.00    -0.016 A 
ATOM      8  C8  IND d   1      -0.771  -1.720   0.350  0.00  0.00    -0.047 A 
ATOM      9  C9  IND d   1      -1.270  -0.915  -0.683  0.00  0.00    -0.096 A 
ATOM     10  HN1 IND d   1       0.887  -1.427   1.439  0.00  0.00     0.298 HD
ENDROOT
TORSDOF 0
ENDMDL
