MODEL 1
REMARK minimizedAffinity -1.71722615
REMARK minimizedRMSD -1
REMARK  0 active torsions:
REMARK  status: ('A' for Active; 'I' for Inactive)
ROOT
ATOM      1  N1  IND d   1      -0.532  -2.184   1.655  0.00  0.00    -0.196 N 
ATOM      2  C2  IND d   1      -1.512  -3.137   1.607  0.00  0.00     0.054 A 
ATOM      3  C3  IND d   1      -2.324  -2.924   0.548  0.00  0.00    -0.031 A 
ATOM      4  C4  IND d   1      -2.172  -1.134  -1.296  0.00  0.00     0.051 A 
ATOM      5  C5  IND d   1      -1.469  -0.020  -1.660  0.00  0.00    -0.031 A 
ATOM      6  C6  IND d   1      -0.395   0.437  -0.925  0.00  0.00     0.015 A 
ATOM      7  C7  IND d   1       0.026  -0.212   0.201  0.00  0.00    -0.016 A 
ATOM      8  C8  IND d   1      -0.690  -1.340   0.578  0.00  0.00    -0.047 A 
ATOM      9  C9  IND d   1      -1.807  -1.784  -0.141  0.00  0.00    -0.096 A 
ATOM     10  HN1 IND d   1       0.079  -2.123   2.256  0.00  0.00     0.298 HD
ENDROOT
TORSDOF 0
ENDMDL
