MODEL 1
REMARK minimizedAffinity -3.56063628
REMARK minimizedRMSD -1
REMARK  0 active torsions:
REMARK  status: ('A' for Active; 'I' for Inactive)
ROOT
ATOM      1  N1  IND d   1       1.415   3.595   0.525  0.00  0.00    -0.196 N 
ATOM      2  C2  IND d   1       2.604   3.328   1.143  0.00  0.00     0.054 A 
ATOM      3  C3  IND d   1       2.788   1.992   1.251  0.00  0.00    -0.031 A 
ATOM      4  C4  IND d   1       1.315   0.064   0.392  0.00  0.00     0.051 A 
ATOM      5  C5  IND d   1       0.111  -0.189  -0.203  0.00  0.00    -0.031 A 
ATOM      6  C6  IND d   1      -0.736   0.827  -0.596  0.00  0.00     0.015 A 
ATOM      7  C7  IND d   1      -0.404   2.140  -0.418  0.00  0.00    -0.016 A 
ATOM      8  C8  IND d   1       0.815   2.401   0.192  0.00  0.00    -0.047 A 
ATOM      9  C9  IND d   1       1.659   1.373   0.632  0.00  0.00    -0.096 A 
ATOM     10  HN1 IND d   1       1.095   4.378   0.371  0.00  0.00     0.298 HD
ENDROOT
TORSDOF 0
ENDMDL
