MODEL 1
REMARK minimizedAffinity -0.465883523
REMARK minimizedRMSD -1
REMARK  0 active torsions:
REMARK  status: ('A' for Active; 'I' for Inactive)
ROOT
ATOM      1  N1  IND d   1      -0.991  -2.769   1.561  0.00  0.00    -0.196 N 
ATOM      2  C2  IND d   1      -1.986  -3.674   1.317  0.00  0.00     0.054 A 
ATOM      3  C3  IND d   1      -2.680  -3.324   0.210  0.00  0.00    -0.031 A 
ATOM      4  C4  IND d   1      -2.290  -1.363  -1.411  0.00  0.00     0.051 A 
ATOM      5  C5  IND d   1      -1.523  -0.245  -1.585  0.00  0.00    -0.031 A 
ATOM      6  C6  IND d   1      -0.517   0.094  -0.703  0.00  0.00     0.015 A 
ATOM      7  C7  IND d   1      -0.233  -0.682   0.384  0.00  0.00    -0.016 A 
ATOM      8  C8  IND d   1      -1.014  -1.814   0.568  0.00  0.00    -0.047 A 
ATOM      9  C9  IND d   1      -2.064  -2.140  -0.300  0.00  0.00    -0.096 A 
ATOM     10  HN1 IND d   1      -0.443  -2.793   2.223  0.00  0.00     0.298 HD
ENDROOT
TORSDOF 0
ENDMDL
