MODEL 1
REMARK minimizedAffinity 2.03059912
REMARK minimizedRMSD -1
REMARK  1 active torsions:
REMARK  status: ('A' for Active; 'I' for Inactive)
REMARK    1  A    between atoms: C1_2  and  C2_3 
ROOT
ATOM      1  C2  UNL d   1       3.380  -0.411   3.603  0.00  0.00    -0.081 A 
ATOM      2  C3  UNL d   1       4.642  -0.780   3.121  0.00  0.00     0.006 A 
ATOM      3  C4  UNL d   1       5.489  -1.579   3.894  0.00  0.00     0.002 A 
ATOM      4  C5  UNL d   1       5.086  -2.028   5.156  0.00  0.00    -0.080 A 
ATOM      5  C6  UNL d   1       5.973  -2.911   5.982  0.00  0.00     0.076 C 
ATOM      6  C7  UNL d   1       3.832  -1.644   5.644  0.00  0.00     0.002 A 
ATOM      7  C8  UNL d   1       2.985  -0.845   4.873  0.00  0.00     0.006 A 
ENDROOT
BRANCH   1   8
ATOM      8  C1  UNL d   1       2.439   0.397   2.746  0.00  0.00     0.054 C 
ATOM      9  C   UNL d   1       3.119   1.645   2.203  0.00  0.00     0.018 C 
ENDBRANCH   1   8
TORSDOF 1
ENDMDL
