MODEL 1
REMARK minimizedAffinity 9.33056355
REMARK minimizedRMSD -1
REMARK  1 active torsions:
REMARK  status: ('A' for Active; 'I' for Inactive)
REMARK    1  A    between atoms: C1_2  and  C2_3 
ROOT
ATOM      1  C2  UNL d   1       2.812   2.892   0.835  0.00  0.00    -0.081 A 
ATOM      2  C3  UNL d   1       3.450   1.913   0.063  0.00  0.00     0.006 A 
ATOM      3  C4  UNL d   1       3.315   0.560   0.384  0.00  0.00     0.002 A 
ATOM      4  C5  UNL d   1       2.535   0.163   1.475  0.00  0.00    -0.080 A 
ATOM      5  C6  UNL d   1       2.358  -1.287   1.812  0.00  0.00     0.076 C 
ATOM      6  C7  UNL d   1       1.912   1.142   2.256  0.00  0.00     0.002 A 
ATOM      7  C8  UNL d   1       2.047   2.495   1.937  0.00  0.00     0.006 A 
ENDROOT
BRANCH   1   8
ATOM      8  C1  UNL d   1       2.902   4.348   0.454  0.00  0.00     0.054 C 
ATOM      9  C   UNL d   1       1.538   4.906   0.072  0.00  0.00     0.018 C 
ENDBRANCH   1   8
TORSDOF 1
ENDMDL
