MODEL 1
REMARK minimizedAffinity 6.37864208
REMARK minimizedRMSD -1
REMARK  1 active torsions:
REMARK  status: ('A' for Active; 'I' for Inactive)
REMARK    1  A    between atoms: C1_2  and  C2_3 
ROOT
ATOM      1  C2  UNL d   1       2.236   0.123   2.616  0.00  0.00    -0.081 A 
ATOM      2  C3  UNL d   1       3.002  -0.228   1.499  0.00  0.00     0.006 A 
ATOM      3  C4  UNL d   1       3.335  -1.564   1.259  0.00  0.00     0.002 A 
ATOM      4  C5  UNL d   1       2.900  -2.570   2.128  0.00  0.00    -0.080 A 
ATOM      5  C6  UNL d   1       3.224  -4.011   1.866  0.00  0.00     0.076 C 
ATOM      6  C7  UNL d   1       2.149  -2.218   3.254  0.00  0.00     0.002 A 
ATOM      7  C8  UNL d   1       1.816  -0.883   3.495  0.00  0.00     0.006 A 
ENDROOT
BRANCH   1   8
ATOM      8  C1  UNL d   1       1.821   1.554   2.842  0.00  0.00     0.054 C 
ATOM      9  C   UNL d   1       2.737   2.519   2.103  0.00  0.00     0.018 C 
ENDBRANCH   1   8
TORSDOF 1
ENDMDL
