MODEL 1
REMARK minimizedAffinity 11.09554
REMARK minimizedRMSD -1
REMARK  1 active torsions:
REMARK  status: ('A' for Active; 'I' for Inactive)
REMARK    1  A    between atoms: C1_2  and  C2_3 
ROOT
ATOM      1  C2  UNL d   1       2.425  -0.887   3.621  0.00  0.00    -0.081 A 
ATOM      2  C3  UNL d   1       2.794  -0.270   2.419  0.00  0.00     0.006 A 
ATOM      3  C4  UNL d   1       2.917   1.119   2.346  0.00  0.00     0.002 A 
ATOM      4  C5  UNL d   1       2.682   1.913   3.473  0.00  0.00    -0.080 A 
ATOM      5  C6  UNL d   1       2.841   3.404   3.415  0.00  0.00     0.076 C 
ATOM      6  C7  UNL d   1       2.297   1.298   4.669  0.00  0.00     0.002 A 
ATOM      7  C8  UNL d   1       2.172  -0.091   4.743  0.00  0.00     0.006 A 
ENDROOT
BRANCH   1   8
ATOM      8  C1  UNL d   1       2.354  -2.390   3.721  0.00  0.00     0.054 C 
ATOM      9  C   UNL d   1       3.703  -2.984   4.100  0.00  0.00     0.018 C 
ENDBRANCH   1   8
TORSDOF 1
ENDMDL
