MODEL 1
REMARK minimizedAffinity 5.51144314
REMARK minimizedRMSD -1
REMARK  1 active torsions:
REMARK  status: ('A' for Active; 'I' for Inactive)
REMARK    1  A    between atoms: C1_2  and  C2_3 
ROOT
ATOM      1  C2  UNL d   1       1.966  -1.290   2.526  0.00  0.00    -0.081 A 
ATOM      2  C3  UNL d   1       3.300  -1.129   2.920  0.00  0.00     0.006 A 
ATOM      3  C4  UNL d   1       3.909  -2.068   3.757  0.00  0.00     0.002 A 
ATOM      4  C5  UNL d   1       3.198  -3.185   4.206  0.00  0.00    -0.080 A 
ATOM      5  C6  UNL d   1       3.849  -4.216   5.080  0.00  0.00     0.076 C 
ATOM      6  C7  UNL d   1       1.860  -3.337   3.826  0.00  0.00     0.002 A 
ATOM      7  C8  UNL d   1       1.250  -2.399   2.990  0.00  0.00     0.006 A 
ENDROOT
BRANCH   1   8
ATOM      8  C1  UNL d   1       1.326  -0.314   1.572  0.00  0.00     0.054 C 
ATOM      9  C   UNL d   1       0.308  -1.003   0.675  0.00  0.00     0.018 C 
ENDBRANCH   1   8
TORSDOF 1
ENDMDL
