MODEL 1
REMARK minimizedAffinity 0.05055454
REMARK minimizedRMSD -1
REMARK  1 active torsions:
REMARK  status: ('A' for Active; 'I' for Inactive)
REMARK    1  A    between atoms: C1_2  and  C2_3 
ROOT
ATOM      1  C2  UNL d   1       2.860  -0.675   2.250  0.00  0.00    -0.081 A 
ATOM      2  C3  UNL d   1       2.969  -0.443   3.627  0.00  0.00     0.006 A 
ATOM      3  C4  UNL d   1       2.651  -1.449   4.542  0.00  0.00     0.002 A 
ATOM      4  C5  UNL d   1       2.226  -2.705   4.097  0.00  0.00    -0.080 A 
ATOM      5  C6  UNL d   1       1.909  -3.803   5.068  0.00  0.00     0.076 C 
ATOM      6  C7  UNL d   1       2.100  -2.932   2.722  0.00  0.00     0.002 A 
ATOM      7  C8  UNL d   1       2.418  -1.926   1.806  0.00  0.00     0.006 A 
ENDROOT
BRANCH   1   8
ATOM      8  C1  UNL d   1       3.265   0.386   1.260  0.00  0.00     0.054 C 
ATOM      9  C   UNL d   1       2.895   1.777   1.756  0.00  0.00     0.018 C 
ENDBRANCH   1   8
TORSDOF 1
ENDMDL
