MODEL 1
REMARK minimizedAffinity 9.98741913
REMARK minimizedRMSD -1
REMARK  1 active torsions:
REMARK  status: ('A' for Active; 'I' for Inactive)
REMARK    1  A    between atoms: C1_2  and  C2_3 
ROOT
ATOM      1  C2  UNL d   1       2.077  -1.182   3.858  0.00  0.00    -0.081 A 
ATOM      2  C3  UNL d   1       2.270  -1.309   2.477  0.00  0.00     0.006 A 
ATOM      3  C4  UNL d   1       2.568  -0.188   1.697  0.00  0.00     0.002 A 
ATOM      4  C5  UNL d   1       2.685   1.075   2.287  0.00  0.00    -0.080 A 
ATOM      5  C6  UNL d   1       3.034   2.281   1.466  0.00  0.00     0.076 C 
ATOM      6  C7  UNL d   1       2.475   1.205   3.664  0.00  0.00     0.002 A 
ATOM      7  C8  UNL d   1       2.176   0.085   4.443  0.00  0.00     0.006 A 
ENDROOT
BRANCH   1   8
ATOM      8  C1  UNL d   1       1.820  -2.398   4.710  0.00  0.00     0.054 C 
ATOM      9  C   UNL d   1       2.748  -3.544   4.334  0.00  0.00     0.018 C 
ENDBRANCH   1   8
TORSDOF 1
ENDMDL
