MODEL 1
REMARK minimizedAffinity 0.845215619
REMARK minimizedRMSD -1
REMARK  1 active torsions:
REMARK  status: ('A' for Active; 'I' for Inactive)
REMARK    1  A    between atoms: C1_2  and  C2_3 
ROOT
ATOM      1  C2  UNL d   1       2.444   1.528   1.066  0.00  0.00    -0.081 A 
ATOM      2  C3  UNL d   1       2.851   1.834  -0.238  0.00  0.00     0.006 A 
ATOM      3  C4  UNL d   1       2.295   2.921  -0.916  0.00  0.00     0.002 A 
ATOM      4  C5  UNL d   1       1.331   3.725  -0.299  0.00  0.00    -0.080 A 
ATOM      5  C6  UNL d   1       0.749   4.914  -1.005  0.00  0.00     0.076 C 
ATOM      6  C7  UNL d   1       0.912   3.409   0.998  0.00  0.00     0.002 A 
ATOM      7  C8  UNL d   1       1.466   2.322   1.676  0.00  0.00     0.006 A 
ENDROOT
BRANCH   1   8
ATOM      8  C1  UNL d   1       3.088   0.395   1.824  0.00  0.00     0.054 C 
ATOM      9  C   UNL d   1       2.071  -0.349   2.677  0.00  0.00     0.018 C 
ENDBRANCH   1   8
TORSDOF 1
ENDMDL
