MODEL 1
REMARK minimizedAffinity 8.13867664
REMARK minimizedRMSD -1
REMARK  1 active torsions:
REMARK  status: ('A' for Active; 'I' for Inactive)
REMARK    1  A    between atoms: C1_2  and  C2_3 
ROOT
ATOM      1  C2  UNL d   1       2.286  -0.972   2.823  0.00  0.00    -0.081 A 
ATOM      2  C3  UNL d   1       1.933  -0.711   4.152  0.00  0.00     0.006 A 
ATOM      3  C4  UNL d   1       2.319  -1.585   5.172  0.00  0.00     0.002 A 
ATOM      4  C5  UNL d   1       3.069  -2.729   4.880  0.00  0.00    -0.080 A 
ATOM      5  C6  UNL d   1       3.515  -3.660   5.968  0.00  0.00     0.076 C 
ATOM      6  C7  UNL d   1       3.407  -2.999   3.549  0.00  0.00     0.002 A 
ATOM      7  C8  UNL d   1       3.022  -2.126   2.530  0.00  0.00     0.006 A 
ENDROOT
BRANCH   1   8
ATOM      8  C1  UNL d   1       1.928   0.002   1.729  0.00  0.00     0.054 C 
ATOM      9  C   UNL d   1       2.657   1.326   1.907  0.00  0.00     0.018 C 
ENDBRANCH   1   8
TORSDOF 1
ENDMDL
