MODEL 1
REMARK minimizedAffinity 14.9644995
REMARK minimizedRMSD -1
REMARK  1 active torsions:
REMARK  status: ('A' for Active; 'I' for Inactive)
REMARK    1  A    between atoms: C1_2  and  C2_3 
ROOT
ATOM      1  C2  UNL d   1      -3.578  -2.100  -3.244  0.00  0.00    -0.081 A 
ATOM      2  C3  UNL d   1      -3.544  -2.914  -2.105  0.00  0.00     0.006 A 
ATOM      3  C4  UNL d   1      -2.620  -2.668  -1.087  0.00  0.00     0.002 A 
ATOM      4  C5  UNL d   1      -1.721  -1.601  -1.187  0.00  0.00    -0.080 A 
ATOM      5  C6  UNL d   1      -0.744  -1.308  -0.087  0.00  0.00     0.076 C 
ATOM      6  C7  UNL d   1      -1.743  -0.799  -2.333  0.00  0.00     0.002 A 
ATOM      7  C8  UNL d   1      -2.666  -1.045  -3.352  0.00  0.00     0.006 A 
ENDROOT
BRANCH   1   8
ATOM      8  C1  UNL d   1      -4.616  -2.323  -4.315  0.00  0.00     0.054 C 
ATOM      9  C   UNL d   1      -3.998  -2.925  -5.568  0.00  0.00     0.018 C 
ENDBRANCH   1   8
TORSDOF 1
ENDMDL
