MODEL 1
REMARK minimizedAffinity 12.3944139
REMARK minimizedRMSD -1
REMARK  1 active torsions:
REMARK  status: ('A' for Active; 'I' for Inactive)
REMARK    1  A    between atoms: C1_2  and  C2_3 
ROOT
ATOM      1  C2  UNL d   1       1.884  -2.015   4.695  0.00  0.00    -0.081 A 
ATOM      2  C3  UNL d   1       2.917  -2.373   3.820  0.00  0.00     0.006 A 
ATOM      3  C4  UNL d   1       3.202  -1.586   2.701  0.00  0.00     0.002 A 
ATOM      4  C5  UNL d   1       2.464  -0.426   2.443  0.00  0.00    -0.080 A 
ATOM      5  C6  UNL d   1       2.779   0.443   1.262  0.00  0.00     0.076 C 
ATOM      6  C7  UNL d   1       1.420  -0.079   3.307  0.00  0.00     0.002 A 
ATOM      7  C8  UNL d   1       1.134  -0.865   4.426  0.00  0.00     0.006 A 
ENDROOT
BRANCH   1   8
ATOM      8  C1  UNL d   1       1.617  -2.826   5.937  0.00  0.00     0.054 C 
ATOM      9  C   UNL d   1       0.982  -4.167   5.597  0.00  0.00     0.018 C 
ENDBRANCH   1   8
TORSDOF 1
ENDMDL
