MODEL 1
REMARK minimizedAffinity -4.4225378
REMARK minimizedRMSD -1
REMARK  2 active torsions:
REMARK  status: ('A' for Active; 'I' for Inactive)
REMARK    1  A    between atoms: C1_2  and  C2_3 
REMARK    2  A    between atoms: C2_3  and  C3_4 
ROOT
ATOM      1  C3  UNL d   1      -1.474   2.079   0.934  0.00  0.00    -0.075 A 
ATOM      2  C4  UNL d   1      -0.537   2.930   0.329  0.00  0.00     0.002 A 
ATOM      3  C5  UNL d   1       0.673   2.427  -0.148  0.00  0.00     0.002 A 
ATOM      4  C6  UNL d   1       0.967   1.071  -0.019  0.00  0.00    -0.004 A 
ATOM      5  C7  UNL d   1       0.051   0.219   0.594  0.00  0.00     0.002 A 
ATOM      6  C8  UNL d   1      -1.163   0.719   1.069  0.00  0.00     0.002 A 
ENDROOT
BRANCH   1   7
ATOM      7  C2  UNL d   1      -2.798   2.612   1.426  0.00  0.00     0.056 C 
BRANCH   7   8
ATOM      8  C1  UNL d   1      -3.901   1.553   1.519  0.00  0.00     0.007 C 
ATOM      9  C   UNL d   1      -5.304   2.138   1.431  0.00  0.00     0.009 C 
ENDBRANCH   7   8
ENDBRANCH   1   7
TORSDOF 2
ENDMDL
