MODEL 1
REMARK minimizedAffinity -3.44213533
REMARK minimizedRMSD -1
REMARK  2 active torsions:
REMARK  status: ('A' for Active; 'I' for Inactive)
REMARK    1  A    between atoms: C1_2  and  C2_3 
REMARK    2  A    between atoms: C2_3  and  C3_4 
ROOT
ATOM      1  C3  UNL d   1       0.086   1.259   0.078  0.00  0.00    -0.075 A 
ATOM      2  C4  UNL d   1       0.957   2.262  -0.371  0.00  0.00     0.002 A 
ATOM      3  C5  UNL d   1       0.712   3.602  -0.067  0.00  0.00     0.002 A 
ATOM      4  C6  UNL d   1      -0.409   3.956   0.681  0.00  0.00    -0.004 A 
ATOM      5  C7  UNL d   1      -1.290   2.969   1.118  0.00  0.00     0.002 A 
ATOM      6  C8  UNL d   1      -1.045   1.628   0.819  0.00  0.00     0.002 A 
ENDROOT
BRANCH   1   7
ATOM      7  C2  UNL d   1       0.361  -0.195  -0.223  0.00  0.00     0.056 C 
BRANCH   7   8
ATOM      8  C1  UNL d   1       1.177  -0.912   0.858  0.00  0.00     0.007 C 
ATOM      9  C   UNL d   1       2.629  -0.458   0.914  0.00  0.00     0.009 C 
ENDBRANCH   7   8
ENDBRANCH   1   7
TORSDOF 2
ENDMDL
