MODEL 1
REMARK minimizedAffinity -3.59502459
REMARK minimizedRMSD -1
REMARK  2 active torsions:
REMARK  status: ('A' for Active; 'I' for Inactive)
REMARK    1  A    between atoms: C1_2  and  C2_3 
REMARK    2  A    between atoms: C2_3  and  C3_4 
ROOT
ATOM      1  C3  UNL d   1      -0.340  -0.119  -0.015  0.00  0.00    -0.075 A 
ATOM      2  C4  UNL d   1      -1.116   0.491   0.981  0.00  0.00     0.002 A 
ATOM      3  C5  UNL d   1      -0.955   1.845   1.275  0.00  0.00     0.002 A 
ATOM      4  C6  UNL d   1      -0.010   2.603   0.586  0.00  0.00    -0.004 A 
ATOM      5  C7  UNL d   1       0.778   2.003  -0.394  0.00  0.00     0.002 A 
ATOM      6  C8  UNL d   1       0.616   0.649  -0.693  0.00  0.00     0.002 A 
ENDROOT
BRANCH   1   7
ATOM      7  C2  UNL d   1      -0.530  -1.578  -0.357  0.00  0.00     0.056 C 
BRANCH   7   8
ATOM      8  C1  UNL d   1      -0.208  -1.923  -1.815  0.00  0.00     0.007 C 
ATOM      9  C   UNL d   1      -1.085  -3.033  -2.377  0.00  0.00     0.009 C 
ENDBRANCH   7   8
ENDBRANCH   1   7
TORSDOF 2
ENDMDL
