MODEL 1
REMARK minimizedAffinity -5.23873281
REMARK minimizedRMSD -1
REMARK  2 active torsions:
REMARK  status: ('A' for Active; 'I' for Inactive)
REMARK    1  A    between atoms: C1_2  and  C2_3 
REMARK    2  A    between atoms: C2_3  and  C3_4 
ROOT
ATOM      1  C3  UNL d   1      -0.450   0.726   0.328  0.00  0.00    -0.075 A 
ATOM      2  C4  UNL d   1       0.892   1.026   0.052  0.00  0.00     0.002 A 
ATOM      3  C5  UNL d   1       1.367   2.332   0.181  0.00  0.00     0.002 A 
ATOM      4  C6  UNL d   1       0.507   3.353   0.577  0.00  0.00    -0.004 A 
ATOM      5  C7  UNL d   1      -0.832   3.069   0.839  0.00  0.00     0.002 A 
ATOM      6  C8  UNL d   1      -1.309   1.763   0.715  0.00  0.00     0.002 A 
ENDROOT
BRANCH   1   7
ATOM      7  C2  UNL d   1      -0.963  -0.690   0.219  0.00  0.00     0.056 C 
BRANCH   7   8
ATOM      8  C1  UNL d   1       0.071  -1.689  -0.310  0.00  0.00     0.007 C 
ATOM      9  C   UNL d   1      -0.498  -2.650  -1.346  0.00  0.00     0.009 C 
ENDBRANCH   7   8
ENDBRANCH   1   7
TORSDOF 2
ENDMDL
