MODEL 1
REMARK minimizedAffinity -3.82877064
REMARK minimizedRMSD -1
REMARK  2 active torsions:
REMARK  status: ('A' for Active; 'I' for Inactive)
REMARK    1  A    between atoms: C1_2  and  C2_3 
REMARK    2  A    between atoms: C2_3  and  C3_4 
ROOT
ATOM      1  C3  UNL d   1      -0.362  -1.331  -0.093  0.00  0.00    -0.075 A 
ATOM      2  C4  UNL d   1      -1.355  -0.581   0.553  0.00  0.00     0.002 A 
ATOM      3  C5  UNL d   1      -1.109   0.737   0.938  0.00  0.00     0.002 A 
ATOM      4  C6  UNL d   1       0.134   1.318   0.692  0.00  0.00    -0.004 A 
ATOM      5  C7  UNL d   1       1.133   0.576   0.065  0.00  0.00     0.002 A 
ATOM      6  C8  UNL d   1       0.888  -0.742  -0.325  0.00  0.00     0.002 A 
ENDROOT
BRANCH   1   7
ATOM      7  C2  UNL d   1      -0.632  -2.749  -0.539  0.00  0.00     0.056 C 
BRANCH   7   8
ATOM      8  C1  UNL d   1      -0.200  -3.043  -1.979  0.00  0.00     0.007 C 
ATOM      9  C   UNL d   1      -1.356  -3.454  -2.881  0.00  0.00     0.009 C 
ENDBRANCH   7   8
ENDBRANCH   1   7
TORSDOF 2
ENDMDL
