MODEL 1
REMARK minimizedAffinity -1.51157355
REMARK minimizedRMSD -1
REMARK  2 active torsions:
REMARK  status: ('A' for Active; 'I' for Inactive)
REMARK    1  A    between atoms: C1_2  and  C2_3 
REMARK    2  A    between atoms: C2_3  and  C3_4 
ROOT
ATOM      1  C3  UNL d   1       0.118   0.517  -0.161  0.00  0.00    -0.075 A 
ATOM      2  C4  UNL d   1       0.771   1.758  -0.181  0.00  0.00     0.002 A 
ATOM      3  C5  UNL d   1       0.254   2.841   0.530  0.00  0.00     0.002 A 
ATOM      4  C6  UNL d   1      -0.924   2.701   1.261  0.00  0.00    -0.004 A 
ATOM      5  C7  UNL d   1      -1.589   1.477   1.274  0.00  0.00     0.002 A 
ATOM      6  C8  UNL d   1      -1.073   0.390   0.567  0.00  0.00     0.002 A 
ENDROOT
BRANCH   1   7
ATOM      7  C2  UNL d   1       0.688  -0.668  -0.905  0.00  0.00     0.056 C 
BRANCH   7   8
ATOM      8  C1  UNL d   1      -0.322  -1.793  -1.152  0.00  0.00     0.007 C 
ATOM      9  C   UNL d   1      -0.068  -2.554  -2.446  0.00  0.00     0.009 C 
ENDBRANCH   7   8
ENDBRANCH   1   7
TORSDOF 2
ENDMDL
