MODEL 1
REMARK minimizedAffinity -3.86668229
REMARK minimizedRMSD -1
REMARK  2 active torsions:
REMARK  status: ('A' for Active; 'I' for Inactive)
REMARK    1  A    between atoms: C1_2  and  C2_3 
REMARK    2  A    between atoms: C2_3  and  C3_4 
ROOT
ATOM      1  C3  UNL d   1      -0.055   1.078  -0.074  0.00  0.00    -0.075 A 
ATOM      2  C4  UNL d   1       0.445   1.835  -1.143  0.00  0.00     0.002 A 
ATOM      3  C5  UNL d   1       0.493   3.227  -1.063  0.00  0.00     0.002 A 
ATOM      4  C6  UNL d   1       0.034   3.879   0.079  0.00  0.00    -0.004 A 
ATOM      5  C7  UNL d   1      -0.480   3.137   1.141  0.00  0.00     0.002 A 
ATOM      6  C8  UNL d   1      -0.526   1.744   1.065  0.00  0.00     0.002 A 
ENDROOT
BRANCH   1   7
ATOM      7  C2  UNL d   1      -0.082  -0.431  -0.142  0.00  0.00     0.056 C 
BRANCH   7   8
ATOM      8  C1  UNL d   1       1.065  -1.110   0.613  0.00  0.00     0.007 C 
ATOM      9  C   UNL d   1       2.385  -0.358   0.503  0.00  0.00     0.009 C 
ENDBRANCH   7   8
ENDBRANCH   1   7
TORSDOF 2
ENDMDL
