MODEL 1
REMARK minimizedAffinity -4.79488754
REMARK minimizedRMSD -1
REMARK  2 active torsions:
REMARK  status: ('A' for Active; 'I' for Inactive)
REMARK    1  A    between atoms: C1_2  and  C2_3 
REMARK    2  A    between atoms: C2_3  and  C3_4 
ROOT
ATOM      1  C3  UNL d   1      -0.589   1.090   0.306  0.00  0.00    -0.075 A 
ATOM      2  C4  UNL d   1       0.124   1.566  -0.805  0.00  0.00     0.002 A 
ATOM      3  C5  UNL d   1       0.407   2.926  -0.935  0.00  0.00     0.002 A 
ATOM      4  C6  UNL d   1      -0.025   3.827   0.036  0.00  0.00    -0.004 A 
ATOM      5  C7  UNL d   1      -0.748   3.367   1.135  0.00  0.00     0.002 A 
ATOM      6  C8  UNL d   1      -1.029   2.007   1.270  0.00  0.00     0.002 A 
ENDROOT
BRANCH   1   7
ATOM      7  C2  UNL d   1      -0.873  -0.384   0.467  0.00  0.00     0.056 C 
BRANCH   7   8
ATOM      8  C1  UNL d   1       0.320  -1.289   0.143  0.00  0.00     0.007 C 
ATOM      9  C   UNL d   1      -0.083  -2.600  -0.518  0.00  0.00     0.009 C 
ENDBRANCH   7   8
ENDBRANCH   1   7
TORSDOF 2
ENDMDL
