MODEL 1
REMARK minimizedAffinity -4.40382767
REMARK minimizedRMSD -1
REMARK  2 active torsions:
REMARK  status: ('A' for Active; 'I' for Inactive)
REMARK    1  A    between atoms: C1_2  and  C2_3 
REMARK    2  A    between atoms: C2_3  and  C3_4 
ROOT
ATOM      1  C3  UNL d   1       1.171   0.979   0.859  0.00  0.00    -0.075 A 
ATOM      2  C4  UNL d   1      -0.008   0.271   0.588  0.00  0.00     0.002 A 
ATOM      3  C5  UNL d   1      -1.237   0.930   0.544  0.00  0.00     0.002 A 
ATOM      4  C6  UNL d   1      -1.304   2.301   0.781  0.00  0.00    -0.004 A 
ATOM      5  C7  UNL d   1      -0.141   3.012   1.068  0.00  0.00     0.002 A 
ATOM      6  C8  UNL d   1       1.091   2.356   1.108  0.00  0.00     0.002 A 
ENDROOT
BRANCH   1   7
ATOM      7  C2  UNL d   1       2.508   0.277   0.878  0.00  0.00     0.056 C 
BRANCH   7   8
ATOM      8  C1  UNL d   1       3.695   1.203   1.162  0.00  0.00     0.007 C 
ATOM      9  C   UNL d   1       4.457   1.604  -0.093  0.00  0.00     0.009 C 
ENDBRANCH   7   8
ENDBRANCH   1   7
TORSDOF 2
ENDMDL
