MODEL 1
REMARK minimizedAffinity -5.08320236
REMARK minimizedRMSD -1
REMARK  2 active torsions:
REMARK  status: ('A' for Active; 'I' for Inactive)
REMARK    1  A    between atoms: C1_2  and  C2_3 
REMARK    2  A    between atoms: C2_3  and  C3_4 
ROOT
ATOM      1  C3  UNL d   1      -0.418  -0.162   0.329  0.00  0.00    -0.075 A 
ATOM      2  C4  UNL d   1       0.098   0.972  -0.313  0.00  0.00     0.002 A 
ATOM      3  C5  UNL d   1      -0.464   2.230  -0.091  0.00  0.00     0.002 A 
ATOM      4  C6  UNL d   1      -1.553   2.367   0.767  0.00  0.00    -0.004 A 
ATOM      5  C7  UNL d   1      -2.085   1.245   1.397  0.00  0.00     0.002 A 
ATOM      6  C8  UNL d   1      -1.522  -0.014   1.180  0.00  0.00     0.002 A 
ENDROOT
BRANCH   1   7
ATOM      7  C2  UNL d   1       0.204  -1.521   0.116  0.00  0.00     0.056 C 
BRANCH   7   8
ATOM      8  C1  UNL d   1      -0.678  -2.494  -0.674  0.00  0.00     0.007 C 
ATOM      9  C   UNL d   1      -0.225  -2.680  -2.116  0.00  0.00     0.009 C 
ENDBRANCH   7   8
ENDBRANCH   1   7
TORSDOF 2
ENDMDL
