MODEL 1
REMARK minimizedAffinity -5.24442577
REMARK minimizedRMSD -1
REMARK  2 active torsions:
REMARK  status: ('A' for Active; 'I' for Inactive)
REMARK    1  A    between atoms: C1_2  and  C2_3 
REMARK    2  A    between atoms: C2_3  and  C3_4 
ROOT
ATOM      1  C3  UNL d   1      -0.592  -0.380  -0.143  0.00  0.00    -0.075 A 
ATOM      2  C4  UNL d   1       0.245   0.620  -0.659  0.00  0.00     0.002 A 
ATOM      3  C5  UNL d   1       0.040   1.958  -0.322  0.00  0.00     0.002 A 
ATOM      4  C6  UNL d   1      -1.008   2.314   0.524  0.00  0.00    -0.004 A 
ATOM      5  C7  UNL d   1      -1.856   1.331   1.029  0.00  0.00     0.002 A 
ATOM      6  C8  UNL d   1      -1.651  -0.009   0.697  0.00  0.00     0.002 A 
ENDROOT
BRANCH   1   7
ATOM      7  C2  UNL d   1      -0.358  -1.833  -0.480  0.00  0.00     0.056 C 
BRANCH   7   8
ATOM      8  C1  UNL d   1       0.134  -2.070  -1.912  0.00  0.00     0.007 C 
ATOM      9  C   UNL d   1      -0.735  -3.049  -2.691  0.00  0.00     0.009 C 
ENDBRANCH   7   8
ENDBRANCH   1   7
TORSDOF 2
ENDMDL
