MODEL 1
REMARK minimizedAffinity -5.40434027
REMARK minimizedRMSD -1
REMARK  2 active torsions:
REMARK  status: ('A' for Active; 'I' for Inactive)
REMARK    1  A    between atoms: C1_2  and  C2_3 
REMARK    2  A    between atoms: C2_3  and  C3_4 
ROOT
ATOM      1  C3  UNL d   1      -0.023   0.108   0.213  0.00  0.00    -0.075 A 
ATOM      2  C4  UNL d   1       0.576   0.699  -0.909  0.00  0.00     0.002 A 
ATOM      3  C5  UNL d   1       0.713   2.085  -0.991  0.00  0.00     0.002 A 
ATOM      4  C6  UNL d   1       0.245   2.896   0.040  0.00  0.00    -0.004 A 
ATOM      5  C7  UNL d   1      -0.368   2.321   1.151  0.00  0.00     0.002 A 
ATOM      6  C8  UNL d   1      -0.502   0.934   1.238  0.00  0.00     0.002 A 
ENDROOT
BRANCH   1   7
ATOM      7  C2  UNL d   1      -0.148  -1.393   0.321  0.00  0.00     0.056 C 
BRANCH   7   8
ATOM      8  C1  UNL d   1       0.178  -2.142  -0.976  0.00  0.00     0.007 C 
ATOM      9  C   UNL d   1      -0.693  -3.371  -1.196  0.00  0.00     0.009 C 
ENDBRANCH   7   8
ENDBRANCH   1   7
TORSDOF 2
ENDMDL
