MODEL 1
REMARK minimizedAffinity -5.14006186
REMARK minimizedRMSD -1
REMARK  2 active torsions:
REMARK  status: ('A' for Active; 'I' for Inactive)
REMARK    1  A    between atoms: C1_2  and  C2_3 
REMARK    2  A    between atoms: C2_3  and  C3_4 
ROOT
ATOM      1  C3  UNL d   1      -0.058  -0.228   0.135  0.00  0.00    -0.075 A 
ATOM      2  C4  UNL d   1      -1.202   0.333   0.722  0.00  0.00     0.002 A 
ATOM      3  C5  UNL d   1      -1.297   1.712   0.912  0.00  0.00     0.002 A 
ATOM      4  C6  UNL d   1      -0.248   2.545   0.529  0.00  0.00    -0.004 A 
ATOM      5  C7  UNL d   1       0.900   1.997  -0.039  0.00  0.00     0.002 A 
ATOM      6  C8  UNL d   1       0.996   0.618  -0.235  0.00  0.00     0.002 A 
ENDROOT
BRANCH   1   7
ATOM      7  C2  UNL d   1       0.038  -1.716  -0.100  0.00  0.00     0.056 C 
BRANCH   7   8
ATOM      8  C1  UNL d   1      -0.955  -2.249  -1.138  0.00  0.00     0.007 C 
ATOM      9  C   UNL d   1      -0.280  -2.817  -2.379  0.00  0.00     0.009 C 
ENDBRANCH   7   8
ENDBRANCH   1   7
TORSDOF 2
ENDMDL
