MODEL 1
REMARK minimizedAffinity -4.38223171
REMARK minimizedRMSD -1
REMARK  2 active torsions:
REMARK  status: ('A' for Active; 'I' for Inactive)
REMARK    1  A    between atoms: C1_2  and  C2_3 
REMARK    2  A    between atoms: C2_3  and  C3_4 
ROOT
ATOM      1  C3  UNL d   1       0.114  -0.842   0.094  0.00  0.00    -0.075 A 
ATOM      2  C4  UNL d   1       1.185  -0.025  -0.295  0.00  0.00     0.002 A 
ATOM      3  C5  UNL d   1       1.044   1.363  -0.322  0.00  0.00     0.002 A 
ATOM      4  C6  UNL d   1      -0.169   1.949   0.029  0.00  0.00    -0.004 A 
ATOM      5  C7  UNL d   1      -1.245   1.146   0.401  0.00  0.00     0.002 A 
ATOM      6  C8  UNL d   1      -1.106  -0.242   0.433  0.00  0.00     0.002 A 
ENDROOT
BRANCH   1   7
ATOM      7  C2  UNL d   1       0.269  -2.343   0.154  0.00  0.00     0.056 C 
BRANCH   7   8
ATOM      8  C1  UNL d   1      -0.794  -3.112  -0.637  0.00  0.00     0.007 C 
ATOM      9  C   UNL d   1      -0.367  -3.434  -2.062  0.00  0.00     0.009 C 
ENDBRANCH   7   8
ENDBRANCH   1   7
TORSDOF 2
ENDMDL
