MODEL 1
REMARK minimizedAffinity -3.04301095
REMARK minimizedRMSD -1
REMARK  0 active torsions:
REMARK  status: ('A' for Active; 'I' for Inactive)
ROOT
ATOM      1  C   UNL d   1      -0.026  -0.047  -0.716  0.00  0.00     0.172 C 
ATOM      2  N   UNL d   1      -0.212  -0.197   0.708  0.00  0.00    -0.070 N 
ATOM      3  C1  UNL d   1      -1.150  -0.991   1.312  0.00  0.00    -0.004 A 
ATOM      4  C2  UNL d   1      -1.001  -0.857   2.676  0.00  0.00    -0.047 A 
ATOM      5  C3  UNL d   1       0.063   0.049   2.899  0.00  0.00    -0.047 A 
ATOM      6  C4  UNL d   1       0.533   0.442   1.664  0.00  0.00    -0.004 A 
ENDROOT
TORSDOF 0
ENDMDL
