MODEL 1
REMARK minimizedAffinity -3.31152463
REMARK minimizedRMSD -1
REMARK  0 active torsions:
REMARK  status: ('A' for Active; 'I' for Inactive)
ROOT
ATOM      1  C   UNL d   1      -0.032  -0.017  -0.558  0.00  0.00     0.172 C 
ATOM      2  N   UNL d   1      -0.013  -0.083   0.884  0.00  0.00    -0.070 N 
ATOM      3  C1  UNL d   1      -0.864  -0.823   1.661  0.00  0.00    -0.004 A 
ATOM      4  C2  UNL d   1      -0.519  -0.616   2.979  0.00  0.00    -0.047 A 
ATOM      5  C3  UNL d   1       0.576   0.280   2.995  0.00  0.00    -0.047 A 
ATOM      6  C4  UNL d   1       0.869   0.594   1.685  0.00  0.00    -0.004 A 
ENDROOT
TORSDOF 0
ENDMDL
