MODEL 1
REMARK minimizedAffinity -3.54851818
REMARK minimizedRMSD -1
REMARK  0 active torsions:
REMARK  status: ('A' for Active; 'I' for Inactive)
ROOT
ATOM      1  C   UNL d   1       0.334  -1.521   0.147  0.00  0.00     0.172 C 
ATOM      2  N   UNL d   1      -0.533  -0.762   1.017  0.00  0.00    -0.070 N 
ATOM      3  C1  UNL d   1      -1.355   0.263   0.629  0.00  0.00    -0.004 A 
ATOM      4  C2  UNL d   1      -2.013   0.723   1.749  0.00  0.00    -0.047 A 
ATOM      5  C3  UNL d   1      -1.571  -0.051   2.848  0.00  0.00    -0.047 A 
ATOM      6  C4  UNL d   1      -0.655  -0.962   2.367  0.00  0.00    -0.004 A 
ENDROOT
TORSDOF 0
ENDMDL
