MODEL 1
REMARK minimizedAffinity -0.875823796
REMARK minimizedRMSD -1
REMARK  0 active torsions:
REMARK  status: ('A' for Active; 'I' for Inactive)
ROOT
ATOM      1  C   UNL d   1      -5.240   2.520   2.751  0.00  0.00     0.172 C 
ATOM      2  N   UNL d   1      -3.846   2.477   3.127  0.00  0.00    -0.070 N 
ATOM      3  C1  UNL d   1      -3.304   3.047   4.248  0.00  0.00    -0.004 A 
ATOM      4  C2  UNL d   1      -1.951   2.783   4.243  0.00  0.00    -0.047 A 
ATOM      5  C3  UNL d   1      -1.671   2.029   3.079  0.00  0.00    -0.047 A 
ATOM      6  C4  UNL d   1      -2.862   1.854   2.406  0.00  0.00    -0.004 A 
ENDROOT
TORSDOF 0
ENDMDL
