MODEL 1
REMARK minimizedAffinity -0.284132034
REMARK minimizedRMSD -1
REMARK  0 active torsions:
REMARK  status: ('A' for Active; 'I' for Inactive)
ROOT
ATOM      1  C   UNL d   1      -2.451  -2.944   2.076  0.00  0.00     0.172 C 
ATOM      2  N   UNL d   1      -3.181  -4.185   2.178  0.00  0.00    -0.070 N 
ATOM      3  C1  UNL d   1      -3.759  -4.859   1.135  0.00  0.00    -0.004 A 
ATOM      4  C2  UNL d   1      -4.356  -5.992   1.644  0.00  0.00    -0.047 A 
ATOM      5  C3  UNL d   1      -4.130  -5.999   3.041  0.00  0.00    -0.047 A 
ATOM      6  C4  UNL d   1      -3.401  -4.869   3.344  0.00  0.00    -0.004 A 
ENDROOT
TORSDOF 0
ENDMDL
