MODEL 1
REMARK minimizedAffinity 2.73663187
REMARK minimizedRMSD -1
REMARK  0 active torsions:
REMARK  status: ('A' for Active; 'I' for Inactive)
ROOT
ATOM      1  C   UNL d   1      -4.706  -2.596   1.094  0.00  0.00     0.172 C 
ATOM      2  N   UNL d   1      -3.363  -2.148   0.810  0.00  0.00    -0.070 N 
ATOM      3  C1  UNL d   1      -3.028  -0.987   0.166  0.00  0.00    -0.004 A 
ATOM      4  C2  UNL d   1      -1.653  -0.926   0.094  0.00  0.00    -0.047 A 
ATOM      5  C3  UNL d   1      -1.144  -2.091   0.716  0.00  0.00    -0.047 A 
ATOM      6  C4  UNL d   1      -2.225  -2.830   1.150  0.00  0.00    -0.004 A 
ENDROOT
TORSDOF 0
ENDMDL
