MODEL 1
REMARK minimizedAffinity -3.54498506
REMARK minimizedRMSD -1
REMARK  0 active torsions:
REMARK  status: ('A' for Active; 'I' for Inactive)
ROOT
ATOM      1  C   UNL d   1       0.385   0.737  -0.522  0.00  0.00     0.172 C 
ATOM      2  N   UNL d   1       0.236   0.430   0.882  0.00  0.00    -0.070 N 
ATOM      3  C1  UNL d   1      -0.938   0.106   1.508  0.00  0.00    -0.004 A 
ATOM      4  C2  UNL d   1      -0.659  -0.114   2.839  0.00  0.00    -0.047 A 
ATOM      5  C3  UNL d   1       0.731   0.085   3.020  0.00  0.00    -0.047 A 
ATOM      6  C4  UNL d   1       1.260   0.421   1.792  0.00  0.00    -0.004 A 
ENDROOT
TORSDOF 0
ENDMDL
