MODEL 1
REMARK minimizedAffinity -3.54210091
REMARK minimizedRMSD -1
REMARK  0 active torsions:
REMARK  status: ('A' for Active; 'I' for Inactive)
ROOT
ATOM      1  C   UNL d   1       0.339   0.190  -0.507  0.00  0.00     0.172 C 
ATOM      2  N   UNL d   1       0.217   0.139   0.930  0.00  0.00    -0.070 N 
ATOM      3  C1  UNL d   1      -0.550  -0.750   1.635  0.00  0.00    -0.004 A 
ATOM      4  C2  UNL d   1      -0.395  -0.471   2.976  0.00  0.00    -0.047 A 
ATOM      5  C3  UNL d   1       0.494   0.624   3.080  0.00  0.00    -0.047 A 
ATOM      6  C4  UNL d   1       0.858   0.982   1.799  0.00  0.00    -0.004 A 
ENDROOT
TORSDOF 0
ENDMDL
