MODEL 1
REMARK minimizedAffinity -3.74763465
REMARK minimizedRMSD -1
REMARK  0 active torsions:
REMARK  status: ('A' for Active; 'I' for Inactive)
ROOT
ATOM      1  C   UNL d   1      -0.013   0.321  -0.602  0.00  0.00     0.172 C 
ATOM      2  N   UNL d   1       0.526   0.158   0.727  0.00  0.00    -0.070 N 
ATOM      3  C1  UNL d   1       1.855   0.064   1.044  0.00  0.00    -0.004 A 
ATOM      4  C2  UNL d   1       1.954  -0.082   2.411  0.00  0.00    -0.047 A 
ATOM      5  C3  UNL d   1       0.639  -0.075   2.934  0.00  0.00    -0.047 A 
ATOM      6  C4  UNL d   1      -0.225   0.075   1.870  0.00  0.00    -0.004 A 
ENDROOT
TORSDOF 0
ENDMDL
