MODEL 1
REMARK minimizedAffinity -3.65616274
REMARK minimizedRMSD -1
REMARK  0 active torsions:
REMARK  status: ('A' for Active; 'I' for Inactive)
ROOT
ATOM      1  C   UNL d   1       0.340  -0.443  -0.270  0.00  0.00     0.172 C 
ATOM      2  N   UNL d   1       0.147  -0.154   1.132  0.00  0.00    -0.070 N 
ATOM      3  C1  UNL d   1       0.994   0.580   1.919  0.00  0.00    -0.004 A 
ATOM      4  C2  UNL d   1       0.457   0.626   3.187  0.00  0.00    -0.047 A 
ATOM      5  C3  UNL d   1      -0.753  -0.108   3.162  0.00  0.00    -0.047 A 
ATOM      6  C4  UNL d   1      -0.920  -0.579   1.877  0.00  0.00    -0.004 A 
ENDROOT
TORSDOF 0
ENDMDL
