MODEL 1
REMARK minimizedAffinity -3.32896972
REMARK minimizedRMSD -1
REMARK  0 active torsions:
REMARK  status: ('A' for Active; 'I' for Inactive)
ROOT
ATOM      1  C   UNL d   1       0.305  -0.052  -1.066  0.00  0.00     0.172 C 
ATOM      2  N   UNL d   1       0.121  -0.034   0.366  0.00  0.00    -0.070 N 
ATOM      3  C1  UNL d   1      -0.930  -0.593   1.043  0.00  0.00    -0.004 A 
ATOM      4  C2  UNL d   1      -0.738  -0.361   2.388  0.00  0.00    -0.047 A 
ATOM      5  C3  UNL d   1       0.470   0.364   2.524  0.00  0.00    -0.047 A 
ATOM      6  C4  UNL d   1       0.980   0.553   1.257  0.00  0.00    -0.004 A 
ENDROOT
TORSDOF 0
ENDMDL
