MODEL 1
REMARK minimizedAffinity -1.38248718
REMARK minimizedRMSD -1
REMARK  0 active torsions:
REMARK  status: ('A' for Active; 'I' for Inactive)
ROOT
ATOM      1  C   UNL d   1       1.069  -0.325  -1.226  0.00  0.00     0.172 C 
ATOM      2  N   UNL d   1       0.875  -0.062   0.181  0.00  0.00    -0.070 N 
ATOM      3  C1  UNL d   1       1.619  -0.590   1.202  0.00  0.00    -0.004 A 
ATOM      4  C2  UNL d   1       1.121  -0.094   2.387  0.00  0.00    -0.047 A 
ATOM      5  C3  UNL d   1       0.039   0.761   2.067  0.00  0.00    -0.047 A 
ATOM      6  C4  UNL d   1      -0.091   0.763   0.695  0.00  0.00    -0.004 A 
ENDROOT
TORSDOF 0
ENDMDL
