MODEL 1
REMARK minimizedAffinity -2.95239115
REMARK minimizedRMSD -1
REMARK  0 active torsions:
REMARK  status: ('A' for Active; 'I' for Inactive)
ROOT
ATOM      1  C   UNL d   1       1.538  -1.796  -3.303  0.00  0.00     0.172 C 
ATOM      2  N   UNL d   1       2.546  -0.772  -3.159  0.00  0.00    -0.070 N 
ATOM      3  C1  UNL d   1       2.435   0.356  -2.392  0.00  0.00    -0.004 A 
ATOM      4  C2  UNL d   1       3.606   1.072  -2.522  0.00  0.00    -0.047 A 
ATOM      5  C3  UNL d   1       4.449   0.349  -3.399  0.00  0.00    -0.047 A 
ATOM      6  C4  UNL d   1       3.768  -0.788  -3.778  0.00  0.00    -0.004 A 
ENDROOT
TORSDOF 0
ENDMDL
