MODEL 1
REMARK minimizedAffinity 4.45939302
REMARK minimizedRMSD -1
REMARK  0 active torsions:
REMARK  status: ('A' for Active; 'I' for Inactive)
ROOT
ATOM      1  C   UNL d   1       3.134  -1.076  -2.873  0.00  0.00     0.172 C 
ATOM      2  N   UNL d   1       1.942  -1.741  -3.344  0.00  0.00    -0.070 N 
ATOM      3  C1  UNL d   1       1.846  -3.064  -3.682  0.00  0.00    -0.004 A 
ATOM      4  C2  UNL d   1       0.549  -3.305  -4.081  0.00  0.00    -0.047 A 
ATOM      5  C3  UNL d   1      -0.159  -2.084  -3.980  0.00  0.00    -0.047 A 
ATOM      6  C4  UNL d   1       0.727  -1.132  -3.521  0.00  0.00    -0.004 A 
ENDROOT
TORSDOF 0
ENDMDL
