MODEL 1
REMARK minimizedAffinity -0.870091796
REMARK minimizedRMSD -1
REMARK  0 active torsions:
REMARK  status: ('A' for Active; 'I' for Inactive)
ROOT
ATOM      1  C   UNL d   1       1.402  -3.485   3.274  0.00  0.00     0.172 C 
ATOM      2  N   UNL d   1       2.412  -2.459   3.167  0.00  0.00    -0.070 N 
ATOM      3  C1  UNL d   1       3.134  -1.938   4.208  0.00  0.00    -0.004 A 
ATOM      4  C2  UNL d   1       3.990  -0.988   3.693  0.00  0.00    -0.047 A 
ATOM      5  C3  UNL d   1       3.774  -0.935   2.296  0.00  0.00    -0.047 A 
ATOM      6  C4  UNL d   1       2.792  -1.856   1.997  0.00  0.00    -0.004 A 
ENDROOT
TORSDOF 0
ENDMDL
