MODEL 1
REMARK minimizedAffinity 9.63353252
REMARK minimizedRMSD -1
REMARK  0 active torsions:
REMARK  status: ('A' for Active; 'I' for Inactive)
ROOT
ATOM      1  C   UNL d   1      -0.974   3.897   3.552  0.00  0.00     0.172 C 
ATOM      2  N   UNL d   1      -2.082   3.000   3.321  0.00  0.00    -0.070 N 
ATOM      3  C1  UNL d   1      -3.135   2.797   4.173  0.00  0.00    -0.004 A 
ATOM      4  C2  UNL d   1      -3.974   1.871   3.592  0.00  0.00    -0.047 A 
ATOM      5  C3  UNL d   1      -3.405   1.503   2.350  0.00  0.00    -0.047 A 
ATOM      6  C4  UNL d   1      -2.234   2.217   2.207  0.00  0.00    -0.004 A 
ENDROOT
TORSDOF 0
ENDMDL
