MODEL 1
REMARK minimizedAffinity 3.32000256
REMARK minimizedRMSD -1
REMARK  0 active torsions:
REMARK  status: ('A' for Active; 'I' for Inactive)
ROOT
ATOM      1  C   UNL d   1       0.050  -5.991   1.613  0.00  0.00     0.172 C 
ATOM      2  N   UNL d   1      -1.077  -5.993   0.710  0.00  0.00    -0.070 N 
ATOM      3  C1  UNL d   1      -2.396  -5.993   1.079  0.00  0.00    -0.004 A 
ATOM      4  C2  UNL d   1      -3.156  -5.995  -0.071  0.00  0.00    -0.047 A 
ATOM      5  C3  UNL d   1      -2.263  -5.997  -1.169  0.00  0.00    -0.047 A 
ATOM      6  C4  UNL d   1      -0.983  -5.996  -0.657  0.00  0.00    -0.004 A 
ENDROOT
TORSDOF 0
ENDMDL
