MODEL 1
REMARK minimizedAffinity 10.5668659
REMARK minimizedRMSD -1
REMARK  2 active torsions:
REMARK  status: ('A' for Active; 'I' for Inactive)
REMARK    1  A    between atoms: C2'_3  and  C1'_4 
REMARK    2  A    between atoms: C1'_4  and  C1_5 
ROOT
ATOM      1  C1  I4B d   1       0.130   5.928  -2.643  0.00  0.00    -0.075 A 
ATOM      2  C2  I4B d   1       0.745   5.911  -3.870  0.00  0.00     0.003 A 
ATOM      3  C3  I4B d   1      -0.029   5.950  -5.055  0.00  0.00     0.002 A 
ATOM      4  C4  I4B d   1      -1.406   5.954  -4.968  0.00  0.00    -0.004 A 
ATOM      5  C5  I4B d   1      -2.027   5.994  -3.723  0.00  0.00     0.002 A 
ATOM      6  C6  I4B d   1      -1.254   5.993  -2.552  0.00  0.00     0.003 A 
ENDROOT
BRANCH   1   7
ATOM      7  C1' I4B d   1       0.976   5.853  -1.411  0.00  0.00     0.060 C 
BRANCH   7   8
ATOM      8  C2' I4B d   1       1.127   4.392  -1.037  0.00  0.00    -0.013 C 
ATOM      9  C4' I4B d   1       1.955   3.651  -2.054  0.00  0.00     0.013 C 
ATOM     10  C3' I4B d   1       1.753   4.325   0.324  0.00  0.00     0.013 C 
ENDBRANCH   7   8
ENDBRANCH   1   7
TORSDOF 2
ENDMDL
