MODEL 1
REMARK minimizedAffinity 11.8960428
REMARK minimizedRMSD -1
REMARK  2 active torsions:
REMARK  status: ('A' for Active; 'I' for Inactive)
REMARK    1  A    between atoms: C2'_3  and  C1'_4 
REMARK    2  A    between atoms: C1'_4  and  C1_5 
ROOT
ATOM      1  C1  I4B d   1       0.671   4.507  -4.848  0.00  0.00    -0.075 A 
ATOM      2  C2  I4B d   1       0.151   4.795  -3.611  0.00  0.00     0.003 A 
ATOM      3  C3  I4B d   1      -1.053   5.532  -3.498  0.00  0.00     0.002 A 
ATOM      4  C4  I4B d   1      -1.673   6.000  -4.639  0.00  0.00    -0.004 A 
ATOM      5  C5  I4B d   1      -1.156   5.687  -5.893  0.00  0.00     0.002 A 
ATOM      6  C6  I4B d   1       0.016   4.925  -5.999  0.00  0.00     0.003 A 
ENDROOT
BRANCH   1   7
ATOM      7  C1' I4B d   1       1.962   3.755  -4.930  0.00  0.00     0.060 C 
BRANCH   7   8
ATOM      8  C2' I4B d   1       2.814   4.161  -3.744  0.00  0.00    -0.013 C 
ATOM      9  C4' I4B d   1       2.129   3.832  -2.444  0.00  0.00     0.013 C 
ATOM     10  C3' I4B d   1       4.131   3.453  -3.857  0.00  0.00     0.013 C 
ENDBRANCH   7   8
ENDBRANCH   1   7
TORSDOF 2
ENDMDL
