MODEL 1
REMARK minimizedAffinity 10.1001797
REMARK minimizedRMSD -1
REMARK  2 active torsions:
REMARK  status: ('A' for Active; 'I' for Inactive)
REMARK    1  A    between atoms: C2'_3  and  C1'_4 
REMARK    2  A    between atoms: C1'_4  and  C1_5 
ROOT
ATOM      1  C1  I4B d   1       3.390   1.455   1.605  0.00  0.00    -0.075 A 
ATOM      2  C2  I4B d   1       3.332   0.168   1.131  0.00  0.00     0.003 A 
ATOM      3  C3  I4B d   1       4.451  -0.690   1.260  0.00  0.00     0.002 A 
ATOM      4  C4  I4B d   1       5.616  -0.207   1.821  0.00  0.00    -0.004 A 
ATOM      5  C5  I4B d   1       5.665   1.090   2.322  0.00  0.00     0.002 A 
ATOM      6  C6  I4B d   1       4.541   1.924   2.224  0.00  0.00     0.003 A 
ENDROOT
BRANCH   1   7
ATOM      7  C1' I4B d   1       2.201   2.345   1.422  0.00  0.00     0.060 C 
BRANCH   7   8
ATOM      8  C2' I4B d   1       2.682   3.649   0.821  0.00  0.00    -0.013 C 
ATOM      9  C4' I4B d   1       2.056   3.892  -0.527  0.00  0.00     0.013 C 
ATOM     10  C3' I4B d   1       2.347   4.752   1.780  0.00  0.00     0.013 C 
ENDBRANCH   7   8
ENDBRANCH   1   7
TORSDOF 2
ENDMDL
