MODEL 1
REMARK minimizedAffinity 7.28286219
REMARK minimizedRMSD -1
REMARK  2 active torsions:
REMARK  status: ('A' for Active; 'I' for Inactive)
REMARK    1  A    between atoms: C2'_3  and  C1'_4 
REMARK    2  A    between atoms: C1'_4  and  C1_5 
ROOT
ATOM      1  C1  I4B d   1       0.983   4.262  -3.657  0.00  0.00    -0.075 A 
ATOM      2  C2  I4B d   1       1.329   4.105  -4.976  0.00  0.00     0.003 A 
ATOM      3  C3  I4B d   1       0.475   4.584  -5.999  0.00  0.00     0.002 A 
ATOM      4  C4  I4B d   1      -0.730   5.164  -5.662  0.00  0.00    -0.004 A 
ATOM      5  C5  I4B d   1      -1.069   5.343  -4.324  0.00  0.00     0.002 A 
ATOM      6  C6  I4B d   1      -0.202   4.900  -3.315  0.00  0.00     0.003 A 
ENDROOT
BRANCH   1   7
ATOM      7  C1' I4B d   1       1.892   3.715  -2.603  0.00  0.00     0.060 C 
BRANCH   7   8
ATOM      8  C2' I4B d   1       1.434   4.256  -1.264  0.00  0.00    -0.013 C 
ATOM      9  C4' I4B d   1       1.535   3.207  -0.189  0.00  0.00     0.013 C 
ATOM     10  C3' I4B d   1       2.277   5.452  -0.935  0.00  0.00     0.013 C 
ENDBRANCH   7   8
ENDBRANCH   1   7
TORSDOF 2
ENDMDL
