MODEL 1
REMARK minimizedAffinity 7.05760717
REMARK minimizedRMSD -1
REMARK  2 active torsions:
REMARK  status: ('A' for Active; 'I' for Inactive)
REMARK    1  A    between atoms: C2'_3  and  C1'_4 
REMARK    2  A    between atoms: C1'_4  and  C1_5 
ROOT
ATOM      1  C1  I4B d   1      -2.643  -2.988   0.884  0.00  0.00    -0.075 A 
ATOM      2  C2  I4B d   1      -1.860  -2.211   1.700  0.00  0.00     0.003 A 
ATOM      3  C3  I4B d   1      -0.449  -2.259   1.591  0.00  0.00     0.002 A 
ATOM      4  C4  I4B d   1       0.134  -3.130   0.693  0.00  0.00    -0.004 A 
ATOM      5  C5  I4B d   1      -0.662  -3.900  -0.150  0.00  0.00     0.002 A 
ATOM      6  C6  I4B d   1      -2.059  -3.820  -0.063  0.00  0.00     0.003 A 
ENDROOT
BRANCH   1   7
ATOM      7  C1' I4B d   1      -4.129  -2.937   1.048  0.00  0.00     0.060 C 
BRANCH   7   8
ATOM      8  C2' I4B d   1      -4.557  -4.174   1.811  0.00  0.00    -0.013 C 
ATOM      9  C4' I4B d   1      -4.882  -3.846   3.244  0.00  0.00     0.013 C 
ATOM     10  C3' I4B d   1      -5.743  -4.764   1.108  0.00  0.00     0.013 C 
ENDBRANCH   7   8
ENDBRANCH   1   7
TORSDOF 2
ENDMDL
