MODEL 1
REMARK minimizedAffinity 11.4943027
REMARK minimizedRMSD -1
REMARK  2 active torsions:
REMARK  status: ('A' for Active; 'I' for Inactive)
REMARK    1  A    between atoms: C2'_3  and  C1'_4 
REMARK    2  A    between atoms: C1'_4  and  C1_5 
ROOT
ATOM      1  C1  I4B d   1      -2.983   5.015  -3.787  0.00  0.00    -0.075 A 
ATOM      2  C2  I4B d   1      -3.677   5.521  -4.858  0.00  0.00     0.003 A 
ATOM      3  C3  I4B d   1      -2.983   5.999  -5.996  0.00  0.00     0.002 A 
ATOM      4  C4  I4B d   1      -1.603   5.999  -6.000  0.00  0.00    -0.004 A 
ATOM      5  C5  I4B d   1      -0.902   5.464  -4.923  0.00  0.00     0.002 A 
ATOM      6  C6  I4B d   1      -1.596   4.958  -3.815  0.00  0.00     0.003 A 
ENDROOT
BRANCH   1   7
ATOM      7  C1' I4B d   1      -3.747   4.549  -2.589  0.00  0.00     0.060 C 
BRANCH   7   8
ATOM      8  C2' I4B d   1      -3.477   5.520  -1.457  0.00  0.00    -0.013 C 
ATOM      9  C4' I4B d   1      -4.756   5.935  -0.779  0.00  0.00     0.013 C 
ATOM     10  C3' I4B d   1      -2.543   4.855  -0.490  0.00  0.00     0.013 C 
ENDBRANCH   7   8
ENDBRANCH   1   7
TORSDOF 2
ENDMDL
