MODEL 1
REMARK minimizedAffinity 6.98465872
REMARK minimizedRMSD -1
REMARK  2 active torsions:
REMARK  status: ('A' for Active; 'I' for Inactive)
REMARK    1  A    between atoms: C2'_3  and  C1'_4 
REMARK    2  A    between atoms: C1'_4  and  C1_5 
ROOT
ATOM      1  C1  I4B d   1      -1.136  -1.054   1.650  0.00  0.00    -0.075 A 
ATOM      2  C2  I4B d   1      -1.278  -0.208   2.721  0.00  0.00     0.003 A 
ATOM      3  C3  I4B d   1      -2.333   0.736   2.749  0.00  0.00     0.002 A 
ATOM      4  C4  I4B d   1      -3.187   0.833   1.670  0.00  0.00    -0.004 A 
ATOM      5  C5  I4B d   1      -3.056  -0.041   0.595  0.00  0.00     0.002 A 
ATOM      6  C6  I4B d   1      -2.032  -0.999   0.589  0.00  0.00     0.003 A 
ENDROOT
BRANCH   1   7
ATOM      7  C1' I4B d   1       0.009  -2.017   1.637  0.00  0.00     0.060 C 
BRANCH   7   8
ATOM      8  C2' I4B d   1       0.941  -1.648   2.774  0.00  0.00    -0.013 C 
ATOM      9  C4' I4B d   1       1.248  -2.844   3.636  0.00  0.00     0.013 C 
ATOM     10  C3' I4B d   1       2.191  -1.073   2.180  0.00  0.00     0.013 C 
ENDBRANCH   7   8
ENDBRANCH   1   7
TORSDOF 2
ENDMDL
