MODEL 1
REMARK minimizedAffinity 7.0248909
REMARK minimizedRMSD -1
REMARK  2 active torsions:
REMARK  status: ('A' for Active; 'I' for Inactive)
REMARK    1  A    between atoms: C2'_3  and  C1'_4 
REMARK    2  A    between atoms: C1'_4  and  C1_5 
ROOT
ATOM      1  C1  I4B d   1      -2.947   5.994  -4.300  0.00  0.00    -0.075 A 
ATOM      2  C2  I4B d   1      -1.992   6.000  -3.314  0.00  0.00     0.003 A 
ATOM      3  C3  I4B d   1      -0.617   5.996  -3.652  0.00  0.00     0.002 A 
ATOM      4  C4  I4B d   1      -0.245   5.936  -4.980  0.00  0.00    -0.004 A 
ATOM      5  C5  I4B d   1      -1.214   5.953  -5.979  0.00  0.00     0.002 A 
ATOM      6  C6  I4B d   1      -2.573   5.995  -5.637  0.00  0.00     0.003 A 
ENDROOT
BRANCH   1   7
ATOM      7  C1' I4B d   1      -4.390   5.965  -3.906  0.00  0.00     0.060 C 
BRANCH   7   8
ATOM      8  C2' I4B d   1      -4.571   4.869  -2.876  0.00  0.00    -0.013 C 
ATOM      9  C4' I4B d   1      -4.633   5.435  -1.482  0.00  0.00     0.013 C 
ATOM     10  C3' I4B d   1      -5.826   4.120  -3.213  0.00  0.00     0.013 C 
ENDBRANCH   7   8
ENDBRANCH   1   7
TORSDOF 2
ENDMDL
