MODEL 1
REMARK minimizedAffinity 3.12783575
REMARK minimizedRMSD -1
REMARK  2 active torsions:
REMARK  status: ('A' for Active; 'I' for Inactive)
REMARK    1  A    between atoms: C2'_3  and  C1'_4 
REMARK    2  A    between atoms: C1'_4  and  C1_5 
ROOT
ATOM      1  C1  I4B d   1      -2.559   5.262  -5.080  0.00  0.00    -0.075 A 
ATOM      2  C2  I4B d   1      -1.879   4.502  -5.999  0.00  0.00     0.003 A 
ATOM      3  C3  I4B d   1      -0.464   4.459  -5.980  0.00  0.00     0.002 A 
ATOM      4  C4  I4B d   1       0.228   5.225  -5.064  0.00  0.00    -0.004 A 
ATOM      5  C5  I4B d   1      -0.463   5.976  -4.119  0.00  0.00     0.002 A 
ATOM      6  C6  I4B d   1      -1.866   5.986  -4.118  0.00  0.00     0.003 A 
ENDROOT
BRANCH   1   7
ATOM      7  C1' I4B d   1      -4.052   5.311  -5.149  0.00  0.00     0.060 C 
BRANCH   7   8
ATOM      8  C2' I4B d   1      -4.596   4.869  -3.805  0.00  0.00    -0.013 C 
ATOM      9  C4' I4B d   1      -3.484   4.476  -2.869  0.00  0.00     0.013 C 
ATOM     10  C3' I4B d   1      -5.406   5.998  -3.240  0.00  0.00     0.013 C 
ENDBRANCH   7   8
ENDBRANCH   1   7
TORSDOF 2
ENDMDL
