MODEL 1
REMARK minimizedAffinity 8.94874287
REMARK minimizedRMSD -1
REMARK  2 active torsions:
REMARK  status: ('A' for Active; 'I' for Inactive)
REMARK    1  A    between atoms: C2'_3  and  C1'_4 
REMARK    2  A    between atoms: C1'_4  and  C1_5 
ROOT
ATOM      1  C1  I4B d   1      -2.465  -5.017  -5.188  0.00  0.00    -0.075 A 
ATOM      2  C2  I4B d   1      -1.187  -5.460  -5.424  0.00  0.00     0.003 A 
ATOM      3  C3  I4B d   1      -0.099  -4.916  -4.700  0.00  0.00     0.002 A 
ATOM      4  C4  I4B d   1      -0.326  -3.902  -3.792  0.00  0.00    -0.004 A 
ATOM      5  C5  I4B d   1      -1.625  -3.471  -3.537  0.00  0.00     0.002 A 
ATOM      6  C6  I4B d   1      -2.702  -4.040  -4.231  0.00  0.00     0.003 A 
ENDROOT
BRANCH   1   7
ATOM      7  C1' I4B d   1      -3.587  -5.591  -5.994  0.00  0.00     0.060 C 
BRANCH   7   8
ATOM      8  C2' I4B d   1      -4.883  -5.293  -5.268  0.00  0.00    -0.013 C 
ATOM      9  C4' I4B d   1      -5.135  -3.811  -5.189  0.00  0.00     0.013 C 
ATOM     10  C3' I4B d   1      -5.992  -5.993  -5.995  0.00  0.00     0.013 C 
ENDBRANCH   7   8
ENDBRANCH   1   7
TORSDOF 2
ENDMDL
