MODEL 1
REMARK minimizedAffinity 12.9655151
REMARK minimizedRMSD -1
REMARK  2 active torsions:
REMARK  status: ('A' for Active; 'I' for Inactive)
REMARK    1  A    between atoms: C2'_3  and  C1'_4 
REMARK    2  A    between atoms: C1'_4  and  C1_5 
ROOT
ATOM      1  C1  I4B d   1      -3.096  -0.176   0.929  0.00  0.00    -0.075 A 
ATOM      2  C2  I4B d   1      -2.999  -1.495   0.563  0.00  0.00     0.003 A 
ATOM      3  C3  I4B d   1      -1.912  -2.282   1.017  0.00  0.00     0.002 A 
ATOM      4  C4  I4B d   1      -0.926  -1.700   1.787  0.00  0.00    -0.004 A 
ATOM      5  C5  I4B d   1      -1.038  -0.368   2.176  0.00  0.00     0.002 A 
ATOM      6  C6  I4B d   1      -2.137   0.396   1.755  0.00  0.00     0.003 A 
ENDROOT
BRANCH   1   7
ATOM      7  C1' I4B d   1      -4.239   0.635   0.406  0.00  0.00     0.060 C 
BRANCH   7   8
ATOM      8  C2' I4B d   1      -3.754   1.395  -0.812  0.00  0.00    -0.013 C 
ATOM      9  C4' I4B d   1      -3.963   0.598  -2.072  0.00  0.00     0.013 C 
ATOM     10  C3' I4B d   1      -4.491   2.699  -0.867  0.00  0.00     0.013 C 
ENDBRANCH   7   8
ENDBRANCH   1   7
TORSDOF 2
ENDMDL
