MODEL 1
REMARK minimizedAffinity 7.39172697
REMARK minimizedRMSD -1
REMARK  2 active torsions:
REMARK  status: ('A' for Active; 'I' for Inactive)
REMARK    1  A    between atoms: C2'_3  and  C1'_4 
REMARK    2  A    between atoms: C1'_4  and  C1_5 
ROOT
ATOM      1  C1  I4B d   1      -3.263   5.782  -3.863  0.00  0.00    -0.075 A 
ATOM      2  C2  I4B d   1      -2.106   5.387  -3.238  0.00  0.00     0.003 A 
ATOM      3  C3  I4B d   1      -0.935   5.143  -3.995  0.00  0.00     0.002 A 
ATOM      4  C4  I4B d   1      -0.978   5.256  -5.369  0.00  0.00    -0.004 A 
ATOM      5  C5  I4B d   1      -2.145   5.678  -5.999  0.00  0.00     0.002 A 
ATOM      6  C6  I4B d   1      -3.292   5.955  -5.240  0.00  0.00     0.003 A 
ENDROOT
BRANCH   1   7
ATOM      7  C1' I4B d   1      -4.490   6.000  -3.036  0.00  0.00     0.060 C 
BRANCH   7   8
ATOM      8  C2' I4B d   1      -4.218   5.465  -1.645  0.00  0.00    -0.013 C 
ATOM      9  C4' I4B d   1      -5.287   5.894  -0.676  0.00  0.00     0.013 C 
ATOM     10  C3' I4B d   1      -4.135   3.970  -1.733  0.00  0.00     0.013 C 
ENDBRANCH   7   8
ENDBRANCH   1   7
TORSDOF 2
ENDMDL
