MODEL 1
REMARK minimizedAffinity 6.45466995
REMARK minimizedRMSD -1
REMARK  2 active torsions:
REMARK  status: ('A' for Active; 'I' for Inactive)
REMARK    1  A    between atoms: C2'_3  and  C1'_4 
REMARK    2  A    between atoms: C1'_4  and  C1_5 
ROOT
ATOM      1  C1  I4B d   1      -2.684   0.158   0.846  0.00  0.00    -0.075 A 
ATOM      2  C2  I4B d   1      -3.714   1.045   1.038  0.00  0.00     0.003 A 
ATOM      3  C3  I4B d   1      -4.517   1.453  -0.054  0.00  0.00     0.002 A 
ATOM      4  C4  I4B d   1      -4.225   0.992  -1.322  0.00  0.00    -0.004 A 
ATOM      5  C5  I4B d   1      -3.195   0.075  -1.511  0.00  0.00     0.002 A 
ATOM      6  C6  I4B d   1      -2.428  -0.355  -0.419  0.00  0.00     0.003 A 
ENDROOT
BRANCH   1   7
ATOM      7  C1' I4B d   1      -1.836  -0.226   2.016  0.00  0.00     0.060 C 
BRANCH   7   8
ATOM      8  C2' I4B d   1      -1.970  -1.721   2.220  0.00  0.00    -0.013 C 
ATOM      9  C4' I4B d   1      -3.309  -2.218   1.743  0.00  0.00     0.013 C 
ATOM     10  C3' I4B d   1      -0.850  -2.392   1.481  0.00  0.00     0.013 C 
ENDBRANCH   7   8
ENDBRANCH   1   7
TORSDOF 2
ENDMDL
