MODEL 1
REMARK minimizedAffinity 9.35971069
REMARK minimizedRMSD -1
REMARK  0 active torsions:
REMARK  status: ('A' for Active; 'I' for Inactive)
ROOT
ATOM      1  O1  BZF d   1       3.304  -1.165  -1.434  0.00  0.00    -0.204 OA
ATOM      2  C2  BZF d   1       2.589  -0.038  -1.789  0.00  0.00     0.174 A 
ATOM      3  C3  BZF d   1       1.520   0.124  -0.983  0.00  0.00    -0.012 A 
ATOM      4  C3A BZF d   1       1.621  -0.919  -0.009  0.00  0.00    -0.107 A 
ATOM      5  C4  BZF d   1       0.862  -1.274   1.069  0.00  0.00     0.055 A 
ATOM      6  C5  BZF d   1       1.193  -2.388   1.772  0.00  0.00    -0.016 A 
ATOM      7  C6  BZF d   1       2.273  -3.173   1.423  0.00  0.00     0.022 A 
ATOM      8  C7  BZF d   1       3.059  -2.858   0.365  0.00  0.00     0.029 A 
ATOM      9  C7A BZF d   1       2.746  -1.714  -0.328  0.00  0.00     0.058 A 
ENDROOT
TORSDOF 0
ENDMDL
