MODEL 1
REMARK minimizedAffinity 10.9583597
REMARK minimizedRMSD -1
REMARK  0 active torsions:
REMARK  status: ('A' for Active; 'I' for Inactive)
ROOT
ATOM      1  O1  BZF d   1       4.382  -4.750   2.604  0.00  0.00    -0.204 OA
ATOM      2  C2  BZF d   1       3.804  -5.898   3.111  0.00  0.00     0.174 A 
ATOM      3  C3  BZF d   1       3.974  -5.968   4.447  0.00  0.00    -0.012 A 
ATOM      4  C3A BZF d   1       4.623  -4.745   4.809  0.00  0.00    -0.107 A 
ATOM      5  C4  BZF d   1       5.043  -4.221   5.998  0.00  0.00     0.055 A 
ATOM      6  C5  BZF d   1       5.708  -3.036   6.000  0.00  0.00    -0.016 A 
ATOM      7  C6  BZF d   1       5.975  -2.352   4.832  0.00  0.00     0.022 A 
ATOM      8  C7  BZF d   1       5.574  -2.830   3.629  0.00  0.00     0.029 A 
ATOM      9  C7A BZF d   1       4.873  -4.011   3.627  0.00  0.00     0.058 A 
ENDROOT
TORSDOF 0
ENDMDL
