MODEL 1
REMARK minimizedAffinity 13.0875864
REMARK minimizedRMSD -1
REMARK  0 active torsions:
REMARK  status: ('A' for Active; 'I' for Inactive)
ROOT
ATOM      1  O1  BZF d   1       3.364  -2.644  -0.650  0.00  0.00    -0.204 OA
ATOM      2  C2  BZF d   1       4.701  -2.917  -0.434  0.00  0.00     0.174 A 
ATOM      3  C3  BZF d   1       5.420  -1.777  -0.384  0.00  0.00    -0.012 A 
ATOM      4  C3A BZF d   1       4.460  -0.722  -0.490  0.00  0.00    -0.107 A 
ATOM      5  C4  BZF d   1       4.557   0.640  -0.486  0.00  0.00     0.055 A 
ATOM      6  C5  BZF d   1       3.436   1.383  -0.682  0.00  0.00    -0.016 A 
ATOM      7  C6  BZF d   1       2.204   0.798  -0.889  0.00  0.00     0.022 A 
ATOM      8  C7  BZF d   1       2.057  -0.549  -0.896  0.00  0.00     0.029 A 
ATOM      9  C7A BZF d   1       3.182  -1.302  -0.665  0.00  0.00     0.058 A 
ENDROOT
TORSDOF 0
ENDMDL
