MODEL 1
REMARK minimizedAffinity 6.44347525
REMARK minimizedRMSD -1
REMARK  0 active torsions:
REMARK  status: ('A' for Active; 'I' for Inactive)
ROOT
ATOM      1  O1  BZF d   1       2.592  -2.805  -0.089  0.00  0.00    -0.204 OA
ATOM      2  C2  BZF d   1       3.695  -3.597   0.163  0.00  0.00     0.174 A 
ATOM      3  C3  BZF d   1       4.835  -2.897  -0.009  0.00  0.00    -0.012 A 
ATOM      4  C3A BZF d   1       4.416  -1.561  -0.304  0.00  0.00    -0.107 A 
ATOM      5  C4  BZF d   1       5.089  -0.400  -0.558  0.00  0.00     0.055 A 
ATOM      6  C5  BZF d   1       4.383   0.715  -0.881  0.00  0.00    -0.016 A 
ATOM      7  C6  BZF d   1       3.006   0.705  -0.963  0.00  0.00     0.022 A 
ATOM      8  C7  BZF d   1       2.294  -0.422  -0.714  0.00  0.00     0.029 A 
ATOM      9  C7A BZF d   1       3.003  -1.542  -0.356  0.00  0.00     0.058 A 
ENDROOT
TORSDOF 0
ENDMDL
