MODEL 1
REMARK minimizedAffinity 0.121674702
REMARK minimizedRMSD -1
REMARK  0 active torsions:
REMARK  status: ('A' for Active; 'I' for Inactive)
ROOT
ATOM      1  O1  BZF d   1       1.968  -2.314   0.080  0.00  0.00    -0.204 OA
ATOM      2  C2  BZF d   1       1.577  -1.005  -0.127  0.00  0.00     0.174 A 
ATOM      3  C3  BZF d   1       0.655  -0.631   0.784  0.00  0.00    -0.012 A 
ATOM      4  C3A BZF d   1       0.525  -1.749   1.668  0.00  0.00    -0.107 A 
ATOM      5  C4  BZF d   1      -0.227  -1.981   2.783  0.00  0.00     0.055 A 
ATOM      6  C5  BZF d   1      -0.176  -3.204   3.372  0.00  0.00    -0.016 A 
ATOM      7  C6  BZF d   1       0.612  -4.219   2.870  0.00  0.00     0.022 A 
ATOM      8  C7  BZF d   1       1.379  -4.035   1.768  0.00  0.00     0.029 A 
ATOM      9  C7A BZF d   1       1.355  -2.789   1.190  0.00  0.00     0.058 A 
ENDROOT
TORSDOF 0
ENDMDL
