MODEL 1
REMARK minimizedAffinity -0.307020158
REMARK minimizedRMSD -1
REMARK  0 active torsions:
REMARK  status: ('A' for Active; 'I' for Inactive)
ROOT
ATOM      1  O1  BZF d   1       3.378  -3.070   0.063  0.00  0.00    -0.204 OA
ATOM      2  C2  BZF d   1       3.385  -4.126   0.954  0.00  0.00     0.174 A 
ATOM      3  C3  BZF d   1       2.417  -3.975   1.880  0.00  0.00    -0.012 A 
ATOM      4  C3A BZF d   1       1.705  -2.796   1.493  0.00  0.00    -0.107 A 
ATOM      5  C4  BZF d   1       0.625  -2.139   2.011  0.00  0.00     0.055 A 
ATOM      6  C5  BZF d   1       0.224  -0.975   1.437  0.00  0.00    -0.016 A 
ATOM      7  C6  BZF d   1       0.880  -0.437   0.349  0.00  0.00     0.022 A 
ATOM      8  C7  BZF d   1       1.953  -1.055  -0.202  0.00  0.00     0.029 A 
ATOM      9  C7A BZF d   1       2.341  -2.249   0.356  0.00  0.00     0.058 A 
ENDROOT
TORSDOF 0
ENDMDL
