MODEL 1
REMARK minimizedAffinity 4.02459431
REMARK minimizedRMSD -1
REMARK  0 active torsions:
REMARK  status: ('A' for Active; 'I' for Inactive)
ROOT
ATOM      1  O1  BZF d   1      -0.122  -0.322  -0.878  0.00  0.00    -0.204 OA
ATOM      2  C2  BZF d   1       1.165  -0.792  -0.701  0.00  0.00     0.174 A 
ATOM      3  C3  BZF d   1       1.448  -0.930   0.610  0.00  0.00    -0.012 A 
ATOM      4  C3A BZF d   1       0.232  -0.608   1.294  0.00  0.00    -0.107 A 
ATOM      5  C4  BZF d   1      -0.124  -0.577   2.612  0.00  0.00     0.055 A 
ATOM      6  C5  BZF d   1      -1.369  -0.149   2.949  0.00  0.00    -0.016 A 
ATOM      7  C6  BZF d   1      -2.279   0.260   1.997  0.00  0.00     0.022 A 
ATOM      8  C7  BZF d   1      -1.973   0.242   0.677  0.00  0.00     0.029 A 
ATOM      9  C7A BZF d   1      -0.728  -0.221   0.330  0.00  0.00     0.058 A 
ENDROOT
TORSDOF 0
ENDMDL
