MODEL 1
REMARK minimizedAffinity 5.24360991
REMARK minimizedRMSD -1
REMARK  0 active torsions:
REMARK  status: ('A' for Active; 'I' for Inactive)
ROOT
ATOM      1  O1  BZF d   1      -1.661   2.695   0.586  0.00  0.00    -0.204 OA
ATOM      2  C2  BZF d   1      -0.974   2.840   1.776  0.00  0.00     0.174 A 
ATOM      3  C3  BZF d   1      -0.499   1.652   2.202  0.00  0.00    -0.012 A 
ATOM      4  C3A BZF d   1      -0.835   0.720   1.170  0.00  0.00    -0.107 A 
ATOM      5  C4  BZF d   1      -0.616  -0.618   1.005  0.00  0.00     0.055 A 
ATOM      6  C5  BZF d   1      -1.138  -1.243  -0.083  0.00  0.00    -0.016 A 
ATOM      7  C6  BZF d   1      -1.886  -0.564  -1.022  0.00  0.00     0.022 A 
ATOM      8  C7  BZF d   1      -2.125   0.765  -0.904  0.00  0.00     0.029 A 
ATOM      9  C7A BZF d   1      -1.572   1.407   0.177  0.00  0.00     0.058 A 
ENDROOT
TORSDOF 0
ENDMDL
