MODEL 1
REMARK minimizedAffinity -2.8503778
REMARK minimizedRMSD -1
REMARK  0 active torsions:
REMARK  status: ('A' for Active; 'I' for Inactive)
ROOT
ATOM      1  O1  BZF d   1       2.332   0.922   0.998  0.00  0.00    -0.204 OA
ATOM      2  C2  BZF d   1       2.435   2.239   1.404  0.00  0.00     0.174 A 
ATOM      3  C3  BZF d   1       1.232   2.847   1.366  0.00  0.00    -0.012 A 
ATOM      4  C3A BZF d   1       0.304   1.822   0.996  0.00  0.00    -0.107 A 
ATOM      5  C4  BZF d   1      -1.048   1.803   0.808  0.00  0.00     0.055 A 
ATOM      6  C5  BZF d   1      -1.640   0.658   0.378  0.00  0.00    -0.016 A 
ATOM      7  C6  BZF d   1      -0.909  -0.484   0.121  0.00  0.00     0.022 A 
ATOM      8  C7  BZF d   1       0.434  -0.515   0.297  0.00  0.00     0.029 A 
ATOM      9  C7A BZF d   1       1.030   0.631   0.764  0.00  0.00     0.058 A 
ENDROOT
TORSDOF 0
ENDMDL
