MODEL 1
REMARK minimizedAffinity 0.548048198
REMARK minimizedRMSD -1
REMARK  0 active torsions:
REMARK  status: ('A' for Active; 'I' for Inactive)
ROOT
ATOM      1  O1  BZF d   1      -1.294   2.860   0.999  0.00  0.00    -0.204 OA
ATOM      2  C2  BZF d   1      -2.147   1.950   0.405  0.00  0.00     0.174 A 
ATOM      3  C3  BZF d   1      -1.473   0.853   0.003  0.00  0.00    -0.012 A 
ATOM      4  C3A BZF d   1      -0.129   1.053   0.452  0.00  0.00    -0.107 A 
ATOM      5  C4  BZF d   1       1.010   0.303   0.368  0.00  0.00     0.055 A 
ATOM      6  C5  BZF d   1       2.175   0.817   0.843  0.00  0.00    -0.016 A 
ATOM      7  C6  BZF d   1       2.239   2.076   1.403  0.00  0.00     0.022 A 
ATOM      8  C7  BZF d   1       1.135   2.855   1.512  0.00  0.00     0.029 A 
ATOM      9  C7A BZF d   1      -0.051   2.326   1.063  0.00  0.00     0.058 A 
ENDROOT
TORSDOF 0
ENDMDL
