MODEL 1
REMARK minimizedAffinity -4.96185589
REMARK minimizedRMSD -1
REMARK  0 active torsions:
REMARK  status: ('A' for Active; 'I' for Inactive)
ROOT
ATOM      1  O1  BZF d   1      -1.287   2.648   1.053  0.00  0.00    -0.204 OA
ATOM      2  C2  BZF d   1      -1.916   1.419   1.004  0.00  0.00     0.174 A 
ATOM      3  C3  BZF d   1      -1.056   0.456   0.615  0.00  0.00    -0.012 A 
ATOM      4  C3A BZF d   1       0.212   1.109   0.497  0.00  0.00    -0.107 A 
ATOM      5  C4  BZF d   1       1.463   0.677   0.160  0.00  0.00     0.055 A 
ATOM      6  C5  BZF d   1       2.472   1.583   0.068  0.00  0.00    -0.016 A 
ATOM      7  C6  BZF d   1       2.265   2.926   0.301  0.00  0.00     0.022 A 
ATOM      8  C7  BZF d   1       1.042   3.402   0.644  0.00  0.00     0.029 A 
ATOM      9  C7A BZF d   1       0.028   2.484   0.769  0.00  0.00     0.058 A 
ENDROOT
TORSDOF 0
ENDMDL
