MODEL 1
REMARK minimizedAffinity -2.65607047
REMARK minimizedRMSD -1
REMARK  0 active torsions:
REMARK  status: ('A' for Active; 'I' for Inactive)
ROOT
ATOM      1  O1  BZF d   1       0.056   3.590   0.264  0.00  0.00    -0.204 OA
ATOM      2  C2  BZF d   1       1.377   3.990   0.204  0.00  0.00     0.174 A 
ATOM      3  C3  BZF d   1       2.204   2.930   0.315  0.00  0.00    -0.012 A 
ATOM      4  C3A BZF d   1       1.345   1.786   0.361  0.00  0.00    -0.107 A 
ATOM      5  C4  BZF d   1       1.574   0.443   0.453  0.00  0.00     0.055 A 
ATOM      6  C5  BZF d   1       0.515  -0.403   0.549  0.00  0.00    -0.016 A 
ATOM      7  C6  BZF d   1      -0.785   0.060   0.562  0.00  0.00     0.022 A 
ATOM      8  C7  BZF d   1      -1.062   1.383   0.468  0.00  0.00     0.029 A 
ATOM      9  C7A BZF d   1       0.005   2.238   0.337  0.00  0.00     0.058 A 
ENDROOT
TORSDOF 0
ENDMDL
