MODEL 1
REMARK minimizedAffinity -4.66496038
REMARK minimizedRMSD -1
REMARK  0 active torsions:
REMARK  status: ('A' for Active; 'I' for Inactive)
ROOT
ATOM      1  O1  BZF d   1       0.989  -0.550  -1.079  0.00  0.00    -0.204 OA
ATOM      2  C2  BZF d   1       1.089  -0.367   0.287  0.00  0.00     0.174 A 
ATOM      3  C3  BZF d   1       0.411  -1.326   0.949  0.00  0.00    -0.012 A 
ATOM      4  C3A BZF d   1      -0.071  -2.214  -0.064  0.00  0.00    -0.107 A 
ATOM      5  C4  BZF d   1      -0.800  -3.368  -0.031  0.00  0.00     0.055 A 
ATOM      6  C5  BZF d   1      -1.167  -3.951  -1.203  0.00  0.00    -0.016 A 
ATOM      7  C6  BZF d   1      -0.825  -3.406  -2.423  0.00  0.00     0.022 A 
ATOM      8  C7  BZF d   1      -0.098  -2.265  -2.506  0.00  0.00     0.029 A 
ATOM      9  C7A BZF d   1       0.301  -1.691  -1.324  0.00  0.00     0.058 A 
ENDROOT
TORSDOF 0
ENDMDL
