MODEL 1
REMARK minimizedAffinity -3.26235557
REMARK minimizedRMSD -1
REMARK  0 active torsions:
REMARK  status: ('A' for Active; 'I' for Inactive)
ROOT
ATOM      1  O1  BZF d   1       1.668  -0.825   0.780  0.00  0.00    -0.204 OA
ATOM      2  C2  BZF d   1       0.986  -1.941   0.334  0.00  0.00     0.174 A 
ATOM      3  C3  BZF d   1      -0.274  -1.620  -0.024  0.00  0.00    -0.012 A 
ATOM      4  C3A BZF d   1      -0.357  -0.199   0.125  0.00  0.00    -0.107 A 
ATOM      5  C4  BZF d   1      -1.352   0.711  -0.092  0.00  0.00     0.055 A 
ATOM      6  C5  BZF d   1      -1.134   2.015   0.222  0.00  0.00    -0.016 A 
ATOM      7  C6  BZF d   1       0.063   2.443   0.759  0.00  0.00     0.022 A 
ATOM      8  C7  BZF d   1       1.081   1.578   0.987  0.00  0.00     0.029 A 
ATOM      9  C7A BZF d   1       0.875   0.265   0.640  0.00  0.00     0.058 A 
ENDROOT
TORSDOF 0
ENDMDL
