MODEL 1
REMARK minimizedAffinity -5.52887774
REMARK minimizedRMSD -1
REMARK  0 active torsions:
REMARK  status: ('A' for Active; 'I' for Inactive)
ROOT
ATOM      1  O1  BZF d   1       0.707  -0.263  -0.139  0.00  0.00    -0.204 OA
ATOM      2  C2  BZF d   1      -0.674  -0.232  -0.163  0.00  0.00     0.174 A 
ATOM      3  C3  BZF d   1      -1.125   1.034  -0.051  0.00  0.00    -0.012 A 
ATOM      4  C3A BZF d   1       0.048   1.853  -0.044  0.00  0.00    -0.107 A 
ATOM      5  C4  BZF d   1       0.251   3.201   0.030  0.00  0.00     0.055 A 
ATOM      6  C5  BZF d   1       1.524   3.675   0.087  0.00  0.00    -0.016 A 
ATOM      7  C6  BZF d   1       2.614   2.830   0.078  0.00  0.00     0.022 A 
ATOM      8  C7  BZF d   1       2.463   1.486   0.000  0.00  0.00     0.029 A 
ATOM      9  C7A BZF d   1       1.179   1.005  -0.091  0.00  0.00     0.058 A 
ENDROOT
TORSDOF 0
ENDMDL
