MODEL 1
REMARK minimizedAffinity -6.22179127
REMARK minimizedRMSD -1
REMARK  0 active torsions:
REMARK  status: ('A' for Active; 'I' for Inactive)
ROOT
ATOM      1  O1  BZF d   1       0.391  -0.582   0.341  0.00  0.00    -0.204 OA
ATOM      2  C2  BZF d   1       1.685  -1.064   0.281  0.00  0.00     0.174 A 
ATOM      3  C3  BZF d   1       2.568  -0.050   0.173  0.00  0.00    -0.012 A 
ATOM      4  C3A BZF d   1       1.784   1.143   0.257  0.00  0.00    -0.107 A 
ATOM      5  C4  BZF d   1       2.092   2.473   0.228  0.00  0.00     0.055 A 
ATOM      6  C5  BZF d   1       1.086   3.386   0.260  0.00  0.00    -0.016 A 
ATOM      7  C6  BZF d   1      -0.239   3.004   0.315  0.00  0.00     0.022 A 
ATOM      8  C7  BZF d   1      -0.594   1.696   0.350  0.00  0.00     0.029 A 
ATOM      9  C7A BZF d   1       0.423   0.773   0.352  0.00  0.00     0.058 A 
ENDROOT
TORSDOF 0
ENDMDL
