MODEL 1
REMARK minimizedAffinity -3.02383184
REMARK minimizedRMSD -1
REMARK  0 active torsions:
REMARK  status: ('A' for Active; 'I' for Inactive)
ROOT
ATOM      1  O1  BZF d   1       1.918   1.437   0.523  0.00  0.00    -0.204 OA
ATOM      2  C2  BZF d   1       2.916   0.483   0.557  0.00  0.00     0.174 A 
ATOM      3  C3  BZF d   1       2.399  -0.744   0.772  0.00  0.00    -0.012 A 
ATOM      4  C3A BZF d   1       0.980  -0.557   0.788  0.00  0.00    -0.107 A 
ATOM      5  C4  BZF d   1      -0.077  -1.406   0.944  0.00  0.00     0.055 A 
ATOM      6  C5  BZF d   1      -1.335  -0.895   0.982  0.00  0.00    -0.016 A 
ATOM      7  C6  BZF d   1      -1.572   0.460   0.872  0.00  0.00     0.022 A 
ATOM      8  C7  BZF d   1      -0.555   1.342   0.711  0.00  0.00     0.029 A 
ATOM      9  C7A BZF d   1       0.715   0.824   0.639  0.00  0.00     0.058 A 
ENDROOT
TORSDOF 0
ENDMDL
