MODEL 1
REMARK minimizedAffinity -5.00666904
REMARK minimizedRMSD -1
REMARK  0 active torsions:
REMARK  status: ('A' for Active; 'I' for Inactive)
ROOT
ATOM      1  O1  BZF d   1       1.823   2.480   0.886  0.00  0.00    -0.204 OA
ATOM      2  C2  BZF d   1       0.849   3.454   0.991  0.00  0.00     0.174 A 
ATOM      3  C3  BZF d   1      -0.382   2.915   0.870  0.00  0.00    -0.012 A 
ATOM      4  C3A BZF d   1      -0.167   1.505   0.769  0.00  0.00    -0.107 A 
ATOM      5  C4  BZF d   1      -1.005   0.434   0.645  0.00  0.00     0.055 A 
ATOM      6  C5  BZF d   1      -0.473  -0.808   0.497  0.00  0.00    -0.016 A 
ATOM      7  C6  BZF d   1       0.891  -1.014   0.465  0.00  0.00     0.022 A 
ATOM      8  C7  BZF d   1       1.762   0.016   0.590  0.00  0.00     0.029 A 
ATOM      9  C7A BZF d   1       1.227   1.268   0.772  0.00  0.00     0.058 A 
ENDROOT
TORSDOF 0
ENDMDL
