MODEL 1
REMARK minimizedAffinity -6.05313063
REMARK minimizedRMSD -1
REMARK  0 active torsions:
REMARK  status: ('A' for Active; 'I' for Inactive)
ROOT
ATOM      1  O1  BZF d   1       2.083  -0.530   0.798  0.00  0.00    -0.204 OA
ATOM      2  C2  BZF d   1       1.011  -1.305   0.399  0.00  0.00     0.174 A 
ATOM      3  C3  BZF d   1      -0.096  -0.550   0.251  0.00  0.00    -0.012 A 
ATOM      4  C3A BZF d   1       0.330   0.795   0.488  0.00  0.00    -0.107 A 
ATOM      5  C4  BZF d   1      -0.311   2.000   0.471  0.00  0.00     0.055 A 
ATOM      6  C5  BZF d   1       0.376   3.119   0.820  0.00  0.00    -0.016 A 
ATOM      7  C6  BZF d   1       1.703   3.069   1.195  0.00  0.00     0.022 A 
ATOM      8  C7  BZF d   1       2.383   1.897   1.222  0.00  0.00     0.029 A 
ATOM      9  C7A BZF d   1       1.700   0.769   0.838  0.00  0.00     0.058 A 
ENDROOT
TORSDOF 0
ENDMDL
