MODEL 1
REMARK minimizedAffinity 2.5779562
REMARK minimizedRMSD -1
REMARK  0 active torsions:
REMARK  status: ('A' for Active; 'I' for Inactive)
ROOT
ATOM      1  O1  BZF d   1      -0.346  -3.076  -2.264  0.00  0.00    -0.204 OA
ATOM      2  C2  BZF d   1      -1.525  -3.344  -1.595  0.00  0.00     0.174 A 
ATOM      3  C3  BZF d   1      -1.597  -2.636  -0.449  0.00  0.00    -0.012 A 
ATOM      4  C3A BZF d   1      -0.429  -1.809  -0.445  0.00  0.00    -0.107 A 
ATOM      5  C4  BZF d   1       0.054  -0.872   0.423  0.00  0.00     0.055 A 
ATOM      6  C5  BZF d   1       1.260  -0.298   0.172  0.00  0.00    -0.016 A 
ATOM      7  C6  BZF d   1       2.010  -0.641  -0.934  0.00  0.00     0.022 A 
ATOM      8  C7  BZF d   1       1.570  -1.561  -1.826  0.00  0.00     0.029 A 
ATOM      9  C7A BZF d   1       0.337  -2.118  -1.592  0.00  0.00     0.058 A 
ENDROOT
TORSDOF 0
ENDMDL
