MODEL 1
REMARK minimizedAffinity 0.428953141
REMARK minimizedRMSD -1
REMARK  0 active torsions:
REMARK  status: ('A' for Active; 'I' for Inactive)
ROOT
ATOM      1  O1  BZF d   1       1.808  -1.253  -0.676  0.00  0.00    -0.204 OA
ATOM      2  C2  BZF d   1       1.062  -0.906   0.434  0.00  0.00     0.174 A 
ATOM      3  C3  BZF d   1      -0.173  -1.442   0.366  0.00  0.00    -0.012 A 
ATOM      4  C3A BZF d   1      -0.171  -2.245  -0.818  0.00  0.00    -0.107 A 
ATOM      5  C4  BZF d   1      -1.108  -3.040  -1.415  0.00  0.00     0.055 A 
ATOM      6  C5  BZF d   1      -0.813  -3.628  -2.604  0.00  0.00    -0.016 A 
ATOM      7  C6  BZF d   1       0.404  -3.440  -3.226  0.00  0.00     0.022 A 
ATOM      8  C7  BZF d   1       1.366  -2.664  -2.669  0.00  0.00     0.029 A 
ATOM      9  C7A BZF d   1       1.084  -2.095  -1.452  0.00  0.00     0.058 A 
ENDROOT
TORSDOF 0
ENDMDL
