MODEL 1
REMARK minimizedAffinity -3.38941956
REMARK minimizedRMSD -1
REMARK  0 active torsions:
REMARK  status: ('A' for Active; 'I' for Inactive)
ROOT
ATOM      1  O1  BZF d   1       2.308   0.741   0.485  0.00  0.00    -0.204 OA
ATOM      2  C2  BZF d   1       2.792   1.983   0.846  0.00  0.00     0.174 A 
ATOM      3  C3  BZF d   1       1.784   2.869   0.979  0.00  0.00    -0.012 A 
ATOM      4  C3A BZF d   1       0.587   2.112   0.773  0.00  0.00    -0.107 A 
ATOM      5  C4  BZF d   1      -0.740   2.430   0.793  0.00  0.00     0.055 A 
ATOM      6  C5  BZF d   1      -1.653   1.474   0.478  0.00  0.00    -0.016 A 
ATOM      7  C6  BZF d   1      -1.274   0.193   0.134  0.00  0.00     0.022 A 
ATOM      8  C7  BZF d   1       0.031  -0.172   0.106  0.00  0.00     0.029 A 
ATOM      9  C7A BZF d   1       0.954   0.783   0.455  0.00  0.00     0.058 A 
ENDROOT
TORSDOF 0
ENDMDL
