MODEL 1
REMARK minimizedAffinity -5.50069189
REMARK minimizedRMSD -1
REMARK  0 active torsions:
REMARK  status: ('A' for Active; 'I' for Inactive)
ROOT
ATOM      1  O1  BZF d   1      -0.702   3.271   0.333  0.00  0.00    -0.204 OA
ATOM      2  C2  BZF d   1       0.444   4.040   0.267  0.00  0.00     0.174 A 
ATOM      3  C3  BZF d   1       1.543   3.259   0.233  0.00  0.00    -0.012 A 
ATOM      4  C3A BZF d   1       1.050   1.917   0.188  0.00  0.00    -0.107 A 
ATOM      5  C4  BZF d   1       1.657   0.695   0.126  0.00  0.00     0.055 A 
ATOM      6  C5  BZF d   1       0.890  -0.426   0.170  0.00  0.00    -0.016 A 
ATOM      7  C6  BZF d   1      -0.483  -0.363   0.280  0.00  0.00     0.022 A 
ATOM      8  C7  BZF d   1      -1.131   0.826   0.340  0.00  0.00     0.029 A 
ATOM      9  C7A BZF d   1      -0.362   1.961   0.262  0.00  0.00     0.058 A 
ENDROOT
TORSDOF 0
ENDMDL
