MODEL 1
REMARK minimizedAffinity -5.39137077
REMARK minimizedRMSD -1
REMARK  0 active torsions:
REMARK  status: ('A' for Active; 'I' for Inactive)
ROOT
ATOM      1  O1  BZF d   1       2.003   2.308   0.058  0.00  0.00    -0.204 OA
ATOM      2  C2  BZF d   1       1.193   3.423   0.154  0.00  0.00     0.174 A 
ATOM      3  C3  BZF d   1      -0.094   3.065   0.337  0.00  0.00    -0.012 A 
ATOM      4  C3A BZF d   1      -0.075   1.638   0.449  0.00  0.00    -0.107 A 
ATOM      5  C4  BZF d   1      -1.046   0.700   0.656  0.00  0.00     0.055 A 
ATOM      6  C5  BZF d   1      -0.706  -0.616   0.639  0.00  0.00    -0.016 A 
ATOM      7  C6  BZF d   1       0.591  -1.028   0.415  0.00  0.00     0.022 A 
ATOM      8  C7  BZF d   1       1.588  -0.134   0.210  0.00  0.00     0.029 A 
ATOM      9  C7A BZF d   1       1.254   1.197   0.259  0.00  0.00     0.058 A 
ENDROOT
TORSDOF 0
ENDMDL
