MODEL 1
REMARK minimizedAffinity -3.46624112
REMARK minimizedRMSD -1
REMARK  0 active torsions:
REMARK  status: ('A' for Active; 'I' for Inactive)
ROOT
ATOM      1  C   UNL d   1      -0.974   2.952  -1.497  0.00  0.00     0.172 C 
ATOM      2  N   UNL d   1      -0.880   2.348  -0.188  0.00  0.00    -0.070 N 
ATOM      3  C1  UNL d   1      -0.583   1.036   0.065  0.00  0.00    -0.004 A 
ATOM      4  C2  UNL d   1      -0.591   0.858   1.432  0.00  0.00    -0.047 A 
ATOM      5  C3  UNL d   1      -0.905   2.106   2.020  0.00  0.00    -0.047 A 
ATOM      6  C4  UNL d   1      -1.079   3.011   0.994  0.00  0.00    -0.004 A 
ENDROOT
TORSDOF 0
ENDMDL
