MODEL 1
REMARK minimizedAffinity -3.23390627
REMARK minimizedRMSD -1
REMARK  0 active torsions:
REMARK  status: ('A' for Active; 'I' for Inactive)
ROOT
ATOM      1  C   UNL d   1       0.235  -0.459   1.338  0.00  0.00     0.172 C 
ATOM      2  N   UNL d   1      -0.282   0.877   1.153  0.00  0.00    -0.070 N 
ATOM      3  C1  UNL d   1      -0.313   1.860   2.106  0.00  0.00    -0.004 A 
ATOM      4  C2  UNL d   1      -0.878   2.981   1.538  0.00  0.00    -0.047 A 
ATOM      5  C3  UNL d   1      -1.199   2.660   0.197  0.00  0.00    -0.047 A 
ATOM      6  C4  UNL d   1      -0.819   1.352  -0.014  0.00  0.00    -0.004 A 
ENDROOT
TORSDOF 0
ENDMDL
