MODEL 1
REMARK minimizedAffinity -3.92884803
REMARK minimizedRMSD -1
REMARK  0 active torsions:
REMARK  status: ('A' for Active; 'I' for Inactive)
ROOT
ATOM      1  C   UNL d   1       0.319  -0.528  -0.700  0.00  0.00     0.172 C 
ATOM      2  N   UNL d   1      -0.126   0.561   0.137  0.00  0.00    -0.070 N 
ATOM      3  C1  UNL d   1       0.005   0.627   1.498  0.00  0.00    -0.004 A 
ATOM      4  C2  UNL d   1      -0.542   1.819   1.918  0.00  0.00    -0.047 A 
ATOM      5  C3  UNL d   1      -1.021   2.494   0.769  0.00  0.00    -0.047 A 
ATOM      6  C4  UNL d   1      -0.750   1.692  -0.319  0.00  0.00    -0.004 A 
ENDROOT
TORSDOF 0
ENDMDL
