MODEL 1
REMARK minimizedAffinity -2.97352839
REMARK minimizedRMSD -1
REMARK  0 active torsions:
REMARK  status: ('A' for Active; 'I' for Inactive)
ROOT
ATOM      1  C   UNL d   1      -0.865   3.352   0.829  0.00  0.00     0.172 C 
ATOM      2  N   UNL d   1      -0.419   1.983   0.938  0.00  0.00    -0.070 N 
ATOM      3  C1  UNL d   1      -0.430   1.057  -0.071  0.00  0.00    -0.004 A 
ATOM      4  C2  UNL d   1       0.073  -0.123   0.433  0.00  0.00    -0.047 A 
ATOM      5  C3  UNL d   1       0.397   0.101   1.792  0.00  0.00    -0.047 A 
ATOM      6  C4  UNL d   1       0.082   1.413   2.079  0.00  0.00    -0.004 A 
ENDROOT
TORSDOF 0
ENDMDL
