MODEL 1
REMARK minimizedAffinity -3.96215439
REMARK minimizedRMSD -1
REMARK  0 active torsions:
REMARK  status: ('A' for Active; 'I' for Inactive)
ROOT
ATOM      1  C   UNL d   1       0.572  -0.169   1.203  0.00  0.00     0.172 C 
ATOM      2  N   UNL d   1      -0.151   1.075   1.081  0.00  0.00    -0.070 N 
ATOM      3  C1  UNL d   1      -0.208   2.062   2.028  0.00  0.00    -0.004 A 
ATOM      4  C2  UNL d   1      -0.995   3.079   1.532  0.00  0.00    -0.047 A 
ATOM      5  C3  UNL d   1      -1.427   2.689   0.242  0.00  0.00    -0.047 A 
ATOM      6  C4  UNL d   1      -0.890   1.444  -0.012  0.00  0.00    -0.004 A 
ENDROOT
TORSDOF 0
ENDMDL
