MODEL 1
REMARK minimizedAffinity -4.097929
REMARK minimizedRMSD -1
REMARK  0 active torsions:
REMARK  status: ('A' for Active; 'I' for Inactive)
ROOT
ATOM      1  C   UNL d   1       0.401   0.444  -0.717  0.00  0.00     0.172 C 
ATOM      2  N   UNL d   1      -0.077   1.612  -0.014  0.00  0.00    -0.070 N 
ATOM      3  C1  UNL d   1      -0.467   1.650   1.298  0.00  0.00    -0.004 A 
ATOM      4  C2  UNL d   1      -0.852   2.941   1.586  0.00  0.00    -0.047 A 
ATOM      5  C3  UNL d   1      -0.689   3.706   0.406  0.00  0.00    -0.047 A 
ATOM      6  C4  UNL d   1      -0.208   2.858  -0.569  0.00  0.00    -0.004 A 
ENDROOT
TORSDOF 0
ENDMDL
