MODEL 1
REMARK minimizedAffinity -3.98466921
REMARK minimizedRMSD -1
REMARK  0 active torsions:
REMARK  status: ('A' for Active; 'I' for Inactive)
ROOT
ATOM      1  C   UNL d   1       0.193  -0.118   1.473  0.00  0.00     0.172 C 
ATOM      2  N   UNL d   1      -0.336   1.196   1.191  0.00  0.00    -0.070 N 
ATOM      3  C1  UNL d   1      -0.558   2.183   2.115  0.00  0.00    -0.004 A 
ATOM      4  C2  UNL d   1      -1.065   3.278   1.449  0.00  0.00    -0.047 A 
ATOM      5  C3  UNL d   1      -1.151   2.937   0.078  0.00  0.00    -0.047 A 
ATOM      6  C4  UNL d   1      -0.693   1.643  -0.053  0.00  0.00    -0.004 A 
ENDROOT
TORSDOF 0
ENDMDL
