MODEL 1
REMARK minimizedAffinity -4.16862679
REMARK minimizedRMSD -1
REMARK  0 active torsions:
REMARK  status: ('A' for Active; 'I' for Inactive)
ROOT
ATOM      1  C   UNL d   1       0.056  -0.464  -0.359  0.00  0.00     0.172 C 
ATOM      2  N   UNL d   1      -0.302   0.900  -0.046  0.00  0.00    -0.070 N 
ATOM      3  C1  UNL d   1      -0.464   1.911  -0.955  0.00  0.00    -0.004 A 
ATOM      4  C2  UNL d   1      -0.804   3.052  -0.261  0.00  0.00    -0.047 A 
ATOM      5  C3  UNL d   1      -0.847   2.715   1.113  0.00  0.00    -0.047 A 
ATOM      6  C4  UNL d   1      -0.533   1.376   1.217  0.00  0.00    -0.004 A 
ENDROOT
TORSDOF 0
ENDMDL
