MODEL 1
REMARK minimizedAffinity -1.23007214
REMARK minimizedRMSD -1
REMARK  0 active torsions:
REMARK  status: ('A' for Active; 'I' for Inactive)
ROOT
ATOM      1  C1  BNZ d   1       0.878   4.430  -5.107  0.00  0.00     0.000 A 
ATOM      2  C2  BNZ d   1       0.016   5.009  -6.000  0.00  0.00     0.000 A 
ATOM      3  C3  BNZ d   1      -1.290   5.233  -5.667  0.00  0.00     0.000 A 
ATOM      4  C4  BNZ d   1      -1.743   4.842  -4.458  0.00  0.00     0.000 A 
ATOM      5  C5  BNZ d   1      -0.889   4.249  -3.550  0.00  0.00     0.000 A 
ATOM      6  C6  BNZ d   1       0.435   4.060  -3.874  0.00  0.00     0.000 A 
ENDROOT
TORSDOF 0
ENDMDL
