MODEL 1
REMARK minimizedAffinity 0.193534553
REMARK minimizedRMSD -1
REMARK  0 active torsions:
REMARK  status: ('A' for Active; 'I' for Inactive)
ROOT
ATOM      1  C1  BNZ d   1       0.139   4.950  -5.999  0.00  0.00     0.000 A 
ATOM      2  C2  BNZ d   1       0.914   4.669  -4.906  0.00  0.00     0.000 A 
ATOM      3  C3  BNZ d   1       0.438   4.868  -3.640  0.00  0.00     0.000 A 
ATOM      4  C4  BNZ d   1      -0.797   5.384  -3.470  0.00  0.00     0.000 A 
ATOM      5  C5  BNZ d   1      -1.587   5.682  -4.562  0.00  0.00     0.000 A 
ATOM      6  C6  BNZ d   1      -1.118   5.444  -5.834  0.00  0.00     0.000 A 
ENDROOT
TORSDOF 0
ENDMDL
