MODEL 1
REMARK minimizedAffinity 1.89047766
REMARK minimizedRMSD -1
REMARK  0 active torsions:
REMARK  status: ('A' for Active; 'I' for Inactive)
ROOT
ATOM      1  C1  BNZ d   1      -0.780   4.944  -5.830  0.00  0.00     0.000 A 
ATOM      2  C2  BNZ d   1      -0.691   4.028  -4.816  0.00  0.00     0.000 A 
ATOM      3  C3  BNZ d   1       0.370   4.039  -3.954  0.00  0.00     0.000 A 
ATOM      4  C4  BNZ d   1       1.359   4.939  -4.132  0.00  0.00     0.000 A 
ATOM      5  C5  BNZ d   1       1.288   5.862  -5.156  0.00  0.00     0.000 A 
ATOM      6  C6  BNZ d   1       0.200   5.873  -5.997  0.00  0.00     0.000 A 
ENDROOT
TORSDOF 0
ENDMDL
