MODEL 1
REMARK minimizedAffinity -1.08047938
REMARK minimizedRMSD -1
REMARK  0 active torsions:
REMARK  status: ('A' for Active; 'I' for Inactive)
ROOT
ATOM      1  C1  BNZ d   1      -5.998   2.992  -0.962  0.00  0.00     0.000 A 
ATOM      2  C2  BNZ d   1      -5.074   3.360  -0.020  0.00  0.00     0.000 A 
ATOM      3  C3  BNZ d   1      -4.105   4.279  -0.312  0.00  0.00     0.000 A 
ATOM      4  C4  BNZ d   1      -4.036   4.798  -1.555  0.00  0.00     0.000 A 
ATOM      5  C5  BNZ d   1      -4.954   4.430  -2.518  0.00  0.00     0.000 A 
ATOM      6  C6  BNZ d   1      -5.952   3.534  -2.209  0.00  0.00     0.000 A 
ENDROOT
TORSDOF 0
ENDMDL
