MODEL 1
REMARK minimizedAffinity 4.14473534
REMARK minimizedRMSD -1
REMARK  0 active torsions:
REMARK  status: ('A' for Active; 'I' for Inactive)
ROOT
ATOM      1  C1  BNZ d   1      -1.095  -4.805  -0.760  0.00  0.00     0.000 A 
ATOM      2  C2  BNZ d   1       0.221  -5.126  -0.961  0.00  0.00     0.000 A 
ATOM      3  C3  BNZ d   1       1.177  -4.763  -0.053  0.00  0.00     0.000 A 
ATOM      4  C4  BNZ d   1       0.821  -4.047   1.033  0.00  0.00     0.000 A 
ATOM      5  C5  BNZ d   1      -0.500  -3.707   1.244  0.00  0.00     0.000 A 
ATOM      6  C6  BNZ d   1      -1.465  -4.108   0.348  0.00  0.00     0.000 A 
ENDROOT
TORSDOF 0
ENDMDL
