MODEL 1
REMARK minimizedAffinity 8.31686783
REMARK minimizedRMSD -1
REMARK  0 active torsions:
REMARK  status: ('A' for Active; 'I' for Inactive)
ROOT
ATOM      1  C1  BNZ d   1       2.288   2.403  -1.879  0.00  0.00     0.000 A 
ATOM      2  C2  BNZ d   1       3.415   2.751  -2.575  0.00  0.00     0.000 A 
ATOM      3  C3  BNZ d   1       4.552   1.997  -2.488  0.00  0.00     0.000 A 
ATOM      4  C4  BNZ d   1       4.573   0.920  -1.676  0.00  0.00     0.000 A 
ATOM      5  C5  BNZ d   1       3.447   0.562  -0.961  0.00  0.00     0.000 A 
ATOM      6  C6  BNZ d   1       2.293   1.301  -1.081  0.00  0.00     0.000 A 
ENDROOT
TORSDOF 0
ENDMDL
