MODEL 1
REMARK minimizedAffinity 8.42857647
REMARK minimizedRMSD -1
REMARK  0 active torsions:
REMARK  status: ('A' for Active; 'I' for Inactive)
ROOT
ATOM      1  C1  BNZ d   1       2.798  -2.020   2.592  0.00  0.00     0.000 A 
ATOM      2  C2  BNZ d   1       3.858  -1.880   1.737  0.00  0.00     0.000 A 
ATOM      3  C3  BNZ d   1       3.918  -0.832   0.862  0.00  0.00     0.000 A 
ATOM      4  C4  BNZ d   1       2.900   0.051   0.814  0.00  0.00     0.000 A 
ATOM      5  C5  BNZ d   1       1.819  -0.082   1.662  0.00  0.00     0.000 A 
ATOM      6  C6  BNZ d   1       1.781  -1.116   2.569  0.00  0.00     0.000 A 
ENDROOT
TORSDOF 0
ENDMDL
