MODEL 1
REMARK minimizedAffinity 0.772582293
REMARK minimizedRMSD -1
REMARK  0 active torsions:
REMARK  status: ('A' for Active; 'I' for Inactive)
ROOT
ATOM      1  C1  BNZ d   1      -3.003  -5.840  -4.819  0.00  0.00     0.000 A 
ATOM      2  C2  BNZ d   1      -3.704  -5.709  -3.650  0.00  0.00     0.000 A 
ATOM      3  C3  BNZ d   1      -5.071  -5.747  -3.645  0.00  0.00     0.000 A 
ATOM      4  C4  BNZ d   1      -5.735  -5.875  -4.812  0.00  0.00     0.000 A 
ATOM      5  C5  BNZ d   1      -5.042  -5.999  -6.000  0.00  0.00     0.000 A 
ATOM      6  C6  BNZ d   1      -3.666  -6.000  -5.997  0.00  0.00     0.000 A 
ENDROOT
TORSDOF 0
ENDMDL
