MODEL 1
REMARK minimizedAffinity -0.876352668
REMARK minimizedRMSD -1
REMARK  0 active torsions:
REMARK  status: ('A' for Active; 'I' for Inactive)
ROOT
ATOM      1  C1  BNZ d   1       1.409   1.115  -1.495  0.00  0.00     0.000 A 
ATOM      2  C2  BNZ d   1       1.046   1.003  -0.179  0.00  0.00     0.000 A 
ATOM      3  C3  BNZ d   1       1.597   1.817   0.771  0.00  0.00     0.000 A 
ATOM      4  C4  BNZ d   1       2.538   2.714   0.411  0.00  0.00     0.000 A 
ATOM      5  C5  BNZ d   1       2.921   2.832  -0.911  0.00  0.00     0.000 A 
ATOM      6  C6  BNZ d   1       2.336   2.038  -1.870  0.00  0.00     0.000 A 
ENDROOT
TORSDOF 0
ENDMDL
