MODEL 1
REMARK minimizedAffinity -2.94508958
REMARK minimizedRMSD -1
REMARK  0 active torsions:
REMARK  status: ('A' for Active; 'I' for Inactive)
ROOT
ATOM      1  C1  BNZ d   1       2.322   2.604  -2.190  0.00  0.00     0.000 A 
ATOM      2  C2  BNZ d   1       3.532   2.062  -2.530  0.00  0.00     0.000 A 
ATOM      3  C3  BNZ d   1       4.222   2.518  -3.619  0.00  0.00     0.000 A 
ATOM      4  C4  BNZ d   1       3.684   3.486  -4.388  0.00  0.00     0.000 A 
ATOM      5  C5  BNZ d   1       2.460   4.036  -4.063  0.00  0.00     0.000 A 
ATOM      6  C6  BNZ d   1       1.786   3.602  -2.945  0.00  0.00     0.000 A 
ENDROOT
TORSDOF 0
ENDMDL
