MODEL 1
REMARK minimizedAffinity 3.23132086
REMARK minimizedRMSD -1
REMARK  0 active torsions:
REMARK  status: ('A' for Active; 'I' for Inactive)
ROOT
ATOM      1  C1  BNZ d   1      -5.970   1.519  -4.897  0.00  0.00     0.000 A 
ATOM      2  C2  BNZ d   1      -5.965   0.620  -5.930  0.00  0.00     0.000 A 
ATOM      3  C3  BNZ d   1      -5.997  -0.725  -5.687  0.00  0.00     0.000 A 
ATOM      4  C4  BNZ d   1      -5.994  -1.169  -4.414  0.00  0.00     0.000 A 
ATOM      5  C5  BNZ d   1      -5.990  -0.275  -3.362  0.00  0.00     0.000 A 
ATOM      6  C6  BNZ d   1      -5.996   1.078  -3.610  0.00  0.00     0.000 A 
ENDROOT
TORSDOF 0
ENDMDL
