MODEL 1
REMARK minimizedAffinity 6.65841627
REMARK minimizedRMSD -1
REMARK  0 active torsions:
REMARK  status: ('A' for Active; 'I' for Inactive)
ROOT
ATOM      1  C1  BNZ d   1      -1.492  -0.895   3.080  0.00  0.00     0.000 A 
ATOM      2  C2  BNZ d   1      -0.800  -0.749   1.907  0.00  0.00     0.000 A 
ATOM      3  C3  BNZ d   1      -0.864   0.418   1.197  0.00  0.00     0.000 A 
ATOM      4  C4  BNZ d   1      -1.650   1.421   1.639  0.00  0.00     0.000 A 
ATOM      5  C5  BNZ d   1      -2.360   1.285   2.815  0.00  0.00     0.000 A 
ATOM      6  C6  BNZ d   1      -2.263   0.124   3.547  0.00  0.00     0.000 A 
ENDROOT
TORSDOF 0
ENDMDL
