MODEL 1
REMARK minimizedAffinity -1.09255111
REMARK minimizedRMSD -1
REMARK  0 active torsions:
REMARK  status: ('A' for Active; 'I' for Inactive)
ROOT
ATOM      1  C1  BNZ d   1       3.914   2.880  -3.628  0.00  0.00     0.000 A 
ATOM      2  C2  BNZ d   1       3.361   3.818  -4.459  0.00  0.00     0.000 A 
ATOM      3  C3  BNZ d   1       2.046   4.171  -4.339  0.00  0.00     0.000 A 
ATOM      4  C4  BNZ d   1       1.276   3.557  -3.418  0.00  0.00     0.000 A 
ATOM      5  C5  BNZ d   1       1.816   2.603  -2.579  0.00  0.00     0.000 A 
ATOM      6  C6  BNZ d   1       3.150   2.278  -2.676  0.00  0.00     0.000 A 
ENDROOT
TORSDOF 0
ENDMDL
