MODEL 1
REMARK minimizedAffinity 6.65372086
REMARK minimizedRMSD -1
REMARK  0 active torsions:
REMARK  status: ('A' for Active; 'I' for Inactive)
ROOT
ATOM      1  C1  DEN d   1       1.593  -0.046   1.822  0.00  0.00     0.130 A 
ATOM      2  C2  DEN d   1       2.103  -1.391   1.570  0.00  0.00    -0.031 A 
ATOM      3  C3  DEN d   1       1.915  -1.690   0.137  0.00  0.00     0.027 A 
ATOM      4  C4  DEN d   1       0.892  -0.207  -1.709  0.00  0.00     0.027 A 
ATOM      5  C5  DEN d   1       0.309   1.012  -1.975  0.00  0.00    -0.003 A 
ATOM      6  C6  DEN d   1       0.084   1.943  -0.996  0.00  0.00     0.001 A 
ATOM      7  C7  DEN d   1       0.485   1.687   0.289  0.00  0.00     0.017 A 
ATOM      8  C8  DEN d   1       1.067   0.457   0.566  0.00  0.00    -0.094 A 
ATOM      9  C9  DEN d   1       1.297  -0.465  -0.440  0.00  0.00    -0.072 A 
ENDROOT
TORSDOF 0
ENDMDL
