MODEL 1
REMARK minimizedAffinity 8.17274857
REMARK minimizedRMSD -1
REMARK  0 active torsions:
REMARK  status: ('A' for Active; 'I' for Inactive)
ROOT
ATOM      1  C1  DEN d   1      -2.414   3.652  -1.982  0.00  0.00     0.130 A 
ATOM      2  C2  DEN d   1      -2.869   2.312  -1.623  0.00  0.00    -0.031 A 
ATOM      3  C3  DEN d   1      -1.845   1.701  -0.751  0.00  0.00     0.027 A 
ATOM      4  C4  DEN d   1       0.385   2.698   0.077  0.00  0.00     0.027 A 
ATOM      5  C5  DEN d   1       1.210   3.800   0.026  0.00  0.00    -0.003 A 
ATOM      6  C6  DEN d   1       0.902   4.908  -0.718  0.00  0.00     0.001 A 
ATOM      7  C7  DEN d   1      -0.281   4.956  -1.407  0.00  0.00     0.017 A 
ATOM      8  C8  DEN d   1      -1.113   3.846  -1.367  0.00  0.00    -0.094 A 
ATOM      9  C9  DEN d   1      -0.791   2.740  -0.599  0.00  0.00    -0.072 A 
ENDROOT
TORSDOF 0
ENDMDL
