MODEL 1
REMARK minimizedAffinity 3.68039823
REMARK minimizedRMSD -1
REMARK  0 active torsions:
REMARK  status: ('A' for Active; 'I' for Inactive)
ROOT
ATOM      1  C1  DEN d   1       0.423  -0.566  -2.778  0.00  0.00     0.130 A 
ATOM      2  C2  DEN d   1      -0.685   0.095  -3.462  0.00  0.00    -0.031 A 
ATOM      3  C3  DEN d   1      -1.121   1.235  -2.630  0.00  0.00     0.027 A 
ATOM      4  C4  DEN d   1      -0.189   2.038  -0.363  0.00  0.00     0.027 A 
ATOM      5  C5  DEN d   1       0.744   1.788   0.619  0.00  0.00    -0.003 A 
ATOM      6  C6  DEN d   1       1.605   0.725   0.555  0.00  0.00     0.001 A 
ATOM      7  C7  DEN d   1       1.582  -0.102  -0.537  0.00  0.00     0.017 A 
ATOM      8  C8  DEN d   1       0.639   0.139  -1.528  0.00  0.00    -0.094 A 
ATOM      9  C9  DEN d   1      -0.215   1.226  -1.450  0.00  0.00    -0.072 A 
ENDROOT
TORSDOF 0
ENDMDL
