MODEL 1
REMARK minimizedAffinity 8.36769009
REMARK minimizedRMSD -1
REMARK  0 active torsions:
REMARK  status: ('A' for Active; 'I' for Inactive)
ROOT
ATOM      1  C1  DEN d   1      -3.202   4.134  -6.000  0.00  0.00     0.130 A 
ATOM      2  C2  DEN d   1      -4.255   4.665  -5.138  0.00  0.00    -0.031 A 
ATOM      3  C3  DEN d   1      -4.461   3.713  -4.028  0.00  0.00     0.027 A 
ATOM      4  C4  DEN d   1      -3.255   1.481  -3.561  0.00  0.00     0.027 A 
ATOM      5  C5  DEN d   1      -2.296   0.606  -4.020  0.00  0.00    -0.003 A 
ATOM      6  C6  DEN d   1      -1.600   0.827  -5.179  0.00  0.00     0.001 A 
ATOM      7  C7  DEN d   1      -1.823   1.973  -5.896  0.00  0.00     0.017 A 
ATOM      8  C8  DEN d   1      -2.794   2.856  -5.444  0.00  0.00    -0.094 A 
ATOM      9  C9  DEN d   1      -3.478   2.621  -4.263  0.00  0.00    -0.072 A 
ENDROOT
TORSDOF 0
ENDMDL
