MODEL 1
REMARK minimizedAffinity 2.65332842
REMARK minimizedRMSD -1
REMARK  0 active torsions:
REMARK  status: ('A' for Active; 'I' for Inactive)
ROOT
ATOM      1  C1  DEN d   1      -3.625   2.288   0.562  0.00  0.00     0.130 A 
ATOM      2  C2  DEN d   1      -4.846   1.491   0.463  0.00  0.00    -0.031 A 
ATOM      3  C3  DEN d   1      -5.993   2.378   0.741  0.00  0.00     0.027 A 
ATOM      4  C4  DEN d   1      -6.000   4.894   1.307  0.00  0.00     0.027 A 
ATOM      5  C5  DEN d   1      -5.205   6.000   1.516  0.00  0.00    -0.003 A 
ATOM      6  C6  DEN d   1      -3.838   5.939   1.456  0.00  0.00     0.001 A 
ATOM      7  C7  DEN d   1      -3.225   4.756   1.135  0.00  0.00     0.017 A 
ATOM      8  C8  DEN d   1      -4.019   3.636   0.930  0.00  0.00    -0.094 A 
ATOM      9  C9  DEN d   1      -5.400   3.721   0.983  0.00  0.00    -0.072 A 
ENDROOT
TORSDOF 0
ENDMDL
