MODEL 1
REMARK minimizedAffinity 3.24462581
REMARK minimizedRMSD -1
REMARK  0 active torsions:
REMARK  status: ('A' for Active; 'I' for Inactive)
ROOT
ATOM      1  C1  DEN d   1      -4.749   2.558  -3.480  0.00  0.00     0.130 A 
ATOM      2  C2  DEN d   1      -5.970   2.320  -4.246  0.00  0.00    -0.031 A 
ATOM      3  C3  DEN d   1      -6.000   3.279  -5.368  0.00  0.00     0.027 A 
ATOM      4  C4  DEN d   1      -4.280   5.096  -5.996  0.00  0.00     0.027 A 
ATOM      5  C5  DEN d   1      -3.088   5.685  -5.637  0.00  0.00    -0.003 A 
ATOM      6  C6  DEN d   1      -2.389   5.299  -4.524  0.00  0.00     0.001 A 
ATOM      7  C7  DEN d   1      -2.853   4.265  -3.755  0.00  0.00     0.017 A 
ATOM      8  C8  DEN d   1      -4.059   3.671  -4.106  0.00  0.00    -0.094 A 
ATOM      9  C9  DEN d   1      -4.745   4.067  -5.242  0.00  0.00    -0.072 A 
ENDROOT
TORSDOF 0
ENDMDL
