MODEL 1
REMARK minimizedAffinity 11.8784809
REMARK minimizedRMSD -1
REMARK  0 active torsions:
REMARK  status: ('A' for Active; 'I' for Inactive)
ROOT
ATOM      1  C1  DEN d   1       0.007   4.982  -1.324  0.00  0.00     0.130 A 
ATOM      2  C2  DEN d   1       1.126   5.859  -0.993  0.00  0.00    -0.031 A 
ATOM      3  C3  DEN d   1       2.031   5.122  -0.087  0.00  0.00     0.027 A 
ATOM      4  C4  DEN d   1       1.810   2.719   0.824  0.00  0.00     0.027 A 
ATOM      5  C5  DEN d   1       1.022   1.589   0.831  0.00  0.00    -0.003 A 
ATOM      6  C6  DEN d   1      -0.167   1.523   0.153  0.00  0.00     0.001 A 
ATOM      7  C7  DEN d   1      -0.580   2.592  -0.598  0.00  0.00     0.017 A 
ATOM      8  C8  DEN d   1       0.205   3.738  -0.604  0.00  0.00    -0.094 A 
ATOM      9  C9  DEN d   1       1.410   3.780   0.078  0.00  0.00    -0.072 A 
ENDROOT
TORSDOF 0
ENDMDL
