MODEL 1
REMARK minimizedAffinity 14.5514116
REMARK minimizedRMSD -1
REMARK  0 active torsions:
REMARK  status: ('A' for Active; 'I' for Inactive)
ROOT
ATOM      1  C1  DEN d   1       1.868   4.916  -0.895  0.00  0.00     0.130 A 
ATOM      2  C2  DEN d   1       1.139   5.998  -1.551  0.00  0.00    -0.031 A 
ATOM      3  C3  DEN d   1      -0.306   5.739  -1.389  0.00  0.00     0.027 A 
ATOM      4  C4  DEN d   1      -1.478   3.781  -0.186  0.00  0.00     0.027 A 
ATOM      5  C5  DEN d   1      -1.278   2.612   0.513  0.00  0.00    -0.003 A 
ATOM      6  C6  DEN d   1      -0.025   2.114   0.761  0.00  0.00     0.001 A 
ATOM      7  C7  DEN d   1       1.077   2.813   0.345  0.00  0.00     0.017 A 
ATOM      8  C8  DEN d   1       0.882   3.990  -0.368  0.00  0.00    -0.094 A 
ATOM      9  C9  DEN d   1      -0.391   4.482  -0.597  0.00  0.00    -0.072 A 
ENDROOT
TORSDOF 0
ENDMDL
