MODEL 1
REMARK minimizedAffinity 9.06332207
REMARK minimizedRMSD -1
REMARK  0 active torsions:
REMARK  status: ('A' for Active; 'I' for Inactive)
ROOT
ATOM      1  C1  DEN d   1      -1.396   2.094  -4.853  0.00  0.00     0.130 A 
ATOM      2  C2  DEN d   1      -2.262   0.956  -4.557  0.00  0.00    -0.031 A 
ATOM      3  C3  DEN d   1      -3.636   1.464  -4.374  0.00  0.00     0.027 A 
ATOM      4  C4  DEN d   1      -4.504   3.889  -4.525  0.00  0.00     0.027 A 
ATOM      5  C5  DEN d   1      -4.140   5.199  -4.741  0.00  0.00    -0.003 A 
ATOM      6  C6  DEN d   1      -2.842   5.568  -4.975  0.00  0.00     0.001 A 
ATOM      7  C7  DEN d   1      -1.866   4.609  -5.042  0.00  0.00     0.017 A 
ATOM      8  C8  DEN d   1      -2.223   3.287  -4.817  0.00  0.00    -0.094 A 
ATOM      9  C9  DEN d   1      -3.543   2.933  -4.595  0.00  0.00    -0.072 A 
ENDROOT
TORSDOF 0
ENDMDL
