MODEL 1
REMARK minimizedAffinity 7.49639082
REMARK minimizedRMSD -1
REMARK  0 active torsions:
REMARK  status: ('A' for Active; 'I' for Inactive)
ROOT
ATOM      1  C1  DEN d   1       0.131   2.245   0.950  0.00  0.00     0.130 A 
ATOM      2  C2  DEN d   1      -0.209   2.947  -0.285  0.00  0.00    -0.031 A 
ATOM      3  C3  DEN d   1       0.173   2.084  -1.421  0.00  0.00     0.027 A 
ATOM      4  C4  DEN d   1       1.247  -0.261  -1.388  0.00  0.00     0.027 A 
ATOM      5  C5  DEN d   1       1.731  -1.263  -0.575  0.00  0.00    -0.003 A 
ATOM      6  C6  DEN d   1       1.747  -1.152   0.790  0.00  0.00     0.001 A 
ATOM      7  C7  DEN d   1       1.228  -0.033   1.386  0.00  0.00     0.017 A 
ATOM      8  C8  DEN d   1       0.745   0.984   0.574  0.00  0.00    -0.094 A 
ATOM      9  C9  DEN d   1       0.726   0.848  -0.804  0.00  0.00    -0.072 A 
ENDROOT
TORSDOF 0
ENDMDL
