MODEL 1
REMARK minimizedAffinity -0.127611071
REMARK minimizedRMSD -1
REMARK  0 active torsions:
REMARK  status: ('A' for Active; 'I' for Inactive)
ROOT
ATOM      1  O1  BZF d   1      -0.823  -1.530  -0.775  0.00  0.00    -0.204 OA
ATOM      2  C2  BZF d   1      -0.873  -1.052   0.520  0.00  0.00     0.174 A 
ATOM      3  C3  BZF d   1      -1.692   0.017   0.604  0.00  0.00    -0.012 A 
ATOM      4  C3A BZF d   1      -2.256   0.162  -0.703  0.00  0.00    -0.107 A 
ATOM      5  C4  BZF d   1      -3.154   1.036  -1.245  0.00  0.00     0.055 A 
ATOM      6  C5  BZF d   1      -3.438   0.953  -2.572  0.00  0.00    -0.016 A 
ATOM      7  C6  BZF d   1      -2.839   0.013  -3.385  0.00  0.00     0.022 A 
ATOM      8  C7  BZF d   1      -1.945  -0.878  -2.891  0.00  0.00     0.029 A 
ATOM      9  C7A BZF d   1      -1.681  -0.818  -1.545  0.00  0.00     0.058 A 
ENDROOT
TORSDOF 0
ENDMDL
