MODEL 1
REMARK minimizedAffinity -0.632338583
REMARK minimizedRMSD -1
REMARK  0 active torsions:
REMARK  status: ('A' for Active; 'I' for Inactive)
ROOT
ATOM      1  O1  BZF d   1      -0.728  -0.114  -2.335  0.00  0.00    -0.204 OA
ATOM      2  C2  BZF d   1      -2.025  -0.272  -1.887  0.00  0.00     0.174 A 
ATOM      3  C3  BZF d   1      -2.138   0.122  -0.602  0.00  0.00    -0.012 A 
ATOM      4  C3A BZF d   1      -0.851   0.638  -0.252  0.00  0.00    -0.107 A 
ATOM      5  C4  BZF d   1      -0.339   1.193   0.887  0.00  0.00     0.055 A 
ATOM      6  C5  BZF d   1       0.978   1.527   0.925  0.00  0.00    -0.016 A 
ATOM      7  C6  BZF d   1       1.811   1.316  -0.154  0.00  0.00     0.022 A 
ATOM      8  C7  BZF d   1       1.349   0.774  -1.307  0.00  0.00     0.029 A 
ATOM      9  C7A BZF d   1       0.011   0.465  -1.359  0.00  0.00     0.058 A 
ENDROOT
TORSDOF 0
ENDMDL
