MODEL 1
REMARK minimizedAffinity -6.06312084
REMARK minimizedRMSD -1
REMARK  0 active torsions:
REMARK  status: ('A' for Active; 'I' for Inactive)
ROOT
ATOM      1  O1  BZF d   1      -1.038  -1.098   0.916  0.00  0.00    -0.204 OA
ATOM      2  C2  BZF d   1      -0.482  -2.278   1.373  0.00  0.00     0.174 A 
ATOM      3  C3  BZF d   1       0.860  -2.258   1.239  0.00  0.00    -0.012 A 
ATOM      4  C3A BZF d   1       1.170  -0.950   0.749  0.00  0.00    -0.107 A 
ATOM      5  C4  BZF d   1       2.339  -0.319   0.433  0.00  0.00     0.055 A 
ATOM      6  C5  BZF d   1       2.292   0.935  -0.089  0.00  0.00    -0.016 A 
ATOM      7  C6  BZF d   1       1.095   1.584  -0.313  0.00  0.00     0.022 A 
ATOM      8  C7  BZF d   1      -0.090   1.001  -0.010  0.00  0.00     0.029 A 
ATOM      9  C7A BZF d   1      -0.044  -0.254   0.549  0.00  0.00     0.058 A 
ENDROOT
TORSDOF 0
ENDMDL
