MODEL 1
REMARK minimizedAffinity -1.83055568
REMARK minimizedRMSD -1
REMARK  0 active torsions:
REMARK  status: ('A' for Active; 'I' for Inactive)
ROOT
ATOM      1  O1  BZF d   1      -0.531   0.798  -0.003  0.00  0.00    -0.204 OA
ATOM      2  C2  BZF d   1       0.363  -0.163   0.426  0.00  0.00     0.174 A 
ATOM      3  C3  BZF d   1       0.032  -1.376  -0.060  0.00  0.00    -0.012 A 
ATOM      4  C3A BZF d   1      -1.090  -1.145  -0.918  0.00  0.00    -0.107 A 
ATOM      5  C4  BZF d   1      -1.857  -1.959  -1.701  0.00  0.00     0.055 A 
ATOM      6  C5  BZF d   1      -2.923  -1.431  -2.358  0.00  0.00    -0.016 A 
ATOM      7  C6  BZF d   1      -3.253  -0.096  -2.250  0.00  0.00     0.022 A 
ATOM      8  C7  BZF d   1      -2.519   0.752  -1.489  0.00  0.00     0.029 A 
ATOM      9  C7A BZF d   1      -1.422   0.228  -0.850  0.00  0.00     0.058 A 
ENDROOT
TORSDOF 0
ENDMDL
