MODEL 1
REMARK minimizedAffinity -1.17341793
REMARK minimizedRMSD -1
REMARK  0 active torsions:
REMARK  status: ('A' for Active; 'I' for Inactive)
ROOT
ATOM      1  O1  BZF d   1      -3.257   3.167  -4.003  0.00  0.00    -0.204 OA
ATOM      2  C2  BZF d   1      -3.401   4.203  -3.100  0.00  0.00     0.174 A 
ATOM      3  C3  BZF d   1      -3.328   3.746  -1.833  0.00  0.00    -0.012 A 
ATOM      4  C3A BZF d   1      -3.035   2.351  -1.952  0.00  0.00    -0.107 A 
ATOM      5  C4  BZF d   1      -2.828   1.354  -1.041  0.00  0.00     0.055 A 
ATOM      6  C5  BZF d   1      -2.636   0.084  -1.485  0.00  0.00    -0.016 A 
ATOM      7  C6  BZF d   1      -2.650  -0.225  -2.829  0.00  0.00     0.022 A 
ATOM      8  C7  BZF d   1      -2.846   0.731  -3.770  0.00  0.00     0.029 A 
ATOM      9  C7A BZF d   1      -3.007   2.020  -3.326  0.00  0.00     0.058 A 
ENDROOT
TORSDOF 0
ENDMDL
