MODEL 1
REMARK minimizedAffinity -0.706415594
REMARK minimizedRMSD -1
REMARK  0 active torsions:
REMARK  status: ('A' for Active; 'I' for Inactive)
ROOT
ATOM      1  O1  BZF d   1      -0.711  -0.680   0.803  0.00  0.00    -0.204 OA
ATOM      2  C2  BZF d   1      -1.461  -0.480  -0.340  0.00  0.00     0.174 A 
ATOM      3  C3  BZF d   1      -0.906   0.473  -1.116  0.00  0.00    -0.012 A 
ATOM      4  C3A BZF d   1       0.313   0.830  -0.459  0.00  0.00    -0.107 A 
ATOM      5  C4  BZF d   1       1.313   1.713  -0.751  0.00  0.00     0.055 A 
ATOM      6  C5  BZF d   1       2.331   1.876   0.135  0.00  0.00    -0.016 A 
ATOM      7  C6  BZF d   1       2.378   1.176   1.323  0.00  0.00     0.022 A 
ATOM      8  C7  BZF d   1       1.412   0.286   1.654  0.00  0.00     0.029 A 
ATOM      9  C7A BZF d   1       0.399   0.095   0.746  0.00  0.00     0.058 A 
ENDROOT
TORSDOF 0
ENDMDL
