MODEL 1
REMARK minimizedAffinity -5.90649223
REMARK minimizedRMSD -1
REMARK  0 active torsions:
REMARK  status: ('A' for Active; 'I' for Inactive)
ROOT
ATOM      1  O1  BZF d   1       0.223  -0.178  -0.081  0.00  0.00    -0.204 OA
ATOM      2  C2  BZF d   1      -1.050  -0.663   0.151  0.00  0.00     0.174 A 
ATOM      3  C3  BZF d   1      -1.014  -1.726   0.980  0.00  0.00    -0.012 A 
ATOM      4  C3A BZF d   1       0.359  -1.860   1.359  0.00  0.00    -0.107 A 
ATOM      5  C4  BZF d   1       1.026  -2.724   2.180  0.00  0.00     0.055 A 
ATOM      6  C5  BZF d   1       2.379  -2.632   2.277  0.00  0.00    -0.016 A 
ATOM      7  C6  BZF d   1       3.095  -1.692   1.565  0.00  0.00     0.022 A 
ATOM      8  C7  BZF d   1       2.477  -0.811   0.742  0.00  0.00     0.029 A 
ATOM      9  C7A BZF d   1       1.107  -0.880   0.667  0.00  0.00     0.058 A 
ENDROOT
TORSDOF 0
ENDMDL
