MODEL 1
REMARK minimizedAffinity -1.66126299
REMARK minimizedRMSD -1
REMARK  0 active torsions:
REMARK  status: ('A' for Active; 'I' for Inactive)
ROOT
ATOM      1  O1  BZF d   1      -1.802  -1.557   0.873  0.00  0.00    -0.204 OA
ATOM      2  C2  BZF d   1      -1.076  -2.457   1.629  0.00  0.00     0.174 A 
ATOM      3  C3  BZF d   1       0.240  -2.167   1.585  0.00  0.00    -0.012 A 
ATOM      4  C3A BZF d   1       0.334  -0.958   0.826  0.00  0.00    -0.107 A 
ATOM      5  C4  BZF d   1       1.379  -0.164   0.451  0.00  0.00     0.055 A 
ATOM      6  C5  BZF d   1       1.141   0.907  -0.351  0.00  0.00    -0.016 A 
ATOM      7  C6  BZF d   1      -0.128   1.210  -0.800  0.00  0.00     0.022 A 
ATOM      8  C7  BZF d   1      -1.197   0.454  -0.450  0.00  0.00     0.029 A 
ATOM      9  C7A BZF d   1      -0.964  -0.609   0.387  0.00  0.00     0.058 A 
ENDROOT
TORSDOF 0
ENDMDL
