MODEL 1
REMARK minimizedAffinity -5.46234894
REMARK minimizedRMSD -1
REMARK  0 active torsions:
REMARK  status: ('A' for Active; 'I' for Inactive)
ROOT
ATOM      1  O1  BZF d   1       2.154   0.578   0.357  0.00  0.00    -0.204 OA
ATOM      2  C2  BZF d   1       3.229  -0.176   0.785  0.00  0.00     0.174 A 
ATOM      3  C3  BZF d   1       2.815  -1.353   1.297  0.00  0.00    -0.012 A 
ATOM      4  C3A BZF d   1       1.398  -1.372   1.097  0.00  0.00    -0.107 A 
ATOM      5  C4  BZF d   1       0.422  -2.284   1.381  0.00  0.00     0.055 A 
ATOM      6  C5  BZF d   1      -0.874  -1.966   1.124  0.00  0.00    -0.016 A 
ATOM      7  C6  BZF d   1      -1.230  -0.745   0.590  0.00  0.00     0.022 A 
ATOM      8  C7  BZF d   1      -0.297   0.190   0.287  0.00  0.00     0.029 A 
ATOM      9  C7A BZF d   1       1.017  -0.141   0.515  0.00  0.00     0.058 A 
ENDROOT
TORSDOF 0
ENDMDL
