MODEL 1
REMARK minimizedAffinity -5.12105227
REMARK minimizedRMSD -1
REMARK  0 active torsions:
REMARK  status: ('A' for Active; 'I' for Inactive)
ROOT
ATOM      1  O1  BZF d   1      -0.571   0.049   0.713  0.00  0.00    -0.204 OA
ATOM      2  C2  BZF d   1      -0.467   1.234   0.010  0.00  0.00     0.174 A 
ATOM      3  C3  BZF d   1       0.825   1.537  -0.228  0.00  0.00    -0.012 A 
ATOM      4  C3A BZF d   1       1.572   0.429   0.283  0.00  0.00    -0.107 A 
ATOM      5  C4  BZF d   1       2.905   0.135   0.327  0.00  0.00     0.055 A 
ATOM      6  C5  BZF d   1       3.311  -0.996   0.961  0.00  0.00    -0.016 A 
ATOM      7  C6  BZF d   1       2.414  -1.852   1.566  0.00  0.00     0.022 A 
ATOM      8  C7  BZF d   1       1.082  -1.605   1.544  0.00  0.00     0.029 A 
ATOM      9  C7A BZF d   1       0.665  -0.480   0.875  0.00  0.00     0.058 A 
ENDROOT
TORSDOF 0
ENDMDL
