MODEL 1
REMARK minimizedAffinity 5.49963427
REMARK minimizedRMSD -1
REMARK  0 active torsions:
REMARK  status: ('A' for Active; 'I' for Inactive)
ROOT
ATOM      1  C   UNL d   1       2.172   1.697  -0.301  0.00  0.00     0.020 A 
ATOM      2  C1  UNL d   1       3.202   1.869   0.623  0.00  0.00     0.020 A 
ATOM      3  C2  UNL d   1       3.368   0.951   1.662  0.00  0.00     0.034 A 
ATOM      4  C3  UNL d   1       2.504  -0.144   1.779  0.00  0.00     0.017 A 
ATOM      5  C4  UNL d   1       1.471  -0.316   0.850  0.00  0.00     0.017 A 
ATOM      6  C5  UNL d   1       1.309   0.607  -0.188  0.00  0.00     0.034 A 
ATOM      7 Cl   UNL d   1       0.364  -1.641   0.929  0.00  0.00    -0.070 Cl
ATOM      8 Cl1  UNL d   1       2.768  -1.240   3.088  0.00  0.00    -0.070 Cl
ENDROOT
TORSDOF 0
ENDMDL
