MODEL 1
REMARK minimizedAffinity 7.77274132
REMARK minimizedRMSD -1
REMARK  0 active torsions:
REMARK  status: ('A' for Active; 'I' for Inactive)
ROOT
ATOM      1  C   UNL d   1      -5.676   2.783   2.159  0.00  0.00     0.020 A 
ATOM      2  C1  UNL d   1      -4.704   1.784   2.184  0.00  0.00     0.020 A 
ATOM      3  C2  UNL d   1      -4.053   1.473   3.380  0.00  0.00     0.034 A 
ATOM      4  C3  UNL d   1      -4.374   2.162   4.555  0.00  0.00     0.017 A 
ATOM      5  C4  UNL d   1      -5.350   3.165   4.529  0.00  0.00     0.017 A 
ATOM      6  C5  UNL d   1      -5.998   3.472   3.329  0.00  0.00     0.034 A 
ATOM      7 Cl   UNL d   1      -5.799   4.058   5.938  0.00  0.00    -0.070 Cl
ATOM      8 Cl1  UNL d   1      -3.530   1.725   5.998  0.00  0.00    -0.070 Cl
ENDROOT
TORSDOF 0
ENDMDL
