MODEL 1
REMARK minimizedAffinity 2.43979335
REMARK minimizedRMSD -1
REMARK  0 active torsions:
REMARK  status: ('A' for Active; 'I' for Inactive)
ROOT
ATOM      1  C   UNL d   1      -5.547   2.248   5.969  0.00  0.00     0.020 A 
ATOM      2  C1  UNL d   1      -5.859   3.525   5.506  0.00  0.00     0.020 A 
ATOM      3  C2  UNL d   1      -5.994   3.758   4.135  0.00  0.00     0.034 A 
ATOM      4  C3  UNL d   1      -5.817   2.711   3.223  0.00  0.00     0.017 A 
ATOM      5  C4  UNL d   1      -5.504   1.429   3.689  0.00  0.00     0.017 A 
ATOM      6  C5  UNL d   1      -5.370   1.202   5.062  0.00  0.00     0.034 A 
ATOM      7 Cl   UNL d   1      -5.271   0.087   2.624  0.00  0.00    -0.070 Cl
ATOM      8 Cl1  UNL d   1      -6.000   3.070   1.543  0.00  0.00    -0.070 Cl
ENDROOT
TORSDOF 0
ENDMDL
