MODEL 1
REMARK minimizedAffinity 8.31379032
REMARK minimizedRMSD -1
REMARK  0 active torsions:
REMARK  status: ('A' for Active; 'I' for Inactive)
ROOT
ATOM      1  C   UNL d   1      -0.330  -0.783   0.984  0.00  0.00     0.020 A 
ATOM      2  C1  UNL d   1       0.943  -0.262   1.214  0.00  0.00     0.020 A 
ATOM      3  C2  UNL d   1       1.090   0.940   1.910  0.00  0.00     0.034 A 
ATOM      4  C3  UNL d   1      -0.037   1.625   2.378  0.00  0.00     0.017 A 
ATOM      5  C4  UNL d   1      -1.314   1.101   2.146  0.00  0.00     0.017 A 
ATOM      6  C5  UNL d   1      -1.456  -0.103   1.449  0.00  0.00     0.034 A 
ATOM      7 Cl   UNL d   1      -2.752   1.889   2.692  0.00  0.00    -0.070 Cl
ATOM      8 Cl1  UNL d   1       0.219   3.106   3.231  0.00  0.00    -0.070 Cl
ENDROOT
TORSDOF 0
ENDMDL
