MODEL 1
REMARK minimizedAffinity 3.02147985
REMARK minimizedRMSD -1
REMARK  0 active torsions:
REMARK  status: ('A' for Active; 'I' for Inactive)
ROOT
ATOM      1  C   UNL d   1      -1.026  -0.535   0.610  0.00  0.00     0.020 A 
ATOM      2  C1  UNL d   1      -2.302  -0.024   0.375  0.00  0.00     0.020 A 
ATOM      3  C2  UNL d   1      -2.783   1.035   1.148  0.00  0.00     0.034 A 
ATOM      4  C3  UNL d   1      -1.989   1.585   2.160  0.00  0.00     0.017 A 
ATOM      5  C4  UNL d   1      -0.709   1.071   2.396  0.00  0.00     0.017 A 
ATOM      6  C5  UNL d   1      -0.231   0.012   1.618  0.00  0.00     0.034 A 
ATOM      7 Cl   UNL d   1       0.330   1.698   3.627  0.00  0.00    -0.070 Cl
ATOM      8 Cl1  UNL d   1      -2.648   2.893   3.077  0.00  0.00    -0.070 Cl
ENDROOT
TORSDOF 0
ENDMDL
