MODEL 1
REMARK minimizedAffinity 4.89698935
REMARK minimizedRMSD -1
REMARK  0 active torsions:
REMARK  status: ('A' for Active; 'I' for Inactive)
ROOT
ATOM      1  C   UNL d   1      -3.076   0.673   2.412  0.00  0.00     0.020 A 
ATOM      2  C1  UNL d   1      -3.716   1.901   2.252  0.00  0.00     0.020 A 
ATOM      3  C2  UNL d   1      -4.556   2.387   3.255  0.00  0.00     0.034 A 
ATOM      4  C3  UNL d   1      -4.758   1.645   4.425  0.00  0.00     0.017 A 
ATOM      5  C4  UNL d   1      -4.116   0.412   4.585  0.00  0.00     0.017 A 
ATOM      6  C5  UNL d   1      -3.275  -0.070   3.577  0.00  0.00     0.034 A 
ATOM      7 Cl   UNL d   1      -4.316  -0.560   6.000  0.00  0.00    -0.070 Cl
ATOM      8 Cl1  UNL d   1      -5.810   2.307   5.625  0.00  0.00    -0.070 Cl
ENDROOT
TORSDOF 0
ENDMDL
