MODEL 1
REMARK minimizedAffinity 5.65224457
REMARK minimizedRMSD -1
REMARK  0 active torsions:
REMARK  status: ('A' for Active; 'I' for Inactive)
ROOT
ATOM      1  C   UNL d   1       0.553   0.867   2.162  0.00  0.00     0.020 A 
ATOM      2  C1  UNL d   1       0.766  -0.314   1.454  0.00  0.00     0.020 A 
ATOM      3  C2  UNL d   1      -0.302  -0.951   0.820  0.00  0.00     0.034 A 
ATOM      4  C3  UNL d   1      -1.590  -0.406   0.893  0.00  0.00     0.017 A 
ATOM      5  C4  UNL d   1      -1.803   0.780   1.604  0.00  0.00     0.017 A 
ATOM      6  C5  UNL d   1      -0.729   1.413   2.237  0.00  0.00     0.034 A 
ATOM      7 Cl   UNL d   1      -3.363   1.513   1.738  0.00  0.00    -0.070 Cl
ATOM      8 Cl1  UNL d   1      -2.865  -1.247   0.084  0.00  0.00    -0.070 Cl
ENDROOT
TORSDOF 0
ENDMDL
