MODEL 1
REMARK minimizedAffinity 17.4463806
REMARK minimizedRMSD -1
REMARK  0 active torsions:
REMARK  status: ('A' for Active; 'I' for Inactive)
ROOT
ATOM      1  C   UNL d   1       6.000   0.561   1.480  0.00  0.00     0.020 A 
ATOM      2  C1  UNL d   1       5.646  -0.399   2.428  0.00  0.00     0.020 A 
ATOM      3  C2  UNL d   1       4.318  -0.818   2.534  0.00  0.00     0.034 A 
ATOM      4  C3  UNL d   1       3.340  -0.278   1.692  0.00  0.00     0.017 A 
ATOM      5  C4  UNL d   1       3.696   0.685   0.740  0.00  0.00     0.017 A 
ATOM      6  C5  UNL d   1       5.027   1.101   0.638  0.00  0.00     0.034 A 
ATOM      7 Cl   UNL d   1       2.545   1.396  -0.334  0.00  0.00    -0.070 Cl
ATOM      8 Cl1  UNL d   1       1.718  -0.844   1.878  0.00  0.00    -0.070 Cl
ENDROOT
TORSDOF 0
ENDMDL
