MODEL 1
REMARK minimizedAffinity 5.19372988
REMARK minimizedRMSD -1
REMARK  0 active torsions:
REMARK  status: ('A' for Active; 'I' for Inactive)
ROOT
ATOM      1  C   UNL d   1      -1.497  -1.278  -0.040  0.00  0.00     0.020 A 
ATOM      2  C1  UNL d   1      -2.877  -1.302  -0.237  0.00  0.00     0.020 A 
ATOM      3  C2  UNL d   1      -3.685  -0.338   0.369  0.00  0.00     0.034 A 
ATOM      4  C3  UNL d   1      -3.114   0.655   1.174  0.00  0.00     0.017 A 
ATOM      5  C4  UNL d   1      -1.729   0.678   1.370  0.00  0.00     0.017 A 
ATOM      6  C5  UNL d   1      -0.924  -0.290   0.761  0.00  0.00     0.034 A 
ATOM      7 Cl   UNL d   1      -0.951   1.872   2.349  0.00  0.00    -0.070 Cl
ATOM      8 Cl1  UNL d   1      -4.174   1.816   1.891  0.00  0.00    -0.070 Cl
ENDROOT
TORSDOF 0
ENDMDL
