MODEL 1
REMARK minimizedAffinity 9.91886425
REMARK minimizedRMSD -1
REMARK  0 active torsions:
REMARK  status: ('A' for Active; 'I' for Inactive)
ROOT
ATOM      1  C   UNL d   1      -1.979  -1.044  -0.278  0.00  0.00     0.020 A 
ATOM      2  C1  UNL d   1      -3.319  -0.662  -0.317  0.00  0.00     0.020 A 
ATOM      3  C2  UNL d   1      -3.804   0.278   0.595  0.00  0.00     0.034 A 
ATOM      4  C3  UNL d   1      -2.947   0.838   1.550  0.00  0.00     0.017 A 
ATOM      5  C4  UNL d   1      -1.602   0.454   1.588  0.00  0.00     0.017 A 
ATOM      6  C5  UNL d   1      -1.122  -0.488   0.672  0.00  0.00     0.034 A 
ATOM      7 Cl   UNL d   1      -0.485   1.101   2.737  0.00  0.00    -0.070 Cl
ATOM      8 Cl1  UNL d   1      -3.614   1.995   2.647  0.00  0.00    -0.070 Cl
ENDROOT
TORSDOF 0
ENDMDL
