MODEL 1
REMARK minimizedAffinity 3.6617825
REMARK minimizedRMSD -1
REMARK  0 active torsions:
REMARK  status: ('A' for Active; 'I' for Inactive)
ROOT
ATOM      1  C   UNL d   1      -0.241   2.445   3.387  0.00  0.00     0.020 A 
ATOM      2  C1  UNL d   1      -1.571   2.026   3.370  0.00  0.00     0.020 A 
ATOM      3  C2  UNL d   1      -2.001   1.108   2.409  0.00  0.00     0.034 A 
ATOM      4  C3  UNL d   1      -1.101   0.608   1.461  0.00  0.00     0.017 A 
ATOM      5  C4  UNL d   1       0.234   1.029   1.480  0.00  0.00     0.017 A 
ATOM      6  C5  UNL d   1       0.659   1.948   2.444  0.00  0.00     0.034 A 
ATOM      7 Cl   UNL d   1       1.403   0.456   0.343  0.00  0.00    -0.070 Cl
ATOM      8 Cl1  UNL d   1      -1.701  -0.524   0.302  0.00  0.00    -0.070 Cl
ENDROOT
TORSDOF 0
ENDMDL
