MODEL 1
REMARK minimizedAffinity 0.903259337
REMARK minimizedRMSD -1
REMARK  0 active torsions:
REMARK  status: ('A' for Active; 'I' for Inactive)
ROOT
ATOM      1  C   UNL d   1      -2.907   1.225   2.257  0.00  0.00     0.020 A 
ATOM      2  C1  UNL d   1      -2.608   0.488   1.112  0.00  0.00     0.020 A 
ATOM      3  C2  UNL d   1      -1.278   0.310   0.724  0.00  0.00     0.034 A 
ATOM      4  C3  UNL d   1      -0.243   0.870   1.481  0.00  0.00     0.017 A 
ATOM      5  C4  UNL d   1      -0.544   1.610   2.630  0.00  0.00     0.017 A 
ATOM      6  C5  UNL d   1      -1.877   1.785   3.014  0.00  0.00     0.034 A 
ATOM      7 Cl   UNL d   1       0.680   2.331   3.615  0.00  0.00    -0.070 Cl
ATOM      8 Cl1  UNL d   1       1.378   0.610   0.941  0.00  0.00    -0.070 Cl
ENDROOT
TORSDOF 0
ENDMDL
