MODEL 1
REMARK minimizedAffinity -0.887114465
REMARK minimizedRMSD -1
REMARK  0 active torsions:
REMARK  status: ('A' for Active; 'I' for Inactive)
ROOT
ATOM      1  C   UNL d   1      -2.596   0.539   1.005  0.00  0.00     0.020 A 
ATOM      2  C1  UNL d   1      -2.956   1.503   1.945  0.00  0.00     0.020 A 
ATOM      3  C2  UNL d   1      -1.979   2.095   2.748  0.00  0.00     0.034 A 
ATOM      4  C3  UNL d   1      -0.637   1.723   2.613  0.00  0.00     0.017 A 
ATOM      5  C4  UNL d   1      -0.276   0.755   1.669  0.00  0.00     0.017 A 
ATOM      6  C5  UNL d   1      -1.258   0.166   0.867  0.00  0.00     0.034 A 
ATOM      7 Cl   UNL d   1       1.360   0.245   1.443  0.00  0.00    -0.070 Cl
ATOM      8 Cl1  UNL d   1       0.519   2.497   3.638  0.00  0.00    -0.070 Cl
ENDROOT
TORSDOF 0
ENDMDL
