MODEL 1
REMARK minimizedAffinity 3.78515577
REMARK minimizedRMSD -1
REMARK  0 active torsions:
REMARK  status: ('A' for Active; 'I' for Inactive)
ROOT
ATOM      1  C   UNL d   1      -2.531   0.612   0.571  0.00  0.00     0.020 A 
ATOM      2  C1  UNL d   1      -2.823   1.355   1.715  0.00  0.00     0.020 A 
ATOM      3  C2  UNL d   1      -1.792   1.763   2.564  0.00  0.00     0.034 A 
ATOM      4  C3  UNL d   1      -0.465   1.428   2.272  0.00  0.00     0.017 A 
ATOM      5  C4  UNL d   1      -0.173   0.683   1.124  0.00  0.00     0.017 A 
ATOM      6  C5  UNL d   1      -1.209   0.277   0.276  0.00  0.00     0.034 A 
ATOM      7 Cl   UNL d   1       1.440   0.232   0.696  0.00  0.00    -0.070 Cl
ATOM      8 Cl1  UNL d   1       0.759   1.966   3.366  0.00  0.00    -0.070 Cl
ENDROOT
TORSDOF 0
ENDMDL
