MODEL 1
REMARK minimizedAffinity 6.15959501
REMARK minimizedRMSD -1
REMARK  0 active torsions:
REMARK  status: ('A' for Active; 'I' for Inactive)
ROOT
ATOM      1  C   UNL d   1       0.024   2.173   3.791  0.00  0.00     0.020 A 
ATOM      2  C1  UNL d   1      -1.360   2.053   3.908  0.00  0.00     0.020 A 
ATOM      3  C2  UNL d   1      -2.104   1.501   2.863  0.00  0.00     0.034 A 
ATOM      4  C3  UNL d   1      -1.464   1.066   1.696  0.00  0.00     0.017 A 
ATOM      5  C4  UNL d   1      -0.074   1.186   1.580  0.00  0.00     0.017 A 
ATOM      6  C5  UNL d   1       0.665   1.740   2.630  0.00  0.00     0.034 A 
ATOM      7 Cl   UNL d   1       0.786   0.672   0.172  0.00  0.00    -0.070 Cl
ATOM      8 Cl1  UNL d   1      -2.446   0.393   0.444  0.00  0.00    -0.070 Cl
ENDROOT
TORSDOF 0
ENDMDL
