MODEL 1
REMARK minimizedAffinity 11.3387718
REMARK minimizedRMSD -1
REMARK  0 active torsions:
REMARK  status: ('A' for Active; 'I' for Inactive)
ROOT
ATOM      1  C   UNL d   1       0.260  -1.167   1.716  0.00  0.00     0.020 A 
ATOM      2  C1  UNL d   1       1.477  -0.556   2.016  0.00  0.00     0.020 A 
ATOM      3  C2  UNL d   1       1.527   0.818   2.259  0.00  0.00     0.034 A 
ATOM      4  C3  UNL d   1       0.358   1.586   2.204  0.00  0.00     0.017 A 
ATOM      5  C4  UNL d   1      -0.863   0.971   1.903  0.00  0.00     0.017 A 
ATOM      6  C5  UNL d   1      -0.908  -0.405   1.660  0.00  0.00     0.034 A 
ATOM      7 Cl   UNL d   1      -2.348   1.852   1.817  0.00  0.00    -0.070 Cl
ATOM      8 Cl1  UNL d   1       0.493   3.279   2.516  0.00  0.00    -0.070 Cl
ENDROOT
TORSDOF 0
ENDMDL
