MODEL 1
REMARK minimizedAffinity 8.47795296
REMARK minimizedRMSD -1
REMARK  0 active torsions:
REMARK  status: ('A' for Active; 'I' for Inactive)
ROOT
ATOM      1  C   UNL d   1      -1.403   2.480   3.527  0.00  0.00     0.020 A 
ATOM      2  C1  UNL d   1      -0.105   2.098   3.861  0.00  0.00     0.020 A 
ATOM      3  C2  UNL d   1       0.584   1.187   3.057  0.00  0.00     0.034 A 
ATOM      4  C3  UNL d   1      -0.026   0.655   1.915  0.00  0.00     0.017 A 
ATOM      5  C4  UNL d   1      -1.330   1.039   1.580  0.00  0.00     0.017 A 
ATOM      6  C5  UNL d   1      -2.015   1.952   2.389  0.00  0.00     0.034 A 
ATOM      7 Cl   UNL d   1      -2.148   0.426   0.187  0.00  0.00    -0.070 Cl
ATOM      8 Cl1  UNL d   1       0.884  -0.466   0.966  0.00  0.00    -0.070 Cl
ENDROOT
TORSDOF 0
ENDMDL
