MODEL 1
REMARK minimizedAffinity -2.2496078
REMARK minimizedRMSD -1
REMARK  0 active torsions:
REMARK  status: ('A' for Active; 'I' for Inactive)
ROOT
ATOM      1  C   UNL d   1      -0.424  -0.068   2.841  0.00  0.00     0.023 A 
ATOM      2  C1  UNL d   1       0.600   0.718   2.312  0.00  0.00     0.003 A 
ATOM      3  C2  UNL d   1       0.820   0.746   0.933  0.00  0.00     0.048 A 
ATOM      4  C3  UNL d   1       0.010  -0.013   0.089  0.00  0.00     0.023 A 
ATOM      5  C4  UNL d   1      -1.017  -0.800   0.613  0.00  0.00     0.048 A 
ATOM      6  C5  UNL d   1      -1.232  -0.825   1.992  0.00  0.00     0.003 A 
ATOM      7  I   UNL d   1       0.335   0.027  -1.964  0.00  0.00    -0.146 I 
ENDROOT
TORSDOF 0
ENDMDL
