MODEL 1
REMARK minimizedAffinity -3.77071285
REMARK minimizedRMSD -1
REMARK  0 active torsions:
REMARK  status: ('A' for Active; 'I' for Inactive)
ROOT
ATOM      1  C   UNL d   1      -1.742  -0.839   1.926  0.00  0.00     0.023 A 
ATOM      2  C1  UNL d   1      -0.399  -0.646   1.601  0.00  0.00     0.003 A 
ATOM      3  C2  UNL d   1       0.345   0.337   2.256  0.00  0.00     0.048 A 
ATOM      4  C3  UNL d   1      -0.259   1.124   3.236  0.00  0.00     0.023 A 
ATOM      5  C4  UNL d   1      -1.602   0.934   3.565  0.00  0.00     0.048 A 
ATOM      6  C5  UNL d   1      -2.342  -0.050   2.907  0.00  0.00     0.003 A 
ATOM      7  I   UNL d   1       0.847   2.588   4.212  0.00  0.00    -0.146 I 
ENDROOT
TORSDOF 0
ENDMDL
