MODEL 1
REMARK minimizedAffinity -0.366259336
REMARK minimizedRMSD -1
REMARK  0 active torsions:
REMARK  status: ('A' for Active; 'I' for Inactive)
ROOT
ATOM      1  C   UNL d   1      -0.629   0.102  -1.602  0.00  0.00     0.023 A 
ATOM      2  C1  UNL d   1      -1.916   0.100  -1.063  0.00  0.00     0.003 A 
ATOM      3  C2  UNL d   1      -2.098  -0.062   0.312  0.00  0.00     0.048 A 
ATOM      4  C3  UNL d   1      -0.989  -0.219   1.142  0.00  0.00     0.023 A 
ATOM      5  C4  UNL d   1       0.300  -0.216   0.608  0.00  0.00     0.048 A 
ATOM      6  C5  UNL d   1       0.478  -0.055  -0.768  0.00  0.00     0.003 A 
ATOM      7  I   UNL d   1      -1.258  -0.460   3.189  0.00  0.00    -0.146 I 
ENDROOT
TORSDOF 0
ENDMDL
