MODEL 1
REMARK minimizedAffinity -3.22669959
REMARK minimizedRMSD -1
REMARK  0 active torsions:
REMARK  status: ('A' for Active; 'I' for Inactive)
ROOT
ATOM      1  C   UNL d   1      -0.554  -0.077   2.386  0.00  0.00     0.023 A 
ATOM      2  C1  UNL d   1      -1.464  -0.196   1.335  0.00  0.00     0.003 A 
ATOM      3  C2  UNL d   1      -1.015  -0.151   0.014  0.00  0.00     0.048 A 
ATOM      4  C3  UNL d   1       0.344   0.012  -0.250  0.00  0.00     0.023 A 
ATOM      5  C4  UNL d   1       1.258   0.130   0.799  0.00  0.00     0.048 A 
ATOM      6  C5  UNL d   1       0.805   0.085   2.118  0.00  0.00     0.003 A 
ATOM      7  I   UNL d   1       1.014   0.079  -2.216  0.00  0.00    -0.146 I 
ENDROOT
TORSDOF 0
ENDMDL
