MODEL 1
REMARK minimizedAffinity -0.378246218
REMARK minimizedRMSD -1
REMARK  0 active torsions:
REMARK  status: ('A' for Active; 'I' for Inactive)
ROOT
ATOM      1  C   UNL d   1      -0.442  -0.719   2.895  0.00  0.00     0.023 A 
ATOM      2  C1  UNL d   1      -1.467  -0.785   1.950  0.00  0.00     0.003 A 
ATOM      3  C2  UNL d   1      -1.225  -0.408   0.628  0.00  0.00     0.048 A 
ATOM      4  C3  UNL d   1       0.045   0.033   0.256  0.00  0.00     0.023 A 
ATOM      5  C4  UNL d   1       1.073   0.100   1.197  0.00  0.00     0.048 A 
ATOM      6  C5  UNL d   1       0.826  -0.277   2.519  0.00  0.00     0.003 A 
ATOM      7  I   UNL d   1       0.408   0.595  -1.712  0.00  0.00    -0.146 I 
ENDROOT
TORSDOF 0
ENDMDL
