MODEL 1
REMARK minimizedAffinity 4.07477427
REMARK minimizedRMSD -1
REMARK  0 active torsions:
REMARK  status: ('A' for Active; 'I' for Inactive)
ROOT
ATOM      1  C   UNL d   1      -0.381  -1.481   2.671  0.00  0.00     0.023 A 
ATOM      2  C1  UNL d   1      -1.199  -0.620   1.939  0.00  0.00     0.003 A 
ATOM      3  C2  UNL d   1      -0.655   0.515   1.333  0.00  0.00     0.048 A 
ATOM      4  C3  UNL d   1       0.707   0.783   1.463  0.00  0.00     0.023 A 
ATOM      5  C4  UNL d   1       1.529  -0.076   2.195  0.00  0.00     0.048 A 
ATOM      6  C5  UNL d   1       0.981  -1.209   2.799  0.00  0.00     0.003 A 
ATOM      7  I   UNL d   1       1.518   2.471   0.563  0.00  0.00    -0.146 I 
ENDROOT
TORSDOF 0
ENDMDL
