MODEL 1
REMARK minimizedAffinity -4.63478565
REMARK minimizedRMSD -1
REMARK  0 active torsions:
REMARK  status: ('A' for Active; 'I' for Inactive)
ROOT
ATOM      1  C   UNL d   1      -2.124  -0.468   3.345  0.00  0.00     0.023 A 
ATOM      2  C1  UNL d   1      -2.864  -0.101   2.221  0.00  0.00     0.003 A 
ATOM      3  C2  UNL d   1      -2.219   0.129   1.003  0.00  0.00     0.048 A 
ATOM      4  C3  UNL d   1      -0.834  -0.011   0.917  0.00  0.00     0.023 A 
ATOM      5  C4  UNL d   1      -0.090  -0.379   2.039  0.00  0.00     0.048 A 
ATOM      6  C5  UNL d   1      -0.739  -0.607   3.254  0.00  0.00     0.003 A 
ATOM      7  I   UNL d   1       0.127   0.331  -0.894  0.00  0.00    -0.146 I 
ENDROOT
TORSDOF 0
ENDMDL
