MODEL 1
REMARK minimizedAffinity -4.3712163
REMARK minimizedRMSD -1
REMARK  0 active torsions:
REMARK  status: ('A' for Active; 'I' for Inactive)
ROOT
ATOM      1  C   UNL d   1       0.523  -1.630  -3.458  0.00  0.00     0.023 A 
ATOM      2  C1  UNL d   1       1.656  -2.309  -3.909  0.00  0.00     0.003 A 
ATOM      3  C2  UNL d   1       2.869  -1.632  -4.045  0.00  0.00     0.048 A 
ATOM      4  C3  UNL d   1       2.944  -0.276  -3.728  0.00  0.00     0.023 A 
ATOM      5  C4  UNL d   1       1.814   0.407  -3.276  0.00  0.00     0.048 A 
ATOM      6  C5  UNL d   1       0.602  -0.274  -3.142  0.00  0.00     0.003 A 
ATOM      7  I   UNL d   1       4.749   0.734  -3.929  0.00  0.00    -0.146 I 
ENDROOT
TORSDOF 0
ENDMDL
