MODEL 1
REMARK minimizedAffinity 1.04685497
REMARK minimizedRMSD -1
REMARK  0 active torsions:
REMARK  status: ('A' for Active; 'I' for Inactive)
ROOT
ATOM      1  C   UNL d   1      -0.002   0.439   2.360  0.00  0.00     0.023 A 
ATOM      2  C1  UNL d   1       1.108  -0.236   1.852  0.00  0.00     0.003 A 
ATOM      3  C2  UNL d   1       1.102  -0.701   0.535  0.00  0.00     0.048 A 
ATOM      4  C3  UNL d   1      -0.017  -0.486  -0.268  0.00  0.00     0.023 A 
ATOM      5  C4  UNL d   1      -1.130   0.190   0.235  0.00  0.00     0.048 A 
ATOM      6  C5  UNL d   1      -1.119   0.652   1.553  0.00  0.00     0.003 A 
ATOM      7  I   UNL d   1      -0.029  -1.176  -2.229  0.00  0.00    -0.146 I 
ENDROOT
TORSDOF 0
ENDMDL
