MODEL 1
REMARK minimizedAffinity 1.41119778
REMARK minimizedRMSD -1
REMARK  0 active torsions:
REMARK  status: ('A' for Active; 'I' for Inactive)
ROOT
ATOM      1  C   UNL d   1       0.559  -1.167   1.849  0.00  0.00     0.023 A 
ATOM      2  C1  UNL d   1      -0.493  -1.675   1.088  0.00  0.00     0.003 A 
ATOM      3  C2  UNL d   1      -1.734  -1.035   1.095  0.00  0.00     0.048 A 
ATOM      4  C3  UNL d   1      -1.916   0.113   1.866  0.00  0.00     0.023 A 
ATOM      5  C4  UNL d   1      -0.866   0.625   2.628  0.00  0.00     0.048 A 
ATOM      6  C5  UNL d   1       0.373  -0.018   2.619  0.00  0.00     0.003 A 
ATOM      7  I   UNL d   1      -3.763   1.067   1.878  0.00  0.00    -0.146 I 
ENDROOT
TORSDOF 0
ENDMDL
