MODEL 1
REMARK minimizedAffinity 3.49159932
REMARK minimizedRMSD -1
REMARK  0 active torsions:
REMARK  status: ('A' for Active; 'I' for Inactive)
ROOT
ATOM      1  C   UNL d   1       0.109  -0.883  -3.140  0.00  0.00     0.023 A 
ATOM      2  C1  UNL d   1       0.211   0.415  -2.640  0.00  0.00     0.003 A 
ATOM      3  C2  UNL d   1      -0.120   0.680  -1.309  0.00  0.00     0.048 A 
ATOM      4  C3  UNL d   1      -0.551  -0.359  -0.484  0.00  0.00     0.023 A 
ATOM      5  C4  UNL d   1      -0.653  -1.659  -0.981  0.00  0.00     0.048 A 
ATOM      6  C5  UNL d   1      -0.322  -1.919  -2.312  0.00  0.00     0.003 A 
ATOM      7  I   UNL d   1      -1.044   0.032   1.496  0.00  0.00    -0.146 I 
ENDROOT
TORSDOF 0
ENDMDL
