MODEL 1
REMARK minimizedAffinity 2.68937731
REMARK minimizedRMSD -1
REMARK  0 active torsions:
REMARK  status: ('A' for Active; 'I' for Inactive)
ROOT
ATOM      1  C   UNL d   1       1.299  -0.739   2.291  0.00  0.00     0.023 A 
ATOM      2  C1  UNL d   1       0.899   0.410   2.975  0.00  0.00     0.003 A 
ATOM      3  C2  UNL d   1      -0.413   0.874   2.855  0.00  0.00     0.048 A 
ATOM      4  C3  UNL d   1      -1.319   0.184   2.051  0.00  0.00     0.023 A 
ATOM      5  C4  UNL d   1      -0.924  -0.966   1.366  0.00  0.00     0.048 A 
ATOM      6  C5  UNL d   1       0.389  -1.425   1.488  0.00  0.00     0.003 A 
ATOM      7  I   UNL d   1      -3.272   0.873   1.871  0.00  0.00    -0.146 I 
ENDROOT
TORSDOF 0
ENDMDL
