MODEL 1
REMARK minimizedAffinity -2.04824018
REMARK minimizedRMSD -1
REMARK  0 active torsions:
REMARK  status: ('A' for Active; 'I' for Inactive)
ROOT
ATOM      1  C4' PXY d   1      -1.836  -0.003   1.902  0.00  0.00     0.077 C 
ATOM      2  C1' PXY d   1       1.202  -0.329  -3.006  0.00  0.00     0.077 C 
ATOM      3  C1  PXY d   1       0.400  -0.232  -1.723  0.00  0.00    -0.082 A 
ATOM      4  C2  PXY d   1       0.824  -0.860  -0.638  0.00  0.00     0.003 A 
ATOM      5  C3  PXY d   1       0.094  -0.809   0.522  0.00  0.00     0.003 A 
ATOM      6  C4  PXY d   1      -1.053  -0.065   0.587  0.00  0.00    -0.082 A 
ATOM      7  C5  PXY d   1      -1.486   0.587  -0.513  0.00  0.00     0.003 A 
ATOM      8  C6  PXY d   1      -0.753   0.489  -1.692  0.00  0.00     0.003 A 
ENDROOT
TORSDOF 0
ENDMDL
