MODEL 1
REMARK minimizedAffinity -3.92668796
REMARK minimizedRMSD -1
REMARK  0 active torsions:
REMARK  status: ('A' for Active; 'I' for Inactive)
ROOT
ATOM      1  C4' PXY d   1       0.520  -1.182  -1.874  0.00  0.00     0.077 C 
ATOM      2  C1' PXY d   1      -0.871   1.703   2.938  0.00  0.00     0.077 C 
ATOM      3  C1  PXY d   1      -0.494   0.951   1.677  0.00  0.00    -0.082 A 
ATOM      4  C2  PXY d   1      -1.440   0.582   0.828  0.00  0.00     0.003 A 
ATOM      5  C3  PXY d   1      -1.120  -0.126  -0.302  0.00  0.00     0.003 A 
ATOM      6  C4  PXY d   1       0.187  -0.413  -0.593  0.00  0.00    -0.082 A 
ATOM      7  C5  PXY d   1       1.158  -0.031   0.263  0.00  0.00     0.003 A 
ATOM      8  C6  PXY d   1       0.809   0.651   1.425  0.00  0.00     0.003 A 
ENDROOT
TORSDOF 0
ENDMDL
