MODEL 1
REMARK minimizedAffinity -4.03641605
REMARK minimizedRMSD -1
REMARK  0 active torsions:
REMARK  status: ('A' for Active; 'I' for Inactive)
ROOT
ATOM      1  C4' PXY d   1       0.542  -1.124  -1.451  0.00  0.00     0.077 C 
ATOM      2  C1' PXY d   1      -0.640   1.923   3.317  0.00  0.00     0.077 C 
ATOM      3  C1  PXY d   1      -0.342   1.120   2.067  0.00  0.00    -0.082 A 
ATOM      4  C2  PXY d   1       0.907   0.786   1.785  0.00  0.00     0.003 A 
ATOM      5  C3  PXY d   1       1.198   0.087   0.642  0.00  0.00     0.003 A 
ATOM      6  C4  PXY d   1       0.194  -0.321  -0.194  0.00  0.00    -0.082 A 
ATOM      7  C5  PXY d   1      -1.084   0.006   0.091  0.00  0.00     0.003 A 
ATOM      8  C6  PXY d   1      -1.354   0.751   1.235  0.00  0.00     0.003 A 
ENDROOT
TORSDOF 0
ENDMDL
