MODEL 1
REMARK minimizedAffinity -5.24607563
REMARK minimizedRMSD -1
REMARK  0 active torsions:
REMARK  status: ('A' for Active; 'I' for Inactive)
ROOT
ATOM      1  C4' PXY d   1       0.430  -0.663  -1.778  0.00  0.00     0.077 C 
ATOM      2  C1' PXY d   1      -0.487   1.650   3.440  0.00  0.00     0.077 C 
ATOM      3  C1  PXY d   1      -0.259   1.041   2.070  0.00  0.00    -0.082 A 
ATOM      4  C2  PXY d   1       0.943   0.594   1.745  0.00  0.00     0.003 A 
ATOM      5  C3  PXY d   1       1.174   0.069   0.500  0.00  0.00     0.003 A 
ATOM      6  C4  PXY d   1       0.152  -0.048  -0.403  0.00  0.00    -0.082 A 
ATOM      7  C5  PXY d   1      -1.080   0.396  -0.075  0.00  0.00     0.003 A 
ATOM      8  C6  PXY d   1      -1.285   0.963   1.179  0.00  0.00     0.003 A 
ENDROOT
TORSDOF 0
ENDMDL
