MODEL 1
REMARK minimizedAffinity -5.56382179
REMARK minimizedRMSD -1
REMARK  0 active torsions:
REMARK  status: ('A' for Active; 'I' for Inactive)
ROOT
ATOM      1  C4' PXY d   1       2.418   0.369   1.892  0.00  0.00     0.077 C 
ATOM      2  C1' PXY d   1      -3.001   0.271  -0.118  0.00  0.00     0.077 C 
ATOM      3  C1  PXY d   1      -1.582   0.307   0.415  0.00  0.00    -0.082 A 
ATOM      4  C2  PXY d   1      -0.614  -0.290  -0.260  0.00  0.00     0.003 A 
ATOM      5  C3  PXY d   1       0.669  -0.294   0.225  0.00  0.00     0.003 A 
ATOM      6  C4  PXY d   1       0.973   0.366   1.386  0.00  0.00    -0.082 A 
ATOM      7  C5  PXY d   1      -0.008   0.986   2.075  0.00  0.00     0.003 A 
ATOM      8  C6  PXY d   1      -1.311   0.944   1.587  0.00  0.00     0.003 A 
ENDROOT
TORSDOF 0
ENDMDL
