MODEL 1
REMARK minimizedAffinity -3.57890081
REMARK minimizedRMSD -1
REMARK  0 active torsions:
REMARK  status: ('A' for Active; 'I' for Inactive)
ROOT
ATOM      1  C4' PXY d   1      -3.402   0.764   0.361  0.00  0.00     0.077 C 
ATOM      2  C1' PXY d   1       2.155   0.414   1.916  0.00  0.00     0.077 C 
ATOM      3  C1  PXY d   1       0.694   0.509   1.520  0.00  0.00    -0.082 A 
ATOM      4  C2  PXY d   1       0.258  -0.159   0.465  0.00  0.00     0.003 A 
ATOM      5  C3  PXY d   1      -1.053  -0.059   0.074  0.00  0.00     0.003 A 
ATOM      6  C4  PXY d   1      -1.938   0.690   0.803  0.00  0.00    -0.082 A 
ATOM      7  C5  PXY d   1      -1.502   1.367   1.887  0.00  0.00     0.003 A 
ATOM      8  C6  PXY d   1      -0.159   1.285   2.242  0.00  0.00     0.003 A 
ENDROOT
TORSDOF 0
ENDMDL
