MODEL 1
REMARK minimizedAffinity -1.4654628
REMARK minimizedRMSD -1
REMARK  0 active torsions:
REMARK  status: ('A' for Active; 'I' for Inactive)
ROOT
ATOM      1  C4' PXY d   1      -0.665  -0.657  -0.937  0.00  0.00     0.077 C 
ATOM      2  C1' PXY d   1       3.707   0.561   2.643  0.00  0.00     0.077 C 
ATOM      3  C1  PXY d   1       2.553   0.250   1.711  0.00  0.00    -0.082 A 
ATOM      4  C2  PXY d   1       2.524  -0.906   1.069  0.00  0.00     0.003 A 
ATOM      5  C3  PXY d   1       1.504  -1.191   0.197  0.00  0.00     0.003 A 
ATOM      6  C4  PXY d   1       0.476  -0.304   0.022  0.00  0.00    -0.082 A 
ATOM      7  C5  PXY d   1       0.492   0.873   0.681  0.00  0.00     0.003 A 
ATOM      8  C6  PXY d   1       1.557   1.160   1.530  0.00  0.00     0.003 A 
ENDROOT
TORSDOF 0
ENDMDL
