MODEL 1
REMARK minimizedAffinity -4.73016977
REMARK minimizedRMSD -1
REMARK  0 active torsions:
REMARK  status: ('A' for Active; 'I' for Inactive)
ROOT
ATOM      1  C4' PXY d   1       0.796  -0.217  -2.897  0.00  0.00     0.077 C 
ATOM      2  C1' PXY d   1      -0.568   1.220   2.533  0.00  0.00     0.077 C 
ATOM      3  C1  PXY d   1      -0.200   0.837   1.113  0.00  0.00    -0.082 A 
ATOM      4  C2  PXY d   1      -0.586   1.605   0.107  0.00  0.00     0.003 A 
ATOM      5  C3  PXY d   1      -0.289   1.256  -1.185  0.00  0.00     0.003 A 
ATOM      6  C4  PXY d   1       0.455   0.137  -1.447  0.00  0.00    -0.082 A 
ATOM      7  C5  PXY d   1       0.861  -0.647  -0.425  0.00  0.00     0.003 A 
ATOM      8  C6  PXY d   1       0.515  -0.297   0.876  0.00  0.00     0.003 A 
ENDROOT
TORSDOF 0
ENDMDL
