MODEL 1
REMARK minimizedAffinity -3.87572169
REMARK minimizedRMSD -1
REMARK  0 active torsions:
REMARK  status: ('A' for Active; 'I' for Inactive)
ROOT
ATOM      1  C4' PXY d   1       0.414  -0.643  -2.328  0.00  0.00     0.077 C 
ATOM      2  C1' PXY d   1      -0.986   1.823   2.709  0.00  0.00     0.077 C 
ATOM      3  C1  PXY d   1      -0.630   1.170   1.387  0.00  0.00    -0.082 A 
ATOM      4  C2  PXY d   1       0.641   0.984   1.071  0.00  0.00     0.003 A 
ATOM      5  C3  PXY d   1       0.981   0.424  -0.134  0.00  0.00     0.003 A 
ATOM      6  C4  PXY d   1       0.009   0.003  -1.001  0.00  0.00    -0.082 A 
ATOM      7  C5  PXY d   1      -1.291   0.180  -0.681  0.00  0.00     0.003 A 
ATOM      8  C6  PXY d   1      -1.614   0.788   0.529  0.00  0.00     0.003 A 
ENDROOT
TORSDOF 0
ENDMDL
