MODEL 1
REMARK minimizedAffinity 2.78717065
REMARK minimizedRMSD -1
REMARK  1 active torsions:
REMARK  status: ('A' for Active; 'I' for Inactive)
REMARK    1  A    between atoms: C1_2  and  C2_3 
ROOT
ATOM      1  C2  UNL d   1       4.084   0.394  -3.687  0.00  0.00    -0.073 A 
ATOM      2  C3  UNL d   1       3.197   0.681  -4.731  0.00  0.00    -0.002 A 
ATOM      3  C4  UNL d   1       1.837   0.400  -4.598  0.00  0.00     0.004 A 
ATOM      4  C5  UNL d   1       1.348  -0.162  -3.419  0.00  0.00    -0.004 A 
ATOM      5  C6  UNL d   1       2.216  -0.446  -2.360  0.00  0.00    -0.075 A 
ATOM      6  C7  UNL d   1       1.707  -1.053  -1.086  0.00  0.00     0.076 C 
ATOM      7  C8  UNL d   1       3.582  -0.164  -2.502  0.00  0.00     0.001 A 
ENDROOT
BRANCH   1   8
ATOM      8  C1  UNL d   1       5.553   0.701  -3.824  0.00  0.00     0.053 C 
ATOM      9  C   UNL d   1       5.794   2.067  -4.446  0.00  0.00     0.018 C 
ENDBRANCH   1   8
TORSDOF 1
ENDMDL
