MODEL 1
REMARK minimizedAffinity 5.37880421
REMARK minimizedRMSD -1
REMARK  1 active torsions:
REMARK  status: ('A' for Active; 'I' for Inactive)
REMARK    1  A    between atoms: C1_2  and  C2_3 
ROOT
ATOM      1  C2  UNL d   1       0.742  -1.478  -1.017  0.00  0.00    -0.073 A 
ATOM      2  C3  UNL d   1       1.154  -2.012  -2.244  0.00  0.00    -0.002 A 
ATOM      3  C4  UNL d   1       1.260  -1.194  -3.369  0.00  0.00     0.004 A 
ATOM      4  C5  UNL d   1       0.962   0.166  -3.279  0.00  0.00    -0.004 A 
ATOM      5  C6  UNL d   1       0.559   0.721  -2.060  0.00  0.00    -0.075 A 
ATOM      6  C7  UNL d   1       0.233   2.181  -1.947  0.00  0.00     0.076 C 
ATOM      7  C8  UNL d   1       0.453  -0.108  -0.935  0.00  0.00     0.001 A 
ENDROOT
BRANCH   1   8
ATOM      8  C1  UNL d   1       0.633  -2.356   0.202  0.00  0.00     0.053 C 
ATOM      9  C   UNL d   1      -0.762  -2.941   0.360  0.00  0.00     0.018 C 
ENDBRANCH   1   8
TORSDOF 1
ENDMDL
