MODEL 1
REMARK minimizedAffinity 2.87064862
REMARK minimizedRMSD -1
REMARK  1 active torsions:
REMARK  status: ('A' for Active; 'I' for Inactive)
REMARK    1  A    between atoms: C1_2  and  C2_3 
ROOT
ATOM      1  C2  UNL d   1       4.281   1.678  -5.611  0.00  0.00    -0.073 A 
ATOM      2  C3  UNL d   1       3.714   2.911  -5.953  0.00  0.00    -0.002 A 
ATOM      3  C4  UNL d   1       2.387   3.192  -5.625  0.00  0.00     0.004 A 
ATOM      4  C5  UNL d   1       1.616   2.247  -4.947  0.00  0.00    -0.004 A 
ATOM      5  C6  UNL d   1       2.169   1.013  -4.588  0.00  0.00    -0.075 A 
ATOM      6  C7  UNL d   1       1.352  -0.015  -3.861  0.00  0.00     0.076 C 
ATOM      7  C8  UNL d   1       3.501   0.738  -4.923  0.00  0.00     0.001 A 
ENDROOT
BRANCH   1   8
ATOM      8  C1  UNL d   1       5.715   1.373  -5.958  0.00  0.00     0.053 C 
ATOM      9  C   UNL d   1       5.993  -0.122  -5.971  0.00  0.00     0.018 C 
ENDBRANCH   1   8
TORSDOF 1
ENDMDL
