MODEL 1
REMARK minimizedAffinity 0.795506716
REMARK minimizedRMSD -1
REMARK  1 active torsions:
REMARK  status: ('A' for Active; 'I' for Inactive)
REMARK    1  A    between atoms: C1_2  and  C2_3 
ROOT
ATOM      1  C2  UNL d   1       1.648   0.071  -3.413  0.00  0.00    -0.073 A 
ATOM      2  C3  UNL d   1       1.041   1.308  -3.166  0.00  0.00    -0.002 A 
ATOM      3  C4  UNL d   1       0.395   1.546  -1.953  0.00  0.00     0.004 A 
ATOM      4  C5  UNL d   1       0.356   0.555  -0.972  0.00  0.00    -0.004 A 
ATOM      5  C6  UNL d   1       0.967  -0.683  -1.195  0.00  0.00    -0.075 A 
ATOM      6  C7  UNL d   1       0.931  -1.761  -0.152  0.00  0.00     0.076 C 
ATOM      7  C8  UNL d   1       1.611  -0.916  -2.418  0.00  0.00     0.001 A 
ENDROOT
BRANCH   1   8
ATOM      8  C1  UNL d   1       2.353  -0.188  -4.720  0.00  0.00     0.053 C 
ATOM      9  C   UNL d   1       3.761   0.385  -4.732  0.00  0.00     0.018 C 
ENDBRANCH   1   8
TORSDOF 1
ENDMDL
