MODEL 1
REMARK minimizedAffinity -2.56785655
REMARK minimizedRMSD -1
REMARK  1 active torsions:
REMARK  status: ('A' for Active; 'I' for Inactive)
REMARK    1  A    between atoms: C1_2  and  C2_3 
ROOT
ATOM      1  C2  UNL d   1      -4.012   2.430   5.244  0.00  0.00    -0.073 A 
ATOM      2  C3  UNL d   1      -5.160   2.718   5.991  0.00  0.00    -0.002 A 
ATOM      3  C4  UNL d   1      -5.690   4.010   6.000  0.00  0.00     0.004 A 
ATOM      4  C5  UNL d   1      -5.082   5.023   5.258  0.00  0.00    -0.004 A 
ATOM      5  C6  UNL d   1      -3.941   4.752   4.497  0.00  0.00    -0.075 A 
ATOM      6  C7  UNL d   1      -3.274   5.831   3.695  0.00  0.00     0.076 C 
ATOM      7  C8  UNL d   1      -3.413   3.453   4.495  0.00  0.00     0.001 A 
ENDROOT
BRANCH   1   8
ATOM      8  C1  UNL d   1      -3.440   1.036   5.227  0.00  0.00     0.053 C 
ATOM      9  C   UNL d   1      -4.493  -0.007   4.888  0.00  0.00     0.018 C 
ENDBRANCH   1   8
TORSDOF 1
ENDMDL
