MODEL 1
REMARK minimizedAffinity 2.11249685
REMARK minimizedRMSD -1
REMARK  1 active torsions:
REMARK  status: ('A' for Active; 'I' for Inactive)
REMARK    1  A    between atoms: C1_2  and  C2_3 
ROOT
ATOM      1  C2  UNL d   1       4.946   2.799  -4.819  0.00  0.00    -0.073 A 
ATOM      2  C3  UNL d   1       4.269   3.128  -5.999  0.00  0.00    -0.002 A 
ATOM      3  C4  UNL d   1       3.300   4.132  -5.999  0.00  0.00     0.004 A 
ATOM      4  C5  UNL d   1       3.003   4.821  -4.823  0.00  0.00    -0.004 A 
ATOM      5  C6  UNL d   1       3.677   4.515  -3.637  0.00  0.00    -0.075 A 
ATOM      6  C7  UNL d   1       3.368   5.246  -2.363  0.00  0.00     0.076 C 
ATOM      7  C8  UNL d   1       4.647   3.504  -3.644  0.00  0.00     0.001 A 
ENDROOT
BRANCH   1   8
ATOM      8  C1  UNL d   1       5.997   1.720  -4.816  0.00  0.00     0.053 C 
ATOM      9  C   UNL d   1       5.836   0.763  -5.987  0.00  0.00     0.018 C 
ENDBRANCH   1   8
TORSDOF 1
ENDMDL
