MODEL 1
REMARK minimizedAffinity 3.82657433
REMARK minimizedRMSD -1
REMARK  1 active torsions:
REMARK  status: ('A' for Active; 'I' for Inactive)
REMARK    1  A    between atoms: C1_2  and  C2_3 
ROOT
ATOM      1  C2  UNL d   1       1.769  -0.766  -3.894  0.00  0.00    -0.073 A 
ATOM      2  C3  UNL d   1       1.543  -2.144  -3.988  0.00  0.00    -0.002 A 
ATOM      3  C4  UNL d   1       1.192  -2.879  -2.855  0.00  0.00     0.004 A 
ATOM      4  C5  UNL d   1       1.057  -2.244  -1.620  0.00  0.00    -0.004 A 
ATOM      5  C6  UNL d   1       1.266  -0.866  -1.509  0.00  0.00    -0.075 A 
ATOM      6  C7  UNL d   1       1.126  -0.169  -0.188  0.00  0.00     0.076 C 
ATOM      7  C8  UNL d   1       1.621  -0.135  -2.651  0.00  0.00     0.001 A 
ENDROOT
BRANCH   1   8
ATOM      8  C1  UNL d   1       2.142   0.033  -5.116  0.00  0.00     0.053 C 
ATOM      9  C   UNL d   1       3.597   0.473  -5.088  0.00  0.00     0.018 C 
ENDBRANCH   1   8
TORSDOF 1
ENDMDL
