MODEL 1
REMARK minimizedAffinity 5.06586409
REMARK minimizedRMSD -1
REMARK  1 active torsions:
REMARK  status: ('A' for Active; 'I' for Inactive)
REMARK    1  A    between atoms: C1_2  and  C2_3 
ROOT
ATOM      1  C2  UNL d   1       0.840  -0.010  -2.651  0.00  0.00    -0.073 A 
ATOM      2  C3  UNL d   1       1.100  -0.829  -3.756  0.00  0.00    -0.002 A 
ATOM      3  C4  UNL d   1       1.384  -2.184  -3.577  0.00  0.00     0.004 A 
ATOM      4  C5  UNL d   1       1.405  -2.734  -2.296  0.00  0.00    -0.004 A 
ATOM      5  C6  UNL d   1       1.137  -1.934  -1.180  0.00  0.00    -0.075 A 
ATOM      6  C7  UNL d   1       1.158  -2.510   0.205  0.00  0.00     0.076 C 
ATOM      7  C8  UNL d   1       0.854  -0.574  -1.367  0.00  0.00     0.001 A 
ENDROOT
BRANCH   1   8
ATOM      8  C1  UNL d   1       0.526   1.452  -2.839  0.00  0.00     0.053 C 
ATOM      9  C   UNL d   1       0.150   2.127  -1.529  0.00  0.00     0.018 C 
ENDBRANCH   1   8
TORSDOF 1
ENDMDL
