MODEL 1
REMARK minimizedAffinity 5.49941349
REMARK minimizedRMSD -1
REMARK  1 active torsions:
REMARK  status: ('A' for Active; 'I' for Inactive)
REMARK    1  A    between atoms: C1_2  and  C2_3 
ROOT
ATOM      1  C2  UNL d   1       0.615   0.909  -1.582  0.00  0.00    -0.073 A 
ATOM      2  C3  UNL d   1       0.879  -0.084  -0.633  0.00  0.00    -0.002 A 
ATOM      3  C4  UNL d   1       1.269  -1.361  -1.039  0.00  0.00     0.004 A 
ATOM      4  C5  UNL d   1       1.406  -1.655  -2.396  0.00  0.00    -0.004 A 
ATOM      5  C6  UNL d   1       1.158  -0.672  -3.359  0.00  0.00    -0.075 A 
ATOM      6  C7  UNL d   1       1.298  -0.973  -4.822  0.00  0.00     0.076 C 
ATOM      7  C8  UNL d   1       0.764   0.607  -2.943  0.00  0.00     0.001 A 
ENDROOT
BRANCH   1   8
ATOM      8  C1  UNL d   1       0.200   2.291  -1.148  0.00  0.00     0.053 C 
ATOM      9  C   UNL d   1       1.287   2.988  -0.346  0.00  0.00     0.018 C 
ENDBRANCH   1   8
TORSDOF 1
ENDMDL
