MODEL 1
REMARK minimizedAffinity 0.569547057
REMARK minimizedRMSD -1
REMARK  1 active torsions:
REMARK  status: ('A' for Active; 'I' for Inactive)
REMARK    1  A    between atoms: C1_2  and  C2_3 
ROOT
ATOM      1  C2  UNL d   1       1.001   0.722  -1.646  0.00  0.00    -0.073 A 
ATOM      2  C3  UNL d   1       1.467   1.428  -2.761  0.00  0.00    -0.002 A 
ATOM      3  C4  UNL d   1       1.837   0.748  -3.922  0.00  0.00     0.004 A 
ATOM      4  C5  UNL d   1       1.738  -0.641  -3.984  0.00  0.00    -0.004 A 
ATOM      5  C6  UNL d   1       1.263  -1.364  -2.885  0.00  0.00    -0.075 A 
ATOM      6  C7  UNL d   1       1.152  -2.860  -2.934  0.00  0.00     0.076 C 
ATOM      7  C8  UNL d   1       0.896  -0.675  -1.721  0.00  0.00     0.001 A 
ENDROOT
BRANCH   1   8
ATOM      8  C1  UNL d   1       0.595   1.452  -0.392  0.00  0.00     0.053 C 
ATOM      9  C   UNL d   1       1.624   2.493   0.019  0.00  0.00     0.018 C 
ENDBRANCH   1   8
TORSDOF 1
ENDMDL
