MODEL 1
REMARK minimizedAffinity 4.49687386
REMARK minimizedRMSD -1
REMARK  1 active torsions:
REMARK  status: ('A' for Active; 'I' for Inactive)
REMARK    1  A    between atoms: C1_2  and  C2_3 
ROOT
ATOM      1  C2  UNL d   1       0.780   1.022  -1.830  0.00  0.00    -0.073 A 
ATOM      2  C3  UNL d   1       1.127   1.574  -3.068  0.00  0.00    -0.002 A 
ATOM      3  C4  UNL d   1       1.501   0.747  -4.128  0.00  0.00     0.004 A 
ATOM      4  C5  UNL d   1       1.526  -0.638  -3.963  0.00  0.00    -0.004 A 
ATOM      5  C6  UNL d   1       1.171  -1.209  -2.737  0.00  0.00    -0.075 A 
ATOM      6  C7  UNL d   1       1.195  -2.696  -2.542  0.00  0.00     0.076 C 
ATOM      7  C8  UNL d   1       0.799  -0.371  -1.676  0.00  0.00     0.001 A 
ENDROOT
BRANCH   1   8
ATOM      8  C1  UNL d   1       0.368   1.911  -0.685  0.00  0.00     0.053 C 
ATOM      9  C   UNL d   1       1.559   2.352   0.151  0.00  0.00     0.018 C 
ENDBRANCH   1   8
TORSDOF 1
ENDMDL
