MODEL 1
REMARK minimizedAffinity 5.00545263
REMARK minimizedRMSD -1
REMARK  1 active torsions:
REMARK  status: ('A' for Active; 'I' for Inactive)
REMARK    1  A    between atoms: C1_2  and  C2_3 
ROOT
ATOM      1  C2  UNL d   1       1.149  -1.200  -2.734  0.00  0.00    -0.073 A 
ATOM      2  C3  UNL d   1       0.789  -1.409  -1.398  0.00  0.00    -0.002 A 
ATOM      3  C4  UNL d   1       0.461  -0.328  -0.579  0.00  0.00     0.004 A 
ATOM      4  C5  UNL d   1       0.482   0.971  -1.088  0.00  0.00    -0.004 A 
ATOM      5  C6  UNL d   1       0.827   1.199  -2.424  0.00  0.00    -0.075 A 
ATOM      6  C7  UNL d   1       0.857   2.590  -2.986  0.00  0.00     0.076 C 
ATOM      7  C8  UNL d   1       1.158   0.109  -3.239  0.00  0.00     0.001 A 
ENDROOT
BRANCH   1   8
ATOM      8  C1  UNL d   1       1.498  -2.364  -3.625  0.00  0.00     0.053 C 
ATOM      9  C   UNL d   1       1.473  -3.685  -2.872  0.00  0.00     0.018 C 
ENDBRANCH   1   8
TORSDOF 1
ENDMDL
