MODEL 1
REMARK minimizedAffinity 0.0164632183
REMARK minimizedRMSD -1
REMARK  1 active torsions:
REMARK  status: ('A' for Active; 'I' for Inactive)
REMARK    1  A    between atoms: C1_2  and  C2_3 
ROOT
ATOM      1  C2  UNL d   1       2.328  -0.312  -4.394  0.00  0.00    -0.073 A 
ATOM      2  C3  UNL d   1       1.870  -1.634  -4.350  0.00  0.00    -0.002 A 
ATOM      3  C4  UNL d   1       1.001  -2.045  -3.338  0.00  0.00     0.004 A 
ATOM      4  C5  UNL d   1       0.576  -1.139  -2.367  0.00  0.00    -0.004 A 
ATOM      5  C6  UNL d   1       1.012   0.189  -2.402  0.00  0.00    -0.075 A 
ATOM      6  C7  UNL d   1       0.565   1.175  -1.363  0.00  0.00     0.076 C 
ATOM      7  C8  UNL d   1       1.887   0.594  -3.419  0.00  0.00     0.001 A 
ENDROOT
BRANCH   1   8
ATOM      8  C1  UNL d   1       3.262   0.139  -5.488  0.00  0.00     0.053 C 
ATOM      9  C   UNL d   1       4.721   0.020  -5.077  0.00  0.00     0.018 C 
ENDBRANCH   1   8
TORSDOF 1
ENDMDL
