MODEL 1
REMARK minimizedAffinity -5.48312378
REMARK minimizedRMSD -1
REMARK  1 active torsions:
REMARK  status: ('A' for Active; 'I' for Inactive)
REMARK    1  A    between atoms: C1_2  and  C2_3 
ROOT
ATOM      1  C2  UNL d   1       0.109  -0.166   0.096  0.00  0.00    -0.073 A 
ATOM      2  C3  UNL d   1       1.079  -1.153   0.304  0.00  0.00    -0.002 A 
ATOM      3  C4  UNL d   1       2.417  -0.800   0.487  0.00  0.00     0.004 A 
ATOM      4  C5  UNL d   1       2.797   0.542   0.471  0.00  0.00    -0.004 A 
ATOM      5  C6  UNL d   1       1.840   1.544   0.276  0.00  0.00    -0.075 A 
ATOM      6  C7  UNL d   1       2.233   2.992   0.253  0.00  0.00     0.076 C 
ATOM      7  C8  UNL d   1       0.499   1.181   0.091  0.00  0.00     0.001 A 
ENDROOT
BRANCH   1   8
ATOM      8  C1  UNL d   1      -1.337  -0.542  -0.095  0.00  0.00     0.053 C 
ATOM      9  C   UNL d   1      -1.982   0.232  -1.234  0.00  0.00     0.018 C 
ENDBRANCH   1   8
TORSDOF 1
ENDMDL
