MODEL 1
REMARK minimizedAffinity -5.89032507
REMARK minimizedRMSD -1
REMARK  1 active torsions:
REMARK  status: ('A' for Active; 'I' for Inactive)
REMARK    1  A    between atoms: C1_2  and  C2_3 
ROOT
ATOM      1  C2  UNL d   1       1.838   1.293   0.902  0.00  0.00    -0.073 A 
ATOM      2  C3  UNL d   1       2.419   0.022   0.978  0.00  0.00    -0.002 A 
ATOM      3  C4  UNL d   1       1.806  -1.071   0.364  0.00  0.00     0.004 A 
ATOM      4  C5  UNL d   1       0.612  -0.904  -0.337  0.00  0.00    -0.004 A 
ATOM      5  C6  UNL d   1       0.022   0.360  -0.434  0.00  0.00    -0.075 A 
ATOM      6  C7  UNL d   1      -1.264   0.556  -1.183  0.00  0.00     0.076 C 
ATOM      7  C8  UNL d   1       0.642   1.452   0.187  0.00  0.00     0.001 A 
ENDROOT
BRANCH   1   8
ATOM      8  C1  UNL d   1       2.499   2.478   1.558  0.00  0.00     0.053 C 
ATOM      9  C   UNL d   1       2.123   2.599   3.026  0.00  0.00     0.018 C 
ENDBRANCH   1   8
TORSDOF 1
ENDMDL
