MODEL 1
REMARK minimizedAffinity -4.32600355
REMARK minimizedRMSD -1
REMARK  1 active torsions:
REMARK  status: ('A' for Active; 'I' for Inactive)
REMARK    1  A    between atoms: C1_2  and  C2_3 
ROOT
ATOM      1  C2  UNL d   1       0.024   0.047  -0.013  0.00  0.00    -0.073 A 
ATOM      2  C3  UNL d   1       0.162   1.439   0.036  0.00  0.00    -0.002 A 
ATOM      3  C4  UNL d   1       1.381   2.014   0.398  0.00  0.00     0.004 A 
ATOM      4  C5  UNL d   1       2.474   1.206   0.708  0.00  0.00    -0.004 A 
ATOM      5  C6  UNL d   1       2.360  -0.187   0.654  0.00  0.00    -0.075 A 
ATOM      6  C7  UNL d   1       3.526  -1.071   0.987  0.00  0.00     0.076 C 
ATOM      7  C8  UNL d   1       1.132  -0.757   0.292  0.00  0.00     0.001 A 
ENDROOT
BRANCH   1   8
ATOM      8  C1  UNL d   1      -1.288  -0.578  -0.410  0.00  0.00     0.053 C 
ATOM      9  C   UNL d   1      -1.910   0.117  -1.611  0.00  0.00     0.018 C 
ENDBRANCH   1   8
TORSDOF 1
ENDMDL
