MODEL 1
REMARK minimizedAffinity -3.08323407
REMARK minimizedRMSD -1
REMARK  1 active torsions:
REMARK  status: ('A' for Active; 'I' for Inactive)
REMARK    1  A    between atoms: C1_2  and  C2_3 
ROOT
ATOM      1  C2  UNL d   1       0.116   0.457   0.295  0.00  0.00    -0.073 A 
ATOM      2  C3  UNL d   1       0.309   1.787  -0.098  0.00  0.00    -0.002 A 
ATOM      3  C4  UNL d   1       1.550   2.401   0.077  0.00  0.00     0.004 A 
ATOM      4  C5  UNL d   1       2.611   1.691   0.639  0.00  0.00    -0.004 A 
ATOM      5  C6  UNL d   1       2.441   0.358   1.027  0.00  0.00    -0.075 A 
ATOM      6  C7  UNL d   1       3.572  -0.418   1.636  0.00  0.00     0.076 C 
ATOM      7  C8  UNL d   1       1.191  -0.250   0.851  0.00  0.00     0.001 A 
ENDROOT
BRANCH   1   8
ATOM      8  C1  UNL d   1      -1.220  -0.212   0.102  0.00  0.00     0.053 C 
ATOM      9  C   UNL d   1      -1.681  -0.158  -1.346  0.00  0.00     0.018 C 
ENDBRANCH   1   8
TORSDOF 1
ENDMDL
