MODEL 1
REMARK minimizedAffinity -4.82350159
REMARK minimizedRMSD -1
REMARK  1 active torsions:
REMARK  status: ('A' for Active; 'I' for Inactive)
REMARK    1  A    between atoms: C1_2  and  C2_3 
ROOT
ATOM      1  C2  UNL d   1      -0.108  -0.097  -0.271  0.00  0.00    -0.073 A 
ATOM      2  C3  UNL d   1       0.237   1.210  -0.631  0.00  0.00    -0.002 A 
ATOM      3  C4  UNL d   1       1.469   1.744  -0.251  0.00  0.00     0.004 A 
ATOM      4  C5  UNL d   1       2.370   0.976   0.485  0.00  0.00    -0.004 A 
ATOM      5  C6  UNL d   1       2.049  -0.338   0.844  0.00  0.00    -0.075 A 
ATOM      6  C7  UNL d   1       3.006  -1.177   1.638  0.00  0.00     0.076 C 
ATOM      7  C8  UNL d   1       0.809  -0.866   0.461  0.00  0.00     0.001 A 
ENDROOT
BRANCH   1   8
ATOM      8  C1  UNL d   1      -1.434  -0.681  -0.685  0.00  0.00     0.053 C 
ATOM      9  C   UNL d   1      -2.094   0.131  -1.789  0.00  0.00     0.018 C 
ENDBRANCH   1   8
TORSDOF 1
ENDMDL
