MODEL 1
REMARK minimizedAffinity -3.05847502
REMARK minimizedRMSD -1
REMARK  1 active torsions:
REMARK  status: ('A' for Active; 'I' for Inactive)
REMARK    1  A    between atoms: C1_2  and  C2_3 
ROOT
ATOM      1  C2  UNL d   1       0.280   0.632  -0.030  0.00  0.00    -0.073 A 
ATOM      2  C3  UNL d   1       1.049  -0.504  -0.304  0.00  0.00    -0.002 A 
ATOM      3  C4  UNL d   1       2.217  -0.756   0.418  0.00  0.00     0.004 A 
ATOM      4  C5  UNL d   1       2.623   0.121   1.423  0.00  0.00    -0.004 A 
ATOM      5  C6  UNL d   1       1.861   1.256   1.720  0.00  0.00    -0.075 A 
ATOM      6  C7  UNL d   1       2.286   2.211   2.797  0.00  0.00     0.076 C 
ATOM      7  C8  UNL d   1       0.691   1.503   0.989  0.00  0.00     0.001 A 
ENDROOT
BRANCH   1   8
ATOM      8  C1  UNL d   1      -0.986   0.904  -0.802  0.00  0.00     0.053 C 
ATOM      9  C   UNL d   1      -1.948  -0.272  -0.751  0.00  0.00     0.018 C 
ENDBRANCH   1   8
TORSDOF 1
ENDMDL
