MODEL 1
REMARK minimizedAffinity 2.96504474
REMARK minimizedRMSD -1
REMARK  1 active torsions:
REMARK  status: ('A' for Active; 'I' for Inactive)
REMARK    1  A    between atoms: C1_2  and  C2_3 
ROOT
ATOM      1  C2  UNL d   1       1.534   3.878   0.247  0.00  0.00    -0.073 A 
ATOM      2  C3  UNL d   1       2.759   3.434   0.758  0.00  0.00    -0.002 A 
ATOM      3  C4  UNL d   1       2.919   2.105   1.150  0.00  0.00     0.004 A 
ATOM      4  C5  UNL d   1       1.860   1.205   1.030  0.00  0.00    -0.004 A 
ATOM      5  C6  UNL d   1       0.631   1.626   0.511  0.00  0.00    -0.075 A 
ATOM      6  C7  UNL d   1      -0.518   0.671   0.377  0.00  0.00     0.076 C 
ATOM      7  C8  UNL d   1       0.478   2.964   0.121  0.00  0.00     0.001 A 
ENDROOT
BRANCH   1   8
ATOM      8  C1  UNL d   1       1.358   5.311  -0.185  0.00  0.00     0.053 C 
ATOM      9  C   UNL d   1       2.691   6.000  -0.429  0.00  0.00     0.018 C 
ENDBRANCH   1   8
TORSDOF 1
ENDMDL
