MODEL 1
REMARK minimizedAffinity -6.49639893
REMARK minimizedRMSD -1
REMARK  3 active torsions:
REMARK  status: ('A' for Active; 'I' for Inactive)
REMARK    1  A    between atoms: C3'_2  and  C2'_3 
REMARK    2  A    between atoms: C2'_3  and  C1'_4 
REMARK    3  A    between atoms: C1'_4  and  C1_5 
ROOT
ATOM      1  C1  N4B d   1       0.324  -0.186   0.255  0.00  0.00    -0.075 A 
ATOM      2  C2  N4B d   1      -0.802  -0.429   1.071  0.00  0.00     0.002 A 
ATOM      3  C3  N4B d   1      -0.797  -1.482   1.953  0.00  0.00     0.002 A 
ATOM      4  C4  N4B d   1       0.311  -2.313   2.022  0.00  0.00    -0.004 A 
ATOM      5  C5  N4B d   1       1.405  -2.056   1.249  0.00  0.00     0.002 A 
ATOM      6  C6  N4B d   1       1.416  -0.999   0.362  0.00  0.00     0.002 A 
ENDROOT
BRANCH   1   7
ATOM      7  C1' N4B d   1       0.332   0.901  -0.785  0.00  0.00     0.057 C 
BRANCH   7   8
ATOM      8  C2' N4B d   1      -1.106   1.294  -1.109  0.00  0.00     0.009 C 
BRANCH   8   9
ATOM      9  C3' N4B d   1      -1.189   2.178  -2.341  0.00  0.00     0.004 C 
ATOM     10  C4' N4B d   1      -2.375   1.863  -3.203  0.00  0.00     0.003 C 
ENDBRANCH   8   9
ENDBRANCH   7   8
ENDBRANCH   1   7
TORSDOF 3
ENDMDL
