MODEL 1
REMARK minimizedAffinity -6.57871389
REMARK minimizedRMSD -1
REMARK  3 active torsions:
REMARK  status: ('A' for Active; 'I' for Inactive)
REMARK    1  A    between atoms: C3'_2  and  C2'_3 
REMARK    2  A    between atoms: C2'_3  and  C1'_4 
REMARK    3  A    between atoms: C1'_4  and  C1_5 
ROOT
ATOM      1  C1  N4B d   1      -0.266   0.088  -0.119  0.00  0.00    -0.075 A 
ATOM      2  C2  N4B d   1       0.994   0.215  -0.745  0.00  0.00     0.002 A 
ATOM      3  C3  N4B d   1       1.916  -0.797  -0.643  0.00  0.00     0.002 A 
ATOM      4  C4  N4B d   1       1.610  -1.932   0.092  0.00  0.00    -0.004 A 
ATOM      5  C5  N4B d   1       0.382  -2.058   0.673  0.00  0.00     0.002 A 
ATOM      6  C6  N4B d   1      -0.556  -1.051   0.575  0.00  0.00     0.002 A 
ENDROOT
BRANCH   1   7
ATOM      7  C1' N4B d   1      -1.274   1.204  -0.131  0.00  0.00     0.057 C 
BRANCH   7   8
ATOM      8  C2' N4B d   1      -1.152   1.976  -1.441  0.00  0.00     0.009 C 
BRANCH   8   9
ATOM      9  C3' N4B d   1      -2.300   1.671  -2.389  0.00  0.00     0.004 C 
ATOM     10  C4' N4B d   1      -1.935   1.880  -3.829  0.00  0.00     0.003 C 
ENDBRANCH   8   9
ENDBRANCH   7   8
ENDBRANCH   1   7
TORSDOF 3
ENDMDL
