MODEL 1
REMARK minimizedAffinity -6.15685749
REMARK minimizedRMSD -1
REMARK  3 active torsions:
REMARK  status: ('A' for Active; 'I' for Inactive)
REMARK    1  A    between atoms: C3'_2  and  C2'_3 
REMARK    2  A    between atoms: C2'_3  and  C1'_4 
REMARK    3  A    between atoms: C1'_4  and  C1_5 
ROOT
ATOM      1  C1  N4B d   1      -0.201   0.125   0.234  0.00  0.00    -0.075 A 
ATOM      2  C2  N4B d   1       0.977   0.190  -0.542  0.00  0.00     0.002 A 
ATOM      3  C3  N4B d   1       1.836  -0.882  -0.577  0.00  0.00     0.002 A 
ATOM      4  C4  N4B d   1       1.548  -2.016   0.168  0.00  0.00    -0.004 A 
ATOM      5  C5  N4B d   1       0.395  -2.080   0.895  0.00  0.00     0.002 A 
ATOM      6  C6  N4B d   1      -0.479  -1.012   0.936  0.00  0.00     0.002 A 
ENDROOT
BRANCH   1   7
ATOM      7  C1' N4B d   1      -1.127   1.303   0.371  0.00  0.00     0.057 C 
BRANCH   7   8
ATOM      8  C2' N4B d   1      -1.236   2.014  -0.974  0.00  0.00     0.009 C 
BRANCH   8   9
ATOM      9  C3' N4B d   1      -2.202   1.310  -1.912  0.00  0.00     0.004 C 
ATOM     10  C4' N4B d   1      -2.590   2.156  -3.088  0.00  0.00     0.003 C 
ENDBRANCH   8   9
ENDBRANCH   7   8
ENDBRANCH   1   7
TORSDOF 3
ENDMDL
