MODEL 1
REMARK minimizedAffinity -6.61243248
REMARK minimizedRMSD -1
REMARK  3 active torsions:
REMARK  status: ('A' for Active; 'I' for Inactive)
REMARK    1  A    between atoms: C3'_2  and  C2'_3 
REMARK    2  A    between atoms: C2'_3  and  C1'_4 
REMARK    3  A    between atoms: C1'_4  and  C1_5 
ROOT
ATOM      1  C1  N4B d   1       0.203  -0.886   0.264  0.00  0.00    -0.075 A 
ATOM      2  C2  N4B d   1       1.240  -1.844   0.303  0.00  0.00     0.002 A 
ATOM      3  C3  N4B d   1       1.366  -2.675   1.389  0.00  0.00     0.002 A 
ATOM      4  C4  N4B d   1       0.482  -2.554   2.451  0.00  0.00    -0.004 A 
ATOM      5  C5  N4B d   1      -0.532  -1.643   2.394  0.00  0.00     0.002 A 
ATOM      6  C6  N4B d   1      -0.673  -0.804   1.307  0.00  0.00     0.002 A 
ENDROOT
BRANCH   1   7
ATOM      7  C1' N4B d   1       0.078   0.102  -0.864  0.00  0.00     0.057 C 
BRANCH   7   8
ATOM      8  C2' N4B d   1      -0.909   1.195  -0.464  0.00  0.00     0.009 C 
BRANCH   8   9
ATOM      9  C3' N4B d   1      -1.468   1.925  -1.673  0.00  0.00     0.004 C 
ATOM     10  C4' N4B d   1      -2.618   1.201  -2.309  0.00  0.00     0.003 C 
ENDBRANCH   8   9
ENDBRANCH   7   8
ENDBRANCH   1   7
TORSDOF 3
ENDMDL
