MODEL 1
REMARK minimizedAffinity -6.20597839
REMARK minimizedRMSD -1
REMARK  3 active torsions:
REMARK  status: ('A' for Active; 'I' for Inactive)
REMARK    1  A    between atoms: C3'_2  and  C2'_3 
REMARK    2  A    between atoms: C2'_3  and  C1'_4 
REMARK    3  A    between atoms: C1'_4  and  C1_5 
ROOT
ATOM      1  C1  N4B d   1      -0.040  -0.281   0.217  0.00  0.00    -0.075 A 
ATOM      2  C2  N4B d   1       1.329  -0.149  -0.105  0.00  0.00     0.002 A 
ATOM      3  C3  N4B d   1       2.188  -1.199   0.103  0.00  0.00     0.002 A 
ATOM      4  C4  N4B d   1       1.708  -2.381   0.648  0.00  0.00    -0.004 A 
ATOM      5  C5  N4B d   1       0.380  -2.509   0.933  0.00  0.00     0.002 A 
ATOM      6  C6  N4B d   1      -0.496  -1.463   0.724  0.00  0.00     0.002 A 
ENDROOT
BRANCH   1   7
ATOM      7  C1' N4B d   1      -1.001   0.869   0.087  0.00  0.00     0.057 C 
BRANCH   7   8
ATOM      8  C2' N4B d   1      -1.061   1.309  -1.373  0.00  0.00     0.009 C 
BRANCH   8   9
ATOM      9  C3' N4B d   1      -2.414   1.019  -1.999  0.00  0.00     0.004 C 
ATOM     10  C4' N4B d   1      -2.447   1.307  -3.470  0.00  0.00     0.003 C 
ENDBRANCH   8   9
ENDBRANCH   7   8
ENDBRANCH   1   7
TORSDOF 3
ENDMDL
