MODEL 1
REMARK minimizedAffinity -2.66858292
REMARK minimizedRMSD -1
REMARK  1 active torsions:
REMARK  status: ('A' for Active; 'I' for Inactive)
REMARK    1  A    between atoms: N_2  and  C1_3 
ROOT
ATOM      1  C1  UNL d   1       1.158  -0.053   0.828  0.00  0.00     0.143 A 
ATOM      2  C2  UNL d   1      -0.175   0.129   0.445  0.00  0.00    -0.057 A 
ATOM      3  C3  UNL d   1      -1.224  -0.466   1.156  0.00  0.00     0.033 A 
ATOM      4  C4  UNL d   1      -0.955  -1.281   2.251  0.00  0.00    -0.042 A 
ATOM      5  C5  UNL d   1       0.364  -1.498   2.635  0.00  0.00     0.033 A 
ATOM      6  C6  UNL d   1       1.406  -0.895   1.924  0.00  0.00    -0.057 A 
ENDROOT
BRANCH   1   7
ATOM      7  N   UNL d   1       2.249   0.431   0.103  0.00  0.00    -0.732 N 
ATOM      8  C   UNL d   1       2.196   0.516  -1.341  0.00  0.00     0.284 C 
ATOM      9  H3  UNL d   1       2.688   1.233   0.551  0.00  0.00     0.395 HD
ENDBRANCH   1   7
TORSDOF 1
ENDMDL
