MODEL 1
REMARK minimizedAffinity -4.82148886
REMARK minimizedRMSD -1
REMARK  1 active torsions:
REMARK  status: ('A' for Active; 'I' for Inactive)
REMARK    1  A    between atoms: N_2  and  C1_3 
ROOT
ATOM      1  C1  UNL d   1       0.990  -0.444   0.366  0.00  0.00     0.143 A 
ATOM      2  C2  UNL d   1       0.271  -0.123   1.523  0.00  0.00    -0.057 A 
ATOM      3  C3  UNL d   1       0.721  -0.516   2.789  0.00  0.00     0.033 A 
ATOM      4  C4  UNL d   1       1.886  -1.265   2.919  0.00  0.00    -0.042 A 
ATOM      5  C5  UNL d   1       2.603  -1.617   1.781  0.00  0.00     0.033 A 
ATOM      6  C6  UNL d   1       2.152  -1.216   0.519  0.00  0.00    -0.057 A 
ENDROOT
BRANCH   1   7
ATOM      7  N   UNL d   1       0.544  -0.167  -0.929  0.00  0.00    -0.732 N 
ATOM      8  C   UNL d   1      -0.824   0.244  -1.165  0.00  0.00     0.284 C 
ATOM      9  H3  UNL d   1       1.232   0.346  -1.475  0.00  0.00     0.395 HD
ENDBRANCH   1   7
TORSDOF 1
ENDMDL
