MODEL 1
REMARK minimizedAffinity -2.19714594
REMARK minimizedRMSD -1
REMARK  1 active torsions:
REMARK  status: ('A' for Active; 'I' for Inactive)
REMARK    1  A    between atoms: N_2  and  C1_3 
ROOT
ATOM      1  C1  UNL d   1      -0.217   1.348  -1.507  0.00  0.00     0.143 A 
ATOM      2  C2  UNL d   1       0.502   0.568  -0.595  0.00  0.00    -0.057 A 
ATOM      3  C3  UNL d   1      -0.085  -0.535   0.038  0.00  0.00     0.033 A 
ATOM      4  C4  UNL d   1      -1.415  -0.860  -0.209  0.00  0.00    -0.042 A 
ATOM      5  C5  UNL d   1      -2.156  -0.083  -1.093  0.00  0.00     0.033 A 
ATOM      6  C6  UNL d   1      -1.562   1.012  -1.727  0.00  0.00    -0.057 A 
ENDROOT
BRANCH   1   7
ATOM      7  N   UNL d   1       0.280   2.515  -2.093  0.00  0.00    -0.732 N 
ATOM      8  C   UNL d   1      -0.582   3.657  -2.307  0.00  0.00     0.284 C 
ATOM      9  H3  UNL d   1       1.210   2.753  -1.757  0.00  0.00     0.395 HD
ENDBRANCH   1   7
TORSDOF 1
ENDMDL
