MODEL 1
REMARK minimizedAffinity -2.4874239
REMARK minimizedRMSD -1
REMARK  1 active torsions:
REMARK  status: ('A' for Active; 'I' for Inactive)
REMARK    1  A    between atoms: N_2  and  C1_3 
ROOT
ATOM      1  C1  UNL d   1      -0.134  -0.881   0.510  0.00  0.00     0.143 A 
ATOM      2  C2  UNL d   1       1.121  -0.612  -0.046  0.00  0.00    -0.057 A 
ATOM      3  C3  UNL d   1       2.301  -0.953   0.627  0.00  0.00     0.033 A 
ATOM      4  C4  UNL d   1       2.246  -1.544   1.884  0.00  0.00    -0.042 A 
ATOM      5  C5  UNL d   1       1.010  -1.798   2.468  0.00  0.00     0.033 A 
ATOM      6  C6  UNL d   1      -0.165  -1.461   1.788  0.00  0.00    -0.057 A 
ENDROOT
BRANCH   1   7
ATOM      7  N   UNL d   1      -1.342  -0.478  -0.064  0.00  0.00    -0.732 N 
ATOM      8  C   UNL d   1      -2.536  -0.350   0.743  0.00  0.00     0.284 C 
ATOM      9  H3  UNL d   1      -1.218   0.269  -0.745  0.00  0.00     0.395 HD
ENDBRANCH   1   7
TORSDOF 1
ENDMDL
