MODEL 1
REMARK minimizedAffinity -2.09856105
REMARK minimizedRMSD -1
REMARK  1 active torsions:
REMARK  status: ('A' for Active; 'I' for Inactive)
REMARK    1  A    between atoms: N_2  and  C1_3 
ROOT
ATOM      1  C1  UNL d   1      -0.588   1.441  -2.269  0.00  0.00     0.143 A 
ATOM      2  C2  UNL d   1      -0.489   1.646  -3.650  0.00  0.00    -0.057 A 
ATOM      3  C3  UNL d   1      -1.203   2.670  -4.285  0.00  0.00     0.033 A 
ATOM      4  C4  UNL d   1      -2.052   3.492  -3.552  0.00  0.00    -0.042 A 
ATOM      5  C5  UNL d   1      -2.185   3.290  -2.182  0.00  0.00     0.033 A 
ATOM      6  C6  UNL d   1      -1.465   2.270  -1.553  0.00  0.00    -0.057 A 
ENDROOT
BRANCH   1   7
ATOM      7  N   UNL d   1       0.019   0.378  -1.596  0.00  0.00    -0.732 N 
ATOM      8  C   UNL d   1      -0.400   0.018  -0.258  0.00  0.00     0.284 C 
ATOM      9  H3  UNL d   1       0.196  -0.418  -2.204  0.00  0.00     0.395 HD
ENDBRANCH   1   7
TORSDOF 1
ENDMDL
