MODEL 1
REMARK minimizedAffinity 6.01767397
REMARK minimizedRMSD -1
REMARK  1 active torsions:
REMARK  status: ('A' for Active; 'I' for Inactive)
REMARK    1  A    between atoms: C1_2  and  C2_3 
ROOT
ATOM      1  C2  UNL d   1       0.243   2.822  -0.581  0.00  0.00    -0.076 A 
ATOM      2  C3  UNL d   1       0.931   2.584   0.622  0.00  0.00     0.004 A 
ATOM      3  C4  UNL d   1       0.458   1.655   1.547  0.00  0.00    -0.003 A 
ATOM      4  C5  UNL d   1      -0.711   0.949   1.284  0.00  0.00     0.000 A 
ATOM      5  C6  UNL d   1      -1.396   1.159   0.088  0.00  0.00     0.000 A 
ATOM      6  C7  UNL d   1      -0.924   2.080  -0.863  0.00  0.00    -0.073 A 
ATOM      7  C8  UNL d   1      -1.706   2.272  -2.133  0.00  0.00     0.078 C 
ENDROOT
BRANCH   1   8
ATOM      8  C1  UNL d   1       0.790   3.861  -1.534  0.00  0.00     0.053 C 
ATOM      9  C   UNL d   1       0.127   5.219  -1.358  0.00  0.00     0.018 C 
ENDBRANCH   1   8
TORSDOF 1
ENDMDL
