MODEL 1
REMARK minimizedAffinity -2.40976334
REMARK minimizedRMSD -1
REMARK  1 active torsions:
REMARK  status: ('A' for Active; 'I' for Inactive)
REMARK    1  A    between atoms: C1_2  and  C2_3 
ROOT
ATOM      1  C2  UNL d   1       0.110   3.335  -0.719  0.00  0.00    -0.076 A 
ATOM      2  C3  UNL d   1       1.242   4.116  -1.006  0.00  0.00     0.004 A 
ATOM      3  C4  UNL d   1       2.362   4.089  -0.177  0.00  0.00    -0.003 A 
ATOM      4  C5  UNL d   1       2.367   3.280   0.954  0.00  0.00     0.000 A 
ATOM      5  C6  UNL d   1       1.260   2.484   1.245  0.00  0.00     0.000 A 
ATOM      6  C7  UNL d   1       0.129   2.488   0.410  0.00  0.00    -0.073 A 
ATOM      7  C8  UNL d   1      -1.040   1.615   0.774  0.00  0.00     0.078 C 
ENDROOT
BRANCH   1   8
ATOM      8  C1  UNL d   1      -1.086   3.426  -1.640  0.00  0.00     0.053 C 
ATOM      9  C   UNL d   1      -1.383   4.854  -2.070  0.00  0.00     0.018 C 
ENDBRANCH   1   8
TORSDOF 1
ENDMDL
