MODEL 1
REMARK minimizedAffinity 2.55638456
REMARK minimizedRMSD -1
REMARK  1 active torsions:
REMARK  status: ('A' for Active; 'I' for Inactive)
REMARK    1  A    between atoms: C1_2  and  C2_3 
ROOT
ATOM      1  C2  UNL d   1       0.705   2.027   1.012  0.00  0.00    -0.076 A 
ATOM      2  C3  UNL d   1      -0.005   2.108  -0.199  0.00  0.00     0.004 A 
ATOM      3  C4  UNL d   1       0.158   3.197  -1.054  0.00  0.00    -0.003 A 
ATOM      4  C5  UNL d   1       1.034   4.221  -0.714  0.00  0.00     0.000 A 
ATOM      5  C6  UNL d   1       1.760   4.148   0.475  0.00  0.00     0.000 A 
ATOM      6  C7  UNL d   1       1.619   3.050   1.341  0.00  0.00    -0.073 A 
ATOM      7  C8  UNL d   1       2.422   3.027   2.613  0.00  0.00     0.078 C 
ENDROOT
BRANCH   1   8
ATOM      8  C1  UNL d   1       0.466   0.836   1.912  0.00  0.00     0.053 C 
ATOM      9  C   UNL d   1       1.409  -0.319   1.613  0.00  0.00     0.018 C 
ENDBRANCH   1   8
TORSDOF 1
ENDMDL
