MODEL 1
REMARK minimizedAffinity 3.42306828
REMARK minimizedRMSD -1
REMARK  1 active torsions:
REMARK  status: ('A' for Active; 'I' for Inactive)
REMARK    1  A    between atoms: C1_2  and  C2_3 
ROOT
ATOM      1  C2  UNL d   1       0.661   3.067   0.698  0.00  0.00    -0.076 A 
ATOM      2  C3  UNL d   1       0.816   4.387   0.240  0.00  0.00     0.004 A 
ATOM      3  C4  UNL d   1       0.490   4.735  -1.070  0.00  0.00    -0.003 A 
ATOM      4  C5  UNL d   1       0.003   3.768  -1.943  0.00  0.00     0.000 A 
ATOM      5  C6  UNL d   1      -0.174   2.458  -1.500  0.00  0.00     0.000 A 
ATOM      6  C7  UNL d   1       0.135   2.094  -0.178  0.00  0.00    -0.073 A 
ATOM      7  C8  UNL d   1      -0.070   0.665   0.243  0.00  0.00     0.078 C 
ENDROOT
BRANCH   1   8
ATOM      8  C1  UNL d   1       1.057   2.743   2.121  0.00  0.00     0.053 C 
ATOM      9  C   UNL d   1       2.485   3.159   2.438  0.00  0.00     0.018 C 
ENDBRANCH   1   8
TORSDOF 1
ENDMDL
