MODEL 1
REMARK minimizedAffinity -3.38593435
REMARK minimizedRMSD -1
REMARK  1 active torsions:
REMARK  status: ('A' for Active; 'I' for Inactive)
REMARK    1  A    between atoms: C1_2  and  C2_3 
ROOT
ATOM      1  C2  UNL d   1       0.350   4.172  -0.741  0.00  0.00    -0.076 A 
ATOM      2  C3  UNL d   1       1.092   5.079   0.036  0.00  0.00     0.004 A 
ATOM      3  C4  UNL d   1       1.691   4.679   1.229  0.00  0.00    -0.003 A 
ATOM      4  C5  UNL d   1       1.559   3.365   1.665  0.00  0.00     0.000 A 
ATOM      5  C6  UNL d   1       0.842   2.447   0.898  0.00  0.00     0.000 A 
ATOM      6  C7  UNL d   1       0.245   2.830  -0.316  0.00  0.00    -0.073 A 
ATOM      7  C8  UNL d   1      -0.522   1.801  -1.099  0.00  0.00     0.078 C 
ENDROOT
BRANCH   1   8
ATOM      8  C1  UNL d   1      -0.300   4.670  -2.012  0.00  0.00     0.053 C 
ATOM      9  C   UNL d   1       0.426   5.866  -2.607  0.00  0.00     0.018 C 
ENDBRANCH   1   8
TORSDOF 1
ENDMDL
