MODEL 1
REMARK minimizedAffinity -1.62876797
REMARK minimizedRMSD -1
REMARK  1 active torsions:
REMARK  status: ('A' for Active; 'I' for Inactive)
REMARK    1  A    between atoms: C1_2  and  C2_3 
ROOT
ATOM      1  C2  UNL d   1       0.601   3.286   0.399  0.00  0.00    -0.076 A 
ATOM      2  C3  UNL d   1       1.037   4.620   0.336  0.00  0.00     0.004 A 
ATOM      3  C4  UNL d   1       1.016   5.326  -0.866  0.00  0.00    -0.003 A 
ATOM      4  C5  UNL d   1       0.557   4.708  -2.024  0.00  0.00     0.000 A 
ATOM      5  C6  UNL d   1       0.104   3.391  -1.976  0.00  0.00     0.000 A 
ATOM      6  C7  UNL d   1       0.103   2.670  -0.769  0.00  0.00    -0.073 A 
ATOM      7  C8  UNL d   1      -0.391   1.250  -0.777  0.00  0.00     0.078 C 
ENDROOT
BRANCH   1   8
ATOM      8  C1  UNL d   1       0.673   2.562   1.725  0.00  0.00     0.053 C 
ATOM      9  C   UNL d   1       1.912   2.933   2.525  0.00  0.00     0.018 C 
ENDBRANCH   1   8
TORSDOF 1
ENDMDL
