MODEL 1
REMARK minimizedAffinity 3.55532193
REMARK minimizedRMSD -1
REMARK  1 active torsions:
REMARK  status: ('A' for Active; 'I' for Inactive)
REMARK    1  A    between atoms: C1_2  and  C2_3 
ROOT
ATOM      1  C2  UNL d   1      -0.179   1.355   0.950  0.00  0.00    -0.076 A 
ATOM      2  C3  UNL d   1       1.154   0.961   1.160  0.00  0.00     0.004 A 
ATOM      3  C4  UNL d   1       1.457  -0.178   1.905  0.00  0.00    -0.003 A 
ATOM      4  C5  UNL d   1       0.431  -0.942   2.450  0.00  0.00     0.000 A 
ATOM      5  C6  UNL d   1      -0.897  -0.577   2.236  0.00  0.00     0.000 A 
ATOM      6  C7  UNL d   1      -1.220   0.559   1.475  0.00  0.00    -0.073 A 
ATOM      7  C8  UNL d   1      -2.670   0.911   1.281  0.00  0.00     0.078 C 
ENDROOT
BRANCH   1   8
ATOM      8  C1  UNL d   1      -0.446   2.614   0.157  0.00  0.00     0.053 C 
ATOM      9  C   UNL d   1      -0.007   2.494  -1.294  0.00  0.00     0.018 C 
ENDBRANCH   1   8
TORSDOF 1
ENDMDL
