MODEL 1
REMARK minimizedAffinity 0.311354458
REMARK minimizedRMSD -1
REMARK  1 active torsions:
REMARK  status: ('A' for Active; 'I' for Inactive)
REMARK    1  A    between atoms: C1_2  and  C2_3 
ROOT
ATOM      1  C2  UNL d   1       0.156   1.775   0.936  0.00  0.00    -0.076 A 
ATOM      2  C3  UNL d   1      -0.755   0.759   0.600  0.00  0.00     0.004 A 
ATOM      3  C4  UNL d   1      -0.706  -0.485   1.227  0.00  0.00    -0.003 A 
ATOM      4  C5  UNL d   1       0.254  -0.732   2.202  0.00  0.00     0.000 A 
ATOM      5  C6  UNL d   1       1.154   0.271   2.561  0.00  0.00     0.000 A 
ATOM      6  C7  UNL d   1       1.108   1.535   1.950  0.00  0.00    -0.073 A 
ATOM      7  C8  UNL d   1       2.108   2.578   2.371  0.00  0.00     0.078 C 
ENDROOT
BRANCH   1   8
ATOM      8  C1  UNL d   1       0.072   3.095   0.203  0.00  0.00     0.053 C 
ATOM      9  C   UNL d   1       0.357   2.954  -1.285  0.00  0.00     0.018 C 
ENDBRANCH   1   8
TORSDOF 1
ENDMDL
