MODEL 1
REMARK minimizedAffinity 4.86626005
REMARK minimizedRMSD -1
REMARK  1 active torsions:
REMARK  status: ('A' for Active; 'I' for Inactive)
REMARK    1  A    between atoms: C1_2  and  C2_3 
ROOT
ATOM      1  C2  UNL d   1       0.343   2.413   0.146  0.00  0.00    -0.076 A 
ATOM      2  C3  UNL d   1      -0.369   2.738  -1.022  0.00  0.00     0.004 A 
ATOM      3  C4  UNL d   1      -0.075   3.894  -1.743  0.00  0.00    -0.003 A 
ATOM      4  C5  UNL d   1       0.936   4.744  -1.308  0.00  0.00     0.000 A 
ATOM      5  C6  UNL d   1       1.664   4.428  -0.161  0.00  0.00     0.000 A 
ATOM      6  C7  UNL d   1       1.391   3.258   0.568  0.00  0.00    -0.073 A 
ATOM      7  C8  UNL d   1       2.204   2.970   1.800  0.00  0.00     0.078 C 
ENDROOT
BRANCH   1   8
ATOM      8  C1  UNL d   1      -0.038   1.160   0.901  0.00  0.00     0.053 C 
ATOM      9  C   UNL d   1      -1.545   0.968   0.989  0.00  0.00     0.018 C 
ENDBRANCH   1   8
TORSDOF 1
ENDMDL
