MODEL 1
REMARK minimizedAffinity -0.20791848
REMARK minimizedRMSD -1
REMARK  0 active torsions:
REMARK  status: ('A' for Active; 'I' for Inactive)
ROOT
ATOM      1  C   UNL d   1       1.212  -2.675  -2.826  0.00  0.00     0.023 A 
ATOM      2  C1  UNL d   1       0.353  -1.587  -2.983  0.00  0.00     0.003 A 
ATOM      3  C2  UNL d   1      -0.050  -0.847  -1.870  0.00  0.00     0.048 A 
ATOM      4  C3  UNL d   1       0.410  -1.200  -0.602  0.00  0.00     0.023 A 
ATOM      5  C4  UNL d   1       1.271  -2.287  -0.440  0.00  0.00     0.048 A 
ATOM      6  C5  UNL d   1       1.670  -3.024  -1.556  0.00  0.00     0.003 A 
ATOM      7  I   UNL d   1      -0.188  -0.100   1.057  0.00  0.00    -0.146 I 
ENDROOT
TORSDOF 0
ENDMDL
