MODEL 1
REMARK minimizedAffinity -4.01540041
REMARK minimizedRMSD -1
REMARK  0 active torsions:
REMARK  status: ('A' for Active; 'I' for Inactive)
ROOT
ATOM      1  C   UNL d   1      -0.887  -0.591   1.706  0.00  0.00     0.023 A 
ATOM      2  C1  UNL d   1      -1.639  -1.608   1.117  0.00  0.00     0.003 A 
ATOM      3  C2  UNL d   1      -1.206  -2.199  -0.072  0.00  0.00     0.048 A 
ATOM      4  C3  UNL d   1      -0.019  -1.770  -0.665  0.00  0.00     0.023 A 
ATOM      5  C4  UNL d   1       0.737  -0.754  -0.079  0.00  0.00     0.048 A 
ATOM      6  C5  UNL d   1       0.300  -0.165   1.109  0.00  0.00     0.003 A 
ATOM      7  I   UNL d   1       0.627  -2.649  -2.434  0.00  0.00    -0.146 I 
ENDROOT
TORSDOF 0
ENDMDL
