MODEL 1
REMARK minimizedAffinity -1.40712833
REMARK minimizedRMSD -1
REMARK  0 active torsions:
REMARK  status: ('A' for Active; 'I' for Inactive)
ROOT
ATOM      1  C   UNL d   1       1.077  -3.817  -2.398  0.00  0.00     0.023 A 
ATOM      2  C1  UNL d   1       2.086  -3.456  -1.505  0.00  0.00     0.003 A 
ATOM      3  C2  UNL d   1       1.903  -2.373  -0.643  0.00  0.00     0.048 A 
ATOM      4  C3  UNL d   1       0.708  -1.656  -0.678  0.00  0.00     0.023 A 
ATOM      5  C4  UNL d   1      -0.305  -2.013  -1.569  0.00  0.00     0.048 A 
ATOM      6  C5  UNL d   1      -0.117  -3.096  -2.430  0.00  0.00     0.003 A 
ATOM      7  I   UNL d   1       0.433  -0.043   0.605  0.00  0.00    -0.146 I 
ENDROOT
TORSDOF 0
ENDMDL
