MODEL 1
REMARK minimizedAffinity -3.20347738
REMARK minimizedRMSD -1
REMARK  0 active torsions:
REMARK  status: ('A' for Active; 'I' for Inactive)
ROOT
ATOM      1  C   UNL d   1      -1.038   0.540   1.526  0.00  0.00     0.023 A 
ATOM      2  C1  UNL d   1      -0.109   1.043   0.615  0.00  0.00     0.003 A 
ATOM      3  C2  UNL d   1       0.519   0.185  -0.290  0.00  0.00     0.048 A 
ATOM      4  C3  UNL d   1       0.212  -1.175  -0.280  0.00  0.00     0.023 A 
ATOM      5  C4  UNL d   1      -0.717  -1.683   0.630  0.00  0.00     0.048 A 
ATOM      6  C5  UNL d   1      -1.342  -0.821   1.533  0.00  0.00     0.003 A 
ATOM      7  I   UNL d   1       1.145  -2.455  -1.626  0.00  0.00    -0.146 I 
ENDROOT
TORSDOF 0
ENDMDL
