MODEL 1
REMARK minimizedAffinity -1.90919089
REMARK minimizedRMSD -1
REMARK  0 active torsions:
REMARK  status: ('A' for Active; 'I' for Inactive)
ROOT
ATOM      1  C   UNL d   1       1.234  -2.421  -2.506  0.00  0.00     0.023 A 
ATOM      2  C1  UNL d   1       1.549  -1.095  -2.209  0.00  0.00     0.003 A 
ATOM      3  C2  UNL d   1       0.995  -0.480  -1.085  0.00  0.00     0.048 A 
ATOM      4  C3  UNL d   1       0.127  -1.196  -0.261  0.00  0.00     0.023 A 
ATOM      5  C4  UNL d   1      -0.190  -2.524  -0.554  0.00  0.00     0.048 A 
ATOM      6  C5  UNL d   1       0.366  -3.135  -1.680  0.00  0.00     0.003 A 
ATOM      7  I   UNL d   1      -0.699  -0.283   1.413  0.00  0.00    -0.146 I 
ENDROOT
TORSDOF 0
ENDMDL
