MODEL 1
REMARK minimizedAffinity -3.11770844
REMARK minimizedRMSD -1
REMARK  0 active torsions:
REMARK  status: ('A' for Active; 'I' for Inactive)
ROOT
ATOM      1  C   UNL d   1      -0.094  -0.022   1.466  0.00  0.00     0.023 A 
ATOM      2  C1  UNL d   1      -1.116  -0.875   1.051  0.00  0.00     0.003 A 
ATOM      3  C2  UNL d   1      -0.971  -1.623  -0.119  0.00  0.00     0.048 A 
ATOM      4  C3  UNL d   1       0.200  -1.515  -0.869  0.00  0.00     0.023 A 
ATOM      5  C4  UNL d   1       1.226  -0.663  -0.456  0.00  0.00     0.048 A 
ATOM      6  C5  UNL d   1       1.076   0.084   0.714  0.00  0.00     0.003 A 
ATOM      7  I   UNL d   1       0.418  -2.628  -2.610  0.00  0.00    -0.146 I 
ENDROOT
TORSDOF 0
ENDMDL
