MODEL 1
REMARK minimizedAffinity 0.207559362
REMARK minimizedRMSD -1
REMARK  0 active torsions:
REMARK  status: ('A' for Active; 'I' for Inactive)
ROOT
ATOM      1  C   UNL d   1      -1.229   0.691   1.965  0.00  0.00     0.023 A 
ATOM      2  C1  UNL d   1      -2.068  -0.311   1.478  0.00  0.00     0.003 A 
ATOM      3  C2  UNL d   1      -1.644  -1.131   0.430  0.00  0.00     0.048 A 
ATOM      4  C3  UNL d   1      -0.379  -0.944  -0.125  0.00  0.00     0.023 A 
ATOM      5  C4  UNL d   1       0.465   0.058   0.359  0.00  0.00     0.048 A 
ATOM      6  C5  UNL d   1       0.036   0.876   1.406  0.00  0.00     0.003 A 
ATOM      7  I   UNL d   1       0.255  -2.163  -1.685  0.00  0.00    -0.146 I 
ENDROOT
TORSDOF 0
ENDMDL
