MODEL 1
REMARK minimizedAffinity -0.886564672
REMARK minimizedRMSD -1
REMARK  0 active torsions:
REMARK  status: ('A' for Active; 'I' for Inactive)
ROOT
ATOM      1  C   UNL d   1      -0.722   0.128   1.177  0.00  0.00     0.023 A 
ATOM      2  C1  UNL d   1       0.131   0.360   0.098  0.00  0.00     0.003 A 
ATOM      3  C2  UNL d   1       0.451  -0.681  -0.777  0.00  0.00     0.048 A 
ATOM      4  C3  UNL d   1      -0.086  -1.950  -0.568  0.00  0.00     0.023 A 
ATOM      5  C4  UNL d   1      -0.941  -2.187   0.510  0.00  0.00     0.048 A 
ATOM      6  C5  UNL d   1      -1.257  -1.144   1.383  0.00  0.00     0.003 A 
ATOM      7  I   UNL d   1       0.388  -3.500  -1.869  0.00  0.00    -0.146 I 
ENDROOT
TORSDOF 0
ENDMDL
