MODEL 1
REMARK minimizedAffinity -2.49858999
REMARK minimizedRMSD -1
REMARK  0 active torsions:
REMARK  status: ('A' for Active; 'I' for Inactive)
ROOT
ATOM      1  C   UNL d   1      -0.629   0.424   1.189  0.00  0.00     0.023 A 
ATOM      2  C1  UNL d   1      -1.494  -0.615   0.847  0.00  0.00     0.003 A 
ATOM      3  C2  UNL d   1      -1.106  -1.566  -0.098  0.00  0.00     0.048 A 
ATOM      4  C3  UNL d   1       0.150  -1.473  -0.698  0.00  0.00     0.023 A 
ATOM      5  C4  UNL d   1       1.020  -0.436  -0.358  0.00  0.00     0.048 A 
ATOM      6  C5  UNL d   1       0.627   0.513   0.587  0.00  0.00     0.003 A 
ATOM      7  I   UNL d   1       0.730  -2.888  -2.105  0.00  0.00    -0.146 I 
ENDROOT
TORSDOF 0
ENDMDL
