MODEL 1
REMARK minimizedAffinity -2.11280918
REMARK minimizedRMSD -1
REMARK  0 active torsions:
REMARK  status: ('A' for Active; 'I' for Inactive)
ROOT
ATOM      1  C   UNL d   1       0.086  -0.152   1.429  0.00  0.00     0.023 A 
ATOM      2  C1  UNL d   1       1.344  -0.153   0.828  0.00  0.00     0.003 A 
ATOM      3  C2  UNL d   1       1.575  -0.928  -0.310  0.00  0.00     0.048 A 
ATOM      4  C3  UNL d   1       0.542  -1.699  -0.843  0.00  0.00     0.023 A 
ATOM      5  C4  UNL d   1      -0.719  -1.700  -0.245  0.00  0.00     0.048 A 
ATOM      6  C5  UNL d   1      -0.945  -0.924   0.894  0.00  0.00     0.003 A 
ATOM      7  I   UNL d   1       0.883  -2.853  -2.537  0.00  0.00    -0.146 I 
ENDROOT
TORSDOF 0
ENDMDL
