MODEL 1
REMARK minimizedAffinity -0.0154233398
REMARK minimizedRMSD -1
REMARK  0 active torsions:
REMARK  status: ('A' for Active; 'I' for Inactive)
ROOT
ATOM      1  C   UNL d   1      -0.707   0.867   1.600  0.00  0.00     0.023 A 
ATOM      2  C1  UNL d   1      -0.105   1.269   0.407  0.00  0.00     0.003 A 
ATOM      3  C2  UNL d   1       0.303   0.314  -0.527  0.00  0.00     0.048 A 
ATOM      4  C3  UNL d   1       0.104  -1.041  -0.262  0.00  0.00     0.023 A 
ATOM      5  C4  UNL d   1      -0.499  -1.447   0.929  0.00  0.00     0.048 A 
ATOM      6  C5  UNL d   1      -0.904  -0.489   1.860  0.00  0.00     0.003 A 
ATOM      7  I   UNL d   1       0.709  -2.464  -1.651  0.00  0.00    -0.146 I 
ENDROOT
TORSDOF 0
ENDMDL
