MODEL 1
REMARK minimizedAffinity -4.06714153
REMARK minimizedRMSD -1
REMARK  0 active torsions:
REMARK  status: ('A' for Active; 'I' for Inactive)
ROOT
ATOM      1  C   UNL d   1      -1.094   0.764   2.044  0.00  0.00     0.023 A 
ATOM      2  C1  UNL d   1      -1.028  -0.616   2.242  0.00  0.00     0.003 A 
ATOM      3  C2  UNL d   1      -0.353  -1.422   1.323  0.00  0.00     0.048 A 
ATOM      4  C3  UNL d   1       0.254  -0.843   0.209  0.00  0.00     0.023 A 
ATOM      5  C4  UNL d   1       0.190   0.537   0.007  0.00  0.00     0.048 A 
ATOM      6  C5  UNL d   1      -0.486   1.339   0.928  0.00  0.00     0.003 A 
ATOM      7  I   UNL d   1       1.258  -2.042  -1.160  0.00  0.00    -0.146 I 
ENDROOT
TORSDOF 0
ENDMDL
