MODEL 1
REMARK minimizedAffinity -2.78042507
REMARK minimizedRMSD -1
REMARK  0 active torsions:
REMARK  status: ('A' for Active; 'I' for Inactive)
ROOT
ATOM      1  C   UNL d   1      -0.176  -0.384   1.154  0.00  0.00     0.023 A 
ATOM      2  C1  UNL d   1      -1.257  -1.211   0.849  0.00  0.00     0.003 A 
ATOM      3  C2  UNL d   1      -1.206  -2.045  -0.269  0.00  0.00     0.048 A 
ATOM      4  C3  UNL d   1      -0.071  -2.048  -1.079  0.00  0.00     0.023 A 
ATOM      5  C4  UNL d   1       1.014  -1.223  -0.778  0.00  0.00     0.048 A 
ATOM      6  C5  UNL d   1       0.958  -0.390   0.342  0.00  0.00     0.003 A 
ATOM      7  I   UNL d   1       0.007  -3.289  -2.745  0.00  0.00    -0.146 I 
ENDROOT
TORSDOF 0
ENDMDL
