MODEL 1
REMARK minimizedAffinity -3.00525188
REMARK minimizedRMSD -1
REMARK  0 active torsions:
REMARK  status: ('A' for Active; 'I' for Inactive)
ROOT
ATOM      1  C   UNL d   1       0.965  -2.088  -1.539  0.00  0.00     0.023 A 
ATOM      2  C1  UNL d   1      -0.338  -2.262  -1.072  0.00  0.00     0.003 A 
ATOM      3  C2  UNL d   1      -0.852  -1.404  -0.097  0.00  0.00     0.048 A 
ATOM      4  C3  UNL d   1      -0.058  -0.373   0.405  0.00  0.00     0.023 A 
ATOM      5  C4  UNL d   1       1.245  -0.194  -0.061  0.00  0.00     0.048 A 
ATOM      6  C5  UNL d   1       1.755  -1.055  -1.035  0.00  0.00     0.003 A 
ATOM      7  I   UNL d   1      -0.821   0.905   1.855  0.00  0.00    -0.146 I 
ENDROOT
TORSDOF 0
ENDMDL
