MODEL 1
REMARK minimizedAffinity -1.24681532
REMARK minimizedRMSD -1
REMARK  0 active torsions:
REMARK  status: ('A' for Active; 'I' for Inactive)
ROOT
ATOM      1  C   UNL d   1       0.346   1.041  -0.785  0.00  0.00     0.023 A 
ATOM      2  C1  UNL d   1      -0.448   0.047  -0.213  0.00  0.00     0.003 A 
ATOM      3  C2  UNL d   1      -0.263  -1.290  -0.572  0.00  0.00     0.048 A 
ATOM      4  C3  UNL d   1       0.720  -1.626  -1.503  0.00  0.00     0.023 A 
ATOM      5  C4  UNL d   1       1.517  -0.634  -2.078  0.00  0.00     0.048 A 
ATOM      6  C5  UNL d   1       1.328   0.701  -1.716  0.00  0.00     0.003 A 
ATOM      7  I   UNL d   1       0.998  -3.614  -2.039  0.00  0.00    -0.146 I 
ENDROOT
TORSDOF 0
ENDMDL
