MODEL 1
REMARK minimizedAffinity -4.71933794
REMARK minimizedRMSD -1
REMARK  0 active torsions:
REMARK  status: ('A' for Active; 'I' for Inactive)
ROOT
ATOM      1  C   UNL d   1      -0.825   0.050  -0.068  0.00  0.00     0.023 A 
ATOM      2  C1  UNL d   1      -0.135   0.648  -1.123  0.00  0.00     0.003 A 
ATOM      3  C2  UNL d   1       0.227   1.995  -1.047  0.00  0.00     0.048 A 
ATOM      4  C3  UNL d   1      -0.102   2.736   0.088  0.00  0.00     0.023 A 
ATOM      5  C4  UNL d   1      -0.791   2.141   1.146  0.00  0.00     0.048 A 
ATOM      6  C5  UNL d   1      -1.152   0.795   1.065  0.00  0.00     0.003 A 
ATOM      7  I   UNL d   1       0.437   4.740   0.203  0.00  0.00    -0.146 I 
ENDROOT
TORSDOF 0
ENDMDL
