MODEL 1
REMARK minimizedAffinity -2.25486922
REMARK minimizedRMSD -1
REMARK  0 active torsions:
REMARK  status: ('A' for Active; 'I' for Inactive)
ROOT
ATOM      1  C   UNL d   1      -0.420   0.670   1.160  0.00  0.00     0.023 A 
ATOM      2  C1  UNL d   1      -1.242  -0.452   1.267  0.00  0.00     0.003 A 
ATOM      3  C2  UNL d   1      -1.076  -1.527   0.391  0.00  0.00     0.048 A 
ATOM      4  C3  UNL d   1      -0.085  -1.473  -0.589  0.00  0.00     0.023 A 
ATOM      5  C4  UNL d   1       0.740  -0.353  -0.700  0.00  0.00     0.048 A 
ATOM      6  C5  UNL d   1       0.570   0.720   0.178  0.00  0.00     0.003 A 
ATOM      7  I   UNL d   1       0.163  -3.072  -1.894  0.00  0.00    -0.146 I 
ENDROOT
TORSDOF 0
ENDMDL
