MODEL 1
REMARK minimizedAffinity -1.75345409
REMARK minimizedRMSD -1
REMARK  0 active torsions:
REMARK  status: ('A' for Active; 'I' for Inactive)
ROOT
ATOM      1  C   UNL d   1      -0.362   1.455   0.556  0.00  0.00     0.023 A 
ATOM      2  C1  UNL d   1       0.228   1.411  -0.708  0.00  0.00     0.003 A 
ATOM      3  C2  UNL d   1       0.513   0.181  -1.305  0.00  0.00     0.048 A 
ATOM      4  C3  UNL d   1       0.205  -1.001  -0.633  0.00  0.00     0.023 A 
ATOM      5  C4  UNL d   1      -0.386  -0.962   0.631  0.00  0.00     0.048 A 
ATOM      6  C5  UNL d   1      -0.668   0.270   1.224  0.00  0.00     0.003 A 
ATOM      7  I   UNL d   1       0.628  -2.833  -1.519  0.00  0.00    -0.146 I 
ENDROOT
TORSDOF 0
ENDMDL
