MODEL 1
REMARK minimizedAffinity -6.0620389
REMARK minimizedRMSD -1
REMARK  1 active torsions:
REMARK  status: ('A' for Active; 'I' for Inactive)
REMARK    1  A    between atoms: C1_2  and  C2_3 
ROOT
ATOM      1  C2  UNL d   1       0.076   0.089   0.009  0.00  0.00    -0.073 A 
ATOM      2  C3  UNL d   1      -0.327  -1.047  -0.701  0.00  0.00    -0.002 A 
ATOM      3  C4  UNL d   1       0.557  -2.111  -0.890  0.00  0.00     0.004 A 
ATOM      4  C5  UNL d   1       1.848  -2.052  -0.366  0.00  0.00    -0.004 A 
ATOM      5  C6  UNL d   1       2.266  -0.930   0.356  0.00  0.00    -0.075 A 
ATOM      6  C7  UNL d   1       3.652  -0.850   0.924  0.00  0.00     0.076 C 
ATOM      7  C8  UNL d   1       1.374   0.135   0.540  0.00  0.00     0.001 A 
ENDROOT
BRANCH   1   8
ATOM      8  C1  UNL d   1      -0.876   1.237   0.221  0.00  0.00     0.053 C 
ATOM      9  C   UNL d   1      -2.281   0.759   0.550  0.00  0.00     0.018 C 
ENDBRANCH   1   8
TORSDOF 1
ENDMDL
