MODEL 1
REMARK minimizedAffinity -4.84876537
REMARK minimizedRMSD -1
REMARK  1 active torsions:
REMARK  status: ('A' for Active; 'I' for Inactive)
REMARK    1  A    between atoms: C1_2  and  C2_3 
ROOT
ATOM      1  C2  UNL d   1      -0.152  -0.169  -0.020  0.00  0.00    -0.073 A 
ATOM      2  C3  UNL d   1      -0.531  -1.055  -1.035  0.00  0.00    -0.002 A 
ATOM      3  C4  UNL d   1       0.318  -2.095  -1.416  0.00  0.00     0.004 A 
ATOM      4  C5  UNL d   1       1.549  -2.263  -0.784  0.00  0.00    -0.004 A 
ATOM      5  C6  UNL d   1       1.941  -1.395   0.240  0.00  0.00    -0.075 A 
ATOM      6  C7  UNL d   1       3.264  -1.561   0.929  0.00  0.00     0.076 C 
ATOM      7  C8  UNL d   1       1.084  -0.351   0.616  0.00  0.00     0.001 A 
ENDROOT
BRANCH   1   8
ATOM      8  C1  UNL d   1      -1.068   0.952   0.400  0.00  0.00     0.053 C 
ATOM      9  C   UNL d   1      -2.525   0.517   0.427  0.00  0.00     0.018 C 
ENDBRANCH   1   8
TORSDOF 1
ENDMDL
