MODEL 1
REMARK minimizedAffinity -5.65668249
REMARK minimizedRMSD -1
REMARK  1 active torsions:
REMARK  status: ('A' for Active; 'I' for Inactive)
REMARK    1  A    between atoms: C1_2  and  C2_3 
ROOT
ATOM      1  C2  UNL d   1       0.736  -0.666  -0.255  0.00  0.00    -0.073 A 
ATOM      2  C3  UNL d   1       1.539  -0.259   0.817  0.00  0.00    -0.002 A 
ATOM      3  C4  UNL d   1       2.903  -0.552   0.827  0.00  0.00     0.004 A 
ATOM      4  C5  UNL d   1       3.479  -1.248  -0.236  0.00  0.00    -0.004 A 
ATOM      5  C6  UNL d   1       2.696  -1.653  -1.321  0.00  0.00    -0.075 A 
ATOM      6  C7  UNL d   1       3.300  -2.404  -2.471  0.00  0.00     0.076 C 
ATOM      7  C8  UNL d   1       1.326  -1.357  -1.323  0.00  0.00     0.001 A 
ENDROOT
BRANCH   1   8
ATOM      8  C1  UNL d   1      -0.736  -0.346  -0.272  0.00  0.00     0.053 C 
ATOM      9  C   UNL d   1      -0.996   1.150  -0.184  0.00  0.00     0.018 C 
ENDBRANCH   1   8
TORSDOF 1
ENDMDL
