MODEL 1
REMARK minimizedAffinity -4.84352732
REMARK minimizedRMSD -1
REMARK  1 active torsions:
REMARK  status: ('A' for Active; 'I' for Inactive)
REMARK    1  A    between atoms: C1_2  and  C2_3 
ROOT
ATOM      1  C2  UNL d   1       1.264   0.402   0.613  0.00  0.00    -0.073 A 
ATOM      2  C3  UNL d   1       2.508  -0.197   0.841  0.00  0.00    -0.002 A 
ATOM      3  C4  UNL d   1       2.825  -1.415   0.238  0.00  0.00     0.004 A 
ATOM      4  C5  UNL d   1       1.906  -2.041  -0.604  0.00  0.00    -0.004 A 
ATOM      5  C6  UNL d   1       0.662  -1.452  -0.853  0.00  0.00    -0.075 A 
ATOM      6  C7  UNL d   1      -0.339  -2.115  -1.754  0.00  0.00     0.076 C 
ATOM      7  C8  UNL d   1       0.350  -0.231  -0.241  0.00  0.00     0.001 A 
ENDROOT
BRANCH   1   8
ATOM      8  C1  UNL d   1       0.920   1.720   1.258  0.00  0.00     0.053 C 
ATOM      9  C   UNL d   1       1.319   2.901   0.388  0.00  0.00     0.018 C 
ENDBRANCH   1   8
TORSDOF 1
ENDMDL
