MODEL 1
REMARK minimizedAffinity -1.66845357
REMARK minimizedRMSD -1
REMARK  1 active torsions:
REMARK  status: ('A' for Active; 'I' for Inactive)
REMARK    1  A    between atoms: C1_2  and  C2_3 
ROOT
ATOM      1  C2  UNL d   1      -0.679  -0.073  -0.368  0.00  0.00    -0.073 A 
ATOM      2  C3  UNL d   1       0.203   0.899   0.118  0.00  0.00    -0.002 A 
ATOM      3  C4  UNL d   1       1.545   0.587   0.337  0.00  0.00     0.004 A 
ATOM      4  C5  UNL d   1       2.021  -0.697   0.067  0.00  0.00    -0.004 A 
ATOM      5  C6  UNL d   1       1.157  -1.678  -0.431  0.00  0.00    -0.075 A 
ATOM      6  C7  UNL d   1       1.652  -3.064  -0.725  0.00  0.00     0.076 C 
ATOM      7  C8  UNL d   1      -0.190  -1.357  -0.646  0.00  0.00     0.001 A 
ENDROOT
BRANCH   1   8
ATOM      8  C1  UNL d   1      -2.127   0.262  -0.613  0.00  0.00     0.053 C 
ATOM      9  C   UNL d   1      -2.897   0.445   0.686  0.00  0.00     0.018 C 
ENDBRANCH   1   8
TORSDOF 1
ENDMDL
