MODEL 1
REMARK minimizedAffinity 12.9091797
REMARK minimizedRMSD -1
REMARK  0 active torsions:
REMARK  status: ('A' for Active; 'I' for Inactive)
ROOT
ATOM      1  C   UNL d   1      -0.765  -1.089  -0.661  0.00  0.00     0.023 A 
ATOM      2  C1  UNL d   1      -1.109  -2.314  -1.233  0.00  0.00     0.003 A 
ATOM      3  C2  UNL d   1      -1.436  -3.399  -0.418  0.00  0.00     0.048 A 
ATOM      4  C3  UNL d   1      -1.419  -3.252   0.969  0.00  0.00     0.023 A 
ATOM      5  C4  UNL d   1      -1.077  -2.028   1.546  0.00  0.00     0.048 A 
ATOM      6  C5  UNL d   1      -0.749  -0.946   0.727  0.00  0.00     0.003 A 
ATOM      7  I   UNL d   1      -1.907  -4.866   2.185  0.00  0.00    -0.146 I 
ENDROOT
TORSDOF 0
ENDMDL
