MODEL 1
REMARK minimizedAffinity 21.5634193
REMARK minimizedRMSD -1
REMARK  0 active torsions:
REMARK  status: ('A' for Active; 'I' for Inactive)
ROOT
ATOM      1  C   UNL d   1      -3.029  -0.005   0.624  0.00  0.00     0.023 A 
ATOM      2  C1  UNL d   1      -2.587  -1.140   1.303  0.00  0.00     0.003 A 
ATOM      3  C2  UNL d   1      -2.032  -1.021   2.579  0.00  0.00     0.048 A 
ATOM      4  C3  UNL d   1      -1.923   0.237   3.170  0.00  0.00     0.023 A 
ATOM      5  C4  UNL d   1      -2.365   1.376   2.495  0.00  0.00     0.048 A 
ATOM      6  C5  UNL d   1      -2.919   1.252   1.219  0.00  0.00     0.003 A 
ATOM      7  I   UNL d   1      -1.097   0.418   5.069  0.00  0.00    -0.146 I 
ENDROOT
TORSDOF 0
ENDMDL
