MODEL 1
REMARK minimizedAffinity 4.42436552
REMARK minimizedRMSD -1
REMARK  0 active torsions:
REMARK  status: ('A' for Active; 'I' for Inactive)
ROOT
ATOM      1  C   UNL d   1      -1.057  -3.483   2.046  0.00  0.00     0.023 A 
ATOM      2  C1  UNL d   1      -1.511  -4.659   2.644  0.00  0.00     0.003 A 
ATOM      3  C2  UNL d   1      -2.322  -4.598   3.779  0.00  0.00     0.048 A 
ATOM      4  C3  UNL d   1      -2.676  -3.358   4.310  0.00  0.00     0.023 A 
ATOM      5  C4  UNL d   1      -2.224  -2.179   3.714  0.00  0.00     0.048 A 
ATOM      6  C5  UNL d   1      -1.413  -2.245   2.580  0.00  0.00     0.003 A 
ATOM      7  I   UNL d   1      -3.883  -3.264   5.999  0.00  0.00    -0.146 I 
ENDROOT
TORSDOF 0
ENDMDL
