MODEL 1
REMARK minimizedAffinity -2.32430053
REMARK minimizedRMSD -1
REMARK  0 active torsions:
REMARK  status: ('A' for Active; 'I' for Inactive)
ROOT
ATOM      1  C   UNL d   1      -5.549   5.890  -2.923  0.00  0.00     0.023 A 
ATOM      2  C1  UNL d   1      -4.184   5.937  -2.639  0.00  0.00     0.003 A 
ATOM      3  C2  UNL d   1      -3.266   5.352  -3.514  0.00  0.00     0.048 A 
ATOM      4  C3  UNL d   1      -3.721   4.721  -4.671  0.00  0.00     0.023 A 
ATOM      5  C4  UNL d   1      -5.085   4.671  -4.960  0.00  0.00     0.048 A 
ATOM      6  C5  UNL d   1      -5.999   5.257  -4.082  0.00  0.00     0.003 A 
ATOM      7  I   UNL d   1      -2.357   3.849  -5.975  0.00  0.00    -0.146 I 
ENDROOT
TORSDOF 0
ENDMDL
