MODEL 1
REMARK minimizedAffinity 10.2188559
REMARK minimizedRMSD -1
REMARK  0 active torsions:
REMARK  status: ('A' for Active; 'I' for Inactive)
ROOT
ATOM      1  C   UNL d   1      -1.465  -1.372   2.006  0.00  0.00     0.023 A 
ATOM      2  C1  UNL d   1      -2.151  -0.335   1.373  0.00  0.00     0.003 A 
ATOM      3  C2  UNL d   1      -1.774   0.074   0.092  0.00  0.00     0.048 A 
ATOM      4  C3  UNL d   1      -0.711  -0.559  -0.551  0.00  0.00     0.023 A 
ATOM      5  C4  UNL d   1      -0.022  -1.598   0.078  0.00  0.00     0.048 A 
ATOM      6  C5  UNL d   1      -0.402  -2.002   1.359  0.00  0.00     0.003 A 
ATOM      7  I   UNL d   1      -0.148   0.047  -2.457  0.00  0.00    -0.146 I 
ENDROOT
TORSDOF 0
ENDMDL
