MODEL 1
REMARK minimizedAffinity 13.1892042
REMARK minimizedRMSD -1
REMARK  0 active torsions:
REMARK  status: ('A' for Active; 'I' for Inactive)
ROOT
ATOM      1  C   UNL d   1      -0.814  -0.748   0.135  0.00  0.00     0.023 A 
ATOM      2  C1  UNL d   1      -0.611  -0.792   1.515  0.00  0.00     0.003 A 
ATOM      3  C2  UNL d   1      -0.846  -1.975   2.219  0.00  0.00     0.048 A 
ATOM      4  C3  UNL d   1      -1.283  -3.110   1.537  0.00  0.00     0.023 A 
ATOM      5  C4  UNL d   1      -1.487  -3.071   0.157  0.00  0.00     0.048 A 
ATOM      6  C5  UNL d   1      -1.251  -1.886  -0.543  0.00  0.00     0.003 A 
ATOM      7  I   UNL d   1      -1.633  -4.872   2.583  0.00  0.00    -0.146 I 
ENDROOT
TORSDOF 0
ENDMDL
