MODEL 1
REMARK minimizedAffinity 1.5491426
REMARK minimizedRMSD -1
REMARK  0 active torsions:
REMARK  status: ('A' for Active; 'I' for Inactive)
ROOT
ATOM      1  C   UNL d   1      -4.170   5.196  -5.998  0.00  0.00     0.023 A 
ATOM      2  C1  UNL d   1      -5.451   5.705  -5.785  0.00  0.00     0.003 A 
ATOM      3  C2  UNL d   1      -5.978   5.755  -4.492  0.00  0.00     0.048 A 
ATOM      4  C3  UNL d   1      -5.218   5.295  -3.418  0.00  0.00     0.023 A 
ATOM      5  C4  UNL d   1      -3.935   4.785  -3.626  0.00  0.00     0.048 A 
ATOM      6  C5  UNL d   1      -3.413   4.737  -4.920  0.00  0.00     0.003 A 
ATOM      7  I   UNL d   1      -6.000   5.368  -1.493  0.00  0.00    -0.146 I 
ENDROOT
TORSDOF 0
ENDMDL
