MODEL 1
REMARK minimizedAffinity 2.04375124
REMARK minimizedRMSD -1
REMARK  0 active torsions:
REMARK  status: ('A' for Active; 'I' for Inactive)
ROOT
ATOM      1  C   UNL d   1       4.331   1.790   4.169  0.00  0.00     0.023 A 
ATOM      2  C1  UNL d   1       4.186   2.965   3.432  0.00  0.00     0.003 A 
ATOM      3  C2  UNL d   1       4.664   4.174   3.941  0.00  0.00     0.048 A 
ATOM      4  C3  UNL d   1       5.287   4.201   5.188  0.00  0.00     0.023 A 
ATOM      5  C4  UNL d   1       5.435   3.027   5.930  0.00  0.00     0.048 A 
ATOM      6  C5  UNL d   1       4.954   1.821   5.417  0.00  0.00     0.003 A 
ATOM      7  I   UNL d   1       5.999   5.999   5.948  0.00  0.00    -0.146 I 
ENDROOT
TORSDOF 0
ENDMDL
