MODEL 1
REMARK minimizedAffinity -0.525434613
REMARK minimizedRMSD -1
REMARK  0 active torsions:
REMARK  status: ('A' for Active; 'I' for Inactive)
ROOT
ATOM      1  C   UNL d   1      -4.106   1.430   5.920  0.00  0.00     0.023 A 
ATOM      2  C1  UNL d   1      -5.477   1.677   5.998  0.00  0.00     0.003 A 
ATOM      3  C2  UNL d   1      -5.955   2.988   5.951  0.00  0.00     0.048 A 
ATOM      4  C3  UNL d   1      -5.057   4.048   5.824  0.00  0.00     0.023 A 
ATOM      5  C4  UNL d   1      -3.685   3.805   5.744  0.00  0.00     0.048 A 
ATOM      6  C5  UNL d   1      -3.211   2.493   5.793  0.00  0.00     0.003 A 
ATOM      7  I   UNL d   1      -5.766   6.000   5.752  0.00  0.00    -0.146 I 
ENDROOT
TORSDOF 0
ENDMDL
