MODEL 1
REMARK minimizedAffinity 9.41948318
REMARK minimizedRMSD -1
REMARK  0 active torsions:
REMARK  status: ('A' for Active; 'I' for Inactive)
ROOT
ATOM      1  C   UNL d   1       2.831   4.552   0.617  0.00  0.00     0.023 A 
ATOM      2  C1  UNL d   1       3.790   3.802   1.298  0.00  0.00     0.003 A 
ATOM      3  C2  UNL d   1       4.700   3.018   0.586  0.00  0.00     0.048 A 
ATOM      4  C3  UNL d   1       4.646   2.989  -0.807  0.00  0.00     0.023 A 
ATOM      5  C4  UNL d   1       3.689   3.738  -1.493  0.00  0.00     0.048 A 
ATOM      6  C5  UNL d   1       2.780   4.520  -0.777  0.00  0.00     0.003 A 
ATOM      7  I   UNL d   1       6.000   1.824  -1.869  0.00  0.00    -0.146 I 
ENDROOT
TORSDOF 0
ENDMDL
