MODEL 1
REMARK minimizedAffinity 0.229525894
REMARK minimizedRMSD -1
REMARK  0 active torsions:
REMARK  status: ('A' for Active; 'I' for Inactive)
ROOT
ATOM      1  C   UNL d   1      -5.571   6.000  -3.287  0.00  0.00     0.023 A 
ATOM      2  C1  UNL d   1      -4.245   5.975  -2.853  0.00  0.00     0.003 A 
ATOM      3  C2  UNL d   1      -3.267   5.351  -3.631  0.00  0.00     0.048 A 
ATOM      4  C3  UNL d   1      -3.621   4.756  -4.841  0.00  0.00     0.023 A 
ATOM      5  C4  UNL d   1      -4.946   4.779  -5.279  0.00  0.00     0.048 A 
ATOM      6  C5  UNL d   1      -5.921   5.403  -4.498  0.00  0.00     0.003 A 
ATOM      7  I   UNL d   1      -2.166   3.827  -5.999  0.00  0.00    -0.146 I 
ENDROOT
TORSDOF 0
ENDMDL
