MODEL 1
REMARK minimizedAffinity 6.13403654
REMARK minimizedRMSD -1
REMARK  0 active torsions:
REMARK  status: ('A' for Active; 'I' for Inactive)
ROOT
ATOM      1  C   UNL d   1      -5.497   5.990   2.988  0.00  0.00     0.023 A 
ATOM      2  C1  UNL d   1      -4.766   4.897   2.522  0.00  0.00     0.003 A 
ATOM      3  C2  UNL d   1      -4.536   3.802   3.358  0.00  0.00     0.048 A 
ATOM      4  C3  UNL d   1      -5.039   3.806   4.658  0.00  0.00     0.023 A 
ATOM      5  C4  UNL d   1      -5.772   4.897   5.128  0.00  0.00     0.048 A 
ATOM      6  C5  UNL d   1      -5.999   5.990   4.290  0.00  0.00     0.003 A 
ATOM      7  I   UNL d   1      -4.698   2.178   5.903  0.00  0.00    -0.146 I 
ENDROOT
TORSDOF 0
ENDMDL
