MODEL 1
REMARK minimizedAffinity -3.25175452
REMARK minimizedRMSD -1
REMARK  0 active torsions:
REMARK  status: ('A' for Active; 'I' for Inactive)
ROOT
ATOM      1  C   UNL d   1       2.435   0.903   3.259  0.00  0.00     0.023 A 
ATOM      2  C1  UNL d   1       1.144   0.960   3.783  0.00  0.00     0.003 A 
ATOM      3  C2  UNL d   1       0.049   0.621   2.986  0.00  0.00     0.048 A 
ATOM      4  C3  UNL d   1       0.253   0.225   1.664  0.00  0.00     0.023 A 
ATOM      5  C4  UNL d   1       1.543   0.166   1.135  0.00  0.00     0.048 A 
ATOM      6  C5  UNL d   1       2.635   0.506   1.936  0.00  0.00     0.003 A 
ATOM      7  I   UNL d   1      -1.375  -0.279   0.475  0.00  0.00    -0.146 I 
ENDROOT
TORSDOF 0
ENDMDL
