MODEL 1
REMARK minimizedAffinity 8.65766907
REMARK minimizedRMSD -1
REMARK  0 active torsions:
REMARK  status: ('A' for Active; 'I' for Inactive)
ROOT
ATOM      1  C   UNL d   1      -2.497  -1.767   2.048  0.00  0.00     0.023 A 
ATOM      2  C1  UNL d   1      -1.377  -2.457   1.585  0.00  0.00     0.003 A 
ATOM      3  C2  UNL d   1      -0.747  -2.056   0.405  0.00  0.00     0.048 A 
ATOM      4  C3  UNL d   1      -1.242  -0.964  -0.307  0.00  0.00     0.023 A 
ATOM      5  C4  UNL d   1      -2.363  -0.270   0.153  0.00  0.00     0.048 A 
ATOM      6  C5  UNL d   1      -2.989  -0.675   1.333  0.00  0.00     0.003 A 
ATOM      7  I   UNL d   1      -0.306  -0.366  -2.064  0.00  0.00    -0.146 I 
ENDROOT
TORSDOF 0
ENDMDL
