MODEL 1
REMARK minimizedAffinity 6.89522552
REMARK minimizedRMSD -1
REMARK  0 active torsions:
REMARK  status: ('A' for Active; 'I' for Inactive)
ROOT
ATOM      1  C   UNL d   1       5.422   5.121   5.994  0.00  0.00     0.023 A 
ATOM      2  C1  UNL d   1       5.996   5.959   5.037  0.00  0.00     0.003 A 
ATOM      3  C2  UNL d   1       5.730   5.758   3.681  0.00  0.00     0.048 A 
ATOM      4  C3  UNL d   1       4.889   4.717   3.289  0.00  0.00     0.023 A 
ATOM      5  C4  UNL d   1       4.312   3.877   4.242  0.00  0.00     0.048 A 
ATOM      6  C5  UNL d   1       4.581   4.082   5.597  0.00  0.00     0.003 A 
ATOM      7  I   UNL d   1       4.492   4.416   1.271  0.00  0.00    -0.146 I 
ENDROOT
TORSDOF 0
ENDMDL
