MODEL 1
REMARK minimizedAffinity 1.17859721
REMARK minimizedRMSD -1
REMARK  0 active torsions:
REMARK  status: ('A' for Active; 'I' for Inactive)
ROOT
ATOM      1  C   UNL d   1      -1.079  -2.368  -0.614  0.00  0.00     0.023 A 
ATOM      2  C1  UNL d   1      -0.248  -1.997   0.443  0.00  0.00     0.003 A 
ATOM      3  C2  UNL d   1       0.167  -0.670   0.574  0.00  0.00     0.048 A 
ATOM      4  C3  UNL d   1      -0.254   0.281  -0.355  0.00  0.00     0.023 A 
ATOM      5  C4  UNL d   1      -1.087  -0.086  -1.414  0.00  0.00     0.048 A 
ATOM      6  C5  UNL d   1      -1.498  -1.414  -1.541  0.00  0.00     0.003 A 
ATOM      7  I   UNL d   1       0.362   2.256  -0.163  0.00  0.00    -0.146 I 
ENDROOT
TORSDOF 0
ENDMDL
