MODEL 1
REMARK minimizedAffinity 9.54943657
REMARK minimizedRMSD -1
REMARK  1 active torsions:
REMARK  status: ('A' for Active; 'I' for Inactive)
REMARK    1  A    between atoms: C1_2  and  C2_3 
ROOT
ATOM      1  C2  UNL d   1       3.642   0.526   0.699  0.00  0.00    -0.076 A 
ATOM      2  C3  UNL d   1       2.422   0.885   1.300  0.00  0.00     0.004 A 
ATOM      3  C4  UNL d   1       2.089   0.429   2.574  0.00  0.00    -0.003 A 
ATOM      4  C5  UNL d   1       2.971  -0.391   3.270  0.00  0.00     0.000 A 
ATOM      5  C6  UNL d   1       4.193  -0.742   2.696  0.00  0.00     0.000 A 
ATOM      6  C7  UNL d   1       4.551  -0.278   1.419  0.00  0.00    -0.073 A 
ATOM      7  C8  UNL d   1       5.879  -0.693   0.846  0.00  0.00     0.078 C 
ENDROOT
BRANCH   1   8
ATOM      8  C1  UNL d   1       3.937   1.028  -0.696  0.00  0.00     0.053 C 
ATOM      9  C   UNL d   1       3.652   2.514  -0.853  0.00  0.00     0.018 C 
ENDBRANCH   1   8
TORSDOF 1
ENDMDL
