MODEL 1
REMARK minimizedAffinity 9.42047787
REMARK minimizedRMSD -1
REMARK  1 active torsions:
REMARK  status: ('A' for Active; 'I' for Inactive)
REMARK    1  A    between atoms: C1_2  and  C2_3 
ROOT
ATOM      1  C2  UNL d   1       3.925   0.174   0.670  0.00  0.00    -0.076 A 
ATOM      2  C3  UNL d   1       3.288  -0.369   1.800  0.00  0.00     0.004 A 
ATOM      3  C4  UNL d   1       2.210   0.283   2.398  0.00  0.00    -0.003 A 
ATOM      4  C5  UNL d   1       1.752   1.487   1.876  0.00  0.00     0.000 A 
ATOM      5  C6  UNL d   1       2.361   2.031   0.746  0.00  0.00     0.000 A 
ATOM      6  C7  UNL d   1       3.437   1.379   0.121  0.00  0.00    -0.073 A 
ATOM      7  C8  UNL d   1       4.060   2.014  -1.092  0.00  0.00     0.078 C 
ENDROOT
BRANCH   1   8
ATOM      8  C1  UNL d   1       5.105  -0.563   0.080  0.00  0.00     0.053 C 
ATOM      9  C   UNL d   1       5.953  -1.249   1.141  0.00  0.00     0.018 C 
ENDBRANCH   1   8
TORSDOF 1
ENDMDL
