MODEL 1
REMARK minimizedAffinity 16.9538231
REMARK minimizedRMSD -1
REMARK  1 active torsions:
REMARK  status: ('A' for Active; 'I' for Inactive)
REMARK    1  A    between atoms: C1_2  and  C2_3 
ROOT
ATOM      1  C2  UNL d   1      -3.352  -2.789  -3.257  0.00  0.00    -0.076 A 
ATOM      2  C3  UNL d   1      -4.635  -2.813  -2.683  0.00  0.00     0.004 A 
ATOM      3  C4  UNL d   1      -5.777  -2.875  -3.481  0.00  0.00    -0.003 A 
ATOM      4  C5  UNL d   1      -5.654  -2.914  -4.865  0.00  0.00     0.000 A 
ATOM      5  C6  UNL d   1      -4.388  -2.909  -5.451  0.00  0.00     0.000 A 
ATOM      6  C7  UNL d   1      -3.227  -2.864  -4.660  0.00  0.00    -0.073 A 
ATOM      7  C8  UNL d   1      -1.887  -2.854  -5.345  0.00  0.00     0.078 C 
ENDROOT
BRANCH   1   8
ATOM      8  C1  UNL d   1      -2.152  -2.694  -2.342  0.00  0.00     0.053 C 
ATOM      9  C   UNL d   1      -2.368  -1.718  -1.196  0.00  0.00     0.018 C 
ENDBRANCH   1   8
TORSDOF 1
ENDMDL
