MODEL 1
REMARK minimizedAffinity 11.3188009
REMARK minimizedRMSD -1
REMARK  1 active torsions:
REMARK  status: ('A' for Active; 'I' for Inactive)
REMARK    1  A    between atoms: C1_2  and  C2_3 
ROOT
ATOM      1  C2  UNL d   1      -5.059   1.202   4.994  0.00  0.00    -0.076 A 
ATOM      2  C3  UNL d   1      -4.456   0.373   4.031  0.00  0.00     0.004 A 
ATOM      3  C4  UNL d   1      -3.601   0.900   3.065  0.00  0.00    -0.003 A 
ATOM      4  C5  UNL d   1      -3.333   2.265   3.047  0.00  0.00     0.000 A 
ATOM      5  C6  UNL d   1      -3.908   3.099   4.004  0.00  0.00     0.000 A 
ATOM      6  C7  UNL d   1      -4.760   2.582   4.995  0.00  0.00    -0.073 A 
ATOM      7  C8  UNL d   1      -5.358   3.528   6.000  0.00  0.00     0.078 C 
ENDROOT
BRANCH   1   8
ATOM      8  C1  UNL d   1      -6.000   0.579   6.000  0.00  0.00     0.053 C 
ATOM      9  C   UNL d   1      -5.998  -0.941   5.935  0.00  0.00     0.018 C 
ENDBRANCH   1   8
TORSDOF 1
ENDMDL
