MODEL 1
REMARK minimizedAffinity 18.2086506
REMARK minimizedRMSD -1
REMARK  1 active torsions:
REMARK  status: ('A' for Active; 'I' for Inactive)
REMARK    1  A    between atoms: C1_2  and  C2_3 
ROOT
ATOM      1  C2  UNL d   1      -3.052  -2.944  -2.527  0.00  0.00    -0.076 A 
ATOM      2  C3  UNL d   1      -2.345  -3.057  -3.737  0.00  0.00     0.004 A 
ATOM      3  C4  UNL d   1      -1.105  -2.443  -3.904  0.00  0.00    -0.003 A 
ATOM      4  C5  UNL d   1      -0.551  -1.706  -2.863  0.00  0.00     0.000 A 
ATOM      5  C6  UNL d   1      -1.230  -1.597  -1.650  0.00  0.00     0.000 A 
ATOM      6  C7  UNL d   1      -2.473  -2.224  -1.460  0.00  0.00    -0.073 A 
ATOM      7  C8  UNL d   1      -3.165  -2.069  -0.133  0.00  0.00     0.078 C 
ENDROOT
BRANCH   1   8
ATOM      8  C1  UNL d   1      -4.405  -3.609  -2.414  0.00  0.00     0.053 C 
ATOM      9  C   UNL d   1      -5.334  -3.238  -3.559  0.00  0.00     0.018 C 
ENDBRANCH   1   8
TORSDOF 1
ENDMDL
