MODEL 1
REMARK minimizedAffinity 10.1253281
REMARK minimizedRMSD -1
REMARK  1 active torsions:
REMARK  status: ('A' for Active; 'I' for Inactive)
REMARK    1  A    between atoms: C1_2  and  C2_3 
ROOT
ATOM      1  C2  UNL d   1       3.274   0.258   0.998  0.00  0.00    -0.076 A 
ATOM      2  C3  UNL d   1       3.574  -0.580   2.086  0.00  0.00     0.004 A 
ATOM      3  C4  UNL d   1       4.786  -1.267   2.150  0.00  0.00    -0.003 A 
ATOM      4  C5  UNL d   1       5.717  -1.127   1.127  0.00  0.00     0.000 A 
ATOM      5  C6  UNL d   1       5.443  -0.286   0.049  0.00  0.00     0.000 A 
ATOM      6  C7  UNL d   1       4.234   0.427  -0.023  0.00  0.00    -0.073 A 
ATOM      7  C8  UNL d   1       3.988   1.315  -1.212  0.00  0.00     0.078 C 
ENDROOT
BRANCH   1   8
ATOM      8  C1  UNL d   1       1.933   0.956   0.970  0.00  0.00     0.053 C 
ATOM      9  C   UNL d   1       2.066   2.469   0.889  0.00  0.00     0.018 C 
ENDBRANCH   1   8
TORSDOF 1
ENDMDL
