MODEL 1
REMARK minimizedAffinity 15.8108215
REMARK minimizedRMSD -1
REMARK  1 active torsions:
REMARK  status: ('A' for Active; 'I' for Inactive)
REMARK    1  A    between atoms: C1_2  and  C2_3 
ROOT
ATOM      1  C2  UNL d   1       3.390   0.163   1.097  0.00  0.00    -0.076 A 
ATOM      2  C3  UNL d   1       2.317  -0.407   1.802  0.00  0.00     0.004 A 
ATOM      3  C4  UNL d   1       1.088   0.246   1.889  0.00  0.00    -0.003 A 
ATOM      4  C5  UNL d   1       0.913   1.479   1.271  0.00  0.00     0.000 A 
ATOM      5  C6  UNL d   1       1.962   2.051   0.552  0.00  0.00     0.000 A 
ATOM      6  C7  UNL d   1       3.202   1.398   0.441  0.00  0.00    -0.073 A 
ATOM      7  C8  UNL d   1       4.301   2.064  -0.342  0.00  0.00     0.078 C 
ENDROOT
BRANCH   1   8
ATOM      8  C1  UNL d   1       4.708  -0.579   1.060  0.00  0.00     0.053 C 
ATOM      9  C   UNL d   1       5.195  -0.970   2.446  0.00  0.00     0.018 C 
ENDBRANCH   1   8
TORSDOF 1
ENDMDL
