MODEL 1
REMARK minimizedAffinity 12.2416172
REMARK minimizedRMSD -1
REMARK  1 active torsions:
REMARK  status: ('A' for Active; 'I' for Inactive)
REMARK    1  A    between atoms: C1_2  and  C2_3 
ROOT
ATOM      1  C2  UNL d   1      -4.571   1.608   4.126  0.00  0.00    -0.076 A 
ATOM      2  C3  UNL d   1      -4.639   0.323   3.560  0.00  0.00     0.004 A 
ATOM      3  C4  UNL d   1      -5.332  -0.706   4.196  0.00  0.00    -0.003 A 
ATOM      4  C5  UNL d   1      -5.969  -0.466   5.409  0.00  0.00     0.000 A 
ATOM      5  C6  UNL d   1      -5.926   0.807   5.976  0.00  0.00     0.000 A 
ATOM      6  C7  UNL d   1      -5.246   1.859   5.340  0.00  0.00    -0.073 A 
ATOM      7  C8  UNL d   1      -5.227   3.211   6.000  0.00  0.00     0.078 C 
ENDROOT
BRANCH   1   8
ATOM      8  C1  UNL d   1      -3.782   2.676   3.404  0.00  0.00     0.053 C 
ATOM      9  C   UNL d   1      -2.298   2.629   3.734  0.00  0.00     0.018 C 
ENDBRANCH   1   8
TORSDOF 1
ENDMDL
