MODEL 1
REMARK minimizedAffinity 9.32149982
REMARK minimizedRMSD -1
REMARK  1 active torsions:
REMARK  status: ('A' for Active; 'I' for Inactive)
REMARK    1  A    between atoms: C1_2  and  C2_3 
ROOT
ATOM      1  C2  UNL d   1      -4.762   0.642   3.921  0.00  0.00    -0.076 A 
ATOM      2  C3  UNL d   1      -4.049   1.721   3.371  0.00  0.00     0.004 A 
ATOM      3  C4  UNL d   1      -3.835   2.887   4.104  0.00  0.00    -0.003 A 
ATOM      4  C5  UNL d   1      -4.329   2.992   5.400  0.00  0.00     0.000 A 
ATOM      5  C6  UNL d   1      -5.023   1.924   5.967  0.00  0.00     0.000 A 
ATOM      6  C7  UNL d   1      -5.234   0.735   5.247  0.00  0.00    -0.073 A 
ATOM      7  C8  UNL d   1      -5.995  -0.383   5.906  0.00  0.00     0.078 C 
ENDROOT
BRANCH   1   8
ATOM      8  C1  UNL d   1      -4.987  -0.587   3.068  0.00  0.00     0.053 C 
ATOM      9  C   UNL d   1      -3.815  -0.877   2.143  0.00  0.00     0.018 C 
ENDBRANCH   1   8
TORSDOF 1
ENDMDL
