MODEL 1
REMARK minimizedAffinity 10.5129108
REMARK minimizedRMSD -1
REMARK  1 active torsions:
REMARK  status: ('A' for Active; 'I' for Inactive)
REMARK    1  A    between atoms: C1_2  and  C2_3 
ROOT
ATOM      1  C2  UNL d   1      -3.992  -3.368  -2.368  0.00  0.00    -0.076 A 
ATOM      2  C3  UNL d   1      -3.517  -4.431  -1.581  0.00  0.00     0.004 A 
ATOM      3  C4  UNL d   1      -4.274  -5.587  -1.404  0.00  0.00    -0.003 A 
ATOM      4  C5  UNL d   1      -5.520  -5.700  -2.012  0.00  0.00     0.000 A 
ATOM      5  C6  UNL d   1      -6.000  -4.662  -2.810  0.00  0.00     0.000 A 
ATOM      6  C7  UNL d   1      -5.241  -3.496  -3.013  0.00  0.00    -0.073 A 
ATOM      7  C8  UNL d   1      -5.810  -2.406  -3.879  0.00  0.00     0.078 C 
ENDROOT
BRANCH   1   8
ATOM      8  C1  UNL d   1      -3.138  -2.127  -2.502  0.00  0.00     0.053 C 
ATOM      9  C   UNL d   1      -2.515  -1.704  -1.181  0.00  0.00     0.018 C 
ENDBRANCH   1   8
TORSDOF 1
ENDMDL
