MODEL 1
REMARK minimizedAffinity 1.91559803
REMARK minimizedRMSD -1
REMARK  1 active torsions:
REMARK  status: ('A' for Active; 'I' for Inactive)
REMARK    1  A    between atoms: C1_2  and  C2_3 
ROOT
ATOM      1  C2  UNL d   1      -4.856   0.605   3.908  0.00  0.00    -0.076 A 
ATOM      2  C3  UNL d   1      -4.497   1.961   3.813  0.00  0.00     0.004 A 
ATOM      3  C4  UNL d   1      -4.885   2.876   4.791  0.00  0.00    -0.003 A 
ATOM      4  C5  UNL d   1      -5.637   2.450   5.880  0.00  0.00     0.000 A 
ATOM      5  C6  UNL d   1      -5.986   1.105   6.000  0.00  0.00     0.000 A 
ATOM      6  C7  UNL d   1      -5.590   0.167   5.031  0.00  0.00    -0.073 A 
ATOM      7  C8  UNL d   1      -6.000  -1.269   5.208  0.00  0.00     0.078 C 
ENDROOT
BRANCH   1   8
ATOM      8  C1  UNL d   1      -4.430  -0.336   2.804  0.00  0.00     0.053 C 
ATOM      9  C   UNL d   1      -2.965  -0.728   2.906  0.00  0.00     0.018 C 
ENDBRANCH   1   8
TORSDOF 1
ENDMDL
