MODEL 1
REMARK minimizedAffinity 19.1577396
REMARK minimizedRMSD -1
REMARK  1 active torsions:
REMARK  status: ('A' for Active; 'I' for Inactive)
REMARK    1  A    between atoms: C1_2  and  C2_3 
ROOT
ATOM      1  C2  UNL d   1       1.809   0.144   1.836  0.00  0.00    -0.076 A 
ATOM      2  C3  UNL d   1       1.012  -0.740   2.584  0.00  0.00     0.004 A 
ATOM      3  C4  UNL d   1       0.051  -0.261   3.474  0.00  0.00    -0.003 A 
ATOM      4  C5  UNL d   1      -0.128   1.109   3.629  0.00  0.00     0.000 A 
ATOM      5  C6  UNL d   1       0.642   2.000   2.882  0.00  0.00     0.000 A 
ATOM      6  C7  UNL d   1       1.604   1.534   1.969  0.00  0.00    -0.073 A 
ATOM      7  C8  UNL d   1       2.411   2.539   1.195  0.00  0.00     0.078 C 
ENDROOT
BRANCH   1   8
ATOM      8  C1  UNL d   1       2.854  -0.433   0.907  0.00  0.00     0.053 C 
ATOM      9  C   UNL d   1       4.178  -0.692   1.609  0.00  0.00     0.018 C 
ENDBRANCH   1   8
TORSDOF 1
ENDMDL
