MODEL 1
REMARK minimizedAffinity 14.1919861
REMARK minimizedRMSD -1
REMARK  1 active torsions:
REMARK  status: ('A' for Active; 'I' for Inactive)
REMARK    1  A    between atoms: C1_2  and  C2_3 
ROOT
ATOM      1  C2  UNL d   1       0.367   5.008  -4.437  0.00  0.00    -0.073 A 
ATOM      2  C3  UNL d   1       1.327   4.756  -3.451  0.00  0.00    -0.002 A 
ATOM      3  C4  UNL d   1       1.072   3.832  -2.437  0.00  0.00     0.004 A 
ATOM      4  C5  UNL d   1      -0.142   3.145  -2.403  0.00  0.00    -0.004 A 
ATOM      5  C6  UNL d   1      -1.110   3.374  -3.386  0.00  0.00    -0.075 A 
ATOM      6  C7  UNL d   1      -2.421   2.645  -3.362  0.00  0.00     0.076 C 
ATOM      7  C8  UNL d   1      -0.847   4.306  -4.400  0.00  0.00     0.001 A 
ENDROOT
BRANCH   1   8
ATOM      8  C1  UNL d   1       0.641   6.000  -5.538  0.00  0.00     0.053 C 
ATOM      9  C   UNL d   1       2.103   5.999  -5.955  0.00  0.00     0.018 C 
ENDBRANCH   1   8
TORSDOF 1
ENDMDL
