MODEL 1
REMARK minimizedAffinity 10.9586449
REMARK minimizedRMSD -1
REMARK  1 active torsions:
REMARK  status: ('A' for Active; 'I' for Inactive)
REMARK    1  A    between atoms: C1_2  and  C2_3 
ROOT
ATOM      1  C2  UNL d   1      -2.044   2.298  -2.355  0.00  0.00    -0.073 A 
ATOM      2  C3  UNL d   1      -1.490   2.369  -1.071  0.00  0.00    -0.002 A 
ATOM      3  C4  UNL d   1      -0.379   3.178  -0.827  0.00  0.00     0.004 A 
ATOM      4  C5  UNL d   1       0.184   3.928  -1.860  0.00  0.00    -0.004 A 
ATOM      5  C6  UNL d   1      -0.363   3.879  -3.146  0.00  0.00    -0.075 A 
ATOM      6  C7  UNL d   1       0.232   4.678  -4.268  0.00  0.00     0.076 C 
ATOM      7  C8  UNL d   1      -1.476   3.062  -3.384  0.00  0.00     0.001 A 
ENDROOT
BRANCH   1   8
ATOM      8  C1  UNL d   1      -3.247   1.431  -2.622  0.00  0.00     0.053 C 
ATOM      9  C   UNL d   1      -3.273   0.201  -1.727  0.00  0.00     0.018 C 
ENDBRANCH   1   8
TORSDOF 1
ENDMDL
