MODEL 1
REMARK minimizedAffinity 14.3043594
REMARK minimizedRMSD -1
REMARK  1 active torsions:
REMARK  status: ('A' for Active; 'I' for Inactive)
REMARK    1  A    between atoms: C1_2  and  C2_3 
ROOT
ATOM      1  C2  UNL d   1       0.091   3.082   0.076  0.00  0.00    -0.073 A 
ATOM      2  C3  UNL d   1       1.018   2.739   1.066  0.00  0.00    -0.002 A 
ATOM      3  C4  UNL d   1       0.614   2.022   2.193  0.00  0.00     0.004 A 
ATOM      4  C5  UNL d   1      -0.719   1.635   2.338  0.00  0.00    -0.004 A 
ATOM      5  C6  UNL d   1      -1.658   1.959   1.354  0.00  0.00    -0.075 A 
ATOM      6  C7  UNL d   1      -3.096   1.552   1.496  0.00  0.00     0.076 C 
ATOM      7  C8  UNL d   1      -1.245   2.681   0.227  0.00  0.00     0.001 A 
ENDROOT
BRANCH   1   8
ATOM      8  C1  UNL d   1       0.524   3.851  -1.145  0.00  0.00     0.053 C 
ATOM      9  C   UNL d   1       1.146   2.946  -2.197  0.00  0.00     0.018 C 
ENDBRANCH   1   8
TORSDOF 1
ENDMDL
