MODEL 1
REMARK minimizedAffinity 15.6053171
REMARK minimizedRMSD -1
REMARK  1 active torsions:
REMARK  status: ('A' for Active; 'I' for Inactive)
REMARK    1  A    between atoms: C1_2  and  C2_3 
ROOT
ATOM      1  C2  UNL d   1      -4.383   5.889   1.696  0.00  0.00    -0.073 A 
ATOM      2  C3  UNL d   1      -5.702   5.995   1.241  0.00  0.00    -0.002 A 
ATOM      3  C4  UNL d   1      -5.988   5.891  -0.121  0.00  0.00     0.004 A 
ATOM      4  C5  UNL d   1      -4.961   5.674  -1.040  0.00  0.00    -0.004 A 
ATOM      5  C6  UNL d   1      -3.638   5.554  -0.603  0.00  0.00    -0.075 A 
ATOM      6  C7  UNL d   1      -2.522   5.322  -1.579  0.00  0.00     0.076 C 
ATOM      7  C8  UNL d   1      -3.358   5.662   0.766  0.00  0.00     0.001 A 
ENDROOT
BRANCH   1   8
ATOM      8  C1  UNL d   1      -4.070   5.994   3.166  0.00  0.00     0.053 C 
ATOM      9  C   UNL d   1      -5.328   5.982   4.019  0.00  0.00     0.018 C 
ENDBRANCH   1   8
TORSDOF 1
ENDMDL
