MODEL 1
REMARK minimizedAffinity 15.6823282
REMARK minimizedRMSD -1
REMARK  1 active torsions:
REMARK  status: ('A' for Active; 'I' for Inactive)
REMARK    1  A    between atoms: C1_2  and  C2_3 
ROOT
ATOM      1  C2  UNL d   1       3.430  -2.063  -5.865  0.00  0.00    -0.073 A 
ATOM      2  C3  UNL d   1       3.217  -0.680  -5.898  0.00  0.00    -0.002 A 
ATOM      3  C4  UNL d   1       1.920  -0.168  -5.966  0.00  0.00     0.004 A 
ATOM      4  C5  UNL d   1       0.825  -1.032  -5.994  0.00  0.00    -0.004 A 
ATOM      5  C6  UNL d   1       1.018  -2.417  -5.949  0.00  0.00    -0.075 A 
ATOM      6  C7  UNL d   1      -0.149  -3.360  -5.981  0.00  0.00     0.076 C 
ATOM      7  C8  UNL d   1       2.323  -2.923  -5.884  0.00  0.00     0.001 A 
ENDROOT
BRANCH   1   8
ATOM      8  C1  UNL d   1       4.828  -2.619  -5.786  0.00  0.00     0.053 C 
ATOM      9  C   UNL d   1       4.921  -3.793  -4.824  0.00  0.00     0.018 C 
ENDBRANCH   1   8
TORSDOF 1
ENDMDL
