MODEL 1
REMARK minimizedAffinity 23.7964268
REMARK minimizedRMSD -1
REMARK  1 active torsions:
REMARK  status: ('A' for Active; 'I' for Inactive)
REMARK    1  A    between atoms: C1_2  and  C2_3 
ROOT
ATOM      1  C2  UNL d   1      -1.479   3.678  -3.014  0.00  0.00    -0.073 A 
ATOM      2  C3  UNL d   1      -2.696   4.281  -2.675  0.00  0.00    -0.002 A 
ATOM      3  C4  UNL d   1      -3.116   5.438  -3.332  0.00  0.00     0.004 A 
ATOM      4  C5  UNL d   1      -2.330   6.000  -4.337  0.00  0.00    -0.004 A 
ATOM      5  C6  UNL d   1      -1.116   5.406  -4.698  0.00  0.00    -0.075 A 
ATOM      6  C7  UNL d   1      -0.257   5.999  -5.776  0.00  0.00     0.076 C 
ATOM      7  C8  UNL d   1      -0.699   4.246  -4.032  0.00  0.00     0.001 A 
ENDROOT
BRANCH   1   8
ATOM      8  C1  UNL d   1      -1.023   2.425  -2.312  0.00  0.00     0.053 C 
ATOM      9  C   UNL d   1      -0.712   2.675  -0.844  0.00  0.00     0.018 C 
ENDBRANCH   1   8
TORSDOF 1
ENDMDL
