MODEL 1
REMARK minimizedAffinity 13.9237738
REMARK minimizedRMSD -1
REMARK  1 active torsions:
REMARK  status: ('A' for Active; 'I' for Inactive)
REMARK    1  A    between atoms: C1_2  and  C2_3 
ROOT
ATOM      1  C2  UNL d   1       0.390   3.986  -2.841  0.00  0.00    -0.073 A 
ATOM      2  C3  UNL d   1      -0.699   3.736  -3.684  0.00  0.00    -0.002 A 
ATOM      3  C4  UNL d   1      -1.740   2.907  -3.263  0.00  0.00     0.004 A 
ATOM      4  C5  UNL d   1      -1.706   2.327  -1.996  0.00  0.00    -0.004 A 
ATOM      5  C6  UNL d   1      -0.632   2.575  -1.134  0.00  0.00    -0.075 A 
ATOM      6  C7  UNL d   1      -0.580   1.956   0.232  0.00  0.00     0.076 C 
ATOM      7  C8  UNL d   1       0.410   3.406  -1.565  0.00  0.00     0.001 A 
ENDROOT
BRANCH   1   8
ATOM      8  C1  UNL d   1       1.513   4.886  -3.289  0.00  0.00     0.053 C 
ATOM      9  C   UNL d   1       1.023   5.999  -4.202  0.00  0.00     0.018 C 
ENDBRANCH   1   8
TORSDOF 1
ENDMDL
