MODEL 1
REMARK minimizedAffinity 13.1058817
REMARK minimizedRMSD -1
REMARK  1 active torsions:
REMARK  status: ('A' for Active; 'I' for Inactive)
REMARK    1  A    between atoms: C1_2  and  C2_3 
ROOT
ATOM      1  C2  UNL d   1       1.714  -2.000  -3.491  0.00  0.00    -0.073 A 
ATOM      2  C3  UNL d   1       1.247  -3.318  -3.555  0.00  0.00    -0.002 A 
ATOM      3  C4  UNL d   1       1.058  -4.057  -2.387  0.00  0.00     0.004 A 
ATOM      4  C5  UNL d   1       1.327  -3.485  -1.143  0.00  0.00    -0.004 A 
ATOM      5  C6  UNL d   1       1.783  -2.166  -1.057  0.00  0.00    -0.075 A 
ATOM      6  C7  UNL d   1       2.079  -1.537   0.272  0.00  0.00     0.076 C 
ATOM      7  C8  UNL d   1       1.973  -1.431  -2.236  0.00  0.00     0.001 A 
ENDROOT
BRANCH   1   8
ATOM      8  C1  UNL d   1       1.914  -1.196  -4.749  0.00  0.00     0.053 C 
ATOM      9  C   UNL d   1       1.566  -1.994  -5.996  0.00  0.00     0.018 C 
ENDBRANCH   1   8
TORSDOF 1
ENDMDL
