MODEL 1
REMARK minimizedAffinity 12.3197937
REMARK minimizedRMSD -1
REMARK  1 active torsions:
REMARK  status: ('A' for Active; 'I' for Inactive)
REMARK    1  A    between atoms: C1_2  and  C2_3 
ROOT
ATOM      1  C2  UNL d   1       1.243  -2.955  -3.649  0.00  0.00    -0.073 A 
ATOM      2  C3  UNL d   1       1.133  -1.945  -2.686  0.00  0.00    -0.002 A 
ATOM      3  C4  UNL d   1       1.253  -2.249  -1.329  0.00  0.00     0.004 A 
ATOM      4  C5  UNL d   1       1.491  -3.561  -0.922  0.00  0.00    -0.004 A 
ATOM      5  C6  UNL d   1       1.616  -4.582  -1.870  0.00  0.00    -0.075 A 
ATOM      6  C7  UNL d   1       1.870  -6.000  -1.448  0.00  0.00     0.076 C 
ATOM      7  C8  UNL d   1       1.491  -4.270  -3.230  0.00  0.00     0.001 A 
ENDROOT
BRANCH   1   8
ATOM      8  C1  UNL d   1       1.120  -2.631  -5.115  0.00  0.00     0.053 C 
ATOM      9  C   UNL d   1       2.056  -1.508  -5.531  0.00  0.00     0.018 C 
ENDBRANCH   1   8
TORSDOF 1
ENDMDL
