MODEL 1
REMARK minimizedAffinity 2.62907195
REMARK minimizedRMSD -1
REMARK  1 active torsions:
REMARK  status: ('A' for Active; 'I' for Inactive)
REMARK    1  A    between atoms: C1_2  and  C2_3 
ROOT
ATOM      1  C2  UNL d   1      -5.871  -4.328   3.860  0.00  0.00    -0.073 A 
ATOM      2  C3  UNL d   1      -5.985  -5.541   3.171  0.00  0.00    -0.002 A 
ATOM      3  C4  UNL d   1      -5.934  -5.568   1.777  0.00  0.00     0.004 A 
ATOM      4  C5  UNL d   1      -5.762  -4.385   1.058  0.00  0.00    -0.004 A 
ATOM      5  C6  UNL d   1      -5.633  -3.164   1.729  0.00  0.00    -0.075 A 
ATOM      6  C7  UNL d   1      -5.449  -1.883   0.970  0.00  0.00     0.076 C 
ATOM      7  C8  UNL d   1      -5.688  -3.146   3.129  0.00  0.00     0.001 A 
ENDROOT
BRANCH   1   8
ATOM      8  C1  UNL d   1      -5.919  -4.296   5.366  0.00  0.00     0.053 C 
ATOM      9  C   UNL d   1      -5.992  -5.691   5.964  0.00  0.00     0.018 C 
ENDBRANCH   1   8
TORSDOF 1
ENDMDL
