MODEL 1
REMARK minimizedAffinity 9.92738819
REMARK minimizedRMSD -1
REMARK  1 active torsions:
REMARK  status: ('A' for Active; 'I' for Inactive)
REMARK    1  A    between atoms: C1_2  and  C2_3 
ROOT
ATOM      1  C2  UNL d   1      -0.654   3.678  -1.974  0.00  0.00    -0.073 A 
ATOM      2  C3  UNL d   1       0.648   3.911  -1.518  0.00  0.00    -0.002 A 
ATOM      3  C4  UNL d   1       1.099   3.317  -0.338  0.00  0.00     0.004 A 
ATOM      4  C5  UNL d   1       0.256   2.479   0.392  0.00  0.00    -0.004 A 
ATOM      5  C6  UNL d   1      -1.045   2.225  -0.054  0.00  0.00    -0.075 A 
ATOM      6  C7  UNL d   1      -1.965   1.328   0.721  0.00  0.00     0.076 C 
ATOM      7  C8  UNL d   1      -1.491   2.827  -1.238  0.00  0.00     0.001 A 
ENDROOT
BRANCH   1   8
ATOM      8  C1  UNL d   1      -1.143   4.312  -3.251  0.00  0.00     0.053 C 
ATOM      9  C   UNL d   1      -1.137   3.332  -4.413  0.00  0.00     0.018 C 
ENDBRANCH   1   8
TORSDOF 1
ENDMDL
