MODEL 1
REMARK minimizedAffinity 12.2466822
REMARK minimizedRMSD -1
REMARK  1 active torsions:
REMARK  status: ('A' for Active; 'I' for Inactive)
REMARK    1  A    between atoms: C1_2  and  C2_3 
ROOT
ATOM      1  C2  UNL d   1      -0.486   4.040  -2.064  0.00  0.00    -0.073 A 
ATOM      2  C3  UNL d   1      -0.147   5.257  -1.462  0.00  0.00    -0.002 A 
ATOM      3  C4  UNL d   1       0.160   5.310  -0.102  0.00  0.00     0.004 A 
ATOM      4  C5  UNL d   1       0.139   4.147   0.668  0.00  0.00    -0.004 A 
ATOM      5  C6  UNL d   1      -0.186   2.919   0.082  0.00  0.00    -0.075 A 
ATOM      6  C7  UNL d   1      -0.215   1.660   0.897  0.00  0.00     0.076 C 
ATOM      7  C8  UNL d   1      -0.496   2.875  -1.284  0.00  0.00     0.001 A 
ENDROOT
BRANCH   1   8
ATOM      8  C1  UNL d   1      -0.812   3.977  -3.534  0.00  0.00     0.053 C 
ATOM      9  C   UNL d   1      -2.156   3.313  -3.791  0.00  0.00     0.018 C 
ENDBRANCH   1   8
TORSDOF 1
ENDMDL
