MODEL 1
REMARK minimizedAffinity 12.822546
REMARK minimizedRMSD -1
REMARK  1 active torsions:
REMARK  status: ('A' for Active; 'I' for Inactive)
REMARK    1  A    between atoms: C1_2  and  C2_3 
ROOT
ATOM      1  C2  UNL d   1       2.027  -2.314  -3.388  0.00  0.00    -0.073 A 
ATOM      2  C3  UNL d   1       2.102  -3.711  -3.354  0.00  0.00    -0.002 A 
ATOM      3  C4  UNL d   1       2.019  -4.391  -2.138  0.00  0.00     0.004 A 
ATOM      4  C5  UNL d   1       1.854  -3.683  -0.947  0.00  0.00    -0.004 A 
ATOM      5  C6  UNL d   1       1.765  -2.288  -0.963  0.00  0.00    -0.075 A 
ATOM      6  C7  UNL d   1       1.590  -1.511   0.309  0.00  0.00     0.076 C 
ATOM      7  C8  UNL d   1       1.852  -1.612  -2.187  0.00  0.00     0.001 A 
ENDROOT
BRANCH   1   8
ATOM      8  C1  UNL d   1       2.110  -1.575  -4.699  0.00  0.00     0.053 C 
ATOM      9  C   UNL d   1       1.547  -2.393  -5.851  0.00  0.00     0.018 C 
ENDBRANCH   1   8
TORSDOF 1
ENDMDL
