MODEL 1
REMARK minimizedAffinity -4.6398654
REMARK minimizedRMSD -1
REMARK  2 active torsions:
REMARK  status: ('A' for Active; 'I' for Inactive)
REMARK    1  A    between atoms: C2'_3  and  C1'_4 
REMARK    2  A    between atoms: C1'_4  and  C1_5 
ROOT
ATOM      1  C1  I4B d   1       0.090  -0.318  -0.196  0.00  0.00    -0.075 A 
ATOM      2  C2  I4B d   1      -0.893  -0.188   0.753  0.00  0.00     0.003 A 
ATOM      3  C3  I4B d   1      -0.886   0.915   1.640  0.00  0.00     0.002 A 
ATOM      4  C4  I4B d   1       0.144   1.831   1.577  0.00  0.00    -0.004 A 
ATOM      5  C5  I4B d   1       1.127   1.711   0.600  0.00  0.00     0.002 A 
ATOM      6  C6  I4B d   1       1.094   0.636  -0.301  0.00  0.00     0.003 A 
ENDROOT
BRANCH   1   7
ATOM      7  C1' I4B d   1       0.071  -1.513  -1.095  0.00  0.00     0.060 C 
BRANCH   7   8
ATOM      8  C2' I4B d   1      -1.132  -1.390  -2.008  0.00  0.00    -0.013 C 
ATOM      9  C4' I4B d   1      -0.711  -1.235  -3.446  0.00  0.00     0.013 C 
ATOM     10  C3' I4B d   1      -1.982  -2.612  -1.822  0.00  0.00     0.013 C 
ENDBRANCH   7   8
ENDBRANCH   1   7
TORSDOF 2
ENDMDL
