MODEL 1
REMARK minimizedAffinity -3.491153
REMARK minimizedRMSD -1
REMARK  2 active torsions:
REMARK  status: ('A' for Active; 'I' for Inactive)
REMARK    1  A    between atoms: C2'_3  and  C1'_4 
REMARK    2  A    between atoms: C1'_4  and  C1_5 
ROOT
ATOM      1  C1  I4B d   1      -0.025   0.670   1.035  0.00  0.00    -0.075 A 
ATOM      2  C2  I4B d   1      -0.708   1.848   1.206  0.00  0.00     0.003 A 
ATOM      3  C3  I4B d   1      -0.008   3.040   1.514  0.00  0.00     0.002 A 
ATOM      4  C4  I4B d   1       1.360   2.998   1.691  0.00  0.00    -0.004 A 
ATOM      5  C5  I4B d   1       2.053   1.807   1.495  0.00  0.00     0.002 A 
ATOM      6  C6  I4B d   1       1.358   0.638   1.153  0.00  0.00     0.003 A 
ENDROOT
BRANCH   1   7
ATOM      7  C1' I4B d   1      -0.800  -0.576   0.743  0.00  0.00     0.060 C 
BRANCH   7   8
ATOM      8  C2' I4B d   1      -0.528  -0.968  -0.696  0.00  0.00    -0.013 C 
ATOM      9  C4' I4B d   1       0.373  -2.172  -0.772  0.00  0.00     0.013 C 
ATOM     10  C3' I4B d   1      -1.846  -1.235  -1.359  0.00  0.00     0.013 C 
ENDBRANCH   7   8
ENDBRANCH   1   7
TORSDOF 2
ENDMDL
