MODEL 1
REMARK minimizedAffinity -3.82151985
REMARK minimizedRMSD -1
REMARK  2 active torsions:
REMARK  status: ('A' for Active; 'I' for Inactive)
REMARK    1  A    between atoms: C2'_3  and  C1'_4 
REMARK    2  A    between atoms: C1'_4  and  C1_5 
ROOT
ATOM      1  C1  I4B d   1       1.571   0.538   0.000  0.00  0.00    -0.075 A 
ATOM      2  C2  I4B d   1       0.803   1.348   0.798  0.00  0.00     0.003 A 
ATOM      3  C3  I4B d   1       1.289   2.613   1.209  0.00  0.00     0.002 A 
ATOM      4  C4  I4B d   1       2.561   3.003   0.843  0.00  0.00    -0.004 A 
ATOM      5  C5  I4B d   1       3.330   2.190   0.015  0.00  0.00     0.002 A 
ATOM      6  C6  I4B d   1       2.827   0.955  -0.420  0.00  0.00     0.003 A 
ENDROOT
BRANCH   1   7
ATOM      7  C1' I4B d   1       1.039  -0.805  -0.387  0.00  0.00     0.060 C 
BRANCH   7   8
ATOM      8  C2' I4B d   1      -0.449  -0.817  -0.105  0.00  0.00    -0.013 C 
ATOM      9  C4' I4B d   1      -1.221  -1.378  -1.271  0.00  0.00     0.013 C 
ATOM     10  C3' I4B d   1      -0.679  -1.627   1.136  0.00  0.00     0.013 C 
ENDBRANCH   7   8
ENDBRANCH   1   7
TORSDOF 2
ENDMDL
