MODEL 1
REMARK minimizedAffinity -2.66046309
REMARK minimizedRMSD -1
REMARK  2 active torsions:
REMARK  status: ('A' for Active; 'I' for Inactive)
REMARK    1  A    between atoms: C2'_3  and  C1'_4 
REMARK    2  A    between atoms: C1'_4  and  C1_5 
ROOT
ATOM      1  C1  I4B d   1      -0.294  -0.252  -0.200  0.00  0.00    -0.075 A 
ATOM      2  C2  I4B d   1      -1.278  -0.253   0.757  0.00  0.00     0.003 A 
ATOM      3  C3  I4B d   1      -1.284   0.732   1.775  0.00  0.00     0.002 A 
ATOM      4  C4  I4B d   1      -0.265   1.661   1.826  0.00  0.00    -0.004 A 
ATOM      5  C5  I4B d   1       0.719   1.674   0.842  0.00  0.00     0.002 A 
ATOM      6  C6  I4B d   1       0.698   0.719  -0.185  0.00  0.00     0.003 A 
ENDROOT
BRANCH   1   7
ATOM      7  C1' I4B d   1      -0.300  -1.327  -1.240  0.00  0.00     0.060 C 
BRANCH   7   8
ATOM      8  C2' I4B d   1      -1.731  -1.524  -1.699  0.00  0.00    -0.013 C 
ATOM      9  C4' I4B d   1      -1.935  -0.991  -3.093  0.00  0.00     0.013 C 
ATOM     10  C3' I4B d   1      -2.041  -2.990  -1.630  0.00  0.00     0.013 C 
ENDBRANCH   7   8
ENDBRANCH   1   7
TORSDOF 2
ENDMDL
