MODEL 1
REMARK minimizedAffinity -4.39348745
REMARK minimizedRMSD -1
REMARK  2 active torsions:
REMARK  status: ('A' for Active; 'I' for Inactive)
REMARK    1  A    between atoms: C2'_3  and  C1'_4 
REMARK    2  A    between atoms: C1'_4  and  C1_5 
ROOT
ATOM      1  C1  I4B d   1       0.790   0.723   0.372  0.00  0.00    -0.075 A 
ATOM      2  C2  I4B d   1       0.700   1.741   1.288  0.00  0.00     0.003 A 
ATOM      3  C3  I4B d   1       1.830   2.543   1.577  0.00  0.00     0.002 A 
ATOM      4  C4  I4B d   1       3.036   2.263   0.967  0.00  0.00    -0.004 A 
ATOM      5  C5  I4B d   1       3.120   1.245   0.021  0.00  0.00     0.002 A 
ATOM      6  C6  I4B d   1       1.988   0.479  -0.288  0.00  0.00     0.003 A 
ENDROOT
BRANCH   1   7
ATOM      7  C1' I4B d   1      -0.414  -0.125   0.115  0.00  0.00     0.060 C 
BRANCH   7   8
ATOM      8  C2' I4B d   1      -0.080  -1.082  -1.011  0.00  0.00    -0.013 C 
ATOM      9  C4' I4B d   1       0.621  -2.310  -0.492  0.00  0.00     0.013 C 
ATOM     10  C3' I4B d   1      -1.358  -1.443  -1.707  0.00  0.00     0.013 C 
ENDBRANCH   7   8
ENDBRANCH   1   7
TORSDOF 2
ENDMDL
