MODEL 1
REMARK minimizedAffinity -5.63836098
REMARK minimizedRMSD -1
REMARK  2 active torsions:
REMARK  status: ('A' for Active; 'I' for Inactive)
REMARK    1  A    between atoms: C2'_3  and  C1'_4 
REMARK    2  A    between atoms: C1'_4  and  C1_5 
ROOT
ATOM      1  C1  I4B d   1      -0.065  -0.293  -0.045  0.00  0.00    -0.075 A 
ATOM      2  C2  I4B d   1       0.988   0.580  -0.164  0.00  0.00     0.003 A 
ATOM      3  C3  I4B d   1       1.085   1.701   0.694  0.00  0.00     0.002 A 
ATOM      4  C4  I4B d   1       0.087   1.938   1.618  0.00  0.00    -0.004 A 
ATOM      5  C5  I4B d   1      -0.967   1.040   1.753  0.00  0.00     0.002 A 
ATOM      6  C6  I4B d   1      -1.038  -0.090   0.925  0.00  0.00     0.003 A 
ENDROOT
BRANCH   1   7
ATOM      7  C1' I4B d   1      -0.153  -1.449  -0.990  0.00  0.00     0.060 C 
BRANCH   7   8
ATOM      8  C2' I4B d   1      -1.491  -1.373  -1.697  0.00  0.00    -0.013 C 
ATOM      9  C4' I4B d   1      -1.317  -1.060  -3.160  0.00  0.00     0.013 C 
ATOM     10  C3' I4B d   1      -2.192  -2.684  -1.504  0.00  0.00     0.013 C 
ENDBRANCH   7   8
ENDBRANCH   1   7
TORSDOF 2
ENDMDL
