MODEL 1
REMARK minimizedAffinity -3.04689789
REMARK minimizedRMSD -1
REMARK  2 active torsions:
REMARK  status: ('A' for Active; 'I' for Inactive)
REMARK    1  A    between atoms: C2'_3  and  C1'_4 
REMARK    2  A    between atoms: C1'_4  and  C1_5 
ROOT
ATOM      1  C1  I4B d   1       0.085  -0.187  -0.186  0.00  0.00    -0.075 A 
ATOM      2  C2  I4B d   1      -0.570   0.381   0.878  0.00  0.00     0.003 A 
ATOM      3  C3  I4B d   1      -0.052   1.546   1.495  0.00  0.00     0.002 A 
ATOM      4  C4  I4B d   1       1.141   2.077   1.050  0.00  0.00    -0.004 A 
ATOM      5  C5  I4B d   1       1.792   1.513  -0.044  0.00  0.00     0.002 A 
ATOM      6  C6  I4B d   1       1.254   0.381  -0.674  0.00  0.00     0.003 A 
ENDROOT
BRANCH   1   7
ATOM      7  C1' I4B d   1      -0.473  -1.436  -0.792  0.00  0.00     0.060 C 
BRANCH   7   8
ATOM      8  C2' I4B d   1      -1.583  -1.038  -1.744  0.00  0.00    -0.013 C 
ATOM      9  C4' I4B d   1      -1.141  -1.162  -3.178  0.00  0.00     0.013 C 
ATOM     10  C3' I4B d   1      -2.768  -1.913  -1.464  0.00  0.00     0.013 C 
ENDBRANCH   7   8
ENDBRANCH   1   7
TORSDOF 2
ENDMDL
