MODEL 1
REMARK minimizedAffinity -1.322366
REMARK minimizedRMSD -1
REMARK  2 active torsions:
REMARK  status: ('A' for Active; 'I' for Inactive)
REMARK    1  A    between atoms: C2'_3  and  C1'_4 
REMARK    2  A    between atoms: C1'_4  and  C1_5 
ROOT
ATOM      1  C1  I4B d   1      -0.984  -1.283  -1.445  0.00  0.00    -0.075 A 
ATOM      2  C2  I4B d   1      -1.885  -2.235  -1.037  0.00  0.00     0.003 A 
ATOM      3  C3  I4B d   1      -2.857  -2.730  -1.940  0.00  0.00     0.002 A 
ATOM      4  C4  I4B d   1      -2.924  -2.212  -3.218  0.00  0.00    -0.004 A 
ATOM      5  C5  I4B d   1      -1.995  -1.264  -3.637  0.00  0.00     0.002 A 
ATOM      6  C6  I4B d   1      -1.011  -0.805  -2.749  0.00  0.00     0.003 A 
ENDROOT
BRANCH   1   7
ATOM      7  C1' I4B d   1       0.008  -0.758  -0.456  0.00  0.00     0.060 C 
BRANCH   7   8
ATOM      8  C2' I4B d   1      -0.643   0.385   0.296  0.00  0.00    -0.013 C 
ATOM      9  C4' I4B d   1      -1.175  -0.072   1.628  0.00  0.00     0.013 C 
ATOM     10  C3' I4B d   1       0.379   1.469   0.464  0.00  0.00     0.013 C 
ENDBRANCH   7   8
ENDBRANCH   1   7
TORSDOF 2
ENDMDL
