MODEL 1
REMARK minimizedAffinity -5.08707857
REMARK minimizedRMSD -1
REMARK  2 active torsions:
REMARK  status: ('A' for Active; 'I' for Inactive)
REMARK    1  A    between atoms: C2'_3  and  C1'_4 
REMARK    2  A    between atoms: C1'_4  and  C1_5 
ROOT
ATOM      1  C1  I4B d   1       0.363  -0.079   0.218  0.00  0.00    -0.075 A 
ATOM      2  C2  I4B d   1      -0.524   0.332   1.181  0.00  0.00     0.003 A 
ATOM      3  C3  I4B d   1      -0.268   1.504   1.933  0.00  0.00     0.002 A 
ATOM      4  C4  I4B d   1       0.905   2.201   1.725  0.00  0.00    -0.004 A 
ATOM      5  C5  I4B d   1       1.793   1.796   0.733  0.00  0.00     0.002 A 
ATOM      6  C6  I4B d   1       1.515   0.655  -0.034  0.00  0.00     0.003 A 
ENDROOT
BRANCH   1   7
ATOM      7  C1' I4B d   1       0.077  -1.340  -0.535  0.00  0.00     0.060 C 
BRANCH   7   8
ATOM      8  C2' I4B d   1      -1.182  -1.122  -1.349  0.00  0.00    -0.013 C 
ATOM      9  C4' I4B d   1      -0.855  -0.797  -2.783  0.00  0.00     0.013 C 
ATOM     10  C3' I4B d   1      -2.017  -2.364  -1.252  0.00  0.00     0.013 C 
ENDBRANCH   7   8
ENDBRANCH   1   7
TORSDOF 2
ENDMDL
