MODEL 1
REMARK minimizedAffinity -0.385342598
REMARK minimizedRMSD -1
REMARK  3 active torsions:
REMARK  status: ('A' for Active; 'I' for Inactive)
REMARK    1  A    between atoms: C3'_2  and  C2'_3 
REMARK    2  A    between atoms: C2'_3  and  C1'_4 
REMARK    3  A    between atoms: C1'_4  and  C1_5 
ROOT
ATOM      1  C1  N4B d   1       0.841  -0.298  -2.841  0.00  0.00    -0.075 A 
ATOM      2  C2  N4B d   1       2.252  -0.363  -2.839  0.00  0.00     0.002 A 
ATOM      3  C3  N4B d   1       2.894  -1.354  -3.541  0.00  0.00     0.002 A 
ATOM      4  C4  N4B d   1       2.150  -2.296  -4.234  0.00  0.00    -0.004 A 
ATOM      5  C5  N4B d   1       0.789  -2.211  -4.252  0.00  0.00     0.002 A 
ATOM      6  C6  N4B d   1       0.130  -1.219  -3.555  0.00  0.00     0.002 A 
ENDROOT
BRANCH   1   7
ATOM      7  C1' N4B d   1       0.092   0.715  -2.019  0.00  0.00     0.057 C 
BRANCH   7   8
ATOM      8  C2' N4B d   1       0.365   0.459  -0.540  0.00  0.00     0.009 C 
BRANCH   8   9
ATOM      9  C3' N4B d   1      -0.416  -0.733  -0.015  0.00  0.00     0.004 C 
ATOM     10  C4' N4B d   1      -1.298  -0.383   1.146  0.00  0.00     0.003 C 
ENDBRANCH   8   9
ENDBRANCH   7   8
ENDBRANCH   1   7
TORSDOF 3
ENDMDL
