MODEL 1
REMARK minimizedAffinity -6.46938515
REMARK minimizedRMSD -1
REMARK  3 active torsions:
REMARK  status: ('A' for Active; 'I' for Inactive)
REMARK    1  A    between atoms: C3'_2  and  C2'_3 
REMARK    2  A    between atoms: C2'_3  and  C1'_4 
REMARK    3  A    between atoms: C1'_4  and  C1_5 
ROOT
ATOM      1  C1  N4B d   1      -0.135  -0.123   0.791  0.00  0.00    -0.075 A 
ATOM      2  C2  N4B d   1      -1.531  -0.317   0.705  0.00  0.00     0.002 A 
ATOM      3  C3  N4B d   1      -2.277  -0.456   1.850  0.00  0.00     0.002 A 
ATOM      4  C4  N4B d   1      -1.648  -0.424   3.086  0.00  0.00    -0.004 A 
ATOM      5  C5  N4B d   1      -0.303  -0.211   3.161  0.00  0.00     0.002 A 
ATOM      6  C6  N4B d   1       0.458  -0.065   2.019  0.00  0.00     0.002 A 
ENDROOT
BRANCH   1   7
ATOM      7  C1' N4B d   1       0.734  -0.051  -0.435  0.00  0.00     0.057 C 
BRANCH   7   8
ATOM      8  C2' N4B d   1      -0.144   0.209  -1.656  0.00  0.00     0.009 C 
BRANCH   8   9
ATOM      9  C3' N4B d   1      -0.106  -0.949  -2.639  0.00  0.00     0.004 C 
ATOM     10  C4' N4B d   1       1.202  -1.052  -3.365  0.00  0.00     0.003 C 
ENDBRANCH   8   9
ENDBRANCH   7   8
ENDBRANCH   1   7
TORSDOF 3
ENDMDL
