MODEL 1
REMARK minimizedAffinity -1.33397865
REMARK minimizedRMSD -1
REMARK  3 active torsions:
REMARK  status: ('A' for Active; 'I' for Inactive)
REMARK    1  A    between atoms: C3'_2  and  C2'_3 
REMARK    2  A    between atoms: C2'_3  and  C1'_4 
REMARK    3  A    between atoms: C1'_4  and  C1_5 
ROOT
ATOM      1  C1  N4B d   1      -0.104   0.168  -0.698  0.00  0.00    -0.075 A 
ATOM      2  C2  N4B d   1      -0.227  -0.153   0.672  0.00  0.00     0.002 A 
ATOM      3  C3  N4B d   1      -1.468  -0.207   1.256  0.00  0.00     0.002 A 
ATOM      4  C4  N4B d   1      -2.596   0.074   0.499  0.00  0.00    -0.004 A 
ATOM      5  C5  N4B d   1      -2.471   0.359  -0.829  0.00  0.00     0.002 A 
ATOM      6  C6  N4B d   1      -1.229   0.413  -1.431  0.00  0.00     0.002 A 
ENDROOT
BRANCH   1   7
ATOM      7  C1' N4B d   1       1.237   0.324  -1.360  0.00  0.00     0.057 C 
BRANCH   7   8
ATOM      8  C2' N4B d   1       1.088   0.073  -2.858  0.00  0.00     0.009 C 
BRANCH   8   9
ATOM      9  C3' N4B d   1       0.630  -1.345  -3.154  0.00  0.00     0.004 C 
ATOM     10  C4' N4B d   1       1.337  -1.949  -4.331  0.00  0.00     0.003 C 
ENDBRANCH   8   9
ENDBRANCH   7   8
ENDBRANCH   1   7
TORSDOF 3
ENDMDL
