MODEL 1
REMARK minimizedAffinity 2.08042169
REMARK minimizedRMSD -1
REMARK  3 active torsions:
REMARK  status: ('A' for Active; 'I' for Inactive)
REMARK    1  A    between atoms: C3'_2  and  C2'_3 
REMARK    2  A    between atoms: C2'_3  and  C1'_4 
REMARK    3  A    between atoms: C1'_4  and  C1_5 
ROOT
ATOM      1  C1  N4B d   1       2.623  -0.740  -4.246  0.00  0.00    -0.075 A 
ATOM      2  C2  N4B d   1       2.332   0.630  -4.062  0.00  0.00     0.002 A 
ATOM      3  C3  N4B d   1       3.235   1.584  -4.464  0.00  0.00     0.002 A 
ATOM      4  C4  N4B d   1       4.438   1.193  -5.032  0.00  0.00    -0.004 A 
ATOM      5  C5  N4B d   1       4.701  -0.131  -5.230  0.00  0.00     0.002 A 
ATOM      6  C6  N4B d   1       3.801  -1.101  -4.835  0.00  0.00     0.002 A 
ENDROOT
BRANCH   1   7
ATOM      7  C1' N4B d   1       1.705  -1.821  -3.745  0.00  0.00     0.057 C 
BRANCH   7   8
ATOM      8  C2' N4B d   1       1.014  -2.482  -4.934  0.00  0.00     0.009 C 
BRANCH   8   9
ATOM      9  C3' N4B d   1      -0.418  -2.874  -4.612  0.00  0.00     0.004 C 
ATOM     10  C4' N4B d   1      -1.400  -2.370  -5.628  0.00  0.00     0.003 C 
ENDBRANCH   8   9
ENDBRANCH   7   8
ENDBRANCH   1   7
TORSDOF 3
ENDMDL
