MODEL 1
REMARK minimizedAffinity -3.2068429
REMARK minimizedRMSD -1
REMARK  3 active torsions:
REMARK  status: ('A' for Active; 'I' for Inactive)
REMARK    1  A    between atoms: C3'_2  and  C2'_3 
REMARK    2  A    between atoms: C2'_3  and  C1'_4 
REMARK    3  A    between atoms: C1'_4  and  C1_5 
ROOT
ATOM      1  C1  N4B d   1       0.564   0.726   0.023  0.00  0.00    -0.075 A 
ATOM      2  C2  N4B d   1       1.565   0.590   1.009  0.00  0.00     0.002 A 
ATOM      3  C3  N4B d   1       1.215   0.473   2.332  0.00  0.00     0.002 A 
ATOM      4  C4  N4B d   1      -0.124   0.510   2.693  0.00  0.00    -0.004 A 
ATOM      5  C5  N4B d   1      -1.086   0.616   1.732  0.00  0.00     0.002 A 
ATOM      6  C6  N4B d   1      -0.749   0.730   0.398  0.00  0.00     0.002 A 
ENDROOT
BRANCH   1   7
ATOM      7  C1' N4B d   1       0.901   0.942  -1.427  0.00  0.00     0.057 C 
BRANCH   7   8
ATOM      8  C2' N4B d   1       0.933  -0.406  -2.140  0.00  0.00     0.009 C 
BRANCH   8   9
ATOM      9  C3' N4B d   1       1.744  -0.351  -3.423  0.00  0.00     0.004 C 
ATOM     10  C4' N4B d   1       2.339  -1.677  -3.792  0.00  0.00     0.003 C 
ENDBRANCH   8   9
ENDBRANCH   7   8
ENDBRANCH   1   7
TORSDOF 3
ENDMDL
