MODEL 1
REMARK minimizedAffinity -5.36358118
REMARK minimizedRMSD -1
REMARK  3 active torsions:
REMARK  status: ('A' for Active; 'I' for Inactive)
REMARK    1  A    between atoms: C3'_2  and  C2'_3 
REMARK    2  A    between atoms: C2'_3  and  C1'_4 
REMARK    3  A    between atoms: C1'_4  and  C1_5 
ROOT
ATOM      1  C1  N4B d   1      -0.125  -0.404   0.316  0.00  0.00    -0.075 A 
ATOM      2  C2  N4B d   1      -1.017  -0.817   1.330  0.00  0.00     0.002 A 
ATOM      3  C3  N4B d   1      -0.716  -0.577   2.648  0.00  0.00     0.002 A 
ATOM      4  C4  N4B d   1       0.473   0.056   2.976  0.00  0.00    -0.004 A 
ATOM      5  C5  N4B d   1       1.318   0.474   1.990  0.00  0.00     0.002 A 
ATOM      6  C6  N4B d   1       1.027   0.243   0.660  0.00  0.00     0.002 A 
ENDROOT
BRANCH   1   7
ATOM      7  C1' N4B d   1      -0.369  -0.721  -1.134  0.00  0.00     0.057 C 
BRANCH   7   8
ATOM      8  C2' N4B d   1       0.304   0.340  -1.999  0.00  0.00     0.009 C 
BRANCH   8   9
ATOM      9  C3' N4B d   1       1.034  -0.270  -3.183  0.00  0.00     0.004 C 
ATOM     10  C4' N4B d   1       0.398  -1.540  -3.666  0.00  0.00     0.003 C 
ENDBRANCH   8   9
ENDBRANCH   7   8
ENDBRANCH   1   7
TORSDOF 3
ENDMDL
