MODEL 1
REMARK minimizedAffinity -1.45703185
REMARK minimizedRMSD -1
REMARK  3 active torsions:
REMARK  status: ('A' for Active; 'I' for Inactive)
REMARK    1  A    between atoms: C3'_2  and  C2'_3 
REMARK    2  A    between atoms: C2'_3  and  C1'_4 
REMARK    3  A    between atoms: C1'_4  and  C1_5 
ROOT
ATOM      1  C1  N4B d   1       0.470   0.130  -1.318  0.00  0.00    -0.075 A 
ATOM      2  C2  N4B d   1      -0.825  -0.306  -0.963  0.00  0.00     0.002 A 
ATOM      3  C3  N4B d   1      -1.170  -0.426   0.361  0.00  0.00     0.002 A 
ATOM      4  C4  N4B d   1      -0.234  -0.135   1.343  0.00  0.00    -0.004 A 
ATOM      5  C5  N4B d   1       1.007   0.309   0.991  0.00  0.00     0.002 A 
ATOM      6  C6  N4B d   1       1.366   0.438  -0.336  0.00  0.00     0.002 A 
ENDROOT
BRANCH   1   7
ATOM      7  C1' N4B d   1       0.921   0.194  -2.752  0.00  0.00     0.057 C 
BRANCH   7   8
ATOM      8  C2' N4B d   1       0.454  -1.063  -3.480  0.00  0.00     0.009 C 
BRANCH   8   9
ATOM      9  C3' N4B d   1       1.599  -2.027  -3.741  0.00  0.00     0.004 C 
ATOM     10  C4' N4B d   1       2.930  -1.473  -3.329  0.00  0.00     0.003 C 
ENDBRANCH   8   9
ENDBRANCH   7   8
ENDBRANCH   1   7
TORSDOF 3
ENDMDL
