MODEL 1
REMARK minimizedAffinity -5.75923014
REMARK minimizedRMSD -1
REMARK  3 active torsions:
REMARK  status: ('A' for Active; 'I' for Inactive)
REMARK    1  A    between atoms: C3'_2  and  C2'_3 
REMARK    2  A    between atoms: C2'_3  and  C1'_4 
REMARK    3  A    between atoms: C1'_4  and  C1_5 
ROOT
ATOM      1  C1  N4B d   1       0.504   0.210   0.306  0.00  0.00    -0.075 A 
ATOM      2  C2  N4B d   1       1.417   0.595   1.312  0.00  0.00     0.002 A 
ATOM      3  C3  N4B d   1       1.096   0.416   2.636  0.00  0.00     0.002 A 
ATOM      4  C4  N4B d   1      -0.133  -0.127   2.976  0.00  0.00    -0.004 A 
ATOM      5  C5  N4B d   1      -0.999  -0.520   1.998  0.00  0.00     0.002 A 
ATOM      6  C6  N4B d   1      -0.689  -0.350   0.664  0.00  0.00     0.002 A 
ENDROOT
BRANCH   1   7
ATOM      7  C1' N4B d   1       0.773   0.465  -1.151  0.00  0.00     0.057 C 
BRANCH   7   8
ATOM      8  C2' N4B d   1      -0.035  -0.521  -1.990  0.00  0.00     0.009 C 
BRANCH   8   9
ATOM      9  C3' N4B d   1       0.671  -0.875  -3.288  0.00  0.00     0.004 C 
ATOM     10  C4' N4B d   1       1.828  -1.807  -3.084  0.00  0.00     0.003 C 
ENDBRANCH   8   9
ENDBRANCH   7   8
ENDBRANCH   1   7
TORSDOF 3
ENDMDL
