MODEL 1
REMARK minimizedAffinity -3.36131549
REMARK minimizedRMSD -1
REMARK  3 active torsions:
REMARK  status: ('A' for Active; 'I' for Inactive)
REMARK    1  A    between atoms: C3'_2  and  C2'_3 
REMARK    2  A    between atoms: C2'_3  and  C1'_4 
REMARK    3  A    between atoms: C1'_4  and  C1_5 
ROOT
ATOM      1  C1  N4B d   1       0.355   0.391   0.354  0.00  0.00    -0.075 A 
ATOM      2  C2  N4B d   1      -0.896   0.171   0.969  0.00  0.00     0.002 A 
ATOM      3  C3  N4B d   1      -1.028   0.317   2.328  0.00  0.00     0.002 A 
ATOM      4  C4  N4B d   1       0.077   0.662   3.092  0.00  0.00    -0.004 A 
ATOM      5  C5  N4B d   1       1.277   0.898   2.486  0.00  0.00     0.002 A 
ATOM      6  C6  N4B d   1       1.423   0.759   1.120  0.00  0.00     0.002 A 
ENDROOT
BRANCH   1   7
ATOM      7  C1' N4B d   1       0.568   0.161  -1.118  0.00  0.00     0.057 C 
BRANCH   7   8
ATOM      8  C2' N4B d   1       0.580  -1.340  -1.393  0.00  0.00     0.009 C 
BRANCH   8   9
ATOM      9  C3' N4B d   1       1.267  -1.672  -2.706  0.00  0.00     0.004 C 
ATOM     10  C4' N4B d   1       2.011  -0.505  -3.283  0.00  0.00     0.003 C 
ENDBRANCH   8   9
ENDBRANCH   7   8
ENDBRANCH   1   7
TORSDOF 3
ENDMDL
