MODEL 1
REMARK minimizedAffinity -1.70481718
REMARK minimizedRMSD -1
REMARK  0 active torsions:
REMARK  status: ('A' for Active; 'I' for Inactive)
ROOT
ATOM      1  C   UNL d   1      -2.220   0.654  -2.766  0.00  0.00     0.020 A 
ATOM      2  C1  UNL d   1      -2.012   0.978  -4.106  0.00  0.00     0.020 A 
ATOM      3  C2  UNL d   1      -2.951   1.753  -4.791  0.00  0.00     0.034 A 
ATOM      4  C3  UNL d   1      -4.102   2.206  -4.135  0.00  0.00     0.017 A 
ATOM      5  C4  UNL d   1      -4.309   1.880  -2.790  0.00  0.00     0.017 A 
ATOM      6  C5  UNL d   1      -3.366   1.104  -2.110  0.00  0.00     0.034 A 
ATOM      7 Cl   UNL d   1      -5.704   2.402  -1.914  0.00  0.00    -0.070 Cl
ATOM      8 Cl1  UNL d   1      -5.221   3.160  -5.043  0.00  0.00    -0.070 Cl
ENDROOT
TORSDOF 0
ENDMDL
