MODEL 1
REMARK minimizedAffinity 5.07765388
REMARK minimizedRMSD -1
REMARK  0 active torsions:
REMARK  status: ('A' for Active; 'I' for Inactive)
ROOT
ATOM      1  C   UNL d   1       3.342  -1.479   1.227  0.00  0.00     0.020 A 
ATOM      2  C1  UNL d   1       3.248  -0.258   1.894  0.00  0.00     0.020 A 
ATOM      3  C2  UNL d   1       2.420   0.749   1.394  0.00  0.00     0.034 A 
ATOM      4  C3  UNL d   1       1.682   0.537   0.224  0.00  0.00     0.017 A 
ATOM      5  C4  UNL d   1       1.776  -0.689  -0.445  0.00  0.00     0.017 A 
ATOM      6  C5  UNL d   1       2.607  -1.694   0.060  0.00  0.00     0.034 A 
ATOM      7 Cl   UNL d   1       0.896  -1.024  -1.894  0.00  0.00    -0.070 Cl
ATOM      8 Cl1  UNL d   1       0.678   1.827  -0.337  0.00  0.00    -0.070 Cl
ENDROOT
TORSDOF 0
ENDMDL
