MODEL 1
REMARK minimizedAffinity 5.95609713
REMARK minimizedRMSD -1
REMARK  0 active torsions:
REMARK  status: ('A' for Active; 'I' for Inactive)
ROOT
ATOM      1  C   UNL d   1       3.369  -0.633   2.377  0.00  0.00     0.020 A 
ATOM      2  C1  UNL d   1       3.559  -1.802   1.641  0.00  0.00     0.020 A 
ATOM      3  C2  UNL d   1       2.972  -1.936   0.381  0.00  0.00     0.034 A 
ATOM      4  C3  UNL d   1       2.193  -0.900  -0.148  0.00  0.00     0.017 A 
ATOM      5  C4  UNL d   1       2.004   0.273   0.592  0.00  0.00     0.017 A 
ATOM      6  C5  UNL d   1       2.593   0.402   1.853  0.00  0.00     0.034 A 
ATOM      7 Cl   UNL d   1       1.056   1.594   0.006  0.00  0.00    -0.070 Cl
ATOM      8 Cl1  UNL d   1       1.499  -1.135  -1.712  0.00  0.00    -0.070 Cl
ENDROOT
TORSDOF 0
ENDMDL
