MODEL 1
REMARK minimizedAffinity 1.13928783
REMARK minimizedRMSD -1
REMARK  0 active torsions:
REMARK  status: ('A' for Active; 'I' for Inactive)
ROOT
ATOM      1  C   UNL d   1       3.335   0.014   0.663  0.00  0.00     0.020 A 
ATOM      2  C1  UNL d   1       2.860  -1.099  -0.030  0.00  0.00     0.020 A 
ATOM      3  C2  UNL d   1       1.682  -1.006  -0.775  0.00  0.00     0.034 A 
ATOM      4  C3  UNL d   1       0.975   0.201  -0.827  0.00  0.00     0.017 A 
ATOM      5  C4  UNL d   1       1.453   1.317  -0.130  0.00  0.00     0.017 A 
ATOM      6  C5  UNL d   1       2.633   1.219   0.613  0.00  0.00     0.034 A 
ATOM      7 Cl   UNL d   1       0.636   2.840  -0.147  0.00  0.00    -0.070 Cl
ATOM      8 Cl1  UNL d   1      -0.474   0.244  -1.767  0.00  0.00    -0.070 Cl
ENDROOT
TORSDOF 0
ENDMDL
