MODEL 1
REMARK minimizedAffinity 1.62658823
REMARK minimizedRMSD -1
REMARK  0 active torsions:
REMARK  status: ('A' for Active; 'I' for Inactive)
ROOT
ATOM      1  C   UNL d   1      -0.993   1.236  -1.917  0.00  0.00     0.020 A 
ATOM      2  C1  UNL d   1      -0.613   0.098  -2.629  0.00  0.00     0.020 A 
ATOM      3  C2  UNL d   1       0.472  -0.666  -2.195  0.00  0.00     0.034 A 
ATOM      4  C3  UNL d   1       1.182  -0.294  -1.047  0.00  0.00     0.017 A 
ATOM      5  C4  UNL d   1       0.799   0.848  -0.334  0.00  0.00     0.017 A 
ATOM      6  C5  UNL d   1      -0.289   1.610  -0.773  0.00  0.00     0.034 A 
ATOM      7 Cl   UNL d   1       1.625   1.370   1.092  0.00  0.00    -0.070 Cl
ATOM      8 Cl1  UNL d   1       2.513  -1.285  -0.569  0.00  0.00    -0.070 Cl
ENDROOT
TORSDOF 0
ENDMDL
