MODEL 1
REMARK minimizedAffinity 0.650979161
REMARK minimizedRMSD -1
REMARK  0 active torsions:
REMARK  status: ('A' for Active; 'I' for Inactive)
ROOT
ATOM      1  C   UNL d   1       4.473   1.335   0.198  0.00  0.00     0.020 A 
ATOM      2  C1  UNL d   1       3.783   2.544   0.273  0.00  0.00     0.020 A 
ATOM      3  C2  UNL d   1       2.387   2.556   0.225  0.00  0.00     0.034 A 
ATOM      4  C3  UNL d   1       1.677   1.356   0.102  0.00  0.00     0.017 A 
ATOM      5  C4  UNL d   1       2.370   0.143   0.026  0.00  0.00     0.017 A 
ATOM      6  C5  UNL d   1       3.768   0.137   0.075  0.00  0.00     0.034 A 
ATOM      7 Cl   UNL d   1       1.563  -1.378  -0.127  0.00  0.00    -0.070 Cl
ATOM      8 Cl1  UNL d   1      -0.048   1.446   0.049  0.00  0.00    -0.070 Cl
ENDROOT
TORSDOF 0
ENDMDL
