MODEL 1
REMARK minimizedAffinity 4.06979227
REMARK minimizedRMSD -1
REMARK  0 active torsions:
REMARK  status: ('A' for Active; 'I' for Inactive)
ROOT
ATOM      1  C   UNL d   1      -5.536   2.615  -0.256  0.00  0.00     0.020 A 
ATOM      2  C1  UNL d   1      -5.060   1.310  -0.378  0.00  0.00     0.020 A 
ATOM      3  C2  UNL d   1      -4.867   0.753  -1.644  0.00  0.00     0.034 A 
ATOM      4  C3  UNL d   1      -5.150   1.501  -2.793  0.00  0.00     0.017 A 
ATOM      5  C4  UNL d   1      -5.628   2.810  -2.669  0.00  0.00     0.017 A 
ATOM      6  C5  UNL d   1      -5.820   3.363  -1.399  0.00  0.00     0.034 A 
ATOM      7 Cl   UNL d   1      -6.000   3.795  -4.040  0.00  0.00    -0.070 Cl
ATOM      8 Cl1  UNL d   1      -4.887   0.749  -4.326  0.00  0.00    -0.070 Cl
ENDROOT
TORSDOF 0
ENDMDL
