MODEL 1
REMARK minimizedAffinity 16.9994335
REMARK minimizedRMSD -1
REMARK  0 active torsions:
REMARK  status: ('A' for Active; 'I' for Inactive)
ROOT
ATOM      1  C1  DEN d   1       2.389  -5.062  -0.714  0.00  0.00     0.130 A 
ATOM      2  C2  DEN d   1       3.663  -4.760  -0.067  0.00  0.00    -0.031 A 
ATOM      3  C3  DEN d   1       3.899  -3.307  -0.179  0.00  0.00     0.027 A 
ATOM      4  C4  DEN d   1       2.421  -1.503  -1.282  0.00  0.00     0.027 A 
ATOM      5  C5  DEN d   1       1.251  -1.280  -1.973  0.00  0.00    -0.003 A 
ATOM      6  C6  DEN d   1       0.401  -2.297  -2.319  0.00  0.00     0.001 A 
ATOM      7  C7  DEN d   1       0.688  -3.581  -1.936  0.00  0.00     0.017 A 
ATOM      8  C8  DEN d   1       1.870  -3.815  -1.246  0.00  0.00    -0.094 A 
ATOM      9  C9  DEN d   1       2.709  -2.772  -0.895  0.00  0.00    -0.072 A 
ENDROOT
TORSDOF 0
ENDMDL
