MODEL 1
REMARK minimizedAffinity 12.4845638
REMARK minimizedRMSD -1
REMARK  0 active torsions:
REMARK  status: ('A' for Active; 'I' for Inactive)
ROOT
ATOM      1  C1  DEN d   1       1.908  -6.000  -2.844  0.00  0.00     0.130 A 
ATOM      2  C2  DEN d   1       0.774  -5.961  -3.763  0.00  0.00    -0.031 A 
ATOM      3  C3  DEN d   1       0.253  -4.579  -3.788  0.00  0.00     0.027 A 
ATOM      4  C4  DEN d   1       1.092  -2.506  -2.503  0.00  0.00     0.027 A 
ATOM      5  C5  DEN d   1       2.021  -2.048  -1.594  0.00  0.00    -0.003 A 
ATOM      6  C6  DEN d   1       2.947  -2.876  -1.017  0.00  0.00     0.001 A 
ATOM      7  C7  DEN d   1       2.995  -4.197  -1.377  0.00  0.00     0.017 A 
ATOM      8  C8  DEN d   1       2.058  -4.667  -2.288  0.00  0.00    -0.094 A 
ATOM      9  C9  DEN d   1       1.137  -3.812  -2.869  0.00  0.00    -0.072 A 
ENDROOT
TORSDOF 0
ENDMDL
