MODEL 1
REMARK minimizedAffinity 19.6984959
REMARK minimizedRMSD -1
REMARK  0 active torsions:
REMARK  status: ('A' for Active; 'I' for Inactive)
ROOT
ATOM      1  C1  DEN d   1       0.845   4.227   1.382  0.00  0.00     0.130 A 
ATOM      2  C2  DEN d   1       0.589   5.100   0.239  0.00  0.00    -0.031 A 
ATOM      3  C3  DEN d   1       1.437   4.646  -0.881  0.00  0.00     0.027 A 
ATOM      4  C4  DEN d   1       3.110   2.684  -0.959  0.00  0.00     0.027 A 
ATOM      5  C5  DEN d   1       3.677   1.663  -0.229  0.00  0.00    -0.003 A 
ATOM      6  C6  DEN d   1       3.368   1.448   1.088  0.00  0.00     0.001 A 
ATOM      7  C7  DEN d   1       2.433   2.238   1.704  0.00  0.00     0.017 A 
ATOM      8  C8  DEN d   1       1.862   3.274   0.976  0.00  0.00    -0.094 A 
ATOM      9  C9  DEN d   1       2.179   3.467  -0.358  0.00  0.00    -0.072 A 
ENDROOT
TORSDOF 0
ENDMDL
