MODEL 1
REMARK minimizedAffinity 10.4741564
REMARK minimizedRMSD -1
REMARK  0 active torsions:
REMARK  status: ('A' for Active; 'I' for Inactive)
ROOT
ATOM      1  C1  DEN d   1       2.989  -2.333  -0.142  0.00  0.00     0.130 A 
ATOM      2  C2  DEN d   1       2.238  -3.330  -0.899  0.00  0.00    -0.031 A 
ATOM      3  C3  DEN d   1       1.527  -2.633  -1.990  0.00  0.00     0.027 A 
ATOM      4  C4  DEN d   1       1.521  -0.122  -2.579  0.00  0.00     0.027 A 
ATOM      5  C5  DEN d   1       2.000   1.117  -2.216  0.00  0.00    -0.003 A 
ATOM      6  C6  DEN d   1       2.808   1.297  -1.125  0.00  0.00     0.001 A 
ATOM      7  C7  DEN d   1       3.199   0.213  -0.384  0.00  0.00     0.017 A 
ATOM      8  C8  DEN d   1       2.714  -1.039  -0.740  0.00  0.00    -0.094 A 
ATOM      9  C9  DEN d   1       1.908  -1.202  -1.854  0.00  0.00    -0.072 A 
ENDROOT
TORSDOF 0
ENDMDL
