MODEL 1
REMARK minimizedAffinity 16.9558449
REMARK minimizedRMSD -1
REMARK  0 active torsions:
REMARK  status: ('A' for Active; 'I' for Inactive)
ROOT
ATOM      1  C1  DEN d   1      -4.536  -4.005  -4.939  0.00  0.00     0.130 A 
ATOM      2  C2  DEN d   1      -4.291  -3.021  -5.991  0.00  0.00    -0.031 A 
ATOM      3  C3  DEN d   1      -2.895  -2.557  -5.866  0.00  0.00     0.027 A 
ATOM      4  C4  DEN d   1      -1.096  -3.265  -4.158  0.00  0.00     0.027 A 
ATOM      5  C5  DEN d   1      -0.838  -4.063  -3.066  0.00  0.00    -0.003 A 
ATOM      6  C6  DEN d   1      -1.796  -4.865  -2.505  0.00  0.00     0.001 A 
ATOM      7  C7  DEN d   1      -3.046  -4.922  -3.062  0.00  0.00     0.017 A 
ATOM      8  C8  DEN d   1      -3.316  -4.115  -4.160  0.00  0.00    -0.094 A 
ATOM      9  C9  DEN d   1      -2.330  -3.320  -4.720  0.00  0.00    -0.072 A 
ENDROOT
TORSDOF 0
ENDMDL
