MODEL 1
REMARK minimizedAffinity 7.61402225
REMARK minimizedRMSD -1
REMARK  0 active torsions:
REMARK  status: ('A' for Active; 'I' for Inactive)
ROOT
ATOM      1  C1  DEN d   1      -1.868  -3.745  -3.204  0.00  0.00     0.130 A 
ATOM      2  C2  DEN d   1      -1.927  -5.146  -3.610  0.00  0.00    -0.031 A 
ATOM      3  C3  DEN d   1      -2.829  -5.247  -4.775  0.00  0.00     0.027 A 
ATOM      4  C4  DEN d   1      -4.128  -3.378  -5.988  0.00  0.00     0.027 A 
ATOM      5  C5  DEN d   1      -4.403  -2.028  -6.000  0.00  0.00    -0.003 A 
ATOM      6  C6  DEN d   1      -3.884  -1.168  -5.069  0.00  0.00     0.001 A 
ATOM      7  C7  DEN d   1      -3.026  -1.642  -4.112  0.00  0.00     0.017 A 
ATOM      8  C8  DEN d   1      -2.749  -3.003  -4.088  0.00  0.00    -0.094 A 
ATOM      9  C9  DEN d   1      -3.274  -3.853  -5.046  0.00  0.00    -0.072 A 
ENDROOT
TORSDOF 0
ENDMDL
