MODEL 1
REMARK minimizedAffinity 9.55341244
REMARK minimizedRMSD -1
REMARK  0 active torsions:
REMARK  status: ('A' for Active; 'I' for Inactive)
ROOT
ATOM      1  C1  DEN d   1       0.945  -3.432  -3.376  0.00  0.00     0.130 A 
ATOM      2  C2  DEN d   1       0.754  -1.995  -3.197  0.00  0.00    -0.031 A 
ATOM      3  C3  DEN d   1       1.516  -1.579  -2.002  0.00  0.00     0.027 A 
ATOM      4  C4  DEN d   1       2.969  -3.011  -0.424  0.00  0.00     0.027 A 
ATOM      5  C5  DEN d   1       3.424  -4.285  -0.165  0.00  0.00    -0.003 A 
ATOM      6  C6  DEN d   1       3.060  -5.361  -0.931  0.00  0.00     0.001 A 
ATOM      7  C7  DEN d   1       2.253  -5.175  -2.022  0.00  0.00     0.017 A 
ATOM      8  C8  DEN d   1       1.784  -3.895  -2.285  0.00  0.00    -0.094 A 
ATOM      9  C9  DEN d   1       2.173  -2.818  -1.506  0.00  0.00    -0.072 A 
ENDROOT
TORSDOF 0
ENDMDL
