MODEL 1
REMARK minimizedAffinity 13.9201994
REMARK minimizedRMSD -1
REMARK  0 active torsions:
REMARK  status: ('A' for Active; 'I' for Inactive)
ROOT
ATOM      1  C1  DEN d   1       1.735   0.326  -2.926  0.00  0.00     0.130 A 
ATOM      2  C2  DEN d   1       2.052   1.746  -3.045  0.00  0.00    -0.031 A 
ATOM      3  C3  DEN d   1       2.912   2.120  -1.904  0.00  0.00     0.027 A 
ATOM      4  C4  DEN d   1       3.785   0.643   0.022  0.00  0.00     0.027 A 
ATOM      5  C5  DEN d   1       3.773  -0.626   0.557  0.00  0.00    -0.003 A 
ATOM      6  C6  DEN d   1       3.059  -1.650  -0.007  0.00  0.00     0.001 A 
ATOM      7  C7  DEN d   1       2.364  -1.434  -1.167  0.00  0.00     0.017 A 
ATOM      8  C8  DEN d   1       2.365  -0.156  -1.709  0.00  0.00    -0.094 A 
ATOM      9  C9  DEN d   1       3.103   0.863  -1.130  0.00  0.00    -0.072 A 
ENDROOT
TORSDOF 0
ENDMDL
