MODEL 1
REMARK minimizedAffinity 1.33363926
REMARK minimizedRMSD -1
REMARK  0 active torsions:
REMARK  status: ('A' for Active; 'I' for Inactive)
ROOT
ATOM      1  C1  DEN d   1       4.057  -1.639   0.305  0.00  0.00     0.130 A 
ATOM      2  C2  DEN d   1       4.186  -3.060  -0.007  0.00  0.00    -0.031 A 
ATOM      3  C3  DEN d   1       3.379  -3.337  -1.213  0.00  0.00     0.027 A 
ATOM      4  C4  DEN d   1       1.954  -1.713  -2.621  0.00  0.00     0.027 A 
ATOM      5  C5  DEN d   1       1.527  -0.409  -2.741  0.00  0.00    -0.003 A 
ATOM      6  C6  DEN d   1       1.882   0.561  -1.841  0.00  0.00     0.001 A 
ATOM      7  C7  DEN d   1       2.726   0.252  -0.807  0.00  0.00     0.017 A 
ATOM      8  C8  DEN d   1       3.155  -1.062  -0.676  0.00  0.00    -0.094 A 
ATOM      9  C9  DEN d   1       2.795  -2.026  -1.602  0.00  0.00    -0.072 A 
ENDROOT
TORSDOF 0
ENDMDL
