MODEL 1
REMARK minimizedAffinity 19.6698914
REMARK minimizedRMSD -1
REMARK  0 active torsions:
REMARK  status: ('A' for Active; 'I' for Inactive)
ROOT
ATOM      1  C1  DEN d   1      -2.996   1.943   2.782  0.00  0.00     0.130 A 
ATOM      2  C2  DEN d   1      -3.624   0.625   2.754  0.00  0.00    -0.031 A 
ATOM      3  C3  DEN d   1      -2.575  -0.374   2.469  0.00  0.00     0.027 A 
ATOM      4  C4  DEN d   1      -0.052  -0.011   2.077  0.00  0.00     0.027 A 
ATOM      5  C5  DEN d   1       0.947   0.934   1.992  0.00  0.00    -0.003 A 
ATOM      6  C6  DEN d   1       0.697   2.274   2.130  0.00  0.00     0.001 A 
ATOM      7  C7  DEN d   1      -0.575   2.703   2.405  0.00  0.00     0.017 A 
ATOM      8  C8  DEN d   1      -1.588   1.756   2.484  0.00  0.00    -0.094 A 
ATOM      9  C9  DEN d   1      -1.313   0.405   2.355  0.00  0.00    -0.072 A 
ENDROOT
TORSDOF 0
ENDMDL
