MODEL 1
REMARK minimizedAffinity 9.44591808
REMARK minimizedRMSD -1
REMARK  0 active torsions:
REMARK  status: ('A' for Active; 'I' for Inactive)
ROOT
ATOM      1  C1  DEN d   1      -1.865   4.194  -4.257  0.00  0.00     0.130 A 
ATOM      2  C2  DEN d   1      -2.201   3.287  -5.351  0.00  0.00    -0.031 A 
ATOM      3  C3  DEN d   1      -1.106   2.304  -5.482  0.00  0.00     0.027 A 
ATOM      4  C4  DEN d   1       1.063   2.098  -4.101  0.00  0.00     0.027 A 
ATOM      5  C5  DEN d   1       1.795   2.648  -3.072  0.00  0.00    -0.003 A 
ATOM      6  C6  DEN d   1       1.379   3.763  -2.394  0.00  0.00     0.001 A 
ATOM      7  C7  DEN d   1       0.175   4.338  -2.707  0.00  0.00     0.017 A 
ATOM      8  C8  DEN d   1      -0.566   3.793  -3.748  0.00  0.00    -0.094 A 
ATOM      9  C9  DEN d   1      -0.133   2.658  -4.413  0.00  0.00    -0.072 A 
ENDROOT
TORSDOF 0
ENDMDL
