MODEL 1
REMARK minimizedAffinity 19.7133999
REMARK minimizedRMSD -1
REMARK  0 active torsions:
REMARK  status: ('A' for Active; 'I' for Inactive)
ROOT
ATOM      1  C1  DEN d   1       2.210   2.356   0.491  0.00  0.00     0.130 A 
ATOM      2  C2  DEN d   1       2.567   1.663  -0.743  0.00  0.00    -0.031 A 
ATOM      3  C3  DEN d   1       2.304   2.577  -1.873  0.00  0.00     0.027 A 
ATOM      4  C4  DEN d   1       1.388   4.988  -1.829  0.00  0.00     0.027 A 
ATOM      5  C5  DEN d   1       0.929   6.000  -1.015  0.00  0.00    -0.003 A 
ATOM      6  C6  DEN d   1       0.834   5.857   0.344  0.00  0.00     0.001 A 
ATOM      7  C7  DEN d   1       1.246   4.692   0.935  0.00  0.00     0.017 A 
ATOM      8  C8  DEN d   1       1.702   3.664   0.120  0.00  0.00    -0.094 A 
ATOM      9  C9  DEN d   1       1.802   3.832  -1.251  0.00  0.00    -0.072 A 
ENDROOT
TORSDOF 0
ENDMDL
