MODEL 1
REMARK minimizedAffinity 4.95105219
REMARK minimizedRMSD -1
REMARK  0 active torsions:
REMARK  status: ('A' for Active; 'I' for Inactive)
ROOT
ATOM      1  C1  DEN d   1       1.233  -2.456  -2.251  0.00  0.00     0.130 A 
ATOM      2  C2  DEN d   1       1.830  -1.657  -1.184  0.00  0.00    -0.031 A 
ATOM      3  C3  DEN d   1       2.866  -2.477  -0.525  0.00  0.00     0.027 A 
ATOM      4  C4  DEN d   1       3.602  -4.893  -1.051  0.00  0.00     0.027 A 
ATOM      5  C5  DEN d   1       3.377  -5.983  -1.862  0.00  0.00    -0.003 A 
ATOM      6  C6  DEN d   1       2.406  -5.987  -2.828  0.00  0.00     0.001 A 
ATOM      7  C7  DEN d   1       1.654  -4.861  -3.039  0.00  0.00     0.017 A 
ATOM      8  C8  DEN d   1       1.870  -3.760  -2.221  0.00  0.00    -0.094 A 
ATOM      9  C9  DEN d   1       2.865  -3.772  -1.257  0.00  0.00    -0.072 A 
ENDROOT
TORSDOF 0
ENDMDL
