MODEL 1
REMARK minimizedAffinity 5.15641403
REMARK minimizedRMSD -1
REMARK  0 active torsions:
REMARK  status: ('A' for Active; 'I' for Inactive)
ROOT
ATOM      1  C1  DEN d   1      -6.000  -3.530  -5.995  0.00  0.00     0.130 A 
ATOM      2  C2  DEN d   1      -5.843  -2.078  -5.955  0.00  0.00    -0.031 A 
ATOM      3  C3  DEN d   1      -4.398  -1.776  -5.911  0.00  0.00     0.027 A 
ATOM      4  C4  DEN d   1      -2.399  -3.407  -5.906  0.00  0.00     0.027 A 
ATOM      5  C5  DEN d   1      -2.034  -4.735  -5.920  0.00  0.00    -0.003 A 
ATOM      6  C6  DEN d   1      -2.957  -5.746  -5.924  0.00  0.00     0.001 A 
ATOM      7  C7  DEN d   1      -4.293  -5.445  -5.962  0.00  0.00     0.017 A 
ATOM      8  C8  DEN d   1      -4.670  -4.109  -5.941  0.00  0.00    -0.094 A 
ATOM      9  C9  DEN d   1      -3.721  -3.101  -5.949  0.00  0.00    -0.072 A 
ENDROOT
TORSDOF 0
ENDMDL
