MODEL 1
REMARK minimizedAffinity 18.1240215
REMARK minimizedRMSD -1
REMARK  0 active torsions:
REMARK  status: ('A' for Active; 'I' for Inactive)
ROOT
ATOM      1  C1  DEN d   1       3.933   2.951   2.095  0.00  0.00     0.130 A 
ATOM      2  C2  DEN d   1       2.578   2.431   2.256  0.00  0.00    -0.031 A 
ATOM      3  C3  DEN d   1       2.217   1.708   1.020  0.00  0.00     0.027 A 
ATOM      4  C4  DEN d   1       3.620   1.340  -1.113  0.00  0.00     0.027 A 
ATOM      5  C5  DEN d   1       4.827   1.603  -1.722  0.00  0.00    -0.003 A 
ATOM      6  C6  DEN d   1       5.800   2.356  -1.120  0.00  0.00     0.001 A 
ATOM      7  C7  DEN d   1       5.600   2.835   0.148  0.00  0.00     0.017 A 
ATOM      8  C8  DEN d   1       4.382   2.580   0.765  0.00  0.00    -0.094 A 
ATOM      9  C9  DEN d   1       3.416   1.807   0.145  0.00  0.00    -0.072 A 
ENDROOT
TORSDOF 0
ENDMDL
