MODEL 1
REMARK minimizedAffinity 21.2815247
REMARK minimizedRMSD -1
REMARK  0 active torsions:
REMARK  status: ('A' for Active; 'I' for Inactive)
ROOT
ATOM      1  C1  DEN d   1      -3.141   0.161   1.416  0.00  0.00     0.130 A 
ATOM      2  C2  DEN d   1      -2.518   0.744   2.601  0.00  0.00    -0.031 A 
ATOM      3  C3  DEN d   1      -3.194   0.192   3.792  0.00  0.00     0.027 A 
ATOM      4  C4  DEN d   1      -5.132  -1.506   3.916  0.00  0.00     0.027 A 
ATOM      5  C5  DEN d   1      -6.000  -2.275   3.172  0.00  0.00    -0.003 A 
ATOM      6  C6  DEN d   1      -5.999  -2.260   1.803  0.00  0.00     0.001 A 
ATOM      7  C7  DEN d   1      -5.081  -1.494   1.133  0.00  0.00     0.017 A 
ATOM      8  C8  DEN d   1      -4.208  -0.711   1.876  0.00  0.00    -0.094 A 
ATOM      9  C9  DEN d   1      -4.217  -0.749   3.259  0.00  0.00    -0.072 A 
ENDROOT
TORSDOF 0
ENDMDL
