MODEL 1
REMARK minimizedAffinity 6.44896698
REMARK minimizedRMSD -1
REMARK  0 active torsions:
REMARK  status: ('A' for Active; 'I' for Inactive)
ROOT
ATOM      1  C   UNL d   1       0.346  -0.566   3.487  0.00  0.00     0.078 C 
ATOM      2  C1  UNL d   1      -0.501  -0.410   2.260  0.00  0.00    -0.077 A 
ATOM      3  C2  UNL d   1       0.055  -0.525   0.980  0.00  0.00    -0.001 A 
ATOM      4  C3  UNL d   1      -0.744  -0.367  -0.153  0.00  0.00     0.003 A 
ATOM      5  C4  UNL d   1      -2.104  -0.094  -0.019  0.00  0.00    -0.005 A 
ATOM      6  C5  UNL d   1      -2.666   0.024   1.251  0.00  0.00     0.003 A 
ATOM      7  C6  UNL d   1      -1.868  -0.133   2.386  0.00  0.00    -0.001 A 
ENDROOT
TORSDOF 0
ENDMDL
