MODEL 1
REMARK minimizedAffinity 2.21706367
REMARK minimizedRMSD -1
REMARK  0 active torsions:
REMARK  status: ('A' for Active; 'I' for Inactive)
ROOT
ATOM      1  C   UNL d   1      -0.733   0.649   1.062  0.00  0.00     0.078 C 
ATOM      2  C1  UNL d   1      -0.212  -0.661   1.573  0.00  0.00    -0.077 A 
ATOM      3  C2  UNL d   1      -0.640  -1.176   2.803  0.00  0.00    -0.001 A 
ATOM      4  C3  UNL d   1      -0.139  -2.393   3.271  0.00  0.00     0.003 A 
ATOM      5  C4  UNL d   1       0.792  -3.103   2.516  0.00  0.00    -0.005 A 
ATOM      6  C5  UNL d   1       1.225  -2.596   1.292  0.00  0.00     0.003 A 
ATOM      7  C6  UNL d   1       0.726  -1.380   0.822  0.00  0.00    -0.001 A 
ENDROOT
TORSDOF 0
ENDMDL
