MODEL 1
REMARK minimizedAffinity 0.18263489
REMARK minimizedRMSD -1
REMARK  0 active torsions:
REMARK  status: ('A' for Active; 'I' for Inactive)
ROOT
ATOM      1  C   UNL d   1      -3.749  -1.127  -1.834  0.00  0.00     0.078 C 
ATOM      2  C1  UNL d   1      -4.207  -0.362  -3.040  0.00  0.00    -0.077 A 
ATOM      3  C2  UNL d   1      -3.304   0.383  -3.808  0.00  0.00    -0.001 A 
ATOM      4  C3  UNL d   1      -3.746   1.098  -4.922  0.00  0.00     0.003 A 
ATOM      5  C4  UNL d   1      -5.093   1.075  -5.278  0.00  0.00    -0.005 A 
ATOM      6  C5  UNL d   1      -6.000   0.338  -4.519  0.00  0.00     0.003 A 
ATOM      7  C6  UNL d   1      -5.559  -0.377  -3.404  0.00  0.00    -0.001 A 
ENDROOT
TORSDOF 0
ENDMDL
