MODEL 1
REMARK minimizedAffinity -0.822410643
REMARK minimizedRMSD -1
REMARK  0 active torsions:
REMARK  status: ('A' for Active; 'I' for Inactive)
ROOT
ATOM      1  C   UNL d   1      -0.515   0.129   1.055  0.00  0.00     0.078 C 
ATOM      2  C1  UNL d   1      -0.307  -1.200   1.717  0.00  0.00    -0.077 A 
ATOM      3  C2  UNL d   1       0.688  -2.079   1.274  0.00  0.00    -0.001 A 
ATOM      4  C3  UNL d   1       0.864  -3.317   1.894  0.00  0.00     0.003 A 
ATOM      5  C4  UNL d   1       0.047  -3.688   2.960  0.00  0.00    -0.005 A 
ATOM      6  C5  UNL d   1      -0.948  -2.821   3.407  0.00  0.00     0.003 A 
ATOM      7  C6  UNL d   1      -1.125  -1.582   2.788  0.00  0.00    -0.001 A 
ENDROOT
TORSDOF 0
ENDMDL
