MODEL 1
REMARK minimizedAffinity 3.53733444
REMARK minimizedRMSD -1
REMARK  0 active torsions:
REMARK  status: ('A' for Active; 'I' for Inactive)
ROOT
ATOM      1  C   UNL d   1      -1.765   3.029  -2.364  0.00  0.00     0.078 C 
ATOM      2  C1  UNL d   1      -3.152   2.642  -2.780  0.00  0.00    -0.077 A 
ATOM      3  C2  UNL d   1      -4.128   3.615  -3.029  0.00  0.00    -0.001 A 
ATOM      4  C3  UNL d   1      -5.419   3.239  -3.406  0.00  0.00     0.003 A 
ATOM      5  C4  UNL d   1      -5.745   1.891  -3.536  0.00  0.00    -0.005 A 
ATOM      6  C5  UNL d   1      -4.782   0.916  -3.287  0.00  0.00     0.003 A 
ATOM      7  C6  UNL d   1      -3.491   1.289  -2.910  0.00  0.00    -0.001 A 
ENDROOT
TORSDOF 0
ENDMDL
