MODEL 1
REMARK minimizedAffinity -0.751987994
REMARK minimizedRMSD -1
REMARK  0 active torsions:
REMARK  status: ('A' for Active; 'I' for Inactive)
ROOT
ATOM      1  C   UNL d   1       3.826   5.999   1.959  0.00  0.00     0.078 C 
ATOM      2  C1  UNL d   1       2.959   5.992   3.182  0.00  0.00    -0.077 A 
ATOM      3  C2  UNL d   1       1.563   5.996   3.077  0.00  0.00    -0.001 A 
ATOM      4  C3  UNL d   1       0.769   6.000   4.225  0.00  0.00     0.003 A 
ATOM      5  C4  UNL d   1       1.361   6.000   5.486  0.00  0.00    -0.005 A 
ATOM      6  C5  UNL d   1       2.750   5.998   5.601  0.00  0.00     0.003 A 
ATOM      7  C6  UNL d   1       3.546   5.995   4.454  0.00  0.00    -0.001 A 
ENDROOT
TORSDOF 0
ENDMDL
