MODEL 1
REMARK minimizedAffinity -3.99934363
REMARK minimizedRMSD -1
REMARK  0 active torsions:
REMARK  status: ('A' for Active; 'I' for Inactive)
ROOT
ATOM      1  C   UNL d   1       2.080  -3.729   2.215  0.00  0.00     0.078 C 
ATOM      2  C1  UNL d   1       0.780  -3.073   2.575  0.00  0.00    -0.077 A 
ATOM      3  C2  UNL d   1       0.617  -1.686   2.465  0.00  0.00    -0.001 A 
ATOM      4  C3  UNL d   1      -0.595  -1.088   2.813  0.00  0.00     0.003 A 
ATOM      5  C4  UNL d   1      -1.653  -1.869   3.275  0.00  0.00    -0.005 A 
ATOM      6  C5  UNL d   1      -1.499  -3.249   3.390  0.00  0.00     0.003 A 
ATOM      7  C6  UNL d   1      -0.288  -3.849   3.042  0.00  0.00    -0.001 A 
ENDROOT
TORSDOF 0
ENDMDL
