MODEL 1
REMARK minimizedAffinity -4.41601515
REMARK minimizedRMSD -1
REMARK  0 active torsions:
REMARK  status: ('A' for Active; 'I' for Inactive)
ROOT
ATOM      1  C   UNL d   1       0.749  -2.275  -0.722  0.00  0.00     0.078 C 
ATOM      2  C1  UNL d   1       1.394  -0.950  -0.443  0.00  0.00    -0.077 A 
ATOM      3  C2  UNL d   1       0.653   0.237  -0.486  0.00  0.00    -0.001 A 
ATOM      4  C3  UNL d   1       1.268   1.463  -0.234  0.00  0.00     0.003 A 
ATOM      5  C4  UNL d   1       2.629   1.516   0.062  0.00  0.00    -0.005 A 
ATOM      6  C5  UNL d   1       3.376   0.340   0.105  0.00  0.00     0.003 A 
ATOM      7  C6  UNL d   1       2.762  -0.888  -0.147  0.00  0.00    -0.001 A 
ENDROOT
TORSDOF 0
ENDMDL
