MODEL 1
REMARK minimizedAffinity -2.08334589
REMARK minimizedRMSD -1
REMARK  0 active torsions:
REMARK  status: ('A' for Active; 'I' for Inactive)
ROOT
ATOM      1  C   UNL d   1       3.752   0.990  -0.310  0.00  0.00     0.078 C 
ATOM      2  C1  UNL d   1       2.571   0.066  -0.275  0.00  0.00    -0.077 A 
ATOM      3  C2  UNL d   1       2.705  -1.288  -0.605  0.00  0.00    -0.001 A 
ATOM      4  C3  UNL d   1       1.595  -2.134  -0.577  0.00  0.00     0.003 A 
ATOM      5  C4  UNL d   1       0.343  -1.634  -0.222  0.00  0.00    -0.005 A 
ATOM      6  C5  UNL d   1       0.200  -0.288   0.106  0.00  0.00     0.003 A 
ATOM      7  C6  UNL d   1       1.309   0.560   0.079  0.00  0.00    -0.001 A 
ENDROOT
TORSDOF 0
ENDMDL
