MODEL 1
REMARK minimizedAffinity -3.01393485
REMARK minimizedRMSD -1
REMARK  0 active torsions:
REMARK  status: ('A' for Active; 'I' for Inactive)
ROOT
ATOM      1  C   UNL d   1       2.156  -1.476  -0.138  0.00  0.00     0.078 C 
ATOM      2  C1  UNL d   1       1.074  -0.444  -0.250  0.00  0.00    -0.077 A 
ATOM      3  C2  UNL d   1      -0.179  -0.767  -0.782  0.00  0.00    -0.001 A 
ATOM      4  C3  UNL d   1      -1.174   0.206  -0.889  0.00  0.00     0.003 A 
ATOM      5  C4  UNL d   1      -0.924   1.511  -0.467  0.00  0.00    -0.005 A 
ATOM      6  C5  UNL d   1       0.321   1.843   0.063  0.00  0.00     0.003 A 
ATOM      7  C6  UNL d   1       1.317   0.870   0.171  0.00  0.00    -0.001 A 
ENDROOT
TORSDOF 0
ENDMDL
