MODEL 1
REMARK minimizedAffinity 1.56408262
REMARK minimizedRMSD -1
REMARK  0 active torsions:
REMARK  status: ('A' for Active; 'I' for Inactive)
ROOT
ATOM      1  C   UNL d   1      -0.653   0.184  -0.855  0.00  0.00     0.078 C 
ATOM      2  C1  UNL d   1      -1.895   0.312  -0.024  0.00  0.00    -0.077 A 
ATOM      3  C2  UNL d   1      -1.872   0.051   1.351  0.00  0.00    -0.001 A 
ATOM      4  C3  UNL d   1      -3.038   0.164   2.111  0.00  0.00     0.003 A 
ATOM      5  C4  UNL d   1      -4.235   0.538   1.503  0.00  0.00    -0.005 A 
ATOM      6  C5  UNL d   1      -4.268   0.798   0.135  0.00  0.00     0.003 A 
ATOM      7  C6  UNL d   1      -3.103   0.684  -0.626  0.00  0.00    -0.001 A 
ENDROOT
TORSDOF 0
ENDMDL
