MODEL 1
REMARK minimizedAffinity -1.01452661
REMARK minimizedRMSD -1
REMARK  1 active torsions:
REMARK  status: ('A' for Active; 'I' for Inactive)
REMARK    1  A    between atoms: C1_2  and  C2_3 
ROOT
ATOM      1  C2  UNL d   1      -0.453   0.120   0.870  0.00  0.00    -0.076 A 
ATOM      2  C3  UNL d   1      -1.430   0.885   1.530  0.00  0.00     0.004 A 
ATOM      3  C4  UNL d   1      -1.176   1.450   2.779  0.00  0.00    -0.003 A 
ATOM      4  C5  UNL d   1       0.060   1.258   3.388  0.00  0.00     0.000 A 
ATOM      5  C6  UNL d   1       1.047   0.517   2.739  0.00  0.00     0.000 A 
ATOM      6  C7  UNL d   1       0.812  -0.046   1.472  0.00  0.00    -0.073 A 
ATOM      7  C8  UNL d   1       1.910  -0.841   0.822  0.00  0.00     0.078 C 
ENDROOT
BRANCH   1   8
ATOM      8  C1  UNL d   1      -0.795  -0.490  -0.471  0.00  0.00     0.053 C 
ATOM      9  C   UNL d   1      -2.294  -0.544  -0.721  0.00  0.00     0.018 C 
ENDBRANCH   1   8
TORSDOF 1
ENDMDL
