MODEL 1
REMARK minimizedAffinity 0.549273551
REMARK minimizedRMSD -1
REMARK  1 active torsions:
REMARK  status: ('A' for Active; 'I' for Inactive)
REMARK    1  A    between atoms: C1_2  and  C2_3 
ROOT
ATOM      1  C2  UNL d   1      -1.397  -0.067   1.238  0.00  0.00    -0.076 A 
ATOM      2  C3  UNL d   1      -2.703   0.011   0.726  0.00  0.00     0.004 A 
ATOM      3  C4  UNL d   1      -2.984  -0.371  -0.584  0.00  0.00    -0.003 A 
ATOM      4  C5  UNL d   1      -1.963  -0.839  -1.404  0.00  0.00     0.000 A 
ATOM      5  C6  UNL d   1      -0.664  -0.940  -0.907  0.00  0.00     0.000 A 
ATOM      6  C7  UNL d   1      -0.367  -0.574   0.417  0.00  0.00    -0.073 A 
ATOM      7  C8  UNL d   1       1.053  -0.698   0.899  0.00  0.00     0.078 C 
ENDROOT
BRANCH   1   8
ATOM      8  C1  UNL d   1      -1.147   0.387   2.659  0.00  0.00     0.053 C 
ATOM      9  C   UNL d   1      -0.500  -0.693   3.511  0.00  0.00     0.018 C 
ENDBRANCH   1   8
TORSDOF 1
ENDMDL
