MODEL 1
REMARK minimizedAffinity 3.64321589
REMARK minimizedRMSD -1
REMARK  1 active torsions:
REMARK  status: ('A' for Active; 'I' for Inactive)
REMARK    1  A    between atoms: C1_2  and  C2_3 
ROOT
ATOM      1  C2  UNL d   1      -0.184  -0.520   2.925  0.00  0.00    -0.076 A 
ATOM      2  C3  UNL d   1      -1.479  -0.346   3.443  0.00  0.00     0.004 A 
ATOM      3  C4  UNL d   1      -2.491   0.219   2.669  0.00  0.00    -0.003 A 
ATOM      4  C5  UNL d   1      -2.225   0.618   1.364  0.00  0.00     0.000 A 
ATOM      5  C6  UNL d   1      -0.950   0.436   0.828  0.00  0.00     0.000 A 
ATOM      6  C7  UNL d   1       0.077  -0.146   1.589  0.00  0.00    -0.073 A 
ATOM      7  C8  UNL d   1       1.434  -0.313   0.963  0.00  0.00     0.078 C 
ENDROOT
BRANCH   1   8
ATOM      8  C1  UNL d   1       0.881  -1.114   3.820  0.00  0.00     0.053 C 
ATOM      9  C   UNL d   1       0.433  -1.213   5.270  0.00  0.00     0.018 C 
ENDBRANCH   1   8
TORSDOF 1
ENDMDL
