MODEL 1
REMARK minimizedAffinity 1.05048347
REMARK minimizedRMSD -1
REMARK  1 active torsions:
REMARK  status: ('A' for Active; 'I' for Inactive)
REMARK    1  A    between atoms: C1_2  and  C2_3 
ROOT
ATOM      1  C2  UNL d   1       1.356  -1.671   4.041  0.00  0.00    -0.076 A 
ATOM      2  C3  UNL d   1       0.440  -2.153   4.992  0.00  0.00     0.004 A 
ATOM      3  C4  UNL d   1      -0.934  -2.047   4.781  0.00  0.00    -0.003 A 
ATOM      4  C5  UNL d   1      -1.414  -1.459   3.616  0.00  0.00     0.000 A 
ATOM      5  C6  UNL d   1      -0.519  -0.992   2.654  0.00  0.00     0.000 A 
ATOM      6  C7  UNL d   1       0.869  -1.105   2.843  0.00  0.00    -0.073 A 
ATOM      7  C8  UNL d   1       1.789  -0.579   1.775  0.00  0.00     0.078 C 
ENDROOT
BRANCH   1   8
ATOM      8  C1  UNL d   1       2.835  -1.789   4.336  0.00  0.00     0.053 C 
ATOM      9  C   UNL d   1       3.119  -1.991   5.816  0.00  0.00     0.018 C 
ENDBRANCH   1   8
TORSDOF 1
ENDMDL
