MODEL 1
REMARK minimizedAffinity -3.92302418
REMARK minimizedRMSD -1
REMARK  1 active torsions:
REMARK  status: ('A' for Active; 'I' for Inactive)
REMARK    1  A    between atoms: C1_2  and  C2_3 
ROOT
ATOM      1  C2  UNL d   1      -0.297  -0.325   0.186  0.00  0.00    -0.076 A 
ATOM      2  C3  UNL d   1       1.046  -0.559   0.530  0.00  0.00     0.004 A 
ATOM      3  C4  UNL d   1       1.784  -1.559  -0.102  0.00  0.00    -0.003 A 
ATOM      4  C5  UNL d   1       1.192  -2.340  -1.088  0.00  0.00     0.000 A 
ATOM      5  C6  UNL d   1      -0.134  -2.110  -1.454  0.00  0.00     0.000 A 
ATOM      6  C7  UNL d   1      -0.888  -1.095  -0.838  0.00  0.00    -0.073 A 
ATOM      7  C8  UNL d   1      -2.315  -0.895  -1.267  0.00  0.00     0.078 C 
ENDROOT
BRANCH   1   8
ATOM      8  C1  UNL d   1      -1.056   0.754   0.925  0.00  0.00     0.053 C 
ATOM      9  C   UNL d   1      -1.708   0.241   2.199  0.00  0.00     0.018 C 
ENDBRANCH   1   8
TORSDOF 1
ENDMDL
