MODEL 1
REMARK minimizedAffinity -1.4352634
REMARK minimizedRMSD -1
REMARK  3 active torsions:
REMARK  status: ('A' for Active; 'I' for Inactive)
REMARK    1  A    between atoms: C3'_2  and  C2'_3 
REMARK    2  A    between atoms: C2'_3  and  C1'_4 
REMARK    3  A    between atoms: C1'_4  and  C1_5 
ROOT
ATOM      1  C1  N4B d   1      -4.112   2.305  -3.177  0.00  0.00    -0.075 A 
ATOM      2  C2  N4B d   1      -3.665   3.490  -3.801  0.00  0.00     0.002 A 
ATOM      3  C3  N4B d   1      -4.365   4.660  -3.635  0.00  0.00     0.002 A 
ATOM      4  C4  N4B d   1      -5.520   4.665  -2.869  0.00  0.00    -0.004 A 
ATOM      5  C5  N4B d   1      -5.932   3.522  -2.249  0.00  0.00     0.002 A 
ATOM      6  C6  N4B d   1      -5.236   2.340  -2.403  0.00  0.00     0.002 A 
ENDROOT
BRANCH   1   7
ATOM      7  C1' N4B d   1      -3.428   0.984  -3.398  0.00  0.00     0.057 C 
BRANCH   7   8
ATOM      8  C2' N4B d   1      -2.195   1.198  -4.271  0.00  0.00     0.009 C 
BRANCH   8   9
ATOM      9  C3' N4B d   1      -0.907   1.055  -3.480  0.00  0.00     0.004 C 
ATOM     10  C4' N4B d   1      -0.124  -0.166  -3.860  0.00  0.00     0.003 C 
ENDBRANCH   8   9
ENDBRANCH   7   8
ENDBRANCH   1   7
TORSDOF 3
ENDMDL
