MODEL 1
REMARK minimizedAffinity -3.03487444
REMARK minimizedRMSD -1
REMARK  0 active torsions:
REMARK  status: ('A' for Active; 'I' for Inactive)
ROOT
ATOM      1  C1  BNZ d   1      -2.809   1.484  -4.492  0.00  0.00     0.000 A 
ATOM      2  C2  BNZ d   1      -2.535   2.817  -4.645  0.00  0.00     0.000 A 
ATOM      3  C3  BNZ d   1      -2.334   3.620  -3.557  0.00  0.00     0.000 A 
ATOM      4  C4  BNZ d   1      -2.447   3.098  -2.318  0.00  0.00     0.000 A 
ATOM      5  C5  BNZ d   1      -2.732   1.758  -2.147  0.00  0.00     0.000 A 
ATOM      6  C6  BNZ d   1      -2.895   0.945  -3.245  0.00  0.00     0.000 A 
ENDROOT
TORSDOF 0
ENDMDL
