MODEL 1
REMARK minimizedAffinity -0.454026788
REMARK minimizedRMSD -1
REMARK  0 active torsions:
REMARK  status: ('A' for Active; 'I' for Inactive)
ROOT
ATOM      1  C1  BNZ d   1       0.039  -2.199   2.619  0.00  0.00     0.000 A 
ATOM      2  C2  BNZ d   1      -0.464  -1.205   1.823  0.00  0.00     0.000 A 
ATOM      3  C3  BNZ d   1       0.050  -0.977   0.578  0.00  0.00     0.000 A 
ATOM      4  C4  BNZ d   1       1.092  -1.716   0.145  0.00  0.00     0.000 A 
ATOM      5  C5  BNZ d   1       1.616  -2.716   0.938  0.00  0.00     0.000 A 
ATOM      6  C6  BNZ d   1       1.071  -2.969   2.176  0.00  0.00     0.000 A 
ENDROOT
TORSDOF 0
ENDMDL
