MODEL 1
REMARK minimizedAffinity 0.716762245
REMARK minimizedRMSD -1
REMARK  0 active torsions:
REMARK  status: ('A' for Active; 'I' for Inactive)
ROOT
ATOM      1  C1  BNZ d   1       1.544   5.951   3.063  0.00  0.00     0.000 A 
ATOM      2  C2  BNZ d   1       0.800   5.941   4.213  0.00  0.00     0.000 A 
ATOM      3  C3  BNZ d   1       1.405   5.986   5.438  0.00  0.00     0.000 A 
ATOM      4  C4  BNZ d   1       2.752   5.999   5.513  0.00  0.00     0.000 A 
ATOM      5  C5  BNZ d   1       3.515   6.000   4.362  0.00  0.00     0.000 A 
ATOM      6  C6  BNZ d   1       2.902   5.994   3.131  0.00  0.00     0.000 A 
ENDROOT
TORSDOF 0
ENDMDL
