MODEL 1
REMARK minimizedAffinity -2.52812624
REMARK minimizedRMSD -1
REMARK  0 active torsions:
REMARK  status: ('A' for Active; 'I' for Inactive)
ROOT
ATOM      1  C1  BNZ d   1       2.248   5.949   3.458  0.00  0.00     0.000 A 
ATOM      2  C2  BNZ d   1       0.889   5.928   3.626  0.00  0.00     0.000 A 
ATOM      3  C3  BNZ d   1       0.337   5.966   4.875  0.00  0.00     0.000 A 
ATOM      4  C4  BNZ d   1       1.144   5.985   5.956  0.00  0.00     0.000 A 
ATOM      5  C5  BNZ d   1       2.516   5.997   5.804  0.00  0.00     0.000 A 
ATOM      6  C6  BNZ d   1       3.068   5.998   4.543  0.00  0.00     0.000 A 
ENDROOT
TORSDOF 0
ENDMDL
