MODEL 1
REMARK minimizedAffinity -3.13612318
REMARK minimizedRMSD -1
REMARK  0 active torsions:
REMARK  status: ('A' for Active; 'I' for Inactive)
ROOT
ATOM      1  C1  BNZ d   1       0.301  -1.088   0.045  0.00  0.00     0.000 A 
ATOM      2  C2  BNZ d   1       1.095  -2.204   0.038  0.00  0.00     0.000 A 
ATOM      3  C3  BNZ d   1       1.202  -2.993   1.150  0.00  0.00     0.000 A 
ATOM      4  C4  BNZ d   1       0.548  -2.643   2.276  0.00  0.00     0.000 A 
ATOM      5  C5  BNZ d   1      -0.249  -1.516   2.301  0.00  0.00     0.000 A 
ATOM      6  C6  BNZ d   1      -0.385  -0.746   1.169  0.00  0.00     0.000 A 
ENDROOT
TORSDOF 0
ENDMDL
