MODEL 1
REMARK minimizedAffinity -4.09795809
REMARK minimizedRMSD -1
REMARK  0 active torsions:
REMARK  status: ('A' for Active; 'I' for Inactive)
ROOT
ATOM      1  C1  BNZ d   1      -1.569  -0.305   0.788  0.00  0.00     0.000 A 
ATOM      2  C2  BNZ d   1      -2.300  -0.579   1.914  0.00  0.00     0.000 A 
ATOM      3  C3  BNZ d   1      -1.761  -1.309   2.937  0.00  0.00     0.000 A 
ATOM      4  C4  BNZ d   1      -0.510  -1.797   2.816  0.00  0.00     0.000 A 
ATOM      5  C5  BNZ d   1       0.236  -1.536   1.684  0.00  0.00     0.000 A 
ATOM      6  C6  BNZ d   1      -0.295  -0.769   0.673  0.00  0.00     0.000 A 
ENDROOT
TORSDOF 0
ENDMDL
