MODEL 1
REMARK minimizedAffinity -1.92288661
REMARK minimizedRMSD -1
REMARK  0 active torsions:
REMARK  status: ('A' for Active; 'I' for Inactive)
ROOT
ATOM      1  C1  BNZ d   1      -0.883  -0.669   2.085  0.00  0.00     0.000 A 
ATOM      2  C2  BNZ d   1      -1.571   0.016   1.119  0.00  0.00     0.000 A 
ATOM      3  C3  BNZ d   1      -2.769   0.611   1.402  0.00  0.00     0.000 A 
ATOM      4  C4  BNZ d   1      -3.295   0.487   2.638  0.00  0.00     0.000 A 
ATOM      5  C5  BNZ d   1      -2.618  -0.209   3.620  0.00  0.00     0.000 A 
ATOM      6  C6  BNZ d   1      -1.394  -0.773   3.342  0.00  0.00     0.000 A 
ENDROOT
TORSDOF 0
ENDMDL
