MODEL 1
REMARK minimizedAffinity -2.65319085
REMARK minimizedRMSD -1
REMARK  0 active torsions:
REMARK  status: ('A' for Active; 'I' for Inactive)
ROOT
ATOM      1  C1  BNZ d   1      -0.747  -0.243   0.304  0.00  0.00     0.000 A 
ATOM      2  C2  BNZ d   1      -1.316  -0.242   1.549  0.00  0.00     0.000 A 
ATOM      3  C3  BNZ d   1      -0.842  -1.061   2.536  0.00  0.00     0.000 A 
ATOM      4  C4  BNZ d   1       0.173  -1.907   2.265  0.00  0.00     0.000 A 
ATOM      5  C5  BNZ d   1       0.751  -1.926   1.011  0.00  0.00     0.000 A 
ATOM      6  C6  BNZ d   1       0.297  -1.073   0.032  0.00  0.00     0.000 A 
ENDROOT
TORSDOF 0
ENDMDL
