MODEL 1
REMARK minimizedAffinity -1.84768176
REMARK minimizedRMSD -1
REMARK  0 active torsions:
REMARK  status: ('A' for Active; 'I' for Inactive)
ROOT
ATOM      1  C1  BNZ d   1       0.162  -1.574   1.382  0.00  0.00     0.000 A 
ATOM      2  C2  BNZ d   1       0.785  -1.601   0.162  0.00  0.00     0.000 A 
ATOM      3  C3  BNZ d   1       0.289  -0.886  -0.892  0.00  0.00     0.000 A 
ATOM      4  C4  BNZ d   1      -0.850  -0.180  -0.738  0.00  0.00     0.000 A 
ATOM      5  C5  BNZ d   1      -1.494  -0.151   0.482  0.00  0.00     0.000 A 
ATOM      6  C6  BNZ d   1      -0.971  -0.840   1.552  0.00  0.00     0.000 A 
ENDROOT
TORSDOF 0
ENDMDL
