MODEL 1
REMARK minimizedAffinity -2.66576052
REMARK minimizedRMSD -1
REMARK  0 active torsions:
REMARK  status: ('A' for Active; 'I' for Inactive)
ROOT
ATOM      1  C1  BNZ d   1       2.513   0.340  -0.511  0.00  0.00     0.000 A 
ATOM      2  C2  BNZ d   1       1.224   0.190  -0.071  0.00  0.00     0.000 A 
ATOM      3  C3  BNZ d   1       0.350  -0.626  -0.732  0.00  0.00     0.000 A 
ATOM      4  C4  BNZ d   1       0.752  -1.261  -1.852  0.00  0.00     0.000 A 
ATOM      5  C5  BNZ d   1       2.044  -1.113  -2.313  0.00  0.00     0.000 A 
ATOM      6  C6  BNZ d   1       2.934  -0.321  -1.624  0.00  0.00     0.000 A 
ENDROOT
TORSDOF 0
ENDMDL
