MODEL 1
REMARK minimizedAffinity 0.471272379
REMARK minimizedRMSD -1
REMARK  0 active torsions:
REMARK  status: ('A' for Active; 'I' for Inactive)
ROOT
ATOM      1  C1  BNZ d   1      -2.242  -0.272   1.743  0.00  0.00     0.000 A 
ATOM      2  C2  BNZ d   1      -2.318  -0.015   0.401  0.00  0.00     0.000 A 
ATOM      3  C3  BNZ d   1      -1.201  -0.058  -0.385  0.00  0.00     0.000 A 
ATOM      4  C4  BNZ d   1      -0.004  -0.319   0.179  0.00  0.00     0.000 A 
ATOM      5  C5  BNZ d   1       0.091  -0.572   1.533  0.00  0.00     0.000 A 
ATOM      6  C6  BNZ d   1      -1.041  -0.565   2.314  0.00  0.00     0.000 A 
ENDROOT
TORSDOF 0
ENDMDL
