MODEL 1
REMARK minimizedAffinity 2.887043
REMARK minimizedRMSD -1
REMARK  0 active torsions:
REMARK  status: ('A' for Active; 'I' for Inactive)
ROOT
ATOM      1  C1  BNZ d   1       1.334   5.999   3.224  0.00  0.00     0.000 A 
ATOM      2  C2  BNZ d   1       0.184   5.971   3.967  0.00  0.00     0.000 A 
ATOM      3  C3  BNZ d   1       0.234   5.950   5.332  0.00  0.00     0.000 A 
ATOM      4  C4  BNZ d   1       1.431   5.917   5.952  0.00  0.00     0.000 A 
ATOM      5  C5  BNZ d   1       2.600   5.935   5.217  0.00  0.00     0.000 A 
ATOM      6  C6  BNZ d   1       2.546   5.996   3.843  0.00  0.00     0.000 A 
ENDROOT
TORSDOF 0
ENDMDL
