MODEL 1
REMARK minimizedAffinity 1.12414527
REMARK minimizedRMSD -1
REMARK  2 active torsions:
REMARK  status: ('A' for Active; 'I' for Inactive)
REMARK    1  A    between atoms: C1_2  and  C2_3 
REMARK    2  A    between atoms: C2_3  and  C3_4 
ROOT
ATOM      1  C3  UNL d   1       3.769  -0.827   3.906  0.00  0.00    -0.075 A 
ATOM      2  C4  UNL d   1       3.392  -1.265   5.184  0.00  0.00     0.002 A 
ATOM      3  C5  UNL d   1       4.303  -1.937   5.999  0.00  0.00     0.002 A 
ATOM      4  C6  UNL d   1       5.596  -2.188   5.545  0.00  0.00    -0.004 A 
ATOM      5  C7  UNL d   1       5.976  -1.772   4.270  0.00  0.00     0.002 A 
ATOM      6  C8  UNL d   1       5.067  -1.095   3.454  0.00  0.00     0.002 A 
ENDROOT
BRANCH   1   7
ATOM      7  C2  UNL d   1       2.796  -0.073   3.030  0.00  0.00     0.056 C 
BRANCH   7   8
ATOM      8  C1  UNL d   1       3.399   1.158   2.345  0.00  0.00     0.007 C 
ATOM      9  C   UNL d   1       3.834   0.894   0.910  0.00  0.00     0.009 C 
ENDBRANCH   7   8
ENDBRANCH   1   7
TORSDOF 2
ENDMDL
