MODEL 1
REMARK minimizedAffinity 1.57979178
REMARK minimizedRMSD -1
REMARK  2 active torsions:
REMARK  status: ('A' for Active; 'I' for Inactive)
REMARK    1  A    between atoms: C1_2  and  C2_3 
REMARK    2  A    between atoms: C2_3  and  C3_4 
ROOT
ATOM      1  C3  UNL d   1       2.616  -0.895   2.302  0.00  0.00    -0.075 A 
ATOM      2  C4  UNL d   1       1.846  -0.711   3.460  0.00  0.00     0.002 A 
ATOM      3  C5  UNL d   1       1.673  -1.756   4.368  0.00  0.00     0.002 A 
ATOM      4  C6  UNL d   1       2.256  -2.997   4.126  0.00  0.00    -0.004 A 
ATOM      5  C7  UNL d   1       3.009  -3.196   2.971  0.00  0.00     0.002 A 
ATOM      6  C8  UNL d   1       3.188  -2.152   2.062  0.00  0.00     0.002 A 
ENDROOT
BRANCH   1   7
ATOM      7  C2  UNL d   1       2.832   0.240   1.330  0.00  0.00     0.056 C 
BRANCH   7   8
ATOM      8  C1  UNL d   1       2.578   1.629   1.926  0.00  0.00     0.007 C 
ATOM      9  C   UNL d   1       2.205   2.671   0.880  0.00  0.00     0.009 C 
ENDBRANCH   7   8
ENDBRANCH   1   7
TORSDOF 2
ENDMDL
