MODEL 1
REMARK minimizedAffinity 8.49033356
REMARK minimizedRMSD -1
REMARK  2 active torsions:
REMARK  status: ('A' for Active; 'I' for Inactive)
REMARK    1  A    between atoms: C1_2  and  C2_3 
REMARK    2  A    between atoms: C2_3  and  C3_4 
ROOT
ATOM      1  C3  UNL d   1       2.463  -0.227   3.336  0.00  0.00    -0.075 A 
ATOM      2  C4  UNL d   1       2.833   0.096   2.023  0.00  0.00     0.002 A 
ATOM      3  C5  UNL d   1       3.064   1.422   1.657  0.00  0.00     0.002 A 
ATOM      4  C6  UNL d   1       2.918   2.442   2.596  0.00  0.00    -0.004 A 
ATOM      5  C7  UNL d   1       2.534   2.134   3.899  0.00  0.00     0.002 A 
ATOM      6  C8  UNL d   1       2.307   0.807   4.269  0.00  0.00     0.002 A 
ENDROOT
BRANCH   1   7
ATOM      7  C2  UNL d   1       2.241  -1.664   3.745  0.00  0.00     0.056 C 
BRANCH   7   8
ATOM      8  C1  UNL d   1       3.533  -2.458   3.962  0.00  0.00     0.007 C 
ATOM      9  C   UNL d   1       3.296  -3.948   4.162  0.00  0.00     0.009 C 
ENDBRANCH   7   8
ENDBRANCH   1   7
TORSDOF 2
ENDMDL
