MODEL 1
REMARK minimizedAffinity 4.83575869
REMARK minimizedRMSD -1
REMARK  2 active torsions:
REMARK  status: ('A' for Active; 'I' for Inactive)
REMARK    1  A    between atoms: C1_2  and  C2_3 
REMARK    2  A    between atoms: C2_3  and  C3_4 
ROOT
ATOM      1  C3  UNL d   1       2.566  -1.319   2.585  0.00  0.00    -0.075 A 
ATOM      2  C4  UNL d   1       2.324  -1.120   3.952  0.00  0.00     0.002 A 
ATOM      3  C5  UNL d   1       2.072  -2.205   4.793  0.00  0.00     0.002 A 
ATOM      4  C6  UNL d   1       2.049  -3.499   4.277  0.00  0.00    -0.004 A 
ATOM      5  C7  UNL d   1       2.271  -3.707   2.917  0.00  0.00     0.002 A 
ATOM      6  C8  UNL d   1       2.527  -2.624   2.075  0.00  0.00     0.002 A 
ENDROOT
BRANCH   1   7
ATOM      7  C2  UNL d   1       2.868  -0.152   1.676  0.00  0.00     0.056 C 
BRANCH   7   8
ATOM      8  C1  UNL d   1       2.355   1.194   2.197  0.00  0.00     0.007 C 
ATOM      9  C   UNL d   1       2.909   2.386   1.429  0.00  0.00     0.009 C 
ENDBRANCH   7   8
ENDBRANCH   1   7
TORSDOF 2
ENDMDL
