MODEL 1
REMARK minimizedAffinity 8.59563828
REMARK minimizedRMSD -1
REMARK  2 active torsions:
REMARK  status: ('A' for Active; 'I' for Inactive)
REMARK    1  A    between atoms: C1_2  and  C2_3 
REMARK    2  A    between atoms: C2_3  and  C3_4 
ROOT
ATOM      1  C3  UNL d   1       1.558  -1.221   1.449  0.00  0.00    -0.075 A 
ATOM      2  C4  UNL d   1       0.365  -0.539   1.729  0.00  0.00     0.002 A 
ATOM      3  C5  UNL d   1      -0.696  -0.566   0.823  0.00  0.00     0.002 A 
ATOM      4  C6  UNL d   1      -0.575  -1.265  -0.376  0.00  0.00    -0.004 A 
ATOM      5  C7  UNL d   1       0.612  -1.932  -0.672  0.00  0.00     0.002 A 
ATOM      6  C8  UNL d   1       1.673  -1.910   0.234  0.00  0.00     0.002 A 
ENDROOT
BRANCH   1   7
ATOM      7  C2  UNL d   1       2.698  -1.220   2.438  0.00  0.00     0.056 C 
BRANCH   7   8
ATOM      8  C1  UNL d   1       2.263  -1.427   3.892  0.00  0.00     0.007 C 
ATOM      9  C   UNL d   1       1.878  -2.867   4.204  0.00  0.00     0.009 C 
ENDBRANCH   7   8
ENDBRANCH   1   7
TORSDOF 2
ENDMDL
