MODEL 1
REMARK minimizedAffinity 4.7047205
REMARK minimizedRMSD -1
REMARK  2 active torsions:
REMARK  status: ('A' for Active; 'I' for Inactive)
REMARK    1  A    between atoms: C1_2  and  C2_3 
REMARK    2  A    between atoms: C2_3  and  C3_4 
ROOT
ATOM      1  C3  UNL d   1       2.079  -1.426   2.642  0.00  0.00    -0.075 A 
ATOM      2  C4  UNL d   1       3.383  -1.215   3.112  0.00  0.00     0.002 A 
ATOM      3  C5  UNL d   1       3.986  -2.140   3.965  0.00  0.00     0.002 A 
ATOM      4  C6  UNL d   1       3.291  -3.278   4.367  0.00  0.00    -0.004 A 
ATOM      5  C7  UNL d   1       1.988  -3.489   3.920  0.00  0.00     0.002 A 
ATOM      6  C8  UNL d   1       1.384  -2.568   3.062  0.00  0.00     0.002 A 
ENDROOT
BRANCH   1   7
ATOM      7  C2  UNL d   1       1.431  -0.444   1.694  0.00  0.00     0.056 C 
BRANCH   7   8
ATOM      8  C1  UNL d   1       0.491  -1.092   0.672  0.00  0.00     0.007 C 
ATOM      9  C   UNL d   1      -0.878  -0.427   0.611  0.00  0.00     0.009 C 
ENDBRANCH   7   8
ENDBRANCH   1   7
TORSDOF 2
ENDMDL
