MODEL 1
REMARK minimizedAffinity 6.43181992
REMARK minimizedRMSD -1
REMARK  2 active torsions:
REMARK  status: ('A' for Active; 'I' for Inactive)
REMARK    1  A    between atoms: C1_2  and  C2_3 
REMARK    2  A    between atoms: C2_3  and  C3_4 
ROOT
ATOM      1  C3  UNL d   1       2.376  -1.847   3.763  0.00  0.00    -0.075 A 
ATOM      2  C4  UNL d   1       3.611  -2.477   3.555  0.00  0.00     0.002 A 
ATOM      3  C5  UNL d   1       3.824  -3.782   3.998  0.00  0.00     0.002 A 
ATOM      4  C6  UNL d   1       2.811  -4.470   4.663  0.00  0.00    -0.004 A 
ATOM      5  C7  UNL d   1       1.586  -3.848   4.891  0.00  0.00     0.002 A 
ATOM      6  C8  UNL d   1       1.368  -2.543   4.444  0.00  0.00     0.002 A 
ENDROOT
BRANCH   1   7
ATOM      7  C2  UNL d   1       2.129  -0.445   3.260  0.00  0.00     0.056 C 
BRANCH   7   8
ATOM      8  C1  UNL d   1       3.011  -0.043   2.074  0.00  0.00     0.007 C 
ATOM      9  C   UNL d   1       3.043   1.460   1.830  0.00  0.00     0.009 C 
ENDBRANCH   7   8
ENDBRANCH   1   7
TORSDOF 2
ENDMDL
