MODEL 1
REMARK minimizedAffinity -0.915476084
REMARK minimizedRMSD -1
REMARK  2 active torsions:
REMARK  status: ('A' for Active; 'I' for Inactive)
REMARK    1  A    between atoms: C1_2  and  C2_3 
REMARK    2  A    between atoms: C2_3  and  C3_4 
ROOT
ATOM      1  C3  UNL d   1       2.664  -1.345   3.275  0.00  0.00    -0.075 A 
ATOM      2  C4  UNL d   1       1.882  -2.170   4.096  0.00  0.00     0.002 A 
ATOM      3  C5  UNL d   1       2.479  -3.149   4.891  0.00  0.00     0.002 A 
ATOM      4  C6  UNL d   1       3.861  -3.323   4.866  0.00  0.00    -0.004 A 
ATOM      5  C7  UNL d   1       4.646  -2.521   4.041  0.00  0.00     0.002 A 
ATOM      6  C8  UNL d   1       4.052  -1.537   3.249  0.00  0.00     0.002 A 
ENDROOT
BRANCH   1   7
ATOM      7  C2  UNL d   1       2.027  -0.264   2.435  0.00  0.00     0.056 C 
BRANCH   7   8
ATOM      8  C1  UNL d   1       2.989   0.858   2.028  0.00  0.00     0.007 C 
ATOM      9  C   UNL d   1       2.543   1.608   0.780  0.00  0.00     0.009 C 
ENDBRANCH   7   8
ENDBRANCH   1   7
TORSDOF 2
ENDMDL
