MODEL 1
REMARK minimizedAffinity 7.9489851
REMARK minimizedRMSD -1
REMARK  2 active torsions:
REMARK  status: ('A' for Active; 'I' for Inactive)
REMARK    1  A    between atoms: C1_2  and  C2_3 
REMARK    2  A    between atoms: C2_3  and  C3_4 
ROOT
ATOM      1  C3  UNL d   1       2.352  -0.030   2.723  0.00  0.00    -0.075 A 
ATOM      2  C4  UNL d   1       2.862   0.228   1.442  0.00  0.00     0.002 A 
ATOM      3  C5  UNL d   1       3.327   1.499   1.107  0.00  0.00     0.002 A 
ATOM      4  C6  UNL d   1       3.280   2.530   2.043  0.00  0.00    -0.004 A 
ATOM      5  C7  UNL d   1       2.761   2.290   3.313  0.00  0.00     0.002 A 
ATOM      6  C8  UNL d   1       2.298   1.018   3.653  0.00  0.00     0.002 A 
ENDROOT
BRANCH   1   7
ATOM      7  C2  UNL d   1       1.874  -1.411   3.102  0.00  0.00     0.056 C 
BRANCH   7   8
ATOM      8  C1  UNL d   1       2.337  -1.874   4.487  0.00  0.00     0.007 C 
ATOM      9  C   UNL d   1       1.977  -3.323   4.787  0.00  0.00     0.009 C 
ENDBRANCH   7   8
ENDBRANCH   1   7
TORSDOF 2
ENDMDL
