MODEL 1
REMARK minimizedAffinity 4.64415312
REMARK minimizedRMSD -1
REMARK  2 active torsions:
REMARK  status: ('A' for Active; 'I' for Inactive)
REMARK    1  A    between atoms: C1_2  and  C2_3 
REMARK    2  A    between atoms: C2_3  and  C3_4 
ROOT
ATOM      1  C3  UNL d   1       1.447  -1.307   0.754  0.00  0.00    -0.075 A 
ATOM      2  C4  UNL d   1       1.677  -2.235  -0.273  0.00  0.00     0.002 A 
ATOM      3  C5  UNL d   1       0.780  -2.353  -1.335  0.00  0.00     0.002 A 
ATOM      4  C6  UNL d   1      -0.360  -1.554  -1.380  0.00  0.00    -0.004 A 
ATOM      5  C7  UNL d   1      -0.606  -0.640  -0.358  0.00  0.00     0.002 A 
ATOM      6  C8  UNL d   1       0.291  -0.517   0.704  0.00  0.00     0.002 A 
ENDROOT
BRANCH   1   7
ATOM      7  C2  UNL d   1       2.429  -1.155   1.891  0.00  0.00     0.056 C 
BRANCH   7   8
ATOM      8  C1  UNL d   1       2.545  -2.394   2.785  0.00  0.00     0.007 C 
ATOM      9  C   UNL d   1       1.781  -2.262   4.096  0.00  0.00     0.009 C 
ENDBRANCH   7   8
ENDBRANCH   1   7
TORSDOF 2
ENDMDL
