MODEL 1
REMARK minimizedAffinity 12.7816238
REMARK minimizedRMSD -1
REMARK  2 active torsions:
REMARK  status: ('A' for Active; 'I' for Inactive)
REMARK    1  A    between atoms: C1_2  and  C2_3 
REMARK    2  A    between atoms: C2_3  and  C3_4 
ROOT
ATOM      1  C3  UNL d   1      -3.358   3.314   1.378  0.00  0.00    -0.075 A 
ATOM      2  C4  UNL d   1      -4.424   3.793   0.603  0.00  0.00     0.002 A 
ATOM      3  C5  UNL d   1      -5.736   3.698   1.068  0.00  0.00     0.002 A 
ATOM      4  C6  UNL d   1      -6.000   3.115   2.306  0.00  0.00    -0.004 A 
ATOM      5  C7  UNL d   1      -4.950   2.621   3.077  0.00  0.00     0.002 A 
ATOM      6  C8  UNL d   1      -3.635   2.719   2.616  0.00  0.00     0.002 A 
ENDROOT
BRANCH   1   7
ATOM      7  C2  UNL d   1      -1.933   3.441   0.894  0.00  0.00     0.056 C 
BRANCH   7   8
ATOM      8  C1  UNL d   1      -1.740   4.487  -0.209  0.00  0.00     0.007 C 
ATOM      9  C   UNL d   1      -0.339   5.085  -0.230  0.00  0.00     0.009 C 
ENDBRANCH   7   8
ENDBRANCH   1   7
TORSDOF 2
ENDMDL
