MODEL 1
REMARK minimizedAffinity -2.36089206
REMARK minimizedRMSD -1
REMARK  1 active torsions:
REMARK  status: ('A' for Active; 'I' for Inactive)
REMARK    1  A    between atoms: N_2  and  C1_3 
ROOT
ATOM      1  C1  UNL d   1       2.504   3.844   3.933  0.00  0.00     0.143 A 
ATOM      2  C2  UNL d   1       1.260   4.413   3.640  0.00  0.00    -0.057 A 
ATOM      3  C3  UNL d   1       0.755   5.480   4.392  0.00  0.00     0.033 A 
ATOM      4  C4  UNL d   1       1.474   5.979   5.473  0.00  0.00    -0.042 A 
ATOM      5  C5  UNL d   1       2.702   5.413   5.798  0.00  0.00     0.033 A 
ATOM      6  C6  UNL d   1       3.204   4.352   5.038  0.00  0.00    -0.057 A 
ENDROOT
BRANCH   1   7
ATOM      7  N   UNL d   1       3.017   2.718   3.284  0.00  0.00    -0.732 N 
ATOM      8  C   UNL d   1       3.725   2.849   2.028  0.00  0.00     0.284 C 
ATOM      9  H3  UNL d   1       3.437   2.054   3.930  0.00  0.00     0.395 HD
ENDBRANCH   1   7
TORSDOF 1
ENDMDL
