MODEL 1
REMARK minimizedAffinity -0.956960559
REMARK minimizedRMSD -1
REMARK  1 active torsions:
REMARK  status: ('A' for Active; 'I' for Inactive)
REMARK    1  A    between atoms: N_2  and  C1_3 
ROOT
ATOM      1  C1  UNL d   1       2.532   4.297   3.727  0.00  0.00     0.143 A 
ATOM      2  C2  UNL d   1       1.190   4.469   3.372  0.00  0.00    -0.057 A 
ATOM      3  C3  UNL d   1       0.350   5.322   4.097  0.00  0.00     0.033 A 
ATOM      4  C4  UNL d   1       0.833   6.000   5.213  0.00  0.00    -0.042 A 
ATOM      5  C5  UNL d   1       2.157   5.825   5.599  0.00  0.00     0.033 A 
ATOM      6  C6  UNL d   1       2.992   4.976   4.866  0.00  0.00    -0.057 A 
ENDROOT
BRANCH   1   7
ATOM      7  N   UNL d   1       3.391   3.387   3.105  0.00  0.00    -0.732 N 
ATOM      8  C   UNL d   1       3.156   2.966   1.741  0.00  0.00     0.284 C 
ATOM      9  H3  UNL d   1       4.369   3.565   3.323  0.00  0.00     0.395 HD
ENDBRANCH   1   7
TORSDOF 1
ENDMDL
