MODEL 1
REMARK minimizedAffinity -0.639571548
REMARK minimizedRMSD -1
REMARK  1 active torsions:
REMARK  status: ('A' for Active; 'I' for Inactive)
REMARK    1  A    between atoms: N_2  and  C1_3 
ROOT
ATOM      1  C1  UNL d   1       2.688   5.762   4.701  0.00  0.00     0.143 A 
ATOM      2  C2  UNL d   1       1.860   5.993   5.805  0.00  0.00    -0.057 A 
ATOM      3  C3  UNL d   1       0.468   5.885   5.704  0.00  0.00     0.033 A 
ATOM      4  C4  UNL d   1      -0.125   5.572   4.485  0.00  0.00    -0.042 A 
ATOM      5  C5  UNL d   1       0.677   5.363   3.369  0.00  0.00     0.033 A 
ATOM      6  C6  UNL d   1       2.067   5.466   3.478  0.00  0.00    -0.057 A 
ENDROOT
BRANCH   1   7
ATOM      7  N   UNL d   1       4.072   5.950   4.714  0.00  0.00    -0.732 N 
ATOM      8  C   UNL d   1       4.798   5.999   5.965  0.00  0.00     0.284 C 
ATOM      9  H3  UNL d   1       4.542   5.425   3.981  0.00  0.00     0.395 HD
ENDBRANCH   1   7
TORSDOF 1
ENDMDL
