MODEL 1
REMARK minimizedAffinity 1.94683051
REMARK minimizedRMSD -1
REMARK  1 active torsions:
REMARK  status: ('A' for Active; 'I' for Inactive)
REMARK    1  A    between atoms: N_2  and  C1_3 
ROOT
ATOM      1  C1  UNL d   1       2.655   4.312   4.045  0.00  0.00     0.143 A 
ATOM      2  C2  UNL d   1       1.274   4.535   4.034  0.00  0.00    -0.057 A 
ATOM      3  C3  UNL d   1       0.668   5.381   4.969  0.00  0.00     0.033 A 
ATOM      4  C4  UNL d   1       1.431   6.000   5.954  0.00  0.00    -0.042 A 
ATOM      5  C5  UNL d   1       2.802   5.773   6.000  0.00  0.00     0.033 A 
ATOM      6  C6  UNL d   1       3.403   4.932   5.059  0.00  0.00    -0.057 A 
ENDROOT
BRANCH   1   7
ATOM      7  N   UNL d   1       3.304   3.405   3.203  0.00  0.00    -0.732 N 
ATOM      8  C   UNL d   1       3.010   3.373   1.787  0.00  0.00     0.284 C 
ATOM      9  H3  UNL d   1       4.292   3.307   3.425  0.00  0.00     0.395 HD
ENDBRANCH   1   7
TORSDOF 1
ENDMDL
