MODEL 1
REMARK minimizedAffinity 9.87650299
REMARK minimizedRMSD -1
REMARK  0 active torsions:
REMARK  status: ('A' for Active; 'I' for Inactive)
ROOT
ATOM      1  C2' OXE d   1      -5.661   3.440   2.196  0.00  0.00     0.078 C 
ATOM      2  C1' OXE d   1      -3.856   5.590   2.143  0.00  0.00     0.078 C 
ATOM      3  C1  OXE d   1      -4.500   5.244   3.462  0.00  0.00    -0.078 A 
ATOM      4  C2  OXE d   1      -5.417   4.221   3.469  0.00  0.00    -0.078 A 
ATOM      5  C3  OXE d   1      -6.000   3.825   4.670  0.00  0.00     0.003 A 
ATOM      6  C4  OXE d   1      -5.777   4.559   5.841  0.00  0.00    -0.002 A 
ATOM      7  C5  OXE d   1      -4.877   5.630   5.848  0.00  0.00    -0.002 A 
ATOM      8  C6  OXE d   1      -4.199   5.958   4.679  0.00  0.00     0.003 A 
ENDROOT
TORSDOF 0
ENDMDL
