MODEL 1
REMARK minimizedAffinity 1.50192988
REMARK minimizedRMSD -1
REMARK  0 active torsions:
REMARK  status: ('A' for Active; 'I' for Inactive)
ROOT
ATOM      1  C2' OXE d   1       0.757  -5.956   6.000  0.00  0.00     0.078 C 
ATOM      2  C1' OXE d   1      -1.837  -4.911   5.762  0.00  0.00     0.078 C 
ATOM      3  C1  OXE d   1      -0.683  -4.026   5.363  0.00  0.00    -0.078 A 
ATOM      4  C2  OXE d   1       0.586  -4.529   5.527  0.00  0.00    -0.078 A 
ATOM      5  C3  OXE d   1       1.684  -3.775   5.123  0.00  0.00     0.003 A 
ATOM      6  C4  OXE d   1       1.517  -2.452   4.696  0.00  0.00    -0.002 A 
ATOM      7  C5  OXE d   1       0.236  -1.906   4.559  0.00  0.00    -0.002 A 
ATOM      8  C6  OXE d   1      -0.874  -2.693   4.847  0.00  0.00     0.003 A 
ENDROOT
TORSDOF 0
ENDMDL
