MODEL 1
REMARK minimizedAffinity 7.45386076
REMARK minimizedRMSD -1
REMARK  0 active torsions:
REMARK  status: ('A' for Active; 'I' for Inactive)
ROOT
ATOM      1  C2' OXE d   1       2.650  -0.650  -0.887  0.00  0.00     0.078 C 
ATOM      2  C1' OXE d   1       2.759  -2.488   1.231  0.00  0.00     0.078 C 
ATOM      3  C1  OXE d   1       1.796  -2.769   0.105  0.00  0.00    -0.078 A 
ATOM      4  C2  OXE d   1       1.715  -1.841  -0.904  0.00  0.00    -0.078 A 
ATOM      5  C3  OXE d   1       0.883  -2.078  -1.994  0.00  0.00     0.003 A 
ATOM      6  C4  OXE d   1       0.015  -3.176  -1.998  0.00  0.00    -0.002 A 
ATOM      7  C5  OXE d   1       0.052  -4.114  -0.960  0.00  0.00    -0.002 A 
ATOM      8  C6  OXE d   1       0.965  -3.948   0.076  0.00  0.00     0.003 A 
ENDROOT
TORSDOF 0
ENDMDL
