MODEL 1
REMARK minimizedAffinity 1.99912918
REMARK minimizedRMSD -1
REMARK  0 active torsions:
REMARK  status: ('A' for Active; 'I' for Inactive)
ROOT
ATOM      1  C2' OXE d   1      -5.907   4.029   1.906  0.00  0.00     0.078 C 
ATOM      2  C1' OXE d   1      -3.683   5.741   1.833  0.00  0.00     0.078 C 
ATOM      3  C1  OXE d   1      -4.304   5.452   3.177  0.00  0.00    -0.078 A 
ATOM      4  C2  OXE d   1      -5.420   4.650   3.198  0.00  0.00    -0.078 A 
ATOM      5  C3  OXE d   1      -6.000   4.307   4.416  0.00  0.00     0.003 A 
ATOM      6  C4  OXE d   1      -5.549   4.894   5.605  0.00  0.00    -0.002 A 
ATOM      7  C5  OXE d   1      -4.438   5.744   5.601  0.00  0.00    -0.002 A 
ATOM      8  C6  OXE d   1      -3.780   5.999   4.403  0.00  0.00     0.003 A 
ENDROOT
TORSDOF 0
ENDMDL
