MODEL 1
REMARK minimizedAffinity -1.93338203
REMARK minimizedRMSD -1
REMARK  0 active torsions:
REMARK  status: ('A' for Active; 'I' for Inactive)
ROOT
ATOM      1  C2' OXE d   1      -4.376   5.933   0.767  0.00  0.00     0.078 C 
ATOM      2  C1' OXE d   1      -2.092   5.968   2.398  0.00  0.00     0.078 C 
ATOM      3  C1  OXE d   1      -3.440   5.959   3.075  0.00  0.00    -0.078 A 
ATOM      4  C2  OXE d   1      -4.552   5.989   2.269  0.00  0.00    -0.078 A 
ATOM      5  C3  OXE d   1      -5.820   5.927   2.841  0.00  0.00     0.003 A 
ATOM      6  C4  OXE d   1      -5.974   5.989   4.231  0.00  0.00    -0.002 A 
ATOM      7  C5  OXE d   1      -4.855   5.999   5.070  0.00  0.00    -0.002 A 
ATOM      8  C6  OXE d   1      -3.583   5.941   4.510  0.00  0.00     0.003 A 
ENDROOT
TORSDOF 0
ENDMDL
