MODEL 1
REMARK minimizedAffinity 10.9074078
REMARK minimizedRMSD -1
REMARK  0 active torsions:
REMARK  status: ('A' for Active; 'I' for Inactive)
ROOT
ATOM      1  C2' OXE d   1       2.230   0.766  -0.457  0.00  0.00     0.078 C 
ATOM      2  C1' OXE d   1       2.298   2.712   1.566  0.00  0.00     0.078 C 
ATOM      3  C1  OXE d   1       3.591   2.384   0.862  0.00  0.00    -0.078 A 
ATOM      4  C2  OXE d   1       3.557   1.397  -0.094  0.00  0.00    -0.078 A 
ATOM      5  C3  OXE d   1       4.710   1.093  -0.812  0.00  0.00     0.003 A 
ATOM      6  C4  OXE d   1       5.936   1.674  -0.464  0.00  0.00    -0.002 A 
ATOM      7  C5  OXE d   1       6.000   2.653   0.534  0.00  0.00    -0.002 A 
ATOM      8  C6  OXE d   1       4.831   3.048   1.176  0.00  0.00     0.003 A 
ENDROOT
TORSDOF 0
ENDMDL
