MODEL 1
REMARK minimizedAffinity -2.07381821
REMARK minimizedRMSD -1
REMARK  0 active torsions:
REMARK  status: ('A' for Active; 'I' for Inactive)
ROOT
ATOM      1  C2' OXE d   1      -5.993   5.647   5.921  0.00  0.00     0.078 C 
ATOM      2  C1' OXE d   1      -3.201   5.926   5.995  0.00  0.00     0.078 C 
ATOM      3  C1  OXE d   1      -3.867   5.877   4.643  0.00  0.00    -0.078 A 
ATOM      4  C2  OXE d   1      -5.229   5.693   4.615  0.00  0.00    -0.078 A 
ATOM      5  C3  OXE d   1      -5.900   5.696   3.396  0.00  0.00     0.003 A 
ATOM      6  C4  OXE d   1      -5.185   5.730   2.193  0.00  0.00    -0.002 A 
ATOM      7  C5  OXE d   1      -3.794   5.877   2.198  0.00  0.00    -0.002 A 
ATOM      8  C6  OXE d   1      -3.126   5.995   3.411  0.00  0.00     0.003 A 
ENDROOT
TORSDOF 0
ENDMDL
