MODEL 1
REMARK minimizedAffinity -2.63726759
REMARK minimizedRMSD -1
REMARK  0 active torsions:
REMARK  status: ('A' for Active; 'I' for Inactive)
ROOT
ATOM      1  C2' OXE d   1      -3.220   5.986   5.892  0.00  0.00     0.078 C 
ATOM      2  C1' OXE d   1      -5.907   5.171   5.880  0.00  0.00     0.078 C 
ATOM      3  C1  OXE d   1      -5.225   5.366   4.549  0.00  0.00    -0.078 A 
ATOM      4  C2  OXE d   1      -3.924   5.810   4.564  0.00  0.00    -0.078 A 
ATOM      5  C3  OXE d   1      -3.231   5.954   3.365  0.00  0.00     0.003 A 
ATOM      6  C4  OXE d   1      -3.893   5.799   2.141  0.00  0.00    -0.002 A 
ATOM      7  C5  OXE d   1      -5.229   5.385   2.103  0.00  0.00    -0.002 A 
ATOM      8  C6  OXE d   1      -5.895   5.124   3.296  0.00  0.00     0.003 A 
ENDROOT
TORSDOF 0
ENDMDL
