MODEL 1
REMARK minimizedAffinity 6.17830229
REMARK minimizedRMSD -1
REMARK  0 active torsions:
REMARK  status: ('A' for Active; 'I' for Inactive)
ROOT
ATOM      1  C2' OXE d   1      -5.977   5.929   4.221  0.00  0.00     0.078 C 
ATOM      2  C1' OXE d   1      -6.000   3.122   4.258  0.00  0.00     0.078 C 
ATOM      3  C1  OXE d   1      -5.479   3.805   3.018  0.00  0.00    -0.078 A 
ATOM      4  C2  OXE d   1      -5.515   5.178   2.991  0.00  0.00    -0.078 A 
ATOM      5  C3  OXE d   1      -4.997   5.859   1.893  0.00  0.00     0.003 A 
ATOM      6  C4  OXE d   1      -4.581   5.157   0.755  0.00  0.00    -0.002 A 
ATOM      7  C5  OXE d   1      -4.574   3.759   0.747  0.00  0.00    -0.002 A 
ATOM      8  C6  OXE d   1      -4.979   3.068   1.884  0.00  0.00     0.003 A 
ENDROOT
TORSDOF 0
ENDMDL
