MODEL 1
REMARK minimizedAffinity -1.98229146
REMARK minimizedRMSD -1
REMARK  0 active torsions:
REMARK  status: ('A' for Active; 'I' for Inactive)
ROOT
ATOM      1  C2' OXE d   1      -4.659   5.420   1.170  0.00  0.00     0.078 C 
ATOM      2  C1' OXE d   1      -2.298   5.979   2.581  0.00  0.00     0.078 C 
ATOM      3  C1  OXE d   1      -3.577   5.861   3.371  0.00  0.00    -0.078 A 
ATOM      4  C2  OXE d   1      -4.735   5.633   2.667  0.00  0.00    -0.078 A 
ATOM      5  C3  OXE d   1      -5.935   5.461   3.351  0.00  0.00     0.003 A 
ATOM      6  C4  OXE d   1      -5.999   5.670   4.734  0.00  0.00    -0.002 A 
ATOM      7  C5  OXE d   1      -4.838   5.942   5.465  0.00  0.00    -0.002 A 
ATOM      8  C6  OXE d   1      -3.615   5.998   4.806  0.00  0.00     0.003 A 
ENDROOT
TORSDOF 0
ENDMDL
