MODEL 1
REMARK minimizedAffinity 0.633697748
REMARK minimizedRMSD -1
REMARK  0 active torsions:
REMARK  status: ('A' for Active; 'I' for Inactive)
ROOT
ATOM      1  C2' OXE d   1      -2.104   5.997   4.134  0.00  0.00     0.078 C 
ATOM      2  C1' OXE d   1      -4.414   5.995   5.730  0.00  0.00     0.078 C 
ATOM      3  C1  OXE d   1      -4.593   5.951   4.233  0.00  0.00    -0.078 A 
ATOM      4  C2  OXE d   1      -3.459   6.000   3.459  0.00  0.00    -0.078 A 
ATOM      5  C3  OXE d   1      -3.565   5.907   2.074  0.00  0.00     0.003 A 
ATOM      6  C4  OXE d   1      -4.822   5.920   1.457  0.00  0.00    -0.002 A 
ATOM      7  C5  OXE d   1      -5.990   5.910   2.226  0.00  0.00    -0.002 A 
ATOM      8  C6  OXE d   1      -5.893   5.883   3.613  0.00  0.00     0.003 A 
ENDROOT
TORSDOF 0
ENDMDL
