MODEL 1
REMARK minimizedAffinity 10.0310793
REMARK minimizedRMSD -1
REMARK  1 active torsions:
REMARK  status: ('A' for Active; 'I' for Inactive)
REMARK    1  A    between atoms: C1_2  and  C2_3 
ROOT
ATOM      1  C2  UNL d   1       1.776   0.009   2.121  0.00  0.00    -0.081 A 
ATOM      2  C3  UNL d   1       1.442   0.402   3.423  0.00  0.00     0.006 A 
ATOM      3  C4  UNL d   1       0.960  -0.533   4.343  0.00  0.00     0.002 A 
ATOM      4  C5  UNL d   1       0.812  -1.876   3.978  0.00  0.00    -0.080 A 
ATOM      5  C6  UNL d   1       0.324  -2.895   4.965  0.00  0.00     0.076 C 
ATOM      6  C7  UNL d   1       1.129  -2.264   2.672  0.00  0.00     0.002 A 
ATOM      7  C8  UNL d   1       1.610  -1.330   1.753  0.00  0.00     0.006 A 
ENDROOT
BRANCH   1   8
ATOM      8  C1  UNL d   1       2.357   1.002   1.147  0.00  0.00     0.054 C 
ATOM      9  C   UNL d   1       2.562   2.362   1.799  0.00  0.00     0.018 C 
ENDBRANCH   1   8
TORSDOF 1
ENDMDL
