MODEL 1
REMARK minimizedAffinity 16.5738945
REMARK minimizedRMSD -1
REMARK  1 active torsions:
REMARK  status: ('A' for Active; 'I' for Inactive)
REMARK    1  A    between atoms: C1_2  and  C2_3 
ROOT
ATOM      1  C2  UNL d   1      -3.173   1.231  -1.389  0.00  0.00    -0.081 A 
ATOM      2  C3  UNL d   1      -4.303   1.412  -2.197  0.00  0.00     0.006 A 
ATOM      3  C4  UNL d   1      -4.605   0.495  -3.207  0.00  0.00     0.002 A 
ATOM      4  C5  UNL d   1      -3.788  -0.620  -3.421  0.00  0.00    -0.080 A 
ATOM      5  C6  UNL d   1      -4.117  -1.627  -4.482  0.00  0.00     0.076 C 
ATOM      6  C7  UNL d   1      -2.649  -0.791  -2.626  0.00  0.00     0.002 A 
ATOM      7  C8  UNL d   1      -2.347   0.125  -1.616  0.00  0.00     0.006 A 
ENDROOT
BRANCH   1   8
ATOM      8  C1  UNL d   1      -2.881   2.183  -0.257  0.00  0.00     0.054 C 
ATOM      9  C   UNL d   1      -1.902   1.575   0.738  0.00  0.00     0.018 C 
ENDBRANCH   1   8
TORSDOF 1
ENDMDL
