MODEL 1
REMARK minimizedAffinity 11.9994497
REMARK minimizedRMSD -1
REMARK  1 active torsions:
REMARK  status: ('A' for Active; 'I' for Inactive)
REMARK    1  A    between atoms: C1_2  and  C2_3 
ROOT
ATOM      1  C2  UNL d   1      -2.608   2.304   0.258  0.00  0.00    -0.081 A 
ATOM      2  C3  UNL d   1      -3.080   2.735  -0.988  0.00  0.00     0.006 A 
ATOM      3  C4  UNL d   1      -3.354   1.811  -1.999  0.00  0.00     0.002 A 
ATOM      4  C5  UNL d   1      -3.169   0.442  -1.780  0.00  0.00    -0.080 A 
ATOM      5  C6  UNL d   1      -3.488  -0.562  -2.847  0.00  0.00     0.076 C 
ATOM      6  C7  UNL d   1      -2.681   0.013  -0.541  0.00  0.00     0.002 A 
ATOM      7  C8  UNL d   1      -2.406   0.936   0.471  0.00  0.00     0.006 A 
ENDROOT
BRANCH   1   8
ATOM      8  C1  UNL d   1      -2.373   3.292   1.372  0.00  0.00     0.054 C 
ATOM      9  C   UNL d   1      -0.889   3.439   1.677  0.00  0.00     0.018 C 
ENDBRANCH   1   8
TORSDOF 1
ENDMDL
