MODEL 1
REMARK minimizedAffinity 14.1343279
REMARK minimizedRMSD -1
REMARK  1 active torsions:
REMARK  status: ('A' for Active; 'I' for Inactive)
REMARK    1  A    between atoms: C1_2  and  C2_3 
ROOT
ATOM      1  C2  UNL d   1      -4.876  -3.650  -4.940  0.00  0.00    -0.081 A 
ATOM      2  C3  UNL d   1      -3.749  -2.847  -4.723  0.00  0.00     0.006 A 
ATOM      3  C4  UNL d   1      -3.746  -1.894  -3.701  0.00  0.00     0.002 A 
ATOM      4  C5  UNL d   1      -4.864  -1.735  -2.875  0.00  0.00    -0.080 A 
ATOM      5  C6  UNL d   1      -4.861  -0.737  -1.756  0.00  0.00     0.076 C 
ATOM      6  C7  UNL d   1      -5.995  -2.525  -3.104  0.00  0.00     0.002 A 
ATOM      7  C8  UNL d   1      -6.000  -3.477  -4.126  0.00  0.00     0.006 A 
ENDROOT
BRANCH   1   8
ATOM      8  C1  UNL d   1      -4.859  -4.722  -6.000  0.00  0.00     0.054 C 
ATOM      9  C   UNL d   1      -4.192  -5.992  -5.491  0.00  0.00     0.018 C 
ENDBRANCH   1   8
TORSDOF 1
ENDMDL
