MODEL 1
REMARK minimizedAffinity 0.0509298295
REMARK minimizedRMSD -1
REMARK  1 active torsions:
REMARK  status: ('A' for Active; 'I' for Inactive)
REMARK    1  A    between atoms: C1_2  and  C2_3 
ROOT
ATOM      1  C2  UNL d   1       2.473  -1.710   1.950  0.00  0.00    -0.081 A 
ATOM      2  C3  UNL d   1       3.740  -1.495   2.506  0.00  0.00     0.006 A 
ATOM      3  C4  UNL d   1       4.882  -2.001   1.882  0.00  0.00     0.002 A 
ATOM      4  C5  UNL d   1       4.778  -2.723   0.687  0.00  0.00    -0.080 A 
ATOM      5  C6  UNL d   1       5.999  -3.245  -0.009  0.00  0.00     0.076 C 
ATOM      6  C7  UNL d   1       3.511  -2.952   0.141  0.00  0.00     0.002 A 
ATOM      7  C8  UNL d   1       2.368  -2.447   0.765  0.00  0.00     0.006 A 
ENDROOT
BRANCH   1   8
ATOM      8  C1  UNL d   1       1.245  -1.110   2.586  0.00  0.00     0.054 C 
ATOM      9  C   UNL d   1       1.500  -0.740   4.040  0.00  0.00     0.018 C 
ENDBRANCH   1   8
TORSDOF 1
ENDMDL
