MODEL 1
REMARK minimizedAffinity -5.97390079
REMARK minimizedRMSD -1
REMARK  1 active torsions:
REMARK  status: ('A' for Active; 'I' for Inactive)
REMARK    1  A    between atoms: C1_2  and  C2_3 
ROOT
ATOM      1  C2  UNL d   1       0.586  -1.464   0.768  0.00  0.00    -0.077 A 
ATOM      2  C3  UNL d   1       1.703  -0.887   0.148  0.00  0.00     0.002 A 
ATOM      3  C4  UNL d   1       1.571   0.288  -0.594  0.00  0.00     0.002 A 
ATOM      4  C5  UNL d   1       0.325   0.898  -0.720  0.00  0.00    -0.004 A 
ATOM      5  C6  UNL d   1      -0.793   0.332  -0.109  0.00  0.00     0.002 A 
ATOM      6  C7  UNL d   1      -0.663  -0.844   0.632  0.00  0.00     0.002 A 
ENDROOT
BRANCH   1   7
ATOM      7  C1  UNL d   1       0.734  -2.704   1.610  0.00  0.00     0.055 C 
ATOM      8  C   UNL d   1      -0.117  -2.624   2.869  0.00  0.00     0.019 C 
ENDBRANCH   1   7
TORSDOF 1
ENDMDL
