MODEL 1
REMARK minimizedAffinity -4.78604841
REMARK minimizedRMSD -1
REMARK  1 active torsions:
REMARK  status: ('A' for Active; 'I' for Inactive)
REMARK    1  A    between atoms: C1_2  and  C2_3 
ROOT
ATOM      1  C2  UNL d   1      -0.063   0.361  -0.975  0.00  0.00    -0.077 A 
ATOM      2  C3  UNL d   1      -0.079  -0.213  -2.254  0.00  0.00     0.002 A 
ATOM      3  C4  UNL d   1      -0.902   0.311  -3.252  0.00  0.00     0.002 A 
ATOM      4  C5  UNL d   1      -1.711   1.413  -2.984  0.00  0.00    -0.004 A 
ATOM      5  C6  UNL d   1      -1.703   1.990  -1.715  0.00  0.00     0.002 A 
ATOM      6  C7  UNL d   1      -0.882   1.467  -0.715  0.00  0.00     0.002 A 
ENDROOT
BRANCH   1   7
ATOM      7  C1  UNL d   1       0.861  -0.172   0.089  0.00  0.00     0.055 C 
ATOM      8  C   UNL d   1       0.195  -1.275   0.898  0.00  0.00     0.019 C 
ENDBRANCH   1   7
TORSDOF 1
ENDMDL
