MODEL 1
REMARK minimizedAffinity -6.21708155
REMARK minimizedRMSD -1
REMARK  1 active torsions:
REMARK  status: ('A' for Active; 'I' for Inactive)
REMARK    1  A    between atoms: C1_2  and  C2_3 
ROOT
ATOM      1  C2  UNL d   1       0.100  -0.948   0.574  0.00  0.00    -0.077 A 
ATOM      2  C3  UNL d   1      -0.357  -1.138   1.885  0.00  0.00     0.002 A 
ATOM      3  C4  UNL d   1      -0.128  -2.347   2.544  0.00  0.00     0.002 A 
ATOM      4  C5  UNL d   1       0.562  -3.373   1.902  0.00  0.00    -0.004 A 
ATOM      5  C6  UNL d   1       1.018  -3.194   0.597  0.00  0.00     0.002 A 
ATOM      6  C7  UNL d   1       0.789  -1.987  -0.064  0.00  0.00     0.002 A 
ENDROOT
BRANCH   1   7
ATOM      7  C1  UNL d   1      -0.103   0.374  -0.121  0.00  0.00     0.055 C 
ATOM      8  C   UNL d   1      -1.060   1.266   0.655  0.00  0.00     0.019 C 
ENDBRANCH   1   7
TORSDOF 1
ENDMDL
