MODEL 1
REMARK minimizedAffinity -5.30510664
REMARK minimizedRMSD -1
REMARK  1 active torsions:
REMARK  status: ('A' for Active; 'I' for Inactive)
REMARK    1  A    between atoms: C1_2  and  C2_3 
ROOT
ATOM      1  C2  UNL d   1       0.286  -0.834   0.662  0.00  0.00    -0.077 A 
ATOM      2  C3  UNL d   1       0.744  -2.151   0.517  0.00  0.00     0.002 A 
ATOM      3  C4  UNL d   1       0.422  -3.119   1.469  0.00  0.00     0.002 A 
ATOM      4  C5  UNL d   1      -0.362  -2.782   2.571  0.00  0.00    -0.004 A 
ATOM      5  C6  UNL d   1      -0.820  -1.475   2.725  0.00  0.00     0.002 A 
ATOM      6  C7  UNL d   1      -0.498  -0.505   1.774  0.00  0.00     0.002 A 
ENDROOT
BRANCH   1   7
ATOM      7  C1  UNL d   1       0.591   0.201  -0.390  0.00  0.00     0.055 C 
ATOM      8  C   UNL d   1      -0.684   0.745  -1.018  0.00  0.00     0.019 C 
ENDBRANCH   1   7
TORSDOF 1
ENDMDL
