MODEL 1
REMARK minimizedAffinity -4.85638666
REMARK minimizedRMSD -1
REMARK  1 active torsions:
REMARK  status: ('A' for Active; 'I' for Inactive)
REMARK    1  A    between atoms: C1_2  and  C2_3 
ROOT
ATOM      1  C2  UNL d   1       0.080   0.268   0.083  0.00  0.00    -0.077 A 
ATOM      2  C3  UNL d   1      -0.371  -0.741   0.944  0.00  0.00     0.002 A 
ATOM      3  C4  UNL d   1       0.499  -1.746   1.372  0.00  0.00     0.002 A 
ATOM      4  C5  UNL d   1       1.826  -1.747   0.948  0.00  0.00    -0.004 A 
ATOM      5  C6  UNL d   1       2.284  -0.748   0.090  0.00  0.00     0.002 A 
ATOM      6  C7  UNL d   1       1.415   0.255  -0.340  0.00  0.00     0.002 A 
ENDROOT
BRANCH   1   7
ATOM      7  C1  UNL d   1      -0.844   1.380  -0.341  0.00  0.00     0.055 C 
ATOM      8  C   UNL d   1      -1.244   1.241  -1.803  0.00  0.00     0.019 C 
ENDBRANCH   1   7
TORSDOF 1
ENDMDL
