MODEL 1
REMARK minimizedAffinity -2.36410236
REMARK minimizedRMSD -1
REMARK  1 active torsions:
REMARK  status: ('A' for Active; 'I' for Inactive)
REMARK    1  A    between atoms: C1_2  and  C2_3 
ROOT
ATOM      1  C2  UNL d   1      -1.076   0.386  -1.165  0.00  0.00    -0.077 A 
ATOM      2  C3  UNL d   1      -0.946  -0.865  -0.546  0.00  0.00     0.002 A 
ATOM      3  C4  UNL d   1       0.200  -1.174   0.189  0.00  0.00     0.002 A 
ATOM      4  C5  UNL d   1       1.223  -0.236   0.315  0.00  0.00    -0.004 A 
ATOM      5  C6  UNL d   1       1.104   1.010  -0.299  0.00  0.00     0.002 A 
ATOM      6  C7  UNL d   1      -0.040   1.320  -1.035  0.00  0.00     0.002 A 
ENDROOT
BRANCH   1   7
ATOM      7  C1  UNL d   1      -2.332   0.739  -1.917  0.00  0.00     0.055 C 
ATOM      8  C   UNL d   1      -2.029   1.626  -3.116  0.00  0.00     0.019 C 
ENDBRANCH   1   7
TORSDOF 1
ENDMDL
