MODEL 1
REMARK minimizedAffinity -4.85970974
REMARK minimizedRMSD -1
REMARK  1 active torsions:
REMARK  status: ('A' for Active; 'I' for Inactive)
REMARK    1  A    between atoms: C1_2  and  C2_3 
ROOT
ATOM      1  C2  UNL d   1      -0.012   0.412  -0.456  0.00  0.00    -0.077 A 
ATOM      2  C3  UNL d   1      -0.507  -0.716   0.214  0.00  0.00     0.002 A 
ATOM      3  C4  UNL d   1       0.341  -1.778   0.530  0.00  0.00     0.002 A 
ATOM      4  C5  UNL d   1       1.690  -1.722   0.184  0.00  0.00    -0.004 A 
ATOM      5  C6  UNL d   1       2.191  -0.605  -0.484  0.00  0.00     0.002 A 
ATOM      6  C7  UNL d   1       1.344   0.457  -0.802  0.00  0.00     0.002 A 
ENDROOT
BRANCH   1   7
ATOM      7  C1  UNL d   1      -0.916   1.580  -0.754  0.00  0.00     0.055 C 
ATOM      8  C   UNL d   1      -2.142   1.145  -1.542  0.00  0.00     0.019 C 
ENDBRANCH   1   7
TORSDOF 1
ENDMDL
