MODEL 1
REMARK minimizedAffinity -0.501024067
REMARK minimizedRMSD -1
REMARK  1 active torsions:
REMARK  status: ('A' for Active; 'I' for Inactive)
REMARK    1  A    between atoms: C1_2  and  C2_3 
ROOT
ATOM      1  C2  UNL d   1      -0.787   1.192  -0.468  0.00  0.00    -0.077 A 
ATOM      2  C3  UNL d   1       0.325   0.399  -0.783  0.00  0.00     0.002 A 
ATOM      3  C4  UNL d   1       0.655  -0.701   0.011  0.00  0.00     0.002 A 
ATOM      4  C5  UNL d   1      -0.124  -1.021   1.121  0.00  0.00    -0.004 A 
ATOM      5  C6  UNL d   1      -1.231  -0.237   1.443  0.00  0.00     0.002 A 
ATOM      6  C7  UNL d   1      -1.562   0.864   0.652  0.00  0.00     0.002 A 
ENDROOT
BRANCH   1   7
ATOM      7  C1  UNL d   1      -1.174   2.350  -1.351  0.00  0.00     0.055 C 
ATOM      8  C   UNL d   1      -2.116   1.909  -2.461  0.00  0.00     0.019 C 
ENDBRANCH   1   7
TORSDOF 1
ENDMDL
