MODEL 1
REMARK minimizedAffinity -2.93554235
REMARK minimizedRMSD -1
REMARK  1 active torsions:
REMARK  status: ('A' for Active; 'I' for Inactive)
REMARK    1  A    between atoms: C1_2  and  C2_3 
ROOT
ATOM      1  C2  UNL d   1       0.185   0.213   0.105  0.00  0.00    -0.077 A 
ATOM      2  C3  UNL d   1       1.390   0.133  -0.607  0.00  0.00     0.002 A 
ATOM      3  C4  UNL d   1       2.277  -0.920  -0.378  0.00  0.00     0.002 A 
ATOM      4  C5  UNL d   1       1.968  -1.902   0.560  0.00  0.00    -0.004 A 
ATOM      5  C6  UNL d   1       0.773  -1.831   1.275  0.00  0.00     0.002 A 
ATOM      6  C7  UNL d   1      -0.115  -0.779   1.048  0.00  0.00     0.002 A 
ENDROOT
BRANCH   1   7
ATOM      7  C1  UNL d   1      -0.797   1.320  -0.176  0.00  0.00     0.055 C 
ATOM      8  C   UNL d   1      -1.543   1.081  -1.481  0.00  0.00     0.019 C 
ENDBRANCH   1   7
TORSDOF 1
ENDMDL
