MODEL 1
REMARK minimizedAffinity -3.3873899
REMARK minimizedRMSD -1
REMARK  1 active torsions:
REMARK  status: ('A' for Active; 'I' for Inactive)
REMARK    1  A    between atoms: C1_2  and  C2_3 
ROOT
ATOM      1  C2  UNL d   1      -0.546  -1.823  -1.170  0.00  0.00    -0.076 A 
ATOM      2  C3  UNL d   1       0.273  -2.471  -0.228  0.00  0.00     0.004 A 
ATOM      3  C4  UNL d   1       0.925  -1.750   0.771  0.00  0.00    -0.003 A 
ATOM      4  C5  UNL d   1       0.767  -0.371   0.846  0.00  0.00     0.000 A 
ATOM      5  C6  UNL d   1      -0.055   0.286  -0.069  0.00  0.00     0.000 A 
ATOM      6  C7  UNL d   1      -0.732  -0.428  -1.073  0.00  0.00    -0.073 A 
ATOM      7  C8  UNL d   1      -1.601   0.332  -2.037  0.00  0.00     0.078 C 
ENDROOT
BRANCH   1   8
ATOM      8  C1  UNL d   1      -1.205  -2.653  -2.248  0.00  0.00     0.053 C 
ATOM      9  C   UNL d   1      -0.347  -3.831  -2.684  0.00  0.00     0.018 C 
ENDBRANCH   1   8
TORSDOF 1
ENDMDL
