MODEL 1
REMARK minimizedAffinity -3.21846151
REMARK minimizedRMSD -1
REMARK  1 active torsions:
REMARK  status: ('A' for Active; 'I' for Inactive)
REMARK    1  A    between atoms: C1_2  and  C2_3 
ROOT
ATOM      1  C2  UNL d   1      -0.206  -0.267   0.070  0.00  0.00    -0.076 A 
ATOM      2  C3  UNL d   1      -1.401  -0.129   0.798  0.00  0.00     0.004 A 
ATOM      3  C4  UNL d   1      -1.906   1.131   1.116  0.00  0.00    -0.003 A 
ATOM      4  C5  UNL d   1      -1.225   2.273   0.711  0.00  0.00     0.000 A 
ATOM      5  C6  UNL d   1      -0.048   2.155  -0.027  0.00  0.00     0.000 A 
ATOM      6  C7  UNL d   1       0.467   0.893  -0.371  0.00  0.00    -0.073 A 
ATOM      7  C8  UNL d   1       1.743   0.825  -1.163  0.00  0.00     0.078 C 
ENDROOT
BRANCH   1   8
ATOM      8  C1  UNL d   1       0.308  -1.658  -0.222  0.00  0.00     0.053 C 
ATOM      9  C   UNL d   1      -0.734  -2.533  -0.902  0.00  0.00     0.018 C 
ENDBRANCH   1   8
TORSDOF 1
ENDMDL
