MODEL 1
REMARK minimizedAffinity -3.84308696
REMARK minimizedRMSD -1
REMARK  1 active torsions:
REMARK  status: ('A' for Active; 'I' for Inactive)
REMARK    1  A    between atoms: C1_2  and  C2_3 
ROOT
ATOM      1  C2  UNL d   1      -0.155  -0.001  -0.187  0.00  0.00    -0.076 A 
ATOM      2  C3  UNL d   1       1.224  -0.089   0.067  0.00  0.00     0.004 A 
ATOM      3  C4  UNL d   1       1.926   0.991   0.600  0.00  0.00    -0.003 A 
ATOM      4  C5  UNL d   1       1.259   2.176   0.889  0.00  0.00     0.000 A 
ATOM      5  C6  UNL d   1      -0.113   2.275   0.659  0.00  0.00     0.000 A 
ATOM      6  C7  UNL d   1      -0.839   1.190   0.138  0.00  0.00    -0.073 A 
ATOM      7  C8  UNL d   1      -2.315   1.354  -0.095  0.00  0.00     0.078 C 
ENDROOT
BRANCH   1   8
ATOM      8  C1  UNL d   1      -0.858  -1.196  -0.792  0.00  0.00     0.053 C 
ATOM      9  C   UNL d   1      -0.196  -1.673  -2.075  0.00  0.00     0.018 C 
ENDBRANCH   1   8
TORSDOF 1
ENDMDL
