MODEL 1
REMARK minimizedAffinity -3.87214208
REMARK minimizedRMSD -1
REMARK  1 active torsions:
REMARK  status: ('A' for Active; 'I' for Inactive)
REMARK    1  A    between atoms: C1_2  and  C2_3 
ROOT
ATOM      1  C2  UNL d   1       0.288  -0.063   0.337  0.00  0.00    -0.076 A 
ATOM      2  C3  UNL d   1      -1.043   0.210   0.700  0.00  0.00     0.004 A 
ATOM      3  C4  UNL d   1      -1.531   1.515   0.706  0.00  0.00    -0.003 A 
ATOM      4  C5  UNL d   1      -0.697   2.569   0.349  0.00  0.00     0.000 A 
ATOM      5  C6  UNL d   1       0.621   2.315  -0.030  0.00  0.00     0.000 A 
ATOM      6  C7  UNL d   1       1.124   1.003  -0.057  0.00  0.00    -0.073 A 
ATOM      7  C8  UNL d   1       2.555   0.787  -0.468  0.00  0.00     0.078 C 
ENDROOT
BRANCH   1   8
ATOM      8  C1  UNL d   1       0.770  -1.496   0.375  0.00  0.00     0.053 C 
ATOM      9  C   UNL d   1       0.047  -2.380  -0.629  0.00  0.00     0.018 C 
ENDBRANCH   1   8
TORSDOF 1
ENDMDL
