MODEL 1
REMARK minimizedAffinity -3.39953637
REMARK minimizedRMSD -1
REMARK  1 active torsions:
REMARK  status: ('A' for Active; 'I' for Inactive)
REMARK    1  A    between atoms: C1_2  and  C2_3 
ROOT
ATOM      1  C2  UNL d   1       0.565   0.571   0.563  0.00  0.00    -0.076 A 
ATOM      2  C3  UNL d   1       1.764  -0.162   0.518  0.00  0.00     0.004 A 
ATOM      3  C4  UNL d   1       2.997   0.470   0.665  0.00  0.00    -0.003 A 
ATOM      4  C5  UNL d   1       3.052   1.846   0.859  0.00  0.00     0.000 A 
ATOM      5  C6  UNL d   1       1.873   2.586   0.924  0.00  0.00     0.000 A 
ATOM      6  C7  UNL d   1       0.620   1.962   0.795  0.00  0.00    -0.073 A 
ATOM      7  C8  UNL d   1      -0.620   2.810   0.867  0.00  0.00     0.078 C 
ENDROOT
BRANCH   1   8
ATOM      8  C1  UNL d   1      -0.742  -0.165   0.371  0.00  0.00     0.053 C 
ATOM      9  C   UNL d   1      -0.539  -1.628   0.009  0.00  0.00     0.018 C 
ENDBRANCH   1   8
TORSDOF 1
ENDMDL
