MODEL 1
REMARK minimizedAffinity -0.305291146
REMARK minimizedRMSD -1
REMARK  1 active torsions:
REMARK  status: ('A' for Active; 'I' for Inactive)
REMARK    1  A    between atoms: C1_2  and  C2_3 
ROOT
ATOM      1  C2  UNL d   1      -0.353   0.144   0.430  0.00  0.00    -0.076 A 
ATOM      2  C3  UNL d   1       0.139  -1.162   0.262  0.00  0.00     0.004 A 
ATOM      3  C4  UNL d   1       1.500  -1.397   0.074  0.00  0.00    -0.003 A 
ATOM      4  C5  UNL d   1       2.392  -0.330   0.053  0.00  0.00     0.000 A 
ATOM      5  C6  UNL d   1       1.923   0.970   0.236  0.00  0.00     0.000 A 
ATOM      6  C7  UNL d   1       0.556   1.224   0.443  0.00  0.00    -0.073 A 
ATOM      7  C8  UNL d   1       0.106   2.647   0.629  0.00  0.00     0.078 C 
ENDROOT
BRANCH   1   8
ATOM      8  C1  UNL d   1      -1.842   0.341   0.602  0.00  0.00     0.053 C 
ATOM      9  C   UNL d   1      -2.343  -0.156   1.949  0.00  0.00     0.018 C 
ENDBRANCH   1   8
TORSDOF 1
ENDMDL
