MODEL 1
REMARK minimizedAffinity -5.01240969
REMARK minimizedRMSD -1
REMARK  1 active torsions:
REMARK  status: ('A' for Active; 'I' for Inactive)
REMARK    1  A    between atoms: C1_2  and  C2_3 
ROOT
ATOM      1  C2  UNL d   1       0.226   0.747   0.702  0.00  0.00    -0.076 A 
ATOM      2  C3  UNL d   1       1.497   0.239   0.384  0.00  0.00     0.004 A 
ATOM      3  C4  UNL d   1       1.782  -1.119   0.523  0.00  0.00    -0.003 A 
ATOM      4  C5  UNL d   1       0.800  -1.990   0.981  0.00  0.00     0.000 A 
ATOM      5  C6  UNL d   1      -0.472  -1.506   1.284  0.00  0.00     0.000 A 
ATOM      6  C7  UNL d   1      -0.781  -0.143   1.135  0.00  0.00    -0.073 A 
ATOM      7  C8  UNL d   1      -2.167   0.326   1.482  0.00  0.00     0.078 C 
ENDROOT
BRANCH   1   8
ATOM      8  C1  UNL d   1      -0.017   2.233   0.558  0.00  0.00     0.053 C 
ATOM      9  C   UNL d   1      -0.008   2.957   1.896  0.00  0.00     0.018 C 
ENDBRANCH   1   8
TORSDOF 1
ENDMDL
