MODEL 1
REMARK minimizedAffinity -5.30344534
REMARK minimizedRMSD -1
REMARK  1 active torsions:
REMARK  status: ('A' for Active; 'I' for Inactive)
REMARK    1  A    between atoms: C1_2  and  C2_3 
ROOT
ATOM      1  C2  UNL d   1      -0.007  -0.214   0.376  0.00  0.00    -0.076 A 
ATOM      2  C3  UNL d   1      -1.383   0.037   0.521  0.00  0.00     0.004 A 
ATOM      3  C4  UNL d   1      -1.881   1.338   0.499  0.00  0.00    -0.003 A 
ATOM      4  C5  UNL d   1      -1.011   2.410   0.331  0.00  0.00     0.000 A 
ATOM      5  C6  UNL d   1       0.354   2.179   0.168  0.00  0.00     0.000 A 
ATOM      6  C7  UNL d   1       0.871   0.872   0.171  0.00  0.00    -0.073 A 
ATOM      7  C8  UNL d   1       2.352   0.680  -0.003  0.00  0.00     0.078 C 
ENDROOT
BRANCH   1   8
ATOM      8  C1  UNL d   1       0.478  -1.645   0.435  0.00  0.00     0.053 C 
ATOM      9  C   UNL d   1      -0.241  -2.546  -0.558  0.00  0.00     0.018 C 
ENDBRANCH   1   8
TORSDOF 1
ENDMDL
