MODEL 1
REMARK minimizedAffinity -3.2576201
REMARK minimizedRMSD -1
REMARK  1 active torsions:
REMARK  status: ('A' for Active; 'I' for Inactive)
REMARK    1  A    between atoms: C1_2  and  C2_3 
ROOT
ATOM      1  C2  UNL d   1      -0.278  -0.478   0.287  0.00  0.00    -0.076 A 
ATOM      2  C3  UNL d   1       1.119  -0.336   0.230  0.00  0.00     0.004 A 
ATOM      3  C4  UNL d   1       1.719   0.916   0.352  0.00  0.00    -0.003 A 
ATOM      4  C5  UNL d   1       0.931   2.047   0.534  0.00  0.00     0.000 A 
ATOM      5  C6  UNL d   1      -0.455   1.923   0.611  0.00  0.00     0.000 A 
ATOM      6  C7  UNL d   1      -1.075   0.666   0.506  0.00  0.00    -0.073 A 
ATOM      7  C8  UNL d   1      -2.575   0.592   0.590  0.00  0.00     0.078 C 
ENDROOT
BRANCH   1   8
ATOM      8  C1  UNL d   1      -0.874  -1.857   0.121  0.00  0.00     0.053 C 
ATOM      9  C   UNL d   1      -0.281  -2.610  -1.060  0.00  0.00     0.018 C 
ENDBRANCH   1   8
TORSDOF 1
ENDMDL
