MODEL 1
REMARK minimizedAffinity -1.5154916
REMARK minimizedRMSD -1
REMARK  1 active torsions:
REMARK  status: ('A' for Active; 'I' for Inactive)
REMARK    1  A    between atoms: C1_2  and  C2_3 
ROOT
ATOM      1  C2  UNL d   1      -0.412  -1.113  -1.000  0.00  0.00    -0.076 A 
ATOM      2  C3  UNL d   1       0.540  -0.878   0.008  0.00  0.00     0.004 A 
ATOM      3  C4  UNL d   1       0.400   0.192   0.891  0.00  0.00    -0.003 A 
ATOM      4  C5  UNL d   1      -0.694   1.043   0.781  0.00  0.00     0.000 A 
ATOM      5  C6  UNL d   1      -1.657   0.814  -0.202  0.00  0.00     0.000 A 
ATOM      6  C7  UNL d   1      -1.539  -0.269  -1.090  0.00  0.00    -0.073 A 
ATOM      7  C8  UNL d   1      -2.604  -0.465  -2.134  0.00  0.00     0.078 C 
ENDROOT
BRANCH   1   8
ATOM      8  C1  UNL d   1      -0.193  -2.272  -1.946  0.00  0.00     0.053 C 
ATOM      9  C   UNL d   1      -0.795  -3.569  -1.427  0.00  0.00     0.018 C 
ENDBRANCH   1   8
TORSDOF 1
ENDMDL
