MODEL 1
REMARK minimizedAffinity -6.15213585
REMARK minimizedRMSD -1
REMARK  1 active torsions:
REMARK  status: ('A' for Active; 'I' for Inactive)
REMARK    1  A    between atoms: C1_2  and  C2_3 
ROOT
ATOM      1  C2  UNL d   1       0.453   0.307   0.089  0.00  0.00    -0.076 A 
ATOM      2  C3  UNL d   1       1.713   0.606  -0.458  0.00  0.00     0.004 A 
ATOM      3  C4  UNL d   1       2.036   1.905  -0.846  0.00  0.00    -0.003 A 
ATOM      4  C5  UNL d   1       1.105   2.926  -0.693  0.00  0.00     0.000 A 
ATOM      5  C6  UNL d   1      -0.143   2.651  -0.136  0.00  0.00     0.000 A 
ATOM      6  C7  UNL d   1      -0.479   1.349   0.276  0.00  0.00    -0.073 A 
ATOM      7  C8  UNL d   1      -1.842   1.108   0.865  0.00  0.00     0.078 C 
ENDROOT
BRANCH   1   8
ATOM      8  C1  UNL d   1       0.149  -1.126   0.467  0.00  0.00     0.053 C 
ATOM      9  C   UNL d   1      -0.334  -1.950  -0.716  0.00  0.00     0.018 C 
ENDBRANCH   1   8
TORSDOF 1
ENDMDL
