MODEL 1
REMARK minimizedAffinity -2.1526618
REMARK minimizedRMSD -1
REMARK  1 active torsions:
REMARK  status: ('A' for Active; 'I' for Inactive)
REMARK    1  A    between atoms: C1_2  and  C2_3 
ROOT
ATOM      1  C2  UNL d   1       0.492   1.308  -0.274  0.00  0.00    -0.076 A 
ATOM      2  C3  UNL d   1      -0.761   0.671  -0.320  0.00  0.00     0.004 A 
ATOM      3  C4  UNL d   1      -0.859  -0.719  -0.325  0.00  0.00    -0.003 A 
ATOM      4  C5  UNL d   1       0.293  -1.496  -0.283  0.00  0.00     0.000 A 
ATOM      5  C6  UNL d   1       1.543  -0.881  -0.218  0.00  0.00     0.000 A 
ATOM      6  C7  UNL d   1       1.659   0.519  -0.196  0.00  0.00    -0.073 A 
ATOM      7  C8  UNL d   1       3.033   1.129  -0.132  0.00  0.00     0.078 C 
ENDROOT
BRANCH   1   8
ATOM      8  C1  UNL d   1       0.537   2.819  -0.298  0.00  0.00     0.053 C 
ATOM      9  C   UNL d   1       0.236   3.433   1.060  0.00  0.00     0.018 C 
ENDBRANCH   1   8
TORSDOF 1
ENDMDL
