MODEL 1
REMARK minimizedAffinity -0.118783802
REMARK minimizedRMSD -1
REMARK  1 active torsions:
REMARK  status: ('A' for Active; 'I' for Inactive)
REMARK    1  A    between atoms: C1_2  and  C2_3 
ROOT
ATOM      1  C2  UNL d   1      -0.421   0.024   0.370  0.00  0.00    -0.076 A 
ATOM      2  C3  UNL d   1      -1.659   0.691   0.397  0.00  0.00     0.004 A 
ATOM      3  C4  UNL d   1      -1.725   2.077   0.521  0.00  0.00    -0.003 A 
ATOM      4  C5  UNL d   1      -0.554   2.821   0.619  0.00  0.00     0.000 A 
ATOM      5  C6  UNL d   1       0.683   2.178   0.577  0.00  0.00     0.000 A 
ATOM      6  C7  UNL d   1       0.767   0.782   0.435  0.00  0.00    -0.073 A 
ATOM      7  C8  UNL d   1       2.128   0.141   0.401  0.00  0.00     0.078 C 
ENDROOT
BRANCH   1   8
ATOM      8  C1  UNL d   1      -0.413  -1.484   0.260  0.00  0.00     0.053 C 
ATOM      9  C   UNL d   1      -0.808  -1.970  -1.125  0.00  0.00     0.018 C 
ENDBRANCH   1   8
TORSDOF 1
ENDMDL
