MODEL 1
REMARK minimizedAffinity -2.35103059
REMARK minimizedRMSD -1
REMARK  1 active torsions:
REMARK  status: ('A' for Active; 'I' for Inactive)
REMARK    1  A    between atoms: C1_2  and  C2_3 
ROOT
ATOM      1  C2  UNL d   1       0.443  -0.843  -0.893  0.00  0.00    -0.076 A 
ATOM      2  C3  UNL d   1       0.875  -1.739  -1.886  0.00  0.00     0.004 A 
ATOM      3  C4  UNL d   1       0.148  -2.893  -2.177  0.00  0.00    -0.003 A 
ATOM      4  C5  UNL d   1      -1.023  -3.168  -1.480  0.00  0.00     0.000 A 
ATOM      5  C6  UNL d   1      -1.476  -2.281  -0.504  0.00  0.00     0.000 A 
ATOM      6  C7  UNL d   1      -0.763  -1.105  -0.210  0.00  0.00    -0.073 A 
ATOM      7  C8  UNL d   1      -1.294  -0.187   0.857  0.00  0.00     0.078 C 
ENDROOT
BRANCH   1   8
ATOM      8  C1  UNL d   1       1.287   0.377  -0.603  0.00  0.00     0.053 C 
ATOM      9  C   UNL d   1       2.503   0.055   0.252  0.00  0.00     0.018 C 
ENDBRANCH   1   8
TORSDOF 1
ENDMDL
