MODEL 1
REMARK minimizedAffinity -4.13957596
REMARK minimizedRMSD -1
REMARK  1 active torsions:
REMARK  status: ('A' for Active; 'I' for Inactive)
REMARK    1  A    between atoms: C1_2  and  C2_3 
ROOT
ATOM      1  C2  UNL d   1      -0.736   1.362   0.503  0.00  0.00    -0.076 A 
ATOM      2  C3  UNL d   1      -0.781   2.744   0.755  0.00  0.00     0.004 A 
ATOM      3  C4  UNL d   1       0.289   3.571   0.415  0.00  0.00    -0.003 A 
ATOM      4  C5  UNL d   1       1.421   3.028  -0.183  0.00  0.00     0.000 A 
ATOM      5  C6  UNL d   1       1.475   1.661  -0.456  0.00  0.00     0.000 A 
ATOM      6  C7  UNL d   1       0.399   0.817  -0.134  0.00  0.00    -0.073 A 
ATOM      7  C8  UNL d   1       0.514  -0.650  -0.446  0.00  0.00     0.078 C 
ENDROOT
BRANCH   1   8
ATOM      8  C1  UNL d   1      -1.916   0.512   0.919  0.00  0.00     0.053 C 
ATOM      9  C   UNL d   1      -3.060   0.575  -0.081  0.00  0.00     0.018 C 
ENDBRANCH   1   8
TORSDOF 1
ENDMDL
