MODEL 1
REMARK minimizedAffinity -3.53407645
REMARK minimizedRMSD -1
REMARK  0 active torsions:
REMARK  status: ('A' for Active; 'I' for Inactive)
ROOT
ATOM      1  C1  BNZ d   1      -0.073  -0.010  -0.660  0.00  0.00     0.000 A 
ATOM      2  C2  BNZ d   1       1.048  -0.298   0.072  0.00  0.00     0.000 A 
ATOM      3  C3  BNZ d   1       1.051  -1.324   0.975  0.00  0.00     0.000 A 
ATOM      4  C4  BNZ d   1      -0.078  -2.036   1.173  0.00  0.00     0.000 A 
ATOM      5  C5  BNZ d   1      -1.219  -1.752   0.449  0.00  0.00     0.000 A 
ATOM      6  C6  BNZ d   1      -1.207  -0.743  -0.486  0.00  0.00     0.000 A 
ENDROOT
TORSDOF 0
ENDMDL
