MODEL 1
REMARK minimizedAffinity -4.51718807
REMARK minimizedRMSD -1
REMARK  0 active torsions:
REMARK  status: ('A' for Active; 'I' for Inactive)
ROOT
ATOM      1  C1  BNZ d   1      -0.240  -0.185   0.437  0.00  0.00     0.000 A 
ATOM      2  C2  BNZ d   1      -1.534  -0.621   0.533  0.00  0.00     0.000 A 
ATOM      3  C3  BNZ d   1      -2.356  -0.620  -0.559  0.00  0.00     0.000 A 
ATOM      4  C4  BNZ d   1      -1.895  -0.147  -1.735  0.00  0.00     0.000 A 
ATOM      5  C5  BNZ d   1      -0.595   0.304  -1.846  0.00  0.00     0.000 A 
ATOM      6  C6  BNZ d   1       0.241   0.265  -0.754  0.00  0.00     0.000 A 
ENDROOT
TORSDOF 0
ENDMDL
