MODEL 1
REMARK minimizedAffinity -3.84972215
REMARK minimizedRMSD -1
REMARK  0 active torsions:
REMARK  status: ('A' for Active; 'I' for Inactive)
ROOT
ATOM      1  C1  BNZ d   1       1.117   0.333  -0.307  0.00  0.00     0.000 A 
ATOM      2  C2  BNZ d   1      -0.165   0.532  -0.745  0.00  0.00     0.000 A 
ATOM      3  C3  BNZ d   1      -1.219  -0.080  -0.125  0.00  0.00     0.000 A 
ATOM      4  C4  BNZ d   1      -0.986  -0.920   0.904  0.00  0.00     0.000 A 
ATOM      5  C5  BNZ d   1       0.302  -1.138   1.351  0.00  0.00     0.000 A 
ATOM      6  C6  BNZ d   1       1.357  -0.489   0.750  0.00  0.00     0.000 A 
ENDROOT
TORSDOF 0
ENDMDL
