MODEL 1
REMARK minimizedAffinity -4.85517359
REMARK minimizedRMSD -1
REMARK  0 active torsions:
REMARK  status: ('A' for Active; 'I' for Inactive)
ROOT
ATOM      1  C1  BNZ d   1      -1.995  -0.304  -1.556  0.00  0.00     0.000 A 
ATOM      2  C2  BNZ d   1      -0.658  -0.016  -1.489  0.00  0.00     0.000 A 
ATOM      3  C3  BNZ d   1       0.017  -0.095  -0.303  0.00  0.00     0.000 A 
ATOM      4  C4  BNZ d   1      -0.653  -0.423   0.820  0.00  0.00     0.000 A 
ATOM      5  C5  BNZ d   1      -2.003  -0.707   0.771  0.00  0.00     0.000 A 
ATOM      6  C6  BNZ d   1      -2.671  -0.664  -0.431  0.00  0.00     0.000 A 
ENDROOT
TORSDOF 0
ENDMDL
