MODEL 1
REMARK minimizedAffinity -4.48361635
REMARK minimizedRMSD -1
REMARK  0 active torsions:
REMARK  status: ('A' for Active; 'I' for Inactive)
ROOT
ATOM      1  C1  BNZ d   1      -1.497  -0.426   0.810  0.00  0.00     0.000 A 
ATOM      2  C2  BNZ d   1      -0.225  -0.075   0.446  0.00  0.00     0.000 A 
ATOM      3  C3  BNZ d   1       0.049   0.346  -0.825  0.00  0.00     0.000 A 
ATOM      4  C4  BNZ d   1      -0.941   0.377  -1.741  0.00  0.00     0.000 A 
ATOM      5  C5  BNZ d   1      -2.227   0.017  -1.392  0.00  0.00     0.000 A 
ATOM      6  C6  BNZ d   1      -2.507  -0.369  -0.101  0.00  0.00     0.000 A 
ENDROOT
TORSDOF 0
ENDMDL
