MODEL 1
REMARK minimizedAffinity -4.25495243
REMARK minimizedRMSD -1
REMARK  0 active torsions:
REMARK  status: ('A' for Active; 'I' for Inactive)
ROOT
ATOM      1  C1  BNZ d   1       0.638   0.554  -0.946  0.00  0.00     0.000 A 
ATOM      2  C2  BNZ d   1      -0.333   0.688  -1.903  0.00  0.00     0.000 A 
ATOM      3  C3  BNZ d   1      -1.561   0.111  -1.740  0.00  0.00     0.000 A 
ATOM      4  C4  BNZ d   1      -1.804  -0.632  -0.641  0.00  0.00     0.000 A 
ATOM      5  C5  BNZ d   1      -0.832  -0.785   0.328  0.00  0.00     0.000 A 
ATOM      6  C6  BNZ d   1       0.390  -0.170   0.179  0.00  0.00     0.000 A 
ENDROOT
TORSDOF 0
ENDMDL
