MODEL 1
REMARK minimizedAffinity -2.00999808
REMARK minimizedRMSD -1
REMARK  0 active torsions:
REMARK  status: ('A' for Active; 'I' for Inactive)
ROOT
ATOM      1  C1  BNZ d   1      -0.047  -0.295   0.336  0.00  0.00     0.000 A 
ATOM      2  C2  BNZ d   1      -1.295  -0.857   0.286  0.00  0.00     0.000 A 
ATOM      3  C3  BNZ d   1      -2.055  -0.773  -0.847  0.00  0.00     0.000 A 
ATOM      4  C4  BNZ d   1      -1.583  -0.095  -1.913  0.00  0.00     0.000 A 
ATOM      5  C5  BNZ d   1      -0.330   0.484  -1.875  0.00  0.00     0.000 A 
ATOM      6  C6  BNZ d   1       0.447   0.365  -0.746  0.00  0.00     0.000 A 
ENDROOT
TORSDOF 0
ENDMDL
