MODEL 1
REMARK minimizedAffinity -4.36648464
REMARK minimizedRMSD -1
REMARK  0 active torsions:
REMARK  status: ('A' for Active; 'I' for Inactive)
ROOT
ATOM      1  C1  BNZ d   1      -0.941   0.166  -1.254  0.00  0.00     0.000 A 
ATOM      2  C2  BNZ d   1      -2.169  -0.436  -1.318  0.00  0.00     0.000 A 
ATOM      3  C3  BNZ d   1      -2.715  -1.032  -0.216  0.00  0.00     0.000 A 
ATOM      4  C4  BNZ d   1      -2.016  -1.060   0.938  0.00  0.00     0.000 A 
ATOM      5  C5  BNZ d   1      -0.773  -0.466   1.016  0.00  0.00     0.000 A 
ATOM      6  C6  BNZ d   1      -0.243   0.167  -0.085  0.00  0.00     0.000 A 
ENDROOT
TORSDOF 0
ENDMDL
