MODEL 1
REMARK minimizedAffinity -5.11671972
REMARK minimizedRMSD -1
REMARK  0 active torsions:
REMARK  status: ('A' for Active; 'I' for Inactive)
ROOT
ATOM      1  C1  BNZ d   1      -2.235  -0.872  -1.570  0.00  0.00     0.000 A 
ATOM      2  C2  BNZ d   1      -0.921  -0.521  -1.415  0.00  0.00     0.000 A 
ATOM      3  C3  BNZ d   1      -0.389  -0.332  -0.171  0.00  0.00     0.000 A 
ATOM      4  C4  BNZ d   1      -1.180  -0.455   0.914  0.00  0.00     0.000 A 
ATOM      5  C5  BNZ d   1      -2.510  -0.799   0.774  0.00  0.00     0.000 A 
ATOM      6  C6  BNZ d   1      -3.033  -1.026  -0.478  0.00  0.00     0.000 A 
ENDROOT
TORSDOF 0
ENDMDL
