MODEL 1
REMARK minimizedAffinity -4.84479761
REMARK minimizedRMSD -1
REMARK  0 active torsions:
REMARK  status: ('A' for Active; 'I' for Inactive)
ROOT
ATOM      1  C1  BNZ d   1      -0.535  -0.045  -1.461  0.00  0.00     0.000 A 
ATOM      2  C2  BNZ d   1       0.076   0.098  -0.244  0.00  0.00     0.000 A 
ATOM      3  C3  BNZ d   1      -0.602  -0.157   0.915  0.00  0.00     0.000 A 
ATOM      4  C4  BNZ d   1      -1.901  -0.516   0.857  0.00  0.00     0.000 A 
ATOM      5  C5  BNZ d   1      -2.534  -0.656  -0.361  0.00  0.00     0.000 A 
ATOM      6  C6  BNZ d   1      -1.837  -0.436  -1.527  0.00  0.00     0.000 A 
ENDROOT
TORSDOF 0
ENDMDL
