MODEL 1
REMARK minimizedAffinity -3.61770082
REMARK minimizedRMSD -1
REMARK  0 active torsions:
REMARK  status: ('A' for Active; 'I' for Inactive)
ROOT
ATOM      1  C1  BNZ d   1      -0.720  -1.967   1.125  0.00  0.00     0.000 A 
ATOM      2  C2  BNZ d   1      -1.812  -2.703   0.747  0.00  0.00     0.000 A 
ATOM      3  C3  BNZ d   1      -2.693  -2.221  -0.179  0.00  0.00     0.000 A 
ATOM      4  C4  BNZ d   1      -2.505  -0.989  -0.696  0.00  0.00     0.000 A 
ATOM      5  C5  BNZ d   1      -1.414  -0.232  -0.318  0.00  0.00     0.000 A 
ATOM      6  C6  BNZ d   1      -0.508  -0.736   0.586  0.00  0.00     0.000 A 
ENDROOT
TORSDOF 0
ENDMDL
