MODEL 1
REMARK minimizedAffinity -0.449312478
REMARK minimizedRMSD -1
REMARK  0 active torsions:
REMARK  status: ('A' for Active; 'I' for Inactive)
ROOT
ATOM      1  C1  BNZ d   1       1.748   0.943   1.468  0.00  0.00     0.000 A 
ATOM      2  C2  BNZ d   1       2.173   1.974   2.264  0.00  0.00     0.000 A 
ATOM      3  C3  BNZ d   1       2.956   2.973   1.757  0.00  0.00     0.000 A 
ATOM      4  C4  BNZ d   1       3.345   2.920   0.467  0.00  0.00     0.000 A 
ATOM      5  C5  BNZ d   1       2.933   1.883  -0.346  0.00  0.00     0.000 A 
ATOM      6  C6  BNZ d   1       2.113   0.899   0.158  0.00  0.00     0.000 A 
ENDROOT
TORSDOF 0
ENDMDL
