MODEL 1
REMARK minimizedAffinity -4.64551783
REMARK minimizedRMSD -1
REMARK  0 active torsions:
REMARK  status: ('A' for Active; 'I' for Inactive)
ROOT
ATOM      1  C1  BNZ d   1      -2.465   0.124  -1.231  0.00  0.00     0.000 A 
ATOM      2  C2  BNZ d   1      -1.223   0.556  -1.614  0.00  0.00     0.000 A 
ATOM      3  C3  BNZ d   1      -0.124   0.297  -0.843  0.00  0.00     0.000 A 
ATOM      4  C4  BNZ d   1      -0.273  -0.357   0.327  0.00  0.00     0.000 A 
ATOM      5  C5  BNZ d   1      -1.520  -0.791   0.731  0.00  0.00     0.000 A 
ATOM      6  C6  BNZ d   1      -2.619  -0.563  -0.066  0.00  0.00     0.000 A 
ENDROOT
TORSDOF 0
ENDMDL
