MODEL 1
REMARK minimizedAffinity -4.78402996
REMARK minimizedRMSD -1
REMARK  0 active torsions:
REMARK  status: ('A' for Active; 'I' for Inactive)
ROOT
ATOM      1  C1  BNZ d   1      -1.914  -0.009  -1.499  0.00  0.00     0.000 A 
ATOM      2  C2  BNZ d   1      -3.026  -0.339  -0.771  0.00  0.00     0.000 A 
ATOM      3  C3  BNZ d   1      -2.924  -0.671   0.551  0.00  0.00     0.000 A 
ATOM      4  C4  BNZ d   1      -1.708  -0.714   1.132  0.00  0.00     0.000 A 
ATOM      5  C5  BNZ d   1      -0.576  -0.394   0.409  0.00  0.00     0.000 A 
ATOM      6  C6  BNZ d   1      -0.687  -0.021  -0.911  0.00  0.00     0.000 A 
ENDROOT
TORSDOF 0
ENDMDL
