MODEL 1
REMARK minimizedAffinity -2.92971969
REMARK minimizedRMSD -1
REMARK  0 active torsions:
REMARK  status: ('A' for Active; 'I' for Inactive)
ROOT
ATOM      1  C1  BNZ d   1      -2.105   0.199  -1.026  0.00  0.00     0.000 A 
ATOM      2  C2  BNZ d   1      -1.072   0.921  -1.563  0.00  0.00     0.000 A 
ATOM      3  C3  BNZ d   1       0.207   0.757  -1.110  0.00  0.00     0.000 A 
ATOM      4  C4  BNZ d   1       0.446  -0.099  -0.095  0.00  0.00     0.000 A 
ATOM      5  C5  BNZ d   1      -0.585  -0.827   0.463  0.00  0.00     0.000 A 
ATOM      6  C6  BNZ d   1      -1.866  -0.688  -0.022  0.00  0.00     0.000 A 
ENDROOT
TORSDOF 0
ENDMDL
