MODEL 1
REMARK minimizedAffinity 33.191906
REMARK minimizedRMSD -1
REMARK  0 active torsions:
REMARK  status: ('A' for Active; 'I' for Inactive)
ROOT
ATOM      1  C   UNL d   1       0.515  -1.666  -4.871  0.00  0.00     0.124 A 
ATOM      2  C1  UNL d   1       0.926  -2.899  -5.359  0.00  0.00     0.062 A 
ATOM      3  C2  UNL d   1       0.123  -4.023  -5.185  0.00  0.00     0.162 A 
ATOM      4  C3  UNL d   1      -1.099  -3.919  -4.520  0.00  0.00    -0.034 A 
ATOM      5  C4  UNL d   1      -1.504  -2.676  -4.032  0.00  0.00     0.162 A 
ATOM      6  C5  UNL d   1      -0.699  -1.556  -4.208  0.00  0.00     0.062 A 
ATOM      7  F   UNL d   1      -1.097  -0.365  -3.737  0.00  0.00    -0.097 F 
ATOM      8  F1  UNL d   1      -2.673  -2.541  -3.388  0.00  0.00    -0.096 F 
ATOM      9  I   UNL d   1      -2.301  -5.597  -4.258  0.00  0.00    -0.060 I 
ATOM     10  F2  UNL d   1       0.545  -5.202  -5.666  0.00  0.00    -0.096 F 
ATOM     11  F3  UNL d   1       2.099  -3.008  -5.999  0.00  0.00    -0.097 F 
ATOM     12  F4  UNL d   1       1.290  -0.586  -5.039  0.00  0.00    -0.092 F 
ENDROOT
TORSDOF 0
ENDMDL
