MODEL 1
REMARK minimizedAffinity 17.1927681
REMARK minimizedRMSD -1
REMARK  0 active torsions:
REMARK  status: ('A' for Active; 'I' for Inactive)
ROOT
ATOM      1  C   UNL d   1       3.332   1.836   2.451  0.00  0.00     0.124 A 
ATOM      2  C1  UNL d   1       4.297   2.003   3.433  0.00  0.00     0.062 A 
ATOM      3  C2  UNL d   1       5.048   3.174   3.485  0.00  0.00     0.162 A 
ATOM      4  C3  UNL d   1       4.836   4.188   2.550  0.00  0.00    -0.034 A 
ATOM      5  C4  UNL d   1       3.864   4.011   1.564  0.00  0.00     0.162 A 
ATOM      6  C5  UNL d   1       3.116   2.840   1.517  0.00  0.00     0.062 A 
ATOM      7  F   UNL d   1       2.183   2.679   0.567  0.00  0.00    -0.097 F 
ATOM      8  F1  UNL d   1       3.634   4.966   0.650  0.00  0.00    -0.096 F 
ATOM      9  I   UNL d   1       5.957   5.940   2.623  0.00  0.00    -0.060 I 
ATOM     10  F2  UNL d   1       5.975   3.309   4.445  0.00  0.00    -0.096 F 
ATOM     11  F3  UNL d   1       4.508   1.034   4.336  0.00  0.00    -0.097 F 
ATOM     12  F4  UNL d   1       2.611   0.708   2.403  0.00  0.00    -0.092 F 
ENDROOT
TORSDOF 0
ENDMDL
