MODEL 1
REMARK minimizedAffinity 18.3799267
REMARK minimizedRMSD -1
REMARK  0 active torsions:
REMARK  status: ('A' for Active; 'I' for Inactive)
ROOT
ATOM      1  C   UNL d   1       0.242  -0.255  -4.224  0.00  0.00     0.124 A 
ATOM      2  C1  UNL d   1      -0.960  -0.935  -4.084  0.00  0.00     0.062 A 
ATOM      3  C2  UNL d   1      -1.099  -2.224  -4.590  0.00  0.00     0.162 A 
ATOM      4  C3  UNL d   1      -0.032  -2.843  -5.241  0.00  0.00    -0.034 A 
ATOM      5  C4  UNL d   1       1.174  -2.153  -5.379  0.00  0.00     0.162 A 
ATOM      6  C5  UNL d   1       1.308  -0.865  -4.871  0.00  0.00     0.062 A 
ATOM      7  F   UNL d   1       2.470  -0.210  -5.008  0.00  0.00    -0.097 F 
ATOM      8  F1  UNL d   1       2.220  -2.719  -5.999  0.00  0.00    -0.096 F 
ATOM      9  I   UNL d   1      -0.235  -4.770  -6.000  0.00  0.00    -0.060 I 
ATOM     10  F2  UNL d   1      -2.272  -2.856  -4.441  0.00  0.00    -0.096 F 
ATOM     11  F3  UNL d   1      -1.991  -0.348  -3.460  0.00  0.00    -0.097 F 
ATOM     12  F4  UNL d   1       0.373   0.985  -3.737  0.00  0.00    -0.092 F 
ENDROOT
TORSDOF 0
ENDMDL
