MODEL 1
REMARK minimizedAffinity 29.2867241
REMARK minimizedRMSD -1
REMARK  0 active torsions:
REMARK  status: ('A' for Active; 'I' for Inactive)
ROOT
ATOM      1  C   UNL d   1      -1.610  -2.286  -2.055  0.00  0.00     0.124 A 
ATOM      2  C1  UNL d   1      -2.141  -3.565  -1.963  0.00  0.00     0.062 A 
ATOM      3  C2  UNL d   1      -2.197  -4.383  -3.087  0.00  0.00     0.162 A 
ATOM      4  C3  UNL d   1      -1.720  -3.924  -4.315  0.00  0.00    -0.034 A 
ATOM      5  C4  UNL d   1      -1.189  -2.636  -4.401  0.00  0.00     0.162 A 
ATOM      6  C5  UNL d   1      -1.135  -1.822  -3.274  0.00  0.00     0.062 A 
ATOM      7  F   UNL d   1      -0.622  -0.587  -3.365  0.00  0.00    -0.097 F 
ATOM      8  F1  UNL d   1      -0.721  -2.163  -5.566  0.00  0.00    -0.096 F 
ATOM      9  I   UNL d   1      -1.801  -5.144  -6.000  0.00  0.00    -0.060 I 
ATOM     10  F2  UNL d   1      -2.714  -5.614  -2.969  0.00  0.00    -0.096 F 
ATOM     11  F3  UNL d   1      -2.602  -4.015  -0.786  0.00  0.00    -0.097 F 
ATOM     12  F4  UNL d   1      -1.559  -1.500  -0.971  0.00  0.00    -0.092 F 
ENDROOT
TORSDOF 0
ENDMDL
