MODEL 1
REMARK minimizedAffinity 16.6875896
REMARK minimizedRMSD -1
REMARK  0 active torsions:
REMARK  status: ('A' for Active; 'I' for Inactive)
ROOT
ATOM      1  C   UNL d   1      -1.208  -1.890   3.194  0.00  0.00     0.124 A 
ATOM      2  C1  UNL d   1      -1.175  -0.679   2.517  0.00  0.00     0.062 A 
ATOM      3  C2  UNL d   1      -0.058   0.146   2.614  0.00  0.00     0.162 A 
ATOM      4  C3  UNL d   1       1.036  -0.238   3.390  0.00  0.00    -0.034 A 
ATOM      5  C4  UNL d   1       0.994  -1.458   4.068  0.00  0.00     0.162 A 
ATOM      6  C5  UNL d   1      -0.124  -2.278   3.968  0.00  0.00     0.062 A 
ATOM      7  F   UNL d   1      -0.155  -3.448   4.623  0.00  0.00    -0.097 F 
ATOM      8  F1  UNL d   1       2.029  -1.858   4.822  0.00  0.00    -0.096 F 
ATOM      9  I   UNL d   1       2.708   0.992   3.536  0.00  0.00    -0.060 I 
ATOM     10  F2  UNL d   1      -0.052   1.311   1.949  0.00  0.00    -0.096 F 
ATOM     11  F3  UNL d   1      -2.221  -0.301   1.769  0.00  0.00    -0.097 F 
ATOM     12  F4  UNL d   1      -2.285  -2.681   3.100  0.00  0.00    -0.092 F 
ENDROOT
TORSDOF 0
ENDMDL
