MODEL 1
REMARK minimizedAffinity 27.9048824
REMARK minimizedRMSD -1
REMARK  0 active torsions:
REMARK  status: ('A' for Active; 'I' for Inactive)
ROOT
ATOM      1  C   UNL d   1      -0.780  -0.053   1.963  0.00  0.00     0.124 A 
ATOM      2  C1  UNL d   1      -2.075  -0.382   1.588  0.00  0.00     0.062 A 
ATOM      3  C2  UNL d   1      -2.298  -1.210   0.492  0.00  0.00     0.162 A 
ATOM      4  C3  UNL d   1      -1.222  -1.717  -0.236  0.00  0.00    -0.034 A 
ATOM      5  C4  UNL d   1       0.078  -1.381   0.146  0.00  0.00     0.162 A 
ATOM      6  C5  UNL d   1       0.295  -0.552   1.242  0.00  0.00     0.062 A 
ATOM      7  F   UNL d   1       1.547  -0.235   1.603  0.00  0.00    -0.097 F 
ATOM      8  F1  UNL d   1       1.135  -1.851  -0.533  0.00  0.00    -0.096 F 
ATOM      9  I   UNL d   1      -1.550  -2.957  -1.876  0.00  0.00    -0.060 I 
ATOM     10  F2  UNL d   1      -3.560  -1.512   0.153  0.00  0.00    -0.096 F 
ATOM     11  F3  UNL d   1      -3.116   0.101   2.283  0.00  0.00    -0.097 F 
ATOM     12  F4  UNL d   1      -0.569   0.746   3.017  0.00  0.00    -0.092 F 
ENDROOT
TORSDOF 0
ENDMDL
