MODEL 1
REMARK minimizedAffinity 25.9175415
REMARK minimizedRMSD -1
REMARK  0 active torsions:
REMARK  status: ('A' for Active; 'I' for Inactive)
ROOT
ATOM      1  C   UNL d   1      -0.019  -1.877   3.652  0.00  0.00     0.124 A 
ATOM      2  C1  UNL d   1      -0.103  -0.705   2.913  0.00  0.00     0.062 A 
ATOM      3  C2  UNL d   1       0.907   0.249   2.997  0.00  0.00     0.162 A 
ATOM      4  C3  UNL d   1       2.011   0.034   3.823  0.00  0.00    -0.034 A 
ATOM      5  C4  UNL d   1       2.087  -1.147   4.564  0.00  0.00     0.162 A 
ATOM      6  C5  UNL d   1       1.075  -2.097   4.476  0.00  0.00     0.062 A 
ATOM      7  F   UNL d   1       1.157  -3.229   5.190  0.00  0.00    -0.097 F 
ATOM      8  F1  UNL d   1       3.134  -1.385   5.367  0.00  0.00    -0.096 F 
ATOM      9  I   UNL d   1       3.523   1.458   3.952  0.00  0.00    -0.060 I 
ATOM     10  F2  UNL d   1       0.800   1.372   2.272  0.00  0.00    -0.096 F 
ATOM     11  F3  UNL d   1      -1.160  -0.490   2.116  0.00  0.00    -0.097 F 
ATOM     12  F4  UNL d   1      -0.993  -2.793   3.569  0.00  0.00    -0.092 F 
ENDROOT
TORSDOF 0
ENDMDL
