MODEL 1
REMARK minimizedAffinity -2.45944166
REMARK minimizedRMSD -1
REMARK  0 active torsions:
REMARK  status: ('A' for Active; 'I' for Inactive)
ROOT
ATOM      1  C   UNL d   1       0.787  -2.897   1.172  0.00  0.00     0.077 C 
ATOM      2  C1  UNL d   1       0.651  -1.487   0.677  0.00  0.00    -0.074 A 
ATOM      3  C2  UNL d   1       1.720  -0.590   0.765  0.00  0.00    -0.005 A 
ATOM      4  C3  UNL d   1       1.583   0.716   0.292  0.00  0.00     0.006 A 
ATOM      5  C4  UNL d   1       0.377   1.136  -0.271  0.00  0.00    -0.005 A 
ATOM      6  C5  UNL d   1      -0.702   0.252  -0.368  0.00  0.00    -0.074 A 
ATOM      7  C6  UNL d   1      -2.002   0.684  -0.979  0.00  0.00     0.077 C 
ATOM      8  C7  UNL d   1      -0.554  -1.060   0.103  0.00  0.00    -0.001 A 
ENDROOT
TORSDOF 0
ENDMDL
