MODEL 1
REMARK minimizedAffinity -3.92204881
REMARK minimizedRMSD -1
REMARK  0 active torsions:
REMARK  status: ('A' for Active; 'I' for Inactive)
ROOT
ATOM      1  C   UNL d   1      -1.884   0.370  -3.469  0.00  0.00     0.077 C 
ATOM      2  C1  UNL d   1      -1.610   0.298  -1.997  0.00  0.00    -0.074 A 
ATOM      3  C2  UNL d   1      -2.635   0.018  -1.087  0.00  0.00    -0.005 A 
ATOM      4  C3  UNL d   1      -2.363  -0.054   0.279  0.00  0.00     0.006 A 
ATOM      5  C4  UNL d   1      -1.066   0.152   0.749  0.00  0.00    -0.005 A 
ATOM      6  C5  UNL d   1      -0.028   0.433  -0.146  0.00  0.00    -0.074 A 
ATOM      7  C6  UNL d   1       1.374   0.648   0.342  0.00  0.00     0.077 C 
ATOM      8  C7  UNL d   1      -0.308   0.497  -1.517  0.00  0.00    -0.001 A 
ENDROOT
TORSDOF 0
ENDMDL
