MODEL 1
REMARK minimizedAffinity -4.96826029
REMARK minimizedRMSD -1
REMARK  0 active torsions:
REMARK  status: ('A' for Active; 'I' for Inactive)
ROOT
ATOM      1  C   UNL d   1      -1.509   0.027  -0.719  0.00  0.00     0.077 C 
ATOM      2  C1  UNL d   1      -0.178   0.365  -0.115  0.00  0.00    -0.074 A 
ATOM      3  C2  UNL d   1       0.227   1.696   0.033  0.00  0.00    -0.005 A 
ATOM      4  C3  UNL d   1       1.463   1.996   0.605  0.00  0.00     0.006 A 
ATOM      5  C4  UNL d   1       2.305   0.970   1.035  0.00  0.00    -0.005 A 
ATOM      6  C5  UNL d   1       1.917  -0.366   0.897  0.00  0.00    -0.074 A 
ATOM      7  C6  UNL d   1       2.806  -1.481   1.363  0.00  0.00     0.077 C 
ATOM      8  C7  UNL d   1       0.670  -0.659   0.327  0.00  0.00    -0.001 A 
ENDROOT
TORSDOF 0
ENDMDL
