MODEL 1
REMARK minimizedAffinity -5.94706726
REMARK minimizedRMSD -1
REMARK  0 active torsions:
REMARK  status: ('A' for Active; 'I' for Inactive)
ROOT
ATOM      1  C   UNL d   1      -0.821   0.742   0.128  0.00  0.00     0.077 C 
ATOM      2  C1  UNL d   1       0.450   0.060   0.539  0.00  0.00    -0.074 A 
ATOM      3  C2  UNL d   1       1.679   0.724   0.464  0.00  0.00    -0.005 A 
ATOM      4  C3  UNL d   1       2.851   0.080   0.858  0.00  0.00     0.006 A 
ATOM      5  C4  UNL d   1       2.808  -1.232   1.331  0.00  0.00    -0.005 A 
ATOM      6  C5  UNL d   1       1.588  -1.911   1.414  0.00  0.00    -0.074 A 
ATOM      7  C6  UNL d   1       1.522  -3.318   1.930  0.00  0.00     0.077 C 
ATOM      8  C7  UNL d   1       0.413  -1.255   1.022  0.00  0.00    -0.001 A 
ENDROOT
TORSDOF 0
ENDMDL
