MODEL 1
REMARK minimizedAffinity -3.01508665
REMARK minimizedRMSD -1
REMARK  0 active torsions:
REMARK  status: ('A' for Active; 'I' for Inactive)
ROOT
ATOM      1  C   UNL d   1       1.375  -2.124   2.675  0.00  0.00     0.077 C 
ATOM      2  C1  UNL d   1       1.139  -0.954   1.766  0.00  0.00    -0.074 A 
ATOM      3  C2  UNL d   1       2.128   0.015   1.571  0.00  0.00    -0.005 A 
ATOM      4  C3  UNL d   1       1.898   1.092   0.715  0.00  0.00     0.006 A 
ATOM      5  C4  UNL d   1       0.679   1.211   0.046  0.00  0.00    -0.005 A 
ATOM      6  C5  UNL d   1      -0.321   0.251   0.228  0.00  0.00    -0.074 A 
ATOM      7  C6  UNL d   1      -1.633   0.357  -0.490  0.00  0.00     0.077 C 
ATOM      8  C7  UNL d   1      -0.080  -0.832   1.085  0.00  0.00    -0.001 A 
ENDROOT
TORSDOF 0
ENDMDL
