MODEL 1
REMARK minimizedAffinity -1.16152179
REMARK minimizedRMSD -1
REMARK  0 active torsions:
REMARK  status: ('A' for Active; 'I' for Inactive)
ROOT
ATOM      1  C   UNL d   1       2.069  -1.510   4.959  0.00  0.00     0.077 C 
ATOM      2  C1  UNL d   1       1.989  -0.512   3.843  0.00  0.00    -0.074 A 
ATOM      3  C2  UNL d   1       2.922   0.525   3.737  0.00  0.00    -0.005 A 
ATOM      4  C3  UNL d   1       2.840   1.441   2.688  0.00  0.00     0.006 A 
ATOM      5  C4  UNL d   1       1.826   1.330   1.736  0.00  0.00    -0.005 A 
ATOM      6  C5  UNL d   1       0.884   0.299   1.825  0.00  0.00    -0.074 A 
ATOM      7  C6  UNL d   1      -0.206   0.159   0.804  0.00  0.00     0.077 C 
ATOM      8  C7  UNL d   1       0.978  -0.621   2.878  0.00  0.00    -0.001 A 
ENDROOT
TORSDOF 0
ENDMDL
