MODEL 1
REMARK minimizedAffinity 0.606381416
REMARK minimizedRMSD -1
REMARK  0 active torsions:
REMARK  status: ('A' for Active; 'I' for Inactive)
ROOT
ATOM      1  C   UNL d   1       1.431  -1.827   4.051  0.00  0.00     0.077 C 
ATOM      2  C1  UNL d   1       1.307  -0.790   2.974  0.00  0.00    -0.074 A 
ATOM      3  C2  UNL d   1       2.223   0.262   2.881  0.00  0.00    -0.005 A 
ATOM      4  C3  UNL d   1       2.101   1.214   1.869  0.00  0.00     0.006 A 
ATOM      5  C4  UNL d   1       1.063   1.123   0.941  0.00  0.00    -0.005 A 
ATOM      6  C5  UNL d   1       0.137   0.078   1.018  0.00  0.00    -0.074 A 
ATOM      7  C6  UNL d   1      -0.979  -0.040   0.023  0.00  0.00     0.077 C 
ATOM      8  C7  UNL d   1       0.271  -0.879   2.034  0.00  0.00    -0.001 A 
ENDROOT
TORSDOF 0
ENDMDL
