MODEL 1
REMARK minimizedAffinity -1.11769843
REMARK minimizedRMSD -1
REMARK  0 active torsions:
REMARK  status: ('A' for Active; 'I' for Inactive)
ROOT
ATOM      1  C1  DEN d   1       4.480   0.158  -2.055  0.00  0.00     0.130 A 
ATOM      2  C2  DEN d   1       4.996   1.523  -2.012  0.00  0.00    -0.031 A 
ATOM      3  C3  DEN d   1       4.153   2.302  -1.083  0.00  0.00     0.027 A 
ATOM      4  C4  DEN d   1       2.111   1.529   0.290  0.00  0.00     0.027 A 
ATOM      5  C5  DEN d   1       1.289   0.461   0.574  0.00  0.00    -0.003 A 
ATOM      6  C6  DEN d   1       1.450  -0.763  -0.018  0.00  0.00     0.001 A 
ATOM      7  C7  DEN d   1       2.485  -0.963  -0.893  0.00  0.00     0.017 A 
ATOM      8  C8  DEN d   1       3.314   0.111  -1.190  0.00  0.00    -0.094 A 
ATOM      9  C9  DEN d   1       3.142   1.337  -0.571  0.00  0.00    -0.072 A 
ENDROOT
TORSDOF 0
ENDMDL
