MODEL 1
REMARK minimizedAffinity 6.26098633
REMARK minimizedRMSD -1
REMARK  0 active torsions:
REMARK  status: ('A' for Active; 'I' for Inactive)
ROOT
ATOM      1  C1  DEN d   1       2.904   1.144   0.362  0.00  0.00     0.130 A 
ATOM      2  C2  DEN d   1       2.160   0.558  -0.750  0.00  0.00    -0.031 A 
ATOM      3  C3  DEN d   1       2.861   0.908  -2.002  0.00  0.00     0.027 A 
ATOM      4  C4  DEN d   1       5.016   2.287  -2.325  0.00  0.00     0.027 A 
ATOM      5  C5  DEN d   1       5.999   3.003  -1.677  0.00  0.00    -0.003 A 
ATOM      6  C6  DEN d   1       6.000   3.176  -0.318  0.00  0.00     0.001 A 
ATOM      7  C7  DEN d   1       5.023   2.588   0.442  0.00  0.00     0.017 A 
ATOM      8  C8  DEN d   1       4.025   1.872  -0.205  0.00  0.00    -0.094 A 
ATOM      9  C9  DEN d   1       4.048   1.698  -1.579  0.00  0.00    -0.072 A 
ENDROOT
TORSDOF 0
ENDMDL
