MODEL 1
REMARK minimizedAffinity 4.87893438
REMARK minimizedRMSD -1
REMARK  0 active torsions:
REMARK  status: ('A' for Active; 'I' for Inactive)
ROOT
ATOM      1  C1  DEN d   1       3.634   1.691  -0.538  0.00  0.00     0.130 A 
ATOM      2  C2  DEN d   1       4.440   2.199  -1.645  0.00  0.00    -0.031 A 
ATOM      3  C3  DEN d   1       4.299   1.265  -2.779  0.00  0.00     0.027 A 
ATOM      4  C4  DEN d   1       2.914  -0.906  -2.932  0.00  0.00     0.027 A 
ATOM      5  C5  DEN d   1       2.074  -1.752  -2.242  0.00  0.00    -0.003 A 
ATOM      6  C6  DEN d   1       1.724  -1.529  -0.937  0.00  0.00     0.001 A 
ATOM      7  C7  DEN d   1       2.182  -0.410  -0.293  0.00  0.00     0.017 A 
ATOM      8  C8  DEN d   1       3.035   0.444  -0.979  0.00  0.00    -0.094 A 
ATOM      9  C9  DEN d   1       3.367   0.208  -2.302  0.00  0.00    -0.072 A 
ENDROOT
TORSDOF 0
ENDMDL
