MODEL 1
REMARK minimizedAffinity 1.33432591
REMARK minimizedRMSD -1
REMARK  0 active torsions:
REMARK  status: ('A' for Active; 'I' for Inactive)
ROOT
ATOM      1  C1  DEN d   1       4.204   1.069  -2.085  0.00  0.00     0.130 A 
ATOM      2  C2  DEN d   1       4.537   2.184  -1.202  0.00  0.00    -0.031 A 
ATOM      3  C3  DEN d   1       3.685   2.085   0.000  0.00  0.00     0.027 A 
ATOM      4  C4  DEN d   1       1.894   0.321   0.578  0.00  0.00     0.027 A 
ATOM      5  C5  DEN d   1       1.249  -0.811   0.133  0.00  0.00    -0.003 A 
ATOM      6  C6  DEN d   1       1.517  -1.372  -1.087  0.00  0.00     0.001 A 
ATOM      7  C7  DEN d   1       2.488  -0.827  -1.886  0.00  0.00     0.017 A 
ATOM      8  C8  DEN d   1       3.137   0.319  -1.447  0.00  0.00    -0.094 A 
ATOM      9  C9  DEN d   1       2.860   0.864  -0.205  0.00  0.00    -0.072 A 
ENDROOT
TORSDOF 0
ENDMDL
