MODEL 1
REMARK minimizedAffinity 1.25277889
REMARK minimizedRMSD -1
REMARK  0 active torsions:
REMARK  status: ('A' for Active; 'I' for Inactive)
ROOT
ATOM      1  C1  DEN d   1       3.205   1.558  -0.485  0.00  0.00     0.130 A 
ATOM      2  C2  DEN d   1       4.043   1.956  -1.613  0.00  0.00    -0.031 A 
ATOM      3  C3  DEN d   1       4.019   0.864  -2.607  0.00  0.00     0.027 A 
ATOM      4  C4  DEN d   1       2.769  -1.390  -2.512  0.00  0.00     0.027 A 
ATOM      5  C5  DEN d   1       1.940  -2.182  -1.749  0.00  0.00    -0.003 A 
ATOM      6  C6  DEN d   1       1.506  -1.801  -0.507  0.00  0.00     0.001 A 
ATOM      7  C7  DEN d   1       1.862  -0.576  -0.010  0.00  0.00     0.017 A 
ATOM      8  C8  DEN d   1       2.704   0.226  -0.770  0.00  0.00    -0.094 A 
ATOM      9  C9  DEN d   1       3.122  -0.172  -2.028  0.00  0.00    -0.072 A 
ENDROOT
TORSDOF 0
ENDMDL
