MODEL 1
REMARK minimizedAffinity 1.73320079
REMARK minimizedRMSD -1
REMARK  0 active torsions:
REMARK  status: ('A' for Active; 'I' for Inactive)
ROOT
ATOM      1  C1  DEN d   1       3.645   2.622  -0.504  0.00  0.00     0.130 A 
ATOM      2  C2  DEN d   1       4.985   2.093  -0.742  0.00  0.00    -0.031 A 
ATOM      3  C3  DEN d   1       4.879   0.628  -0.891  0.00  0.00     0.027 A 
ATOM      4  C4  DEN d   1       2.778  -0.865  -0.782  0.00  0.00     0.027 A 
ATOM      5  C5  DEN d   1       1.415  -0.872  -0.590  0.00  0.00    -0.003 A 
ATOM      6  C6  DEN d   1       0.709   0.272  -0.323  0.00  0.00     0.001 A 
ATOM      7  C7  DEN d   1       1.359   1.477  -0.287  0.00  0.00     0.017 A 
ATOM      8  C8  DEN d   1       2.735   1.491  -0.473  0.00  0.00    -0.094 A 
ATOM      9  C9  DEN d   1       3.428   0.326  -0.753  0.00  0.00    -0.072 A 
ENDROOT
TORSDOF 0
ENDMDL
