MODEL 1
REMARK minimizedAffinity 7.89823675
REMARK minimizedRMSD -1
REMARK  0 active torsions:
REMARK  status: ('A' for Active; 'I' for Inactive)
ROOT
ATOM      1  C1  DEN d   1       5.831   2.374  -0.631  0.00  0.00     0.130 A 
ATOM      2  C2  DEN d   1       5.727   3.757  -0.174  0.00  0.00    -0.031 A 
ATOM      3  C3  DEN d   1       4.311   4.025   0.150  0.00  0.00     0.027 A 
ATOM      4  C4  DEN d   1       2.282   2.440  -0.007  0.00  0.00     0.027 A 
ATOM      5  C5  DEN d   1       1.874   1.171  -0.353  0.00  0.00    -0.003 A 
ATOM      6  C6  DEN d   1       2.742   0.233  -0.844  0.00  0.00     0.001 A 
ATOM      7  C7  DEN d   1       4.073   0.535  -0.960  0.00  0.00     0.017 A 
ATOM      8  C8  DEN d   1       4.492   1.814  -0.620  0.00  0.00    -0.094 A 
ATOM      9  C9  DEN d   1       3.600   2.745  -0.114  0.00  0.00    -0.072 A 
ENDROOT
TORSDOF 0
ENDMDL
