MODEL 1
REMARK minimizedAffinity 6.13529825
REMARK minimizedRMSD -1
REMARK  0 active torsions:
REMARK  status: ('A' for Active; 'I' for Inactive)
ROOT
ATOM      1  C1  DEN d   1       1.956   0.379  -1.472  0.00  0.00     0.130 A 
ATOM      2  C2  DEN d   1       1.835  -0.633  -0.426  0.00  0.00    -0.031 A 
ATOM      3  C3  DEN d   1       3.105  -0.668   0.325  0.00  0.00     0.027 A 
ATOM      4  C4  DEN d   1       5.235   0.744  -0.023  0.00  0.00     0.027 A 
ATOM      5  C5  DEN d   1       5.818   1.726  -0.793  0.00  0.00    -0.003 A 
ATOM      6  C6  DEN d   1       5.172   2.299  -1.856  0.00  0.00     0.001 A 
ATOM      7  C7  DEN d   1       3.887   1.927  -2.151  0.00  0.00     0.017 A 
ATOM      8  C8  DEN d   1       3.295   0.932  -1.383  0.00  0.00    -0.094 A 
ATOM      9  C9  DEN d   1       3.961   0.373  -0.305  0.00  0.00    -0.072 A 
ENDROOT
TORSDOF 0
ENDMDL
