MODEL 1
REMARK minimizedAffinity 8.76507854
REMARK minimizedRMSD -1
REMARK  0 active torsions:
REMARK  status: ('A' for Active; 'I' for Inactive)
ROOT
ATOM      1  C1  DEN d   1       0.919  -1.414   2.290  0.00  0.00     0.130 A 
ATOM      2  C2  DEN d   1      -0.185  -1.934   3.092  0.00  0.00    -0.031 A 
ATOM      3  C3  DEN d   1      -1.272  -2.326   2.173  0.00  0.00     0.027 A 
ATOM      4  C4  DEN d   1      -1.352  -2.182  -0.401  0.00  0.00     0.027 A 
ATOM      5  C5  DEN d   1      -0.655  -1.798  -1.526  0.00  0.00    -0.003 A 
ATOM      6  C6  DEN d   1       0.590  -1.232  -1.456  0.00  0.00     0.001 A 
ATOM      7  C7  DEN d   1       1.197  -1.076  -0.238  0.00  0.00     0.017 A 
ATOM      8  C8  DEN d   1       0.499  -1.454   0.901  0.00  0.00    -0.094 A 
ATOM      9  C9  DEN d   1      -0.755  -2.035   0.808  0.00  0.00    -0.072 A 
ENDROOT
TORSDOF 0
ENDMDL
