MODEL 1
REMARK minimizedAffinity 6.45483685
REMARK minimizedRMSD -1
REMARK  0 active torsions:
REMARK  status: ('A' for Active; 'I' for Inactive)
ROOT
ATOM      1  C1  DEN d   1       5.625   1.114  -1.625  0.00  0.00     0.130 A 
ATOM      2  C2  DEN d   1       5.306   2.349  -0.913  0.00  0.00    -0.031 A 
ATOM      3  C3  DEN d   1       3.917   2.246  -0.421  0.00  0.00     0.027 A 
ATOM      4  C4  DEN d   1       2.241   0.304  -0.685  0.00  0.00     0.027 A 
ATOM      5  C5  DEN d   1       2.052  -0.951  -1.221  0.00  0.00    -0.003 A 
ATOM      6  C6  DEN d   1       3.021  -1.586  -1.952  0.00  0.00     0.001 A 
ATOM      7  C7  DEN d   1       4.240  -0.987  -2.129  0.00  0.00     0.017 A 
ATOM      8  C8  DEN d   1       4.436   0.282  -1.598  0.00  0.00    -0.094 A 
ATOM      9  C9  DEN d   1       3.448   0.902  -0.852  0.00  0.00    -0.072 A 
ENDROOT
TORSDOF 0
ENDMDL
