MODEL 1
REMARK minimizedAffinity 5.73419189
REMARK minimizedRMSD -1
REMARK  0 active torsions:
REMARK  status: ('A' for Active; 'I' for Inactive)
ROOT
ATOM      1  C1  DEN d   1       2.182  -1.822  -1.352  0.00  0.00     0.130 A 
ATOM      2  C2  DEN d   1       3.151  -1.592  -2.420  0.00  0.00    -0.031 A 
ATOM      3  C3  DEN d   1       3.539  -0.168  -2.386  0.00  0.00     0.027 A 
ATOM      4  C4  DEN d   1       2.740   1.693  -0.788  0.00  0.00     0.027 A 
ATOM      5  C5  DEN d   1       1.912   1.982   0.274  0.00  0.00    -0.003 A 
ATOM      6  C6  DEN d   1       1.098   1.038   0.843  0.00  0.00     0.001 A 
ATOM      7  C7  DEN d   1       1.127  -0.251   0.380  0.00  0.00     0.017 A 
ATOM      8  C8  DEN d   1       1.953  -0.548  -0.695  0.00  0.00    -0.094 A 
ATOM      9  C9  DEN d   1       2.778   0.417  -1.248  0.00  0.00    -0.072 A 
ENDROOT
TORSDOF 0
ENDMDL
