MODEL 1
REMARK minimizedAffinity 7.98013973
REMARK minimizedRMSD -1
REMARK  0 active torsions:
REMARK  status: ('A' for Active; 'I' for Inactive)
ROOT
ATOM      1  C1  DEN d   1       3.016   1.065   0.388  0.00  0.00     0.130 A 
ATOM      2  C2  DEN d   1       2.095   0.591  -0.641  0.00  0.00    -0.031 A 
ATOM      3  C3  DEN d   1       2.594   1.058  -1.950  0.00  0.00     0.027 A 
ATOM      4  C4  DEN d   1       4.694   2.458  -2.482  0.00  0.00     0.027 A 
ATOM      5  C5  DEN d   1       5.779   3.105  -1.934  0.00  0.00    -0.003 A 
ATOM      6  C6  DEN d   1       6.000   3.146  -0.583  0.00  0.00     0.001 A 
ATOM      7  C7  DEN d   1       5.146   2.490   0.264  0.00  0.00     0.017 A 
ATOM      8  C8  DEN d   1       4.045   1.842  -0.280  0.00  0.00    -0.094 A 
ATOM      9  C9  DEN d   1       3.847   1.801  -1.649  0.00  0.00    -0.072 A 
ENDROOT
TORSDOF 0
ENDMDL
