MODEL 1
REMARK minimizedAffinity 3.78831649
REMARK minimizedRMSD -1
REMARK  0 active torsions:
REMARK  status: ('A' for Active; 'I' for Inactive)
ROOT
ATOM      1  C1  DEN d   1       2.748  -1.617  -1.506  0.00  0.00     0.130 A 
ATOM      2  C2  DEN d   1       1.595  -1.969  -0.683  0.00  0.00    -0.031 A 
ATOM      3  C3  DEN d   1       1.132  -0.745   0.002  0.00  0.00     0.027 A 
ATOM      4  C4  DEN d   1       2.081   1.649  -0.136  0.00  0.00     0.027 A 
ATOM      5  C5  DEN d   1       3.063   2.436  -0.696  0.00  0.00    -0.003 A 
ATOM      6  C6  DEN d   1       4.021   1.926  -1.531  0.00  0.00     0.001 A 
ATOM      7  C7  DEN d   1       3.991   0.598  -1.867  0.00  0.00     0.017 A 
ATOM      8  C8  DEN d   1       3.009  -0.204  -1.301  0.00  0.00    -0.094 A 
ATOM      9  C9  DEN d   1       2.042   0.333  -0.468  0.00  0.00    -0.072 A 
ENDROOT
TORSDOF 0
ENDMDL
