MODEL 1
REMARK minimizedAffinity 13.9960346
REMARK minimizedRMSD -1
REMARK  0 active torsions:
REMARK  status: ('A' for Active; 'I' for Inactive)
ROOT
ATOM      1  C1  DEN d   1       2.740   1.578   0.490  0.00  0.00     0.130 A 
ATOM      2  C2  DEN d   1       1.900   1.253  -0.659  0.00  0.00    -0.031 A 
ATOM      3  C3  DEN d   1       2.585   1.733  -1.876  0.00  0.00     0.027 A 
ATOM      4  C4  DEN d   1       4.856   2.936  -2.091  0.00  0.00     0.027 A 
ATOM      5  C5  DEN d   1       5.930   3.440  -1.391  0.00  0.00    -0.003 A 
ATOM      6  C6  DEN d   1       6.000   3.389  -0.024  0.00  0.00     0.001 A 
ATOM      7  C7  DEN d   1       4.997   2.782   0.684  0.00  0.00     0.017 A 
ATOM      8  C8  DEN d   1       3.908   2.278  -0.014  0.00  0.00    -0.094 A 
ATOM      9  C9  DEN d   1       3.862   2.328  -1.397  0.00  0.00    -0.072 A 
ENDROOT
TORSDOF 0
ENDMDL
