MODEL 1
REMARK minimizedAffinity -4.22279739
REMARK minimizedRMSD -1
REMARK  0 active torsions:
REMARK  status: ('A' for Active; 'I' for Inactive)
ROOT
ATOM      1  C2' OXE d   1       3.029   0.414  -0.238  0.00  0.00     0.078 C 
ATOM      2  C1' OXE d   1       0.375   0.005  -1.054  0.00  0.00     0.078 C 
ATOM      3  C1  OXE d   1       0.729  -0.321   0.375  0.00  0.00    -0.078 A 
ATOM      4  C2  OXE d   1       2.040  -0.162   0.753  0.00  0.00    -0.078 A 
ATOM      5  C3  OXE d   1       2.410  -0.396   2.075  0.00  0.00     0.003 A 
ATOM      6  C4  OXE d   1       1.492  -0.938   2.982  0.00  0.00    -0.002 A 
ATOM      7  C5  OXE d   1       0.160  -1.145   2.607  0.00  0.00    -0.002 A 
ATOM      8  C6  OXE d   1      -0.246  -0.803   1.322  0.00  0.00     0.003 A 
ENDROOT
TORSDOF 0
ENDMDL
