MODEL 1
REMARK minimizedAffinity -3.58739066
REMARK minimizedRMSD -1
REMARK  0 active torsions:
REMARK  status: ('A' for Active; 'I' for Inactive)
ROOT
ATOM      1  C2' OXE d   1      -2.155  -0.851   0.412  0.00  0.00     0.078 C 
ATOM      2  C1' OXE d   1      -0.118   0.340  -1.109  0.00  0.00     0.078 C 
ATOM      3  C1  OXE d   1       0.234  -0.160   0.270  0.00  0.00    -0.078 A 
ATOM      4  C2  OXE d   1      -0.780  -0.699   1.025  0.00  0.00    -0.078 A 
ATOM      5  C3  OXE d   1      -0.498  -1.225   2.282  0.00  0.00     0.003 A 
ATOM      6  C4  OXE d   1       0.774  -1.072   2.846  0.00  0.00    -0.002 A 
ATOM      7  C5  OXE d   1       1.812  -0.491   2.110  0.00  0.00    -0.002 A 
ATOM      8  C6  OXE d   1       1.569  -0.069   0.807  0.00  0.00     0.003 A 
ENDROOT
TORSDOF 0
ENDMDL
