MODEL 1
REMARK minimizedAffinity -3.69023442
REMARK minimizedRMSD -1
REMARK  0 active torsions:
REMARK  status: ('A' for Active; 'I' for Inactive)
ROOT
ATOM      1  C2' OXE d   1       2.316  -0.431   0.789  0.00  0.00     0.078 C 
ATOM      2  C1' OXE d   1      -0.090   0.650  -0.173  0.00  0.00     0.078 C 
ATOM      3  C1  OXE d   1      -0.162  -0.285   1.009  0.00  0.00    -0.078 A 
ATOM      4  C2  OXE d   1       1.015  -0.846   1.443  0.00  0.00    -0.078 A 
ATOM      5  C3  OXE d   1       1.013  -1.672   2.564  0.00  0.00     0.003 A 
ATOM      6  C4  OXE d   1      -0.195  -2.058   3.157  0.00  0.00    -0.002 A 
ATOM      7  C5  OXE d   1      -1.409  -1.530   2.705  0.00  0.00    -0.002 A 
ATOM      8  C6  OXE d   1      -1.406  -0.611   1.661  0.00  0.00     0.003 A 
ENDROOT
TORSDOF 0
ENDMDL
