MODEL 1
REMARK minimizedAffinity 16.3839245
REMARK minimizedRMSD -1
REMARK  0 active torsions:
REMARK  status: ('A' for Active; 'I' for Inactive)
ROOT
ATOM      1  O1  BZF d   1       4.617   0.405   2.018  0.00  0.00    -0.204 OA
ATOM      2  C2  BZF d   1       5.898   0.895   2.182  0.00  0.00     0.174 A 
ATOM      3  C3  BZF d   1       5.870   2.184   2.576  0.00  0.00    -0.012 A 
ATOM      4  C3A BZF d   1       4.485   2.494   2.753  0.00  0.00    -0.107 A 
ATOM      5  C4  BZF d   1       3.817   3.617   3.151  0.00  0.00     0.055 A 
ATOM      6  C5  BZF d   1       2.458   3.613   3.148  0.00  0.00    -0.016 A 
ATOM      7  C6  BZF d   1       1.736   2.507   2.749  0.00  0.00     0.022 A 
ATOM      8  C7  BZF d   1       2.354   1.368   2.351  0.00  0.00     0.029 A 
ATOM      9  C7A BZF d   1       3.727   1.358   2.385  0.00  0.00     0.058 A 
ENDROOT
TORSDOF 0
ENDMDL
