MODEL 1
REMARK minimizedAffinity 8.8903265
REMARK minimizedRMSD -1
REMARK  0 active torsions:
REMARK  status: ('A' for Active; 'I' for Inactive)
ROOT
ATOM      1  O1  BZF d   1      -4.113  -1.514   1.549  0.00  0.00    -0.204 OA
ATOM      2  C2  BZF d   1      -3.151  -0.600   1.932  0.00  0.00     0.174 A 
ATOM      3  C3  BZF d   1      -3.029   0.380   1.013  0.00  0.00    -0.012 A 
ATOM      4  C3A BZF d   1      -4.039   0.108   0.037  0.00  0.00    -0.107 A 
ATOM      5  C4  BZF d   1      -4.427   0.735  -1.112  0.00  0.00     0.055 A 
ATOM      6  C5  BZF d   1      -5.399   0.172  -1.876  0.00  0.00    -0.016 A 
ATOM      7  C6  BZF d   1      -6.000  -1.020  -1.525  0.00  0.00     0.022 A 
ATOM      8  C7  BZF d   1      -5.651  -1.677  -0.392  0.00  0.00     0.029 A 
ATOM      9  C7A BZF d   1      -4.692  -1.093   0.400  0.00  0.00     0.058 A 
ENDROOT
TORSDOF 0
ENDMDL
