MODEL 1
REMARK minimizedAffinity 15.6662207
REMARK minimizedRMSD -1
REMARK  0 active torsions:
REMARK  status: ('A' for Active; 'I' for Inactive)
ROOT
ATOM      1  O1  BZF d   1      -4.957  -2.489   0.598  0.00  0.00    -0.204 OA
ATOM      2  C2  BZF d   1      -6.000  -2.156  -0.246  0.00  0.00     0.174 A 
ATOM      3  C3  BZF d   1      -5.949  -0.850  -0.577  0.00  0.00    -0.012 A 
ATOM      4  C3A BZF d   1      -4.750  -0.355   0.027  0.00  0.00    -0.107 A 
ATOM      5  C4  BZF d   1      -4.144   0.869   0.045  0.00  0.00     0.055 A 
ATOM      6  C5  BZF d   1      -3.019   1.038   0.789  0.00  0.00    -0.016 A 
ATOM      7  C6  BZF d   1      -2.478   0.009   1.532  0.00  0.00     0.022 A 
ATOM      8  C7  BZF d   1      -3.042  -1.224   1.542  0.00  0.00     0.029 A 
ATOM      9  C7A BZF d   1      -4.159  -1.407   0.764  0.00  0.00     0.058 A 
ENDROOT
TORSDOF 0
ENDMDL
