MODEL 1
REMARK minimizedAffinity 6.98296356
REMARK minimizedRMSD -1
REMARK  0 active torsions:
REMARK  status: ('A' for Active; 'I' for Inactive)
ROOT
ATOM      1  O1  BZF d   1      -4.375  -1.351   0.021  0.00  0.00    -0.204 OA
ATOM      2  C2  BZF d   1      -5.290  -0.913  -0.917  0.00  0.00     0.174 A 
ATOM      3  C3  BZF d   1      -4.678  -0.207  -1.889  0.00  0.00    -0.012 A 
ATOM      4  C3A BZF d   1      -3.282  -0.281  -1.586  0.00  0.00    -0.107 A 
ATOM      5  C4  BZF d   1      -2.162   0.211  -2.193  0.00  0.00     0.055 A 
ATOM      6  C5  BZF d   1      -0.953   0.023  -1.601  0.00  0.00    -0.016 A 
ATOM      7  C6  BZF d   1      -0.828  -0.646  -0.401  0.00  0.00     0.022 A 
ATOM      8  C7  BZF d   1      -1.910  -1.156   0.236  0.00  0.00     0.029 A 
ATOM      9  C7A BZF d   1      -3.129  -0.997  -0.376  0.00  0.00     0.058 A 
ENDROOT
TORSDOF 0
ENDMDL
