MODEL 1
REMARK minimizedAffinity 6.204422
REMARK minimizedRMSD -1
REMARK  0 active torsions:
REMARK  status: ('A' for Active; 'I' for Inactive)
ROOT
ATOM      1  O1  BZF d   1       0.061  -3.487   0.134  0.00  0.00    -0.204 OA
ATOM      2  C2  BZF d   1      -0.456  -3.359  -1.141  0.00  0.00     0.174 A 
ATOM      3  C3  BZF d   1       0.059  -2.277  -1.759  0.00  0.00    -0.012 A 
ATOM      4  C3A BZF d   1       1.022  -1.744  -0.846  0.00  0.00    -0.107 A 
ATOM      5  C4  BZF d   1       1.875  -0.678  -0.896  0.00  0.00     0.055 A 
ATOM      6  C5  BZF d   1       2.633  -0.387   0.193  0.00  0.00    -0.016 A 
ATOM      7  C6  BZF d   1       2.561  -1.136   1.350  0.00  0.00     0.022 A 
ATOM      8  C7  BZF d   1       1.734  -2.205   1.446  0.00  0.00     0.029 A 
ATOM      9  C7A BZF d   1       0.990  -2.522   0.335  0.00  0.00     0.058 A 
ENDROOT
TORSDOF 0
ENDMDL
