MODEL 1
REMARK minimizedAffinity -3.51791644
REMARK minimizedRMSD -1
REMARK  0 active torsions:
REMARK  status: ('A' for Active; 'I' for Inactive)
ROOT
ATOM      1  O1  BZF d   1      -0.456  -6.000   2.753  0.00  0.00    -0.204 OA
ATOM      2  C2  BZF d   1      -0.609  -5.040   3.735  0.00  0.00     0.174 A 
ATOM      3  C3  BZF d   1      -0.967  -3.857   3.196  0.00  0.00    -0.012 A 
ATOM      4  C3A BZF d   1      -1.133  -4.115   1.799  0.00  0.00    -0.107 A 
ATOM      5  C4  BZF d   1      -1.498  -3.337   0.737  0.00  0.00     0.055 A 
ATOM      6  C5  BZF d   1      -1.492  -3.876  -0.510  0.00  0.00    -0.016 A 
ATOM      7  C6  BZF d   1      -1.122  -5.186  -0.732  0.00  0.00     0.022 A 
ATOM      8  C7  BZF d   1      -0.758  -5.999   0.290  0.00  0.00     0.029 A 
ATOM      9  C7A BZF d   1      -0.794  -5.466   1.555  0.00  0.00     0.058 A 
ENDROOT
TORSDOF 0
ENDMDL
