MODEL 1
REMARK minimizedAffinity 6.72688246
REMARK minimizedRMSD -1
REMARK  0 active torsions:
REMARK  status: ('A' for Active; 'I' for Inactive)
ROOT
ATOM      1  O1  BZF d   1      -4.162   0.403   1.548  0.00  0.00    -0.204 OA
ATOM      2  C2  BZF d   1      -4.442   1.756   1.577  0.00  0.00     0.174 A 
ATOM      3  C3  BZF d   1      -5.121   2.128   0.472  0.00  0.00    -0.012 A 
ATOM      4  C3A BZF d   1      -5.356   0.915  -0.251  0.00  0.00    -0.107 A 
ATOM      5  C4  BZF d   1      -5.996   0.630  -1.423  0.00  0.00     0.055 A 
ATOM      6  C5  BZF d   1      -5.983  -0.646  -1.889  0.00  0.00    -0.016 A 
ATOM      7  C6  BZF d   1      -5.337  -1.660  -1.212  0.00  0.00     0.022 A 
ATOM      8  C7  BZF d   1      -4.693  -1.427  -0.043  0.00  0.00     0.029 A 
ATOM      9  C7A BZF d   1      -4.732  -0.144   0.448  0.00  0.00     0.058 A 
ENDROOT
TORSDOF 0
ENDMDL
