MODEL 1
REMARK minimizedAffinity 2.27572489
REMARK minimizedRMSD -1
REMARK  0 active torsions:
REMARK  status: ('A' for Active; 'I' for Inactive)
ROOT
ATOM      1  O1  BZF d   1       2.804  -3.598   5.891  0.00  0.00    -0.204 OA
ATOM      2  C2  BZF d   1       2.971  -4.969   5.905  0.00  0.00     0.174 A 
ATOM      3  C3  BZF d   1       1.781  -5.595   6.000  0.00  0.00    -0.012 A 
ATOM      4  C3A BZF d   1       0.802  -4.552   5.954  0.00  0.00    -0.107 A 
ATOM      5  C4  BZF d   1      -0.563  -4.543   5.990  0.00  0.00     0.055 A 
ATOM      6  C5  BZF d   1      -1.215  -3.350   6.000  0.00  0.00    -0.016 A 
ATOM      7  C6  BZF d   1      -0.535  -2.150   5.980  0.00  0.00     0.022 A 
ATOM      8  C7  BZF d   1       0.819  -2.109   5.939  0.00  0.00     0.029 A 
ATOM      9  C7A BZF d   1       1.480  -3.312   5.896  0.00  0.00     0.058 A 
ENDROOT
TORSDOF 0
ENDMDL
