MODEL 1
REMARK minimizedAffinity -0.396071553
REMARK minimizedRMSD -1
REMARK  0 active torsions:
REMARK  status: ('A' for Active; 'I' for Inactive)
ROOT
ATOM      1  O1  BZF d   1       2.974  -3.751   5.945  0.00  0.00    -0.204 OA
ATOM      2  C2  BZF d   1       2.980  -5.132   5.938  0.00  0.00     0.174 A 
ATOM      3  C3  BZF d   1       1.723  -5.617   6.000  0.00  0.00    -0.012 A 
ATOM      4  C3A BZF d   1       0.874  -4.466   5.955  0.00  0.00    -0.107 A 
ATOM      5  C4  BZF d   1      -0.482  -4.298   5.966  0.00  0.00     0.055 A 
ATOM      6  C5  BZF d   1      -0.991  -3.039   5.986  0.00  0.00    -0.016 A 
ATOM      7  C6  BZF d   1      -0.176  -1.926   6.000  0.00  0.00     0.022 A 
ATOM      8  C7  BZF d   1       1.174  -2.042   5.984  0.00  0.00     0.029 A 
ATOM      9  C7A BZF d   1       1.692  -3.313   5.931  0.00  0.00     0.058 A 
ENDROOT
TORSDOF 0
ENDMDL
