MODEL 1
REMARK minimizedAffinity -2.02056217
REMARK minimizedRMSD -1
REMARK  1 active torsions:
REMARK  status: ('A' for Active; 'I' for Inactive)
REMARK    1  A    between atoms: C1_2  and  C2_3 
ROOT
ATOM      1  C2  UNL d   1       0.622   0.092   0.287  0.00  0.00    -0.081 A 
ATOM      2  C3  UNL d   1       1.230  -0.929   1.028  0.00  0.00     0.006 A 
ATOM      3  C4  UNL d   1       0.487  -1.679   1.943  0.00  0.00     0.002 A 
ATOM      4  C5  UNL d   1      -0.876  -1.426   2.127  0.00  0.00    -0.080 A 
ATOM      5  C6  UNL d   1      -1.692  -2.243   3.084  0.00  0.00     0.076 C 
ATOM      6  C7  UNL d   1      -1.480  -0.394   1.399  0.00  0.00     0.002 A 
ATOM      7  C8  UNL d   1      -0.737   0.356   0.485  0.00  0.00     0.006 A 
ENDROOT
BRANCH   1   8
ATOM      8  C1  UNL d   1       1.405   0.859  -0.748  0.00  0.00     0.054 C 
ATOM      9  C   UNL d   1       0.986   0.472  -2.158  0.00  0.00     0.018 C 
ENDBRANCH   1   8
TORSDOF 1
ENDMDL
