MODEL 1
REMARK minimizedAffinity 0.337639242
REMARK minimizedRMSD -1
REMARK  1 active torsions:
REMARK  status: ('A' for Active; 'I' for Inactive)
REMARK    1  A    between atoms: C1_2  and  C2_3 
ROOT
ATOM      1  C2  UNL d   1       1.110   0.475   0.164  0.00  0.00    -0.081 A 
ATOM      2  C3  UNL d   1       0.540   1.216  -0.879  0.00  0.00     0.006 A 
ATOM      3  C4  UNL d   1      -0.640   0.788  -1.490  0.00  0.00     0.002 A 
ATOM      4  C5  UNL d   1      -1.275  -0.384  -1.064  0.00  0.00    -0.080 A 
ATOM      5  C6  UNL d   1      -2.560  -0.839  -1.691  0.00  0.00     0.076 C 
ATOM      6  C7  UNL d   1      -0.697  -1.134  -0.034  0.00  0.00     0.002 A 
ATOM      7  C8  UNL d   1       0.484  -0.707   0.577  0.00  0.00     0.006 A 
ENDROOT
BRANCH   1   8
ATOM      8  C1  UNL d   1       2.348   0.968   0.868  0.00  0.00     0.054 C 
ATOM      9  C   UNL d   1       2.721   2.371   0.413  0.00  0.00     0.018 C 
ENDBRANCH   1   8
TORSDOF 1
ENDMDL
