MODEL 1
REMARK minimizedAffinity -3.90532541
REMARK minimizedRMSD -1
REMARK  1 active torsions:
REMARK  status: ('A' for Active; 'I' for Inactive)
REMARK    1  A    between atoms: C1_2  and  C2_3 
ROOT
ATOM      1  C2  UNL d   1       1.271   1.669   0.012  0.00  0.00    -0.081 A 
ATOM      2  C3  UNL d   1       1.006   0.352   0.406  0.00  0.00     0.006 A 
ATOM      3  C4  UNL d   1      -0.143  -0.304  -0.042  0.00  0.00     0.002 A 
ATOM      4  C5  UNL d   1      -1.041   0.343  -0.899  0.00  0.00    -0.080 A 
ATOM      5  C6  UNL d   1      -2.262  -0.361  -1.412  0.00  0.00     0.076 C 
ATOM      6  C7  UNL d   1      -0.785   1.664  -1.279  0.00  0.00     0.002 A 
ATOM      7  C8  UNL d   1       0.363   2.321  -0.830  0.00  0.00     0.006 A 
ENDROOT
BRANCH   1   8
ATOM      8  C1  UNL d   1       2.541   2.357   0.442  0.00  0.00     0.054 C 
ATOM      9  C   UNL d   1       2.929   1.966   1.860  0.00  0.00     0.018 C 
ENDBRANCH   1   8
TORSDOF 1
ENDMDL
