MODEL 1
REMARK minimizedAffinity -3.53632903
REMARK minimizedRMSD -1
REMARK  1 active torsions:
REMARK  status: ('A' for Active; 'I' for Inactive)
REMARK    1  A    between atoms: C1_2  and  C2_3 
ROOT
ATOM      1  C2  UNL d   1       1.601   0.724   0.118  0.00  0.00    -0.081 A 
ATOM      2  C3  UNL d   1       1.023   0.932  -1.140  0.00  0.00     0.006 A 
ATOM      3  C4  UNL d   1      -0.182   0.311  -1.478  0.00  0.00     0.002 A 
ATOM      4  C5  UNL d   1      -0.833  -0.521  -0.560  0.00  0.00    -0.080 A 
ATOM      5  C6  UNL d   1      -2.142  -1.169  -0.899  0.00  0.00     0.076 C 
ATOM      6  C7  UNL d   1      -0.247  -0.742   0.691  0.00  0.00     0.002 A 
ATOM      7  C8  UNL d   1       0.958  -0.123   1.028  0.00  0.00     0.006 A 
ENDROOT
BRANCH   1   8
ATOM      8  C1  UNL d   1       2.867   1.443   0.509  0.00  0.00     0.054 C 
ATOM      9  C   UNL d   1       2.584   2.564   1.499  0.00  0.00     0.018 C 
ENDBRANCH   1   8
TORSDOF 1
ENDMDL
