MODEL 1
REMARK minimizedAffinity -1.23231041
REMARK minimizedRMSD -1
REMARK  1 active torsions:
REMARK  status: ('A' for Active; 'I' for Inactive)
REMARK    1  A    between atoms: C1_2  and  C2_3 
ROOT
ATOM      1  C2  UNL d   1      -0.854  -1.128  -0.145  0.00  0.00    -0.081 A 
ATOM      2  C3  UNL d   1      -1.837  -1.417  -1.100  0.00  0.00     0.006 A 
ATOM      3  C4  UNL d   1      -1.864  -0.732  -2.317  0.00  0.00     0.002 A 
ATOM      4  C5  UNL d   1      -0.907   0.248  -2.602  0.00  0.00    -0.080 A 
ATOM      5  C6  UNL d   1      -0.907   0.969  -3.917  0.00  0.00     0.076 C 
ATOM      6  C7  UNL d   1       0.064   0.548  -1.641  0.00  0.00     0.002 A 
ATOM      7  C8  UNL d   1       0.092  -0.136  -0.424  0.00  0.00     0.006 A 
ENDROOT
BRANCH   1   8
ATOM      8  C1  UNL d   1      -0.783  -1.911   1.142  0.00  0.00     0.054 C 
ATOM      9  C   UNL d   1       0.653  -2.049   1.626  0.00  0.00     0.018 C 
ENDBRANCH   1   8
TORSDOF 1
ENDMDL
