MODEL 1
REMARK minimizedAffinity -2.66012073
REMARK minimizedRMSD -1
REMARK  1 active torsions:
REMARK  status: ('A' for Active; 'I' for Inactive)
REMARK    1  A    between atoms: C1_2  and  C2_3 
ROOT
ATOM      1  C2  UNL d   1       1.068   0.162  -0.322  0.00  0.00    -0.081 A 
ATOM      2  C3  UNL d   1       0.434   0.222  -1.569  0.00  0.00     0.006 A 
ATOM      3  C4  UNL d   1      -0.941   0.002  -1.675  0.00  0.00     0.002 A 
ATOM      4  C5  UNL d   1      -1.706  -0.275  -0.537  0.00  0.00    -0.080 A 
ATOM      5  C6  UNL d   1      -3.188  -0.484  -0.633  0.00  0.00     0.076 C 
ATOM      6  C7  UNL d   1      -1.069  -0.353   0.707  0.00  0.00     0.002 A 
ATOM      7  C8  UNL d   1       0.306  -0.133   0.814  0.00  0.00     0.006 A 
ENDROOT
BRANCH   1   8
ATOM      8  C1  UNL d   1       2.540   0.463  -0.195  0.00  0.00     0.054 C 
ATOM      9  C   UNL d   1       2.786   1.953  -0.009  0.00  0.00     0.018 C 
ENDBRANCH   1   8
TORSDOF 1
ENDMDL
