MODEL 1
REMARK minimizedAffinity -1.43589878
REMARK minimizedRMSD -1
REMARK  1 active torsions:
REMARK  status: ('A' for Active; 'I' for Inactive)
REMARK    1  A    between atoms: C1_2  and  C2_3 
ROOT
ATOM      1  C2  UNL d   1       0.915   1.834   0.773  0.00  0.00    -0.081 A 
ATOM      2  C3  UNL d   1      -0.451   2.141   0.747  0.00  0.00     0.006 A 
ATOM      3  C4  UNL d   1      -1.308   1.486  -0.141  0.00  0.00     0.002 A 
ATOM      4  C5  UNL d   1      -0.815   0.508  -1.011  0.00  0.00    -0.080 A 
ATOM      5  C6  UNL d   1      -1.730  -0.224  -1.948  0.00  0.00     0.076 C 
ATOM      6  C7  UNL d   1       0.552   0.213  -0.998  0.00  0.00     0.002 A 
ATOM      7  C8  UNL d   1       1.409   0.868  -0.111  0.00  0.00     0.006 A 
ENDROOT
BRANCH   1   8
ATOM      8  C1  UNL d   1       1.830   2.492   1.773  0.00  0.00     0.054 C 
ATOM      9  C   UNL d   1       1.861   4.002   1.585  0.00  0.00     0.018 C 
ENDBRANCH   1   8
TORSDOF 1
ENDMDL
