MODEL 1
REMARK minimizedAffinity -1.29739213
REMARK minimizedRMSD -1
REMARK  1 active torsions:
REMARK  status: ('A' for Active; 'I' for Inactive)
REMARK    1  A    between atoms: C1_2  and  C2_3 
ROOT
ATOM      1  C2  UNL d   1       0.844  -0.065   0.212  0.00  0.00    -0.081 A 
ATOM      2  C3  UNL d   1       0.114  -1.178   0.648  0.00  0.00     0.006 A 
ATOM      3  C4  UNL d   1      -1.200  -1.375   0.219  0.00  0.00     0.002 A 
ATOM      4  C5  UNL d   1      -1.804  -0.468  -0.658  0.00  0.00    -0.080 A 
ATOM      5  C6  UNL d   1      -3.205  -0.685  -1.150  0.00  0.00     0.076 C 
ATOM      6  C7  UNL d   1      -1.082   0.653  -1.080  0.00  0.00     0.002 A 
ATOM      7  C8  UNL d   1       0.233   0.851  -0.651  0.00  0.00     0.006 A 
ENDROOT
BRANCH   1   8
ATOM      8  C1  UNL d   1       2.283   0.116   0.621  0.00  0.00     0.054 C 
ATOM      9  C   UNL d   1       2.656   1.590   0.697  0.00  0.00     0.018 C 
ENDBRANCH   1   8
TORSDOF 1
ENDMDL
