MODEL 1
REMARK minimizedAffinity -3.33101058
REMARK minimizedRMSD -1
REMARK  1 active torsions:
REMARK  status: ('A' for Active; 'I' for Inactive)
REMARK    1  A    between atoms: C1_2  and  C2_3 
ROOT
ATOM      1  C2  UNL d   1       1.670   1.365   0.456  0.00  0.00    -0.081 A 
ATOM      2  C3  UNL d   1       0.405   1.881   0.764  0.00  0.00     0.006 A 
ATOM      3  C4  UNL d   1      -0.749   1.266   0.274  0.00  0.00     0.002 A 
ATOM      4  C5  UNL d   1      -0.659   0.122  -0.526  0.00  0.00    -0.080 A 
ATOM      5  C6  UNL d   1      -1.891  -0.565  -1.034  0.00  0.00     0.076 C 
ATOM      6  C7  UNL d   1       0.605  -0.383  -0.849  0.00  0.00     0.002 A 
ATOM      7  C8  UNL d   1       1.760   0.232  -0.359  0.00  0.00     0.006 A 
ENDROOT
BRANCH   1   8
ATOM      8  C1  UNL d   1       2.914   1.988   1.037  0.00  0.00     0.054 C 
ATOM      9  C   UNL d   1       2.599   3.300   1.742  0.00  0.00     0.018 C 
ENDBRANCH   1   8
TORSDOF 1
ENDMDL
