MODEL 1
REMARK minimizedAffinity -1.12292683
REMARK minimizedRMSD -1
REMARK  1 active torsions:
REMARK  status: ('A' for Active; 'I' for Inactive)
REMARK    1  A    between atoms: C1_2  and  C2_3 
ROOT
ATOM      1  C2  UNL d   1      -1.091  -1.336   0.244  0.00  0.00    -0.081 A 
ATOM      2  C3  UNL d   1      -2.124  -1.558  -0.674  0.00  0.00     0.006 A 
ATOM      3  C4  UNL d   1      -2.271  -0.731  -1.790  0.00  0.00     0.002 A 
ATOM      4  C5  UNL d   1      -1.382   0.327  -2.011  0.00  0.00    -0.080 A 
ATOM      5  C6  UNL d   1      -1.510   1.203  -3.221  0.00  0.00     0.076 C 
ATOM      6  C7  UNL d   1      -0.360   0.560  -1.084  0.00  0.00     0.002 A 
ATOM      7  C8  UNL d   1      -0.213  -0.267   0.032  0.00  0.00     0.006 A 
ENDROOT
BRANCH   1   8
ATOM      8  C1  UNL d   1      -0.891  -2.265   1.414  0.00  0.00     0.054 C 
ATOM      9  C   UNL d   1      -1.632  -3.579   1.209  0.00  0.00     0.018 C 
ENDBRANCH   1   8
TORSDOF 1
ENDMDL
