MODEL 1
REMARK minimizedAffinity -4.39457035
REMARK minimizedRMSD -1
REMARK  1 active torsions:
REMARK  status: ('A' for Active; 'I' for Inactive)
REMARK    1  A    between atoms: C1_2  and  C2_3 
ROOT
ATOM      1  C2  UNL d   1       0.520  -0.121  -0.025  0.00  0.00    -0.081 A 
ATOM      2  C3  UNL d   1      -0.443   0.112  -1.014  0.00  0.00     0.006 A 
ATOM      3  C4  UNL d   1      -1.582  -0.691  -1.097  0.00  0.00     0.002 A 
ATOM      4  C5  UNL d   1      -1.782  -1.736  -0.188  0.00  0.00    -0.080 A 
ATOM      5  C6  UNL d   1      -3.016  -2.587  -0.247  0.00  0.00     0.076 C 
ATOM      6  C7  UNL d   1      -0.811  -1.980   0.790  0.00  0.00     0.002 A 
ATOM      7  C8  UNL d   1       0.329  -1.177   0.872  0.00  0.00     0.006 A 
ENDROOT
BRANCH   1   8
ATOM      8  C1  UNL d   1       1.718   0.784   0.107  0.00  0.00     0.054 C 
ATOM      9  C   UNL d   1       1.480   1.869   1.148  0.00  0.00     0.018 C 
ENDBRANCH   1   8
TORSDOF 1
ENDMDL
