MODEL 1
REMARK minimizedAffinity -2.48304582
REMARK minimizedRMSD -1
REMARK  1 active torsions:
REMARK  status: ('A' for Active; 'I' for Inactive)
REMARK    1  A    between atoms: C1_2  and  C2_3 
ROOT
ATOM      1  C2  UNL d   1       0.233   0.314  -0.647  0.00  0.00    -0.081 A 
ATOM      2  C3  UNL d   1       0.730  -0.440   0.423  0.00  0.00     0.006 A 
ATOM      3  C4  UNL d   1       1.555   0.151   1.383  0.00  0.00     0.002 A 
ATOM      4  C5  UNL d   1       1.889   1.507   1.294  0.00  0.00    -0.080 A 
ATOM      5  C6  UNL d   1       2.749   2.161   2.335  0.00  0.00     0.076 C 
ATOM      6  C7  UNL d   1       1.407   2.256   0.216  0.00  0.00     0.002 A 
ATOM      7  C8  UNL d   1       0.583   1.666  -0.745  0.00  0.00     0.006 A 
ENDROOT
BRANCH   1   8
ATOM      8  C1  UNL d   1      -0.709  -0.304  -1.649  0.00  0.00     0.054 C 
ATOM      9  C   UNL d   1      -1.927   0.579  -1.881  0.00  0.00     0.018 C 
ENDBRANCH   1   8
TORSDOF 1
ENDMDL
