MODEL 1
REMARK minimizedAffinity -3.42648935
REMARK minimizedRMSD -1
REMARK  1 active torsions:
REMARK  status: ('A' for Active; 'I' for Inactive)
REMARK    1  A    between atoms: C1_2  and  C2_3 
ROOT
ATOM      1  C2  UNL d   1       0.204  -0.355   0.089  0.00  0.00    -0.081 A 
ATOM      2  C3  UNL d   1       1.137   0.387  -0.645  0.00  0.00     0.006 A 
ATOM      3  C4  UNL d   1       0.828   0.840  -1.930  0.00  0.00     0.002 A 
ATOM      4  C5  UNL d   1      -0.421   0.566  -2.498  0.00  0.00    -0.080 A 
ATOM      5  C6  UNL d   1      -0.776   1.073  -3.864  0.00  0.00     0.076 C 
ATOM      6  C7  UNL d   1      -1.346  -0.190  -1.771  0.00  0.00     0.002 A 
ATOM      7  C8  UNL d   1      -1.038  -0.644  -0.487  0.00  0.00     0.006 A 
ENDROOT
BRANCH   1   8
ATOM      8  C1  UNL d   1       0.511  -0.790   1.500  0.00  0.00     0.054 C 
ATOM      9  C   UNL d   1       0.630   0.405   2.434  0.00  0.00     0.018 C 
ENDBRANCH   1   8
TORSDOF 1
ENDMDL
