MODEL 1
REMARK minimizedAffinity 2.2505765
REMARK minimizedRMSD -1
REMARK  2 active torsions:
REMARK  status: ('A' for Active; 'I' for Inactive)
REMARK    1  A    between atoms: C2'_3  and  C1'_4 
REMARK    2  A    between atoms: C1'_4  and  C1_5 
ROOT
ATOM      1  C1  I4B d   1       1.595  -2.491   3.588  0.00  0.00    -0.075 A 
ATOM      2  C2  I4B d   1       1.796  -2.192   2.264  0.00  0.00     0.003 A 
ATOM      3  C3  I4B d   1       1.915  -0.844   1.848  0.00  0.00     0.002 A 
ATOM      4  C4  I4B d   1       1.776   0.169   2.776  0.00  0.00    -0.004 A 
ATOM      5  C5  I4B d   1       1.595  -0.137   4.121  0.00  0.00     0.002 A 
ATOM      6  C6  I4B d   1       1.516  -1.476   4.533  0.00  0.00     0.003 A 
ENDROOT
BRANCH   1   7
ATOM      7  C1' I4B d   1       1.442  -3.924   3.988  0.00  0.00     0.060 C 
BRANCH   7   8
ATOM      8  C2' I4B d   1       1.406  -3.986   5.502  0.00  0.00    -0.013 C 
ATOM      9  C4' I4B d   1       0.668  -5.208   5.981  0.00  0.00     0.013 C 
ATOM     10  C3' I4B d   1       2.821  -3.978   5.999  0.00  0.00     0.013 C 
ENDBRANCH   7   8
ENDBRANCH   1   7
TORSDOF 2
ENDMDL
