MODEL 1
REMARK minimizedAffinity 4.88006639
REMARK minimizedRMSD -1
REMARK  2 active torsions:
REMARK  status: ('A' for Active; 'I' for Inactive)
REMARK    1  A    between atoms: C2'_3  and  C1'_4 
REMARK    2  A    between atoms: C1'_4  and  C1_5 
ROOT
ATOM      1  C1  I4B d   1       2.018  -2.237   3.092  0.00  0.00    -0.075 A 
ATOM      2  C2  I4B d   1       1.723  -3.522   2.709  0.00  0.00     0.003 A 
ATOM      3  C3  I4B d   1       2.318  -4.620   3.378  0.00  0.00     0.002 A 
ATOM      4  C4  I4B d   1       3.233  -4.388   4.384  0.00  0.00    -0.004 A 
ATOM      5  C5  I4B d   1       3.514  -3.085   4.786  0.00  0.00     0.002 A 
ATOM      6  C6  I4B d   1       2.893  -2.003   4.145  0.00  0.00     0.003 A 
ENDROOT
BRANCH   1   7
ATOM      7  C1' I4B d   1       1.398  -1.101   2.343  0.00  0.00     0.060 C 
BRANCH   7   8
ATOM      8  C2' I4B d   1       2.479  -0.447   1.507  0.00  0.00    -0.013 C 
ATOM      9  C4' I4B d   1       2.588  -1.094   0.152  0.00  0.00     0.013 C 
ATOM     10  C3' I4B d   1       2.153   1.012   1.387  0.00  0.00     0.013 C 
ENDBRANCH   7   8
ENDBRANCH   1   7
TORSDOF 2
ENDMDL
