MODEL 1
REMARK minimizedAffinity 12.2684059
REMARK minimizedRMSD -1
REMARK  2 active torsions:
REMARK  status: ('A' for Active; 'I' for Inactive)
REMARK    1  A    between atoms: C2'_3  and  C1'_4 
REMARK    2  A    between atoms: C1'_4  and  C1_5 
ROOT
ATOM      1  C1  I4B d   1       2.336  -1.906   2.877  0.00  0.00    -0.075 A 
ATOM      2  C2  I4B d   1       1.768  -3.122   2.585  0.00  0.00     0.003 A 
ATOM      3  C3  I4B d   1       2.284  -4.307   3.164  0.00  0.00     0.002 A 
ATOM      4  C4  I4B d   1       3.391  -4.236   3.984  0.00  0.00    -0.004 A 
ATOM      5  C5  I4B d   1       3.951  -3.001   4.298  0.00  0.00     0.002 A 
ATOM      6  C6  I4B d   1       3.413  -1.827   3.751  0.00  0.00     0.003 A 
ENDROOT
BRANCH   1   7
ATOM      7  C1' I4B d   1       1.787  -0.679   2.222  0.00  0.00     0.060 C 
BRANCH   7   8
ATOM      8  C2' I4B d   1       2.954   0.216   1.856  0.00  0.00    -0.013 C 
ATOM      9  C4' I4B d   1       3.427  -0.053   0.452  0.00  0.00     0.013 C 
ATOM     10  C3' I4B d   1       2.513   1.640   2.015  0.00  0.00     0.013 C 
ENDBRANCH   7   8
ENDBRANCH   1   7
TORSDOF 2
ENDMDL
