MODEL 1
REMARK minimizedAffinity 10.9496222
REMARK minimizedRMSD -1
REMARK  2 active torsions:
REMARK  status: ('A' for Active; 'I' for Inactive)
REMARK    1  A    between atoms: C2'_3  and  C1'_4 
REMARK    2  A    between atoms: C1'_4  and  C1_5 
ROOT
ATOM      1  C1  I4B d   1      -3.346   2.311  -0.814  0.00  0.00    -0.075 A 
ATOM      2  C2  I4B d   1      -4.058   2.209  -1.983  0.00  0.00     0.003 A 
ATOM      3  C3  I4B d   1      -3.750   1.191  -2.918  0.00  0.00     0.002 A 
ATOM      4  C4  I4B d   1      -2.697   0.335  -2.669  0.00  0.00    -0.004 A 
ATOM      5  C5  I4B d   1      -1.991   0.427  -1.473  0.00  0.00     0.002 A 
ATOM      6  C6  I4B d   1      -2.325   1.413  -0.534  0.00  0.00     0.003 A 
ENDROOT
BRANCH   1   7
ATOM      7  C1' I4B d   1      -3.676   3.418   0.136  0.00  0.00     0.060 C 
BRANCH   7   8
ATOM      8  C2' I4B d   1      -5.154   3.331   0.458  0.00  0.00    -0.013 C 
ATOM      9  C4' I4B d   1      -5.397   3.457   1.939  0.00  0.00     0.013 C 
ATOM     10  C3' I4B d   1      -5.858   4.416  -0.300  0.00  0.00     0.013 C 
ENDBRANCH   7   8
ENDBRANCH   1   7
TORSDOF 2
ENDMDL
