MODEL 1
REMARK minimizedAffinity 10.7062616
REMARK minimizedRMSD -1
REMARK  2 active torsions:
REMARK  status: ('A' for Active; 'I' for Inactive)
REMARK    1  A    between atoms: C2'_3  and  C1'_4 
REMARK    2  A    between atoms: C1'_4  and  C1_5 
ROOT
ATOM      1  C1  I4B d   1       2.467  -2.560   3.413  0.00  0.00    -0.075 A 
ATOM      2  C2  I4B d   1       3.781  -2.381   3.767  0.00  0.00     0.003 A 
ATOM      3  C3  I4B d   1       4.535  -3.465   4.279  0.00  0.00     0.002 A 
ATOM      4  C4  I4B d   1       3.925  -4.688   4.467  0.00  0.00    -0.004 A 
ATOM      5  C5  I4B d   1       2.599  -4.873   4.086  0.00  0.00     0.002 A 
ATOM      6  C6  I4B d   1       1.868  -3.806   3.544  0.00  0.00     0.003 A 
ENDROOT
BRANCH   1   7
ATOM      7  C1' I4B d   1       1.691  -1.386   2.906  0.00  0.00     0.060 C 
BRANCH   7   8
ATOM      8  C2' I4B d   1       2.675  -0.279   2.586  0.00  0.00    -0.013 C 
ATOM      9  C4' I4B d   1       3.067  -0.302   1.132  0.00  0.00     0.013 C 
ATOM     10  C3' I4B d   1       2.038   1.028   2.954  0.00  0.00     0.013 C 
ENDBRANCH   7   8
ENDBRANCH   1   7
TORSDOF 2
ENDMDL
