MODEL 1
REMARK minimizedAffinity 9.0035038
REMARK minimizedRMSD -1
REMARK  2 active torsions:
REMARK  status: ('A' for Active; 'I' for Inactive)
REMARK    1  A    between atoms: C2'_3  and  C1'_4 
REMARK    2  A    between atoms: C1'_4  and  C1_5 
ROOT
ATOM      1  C1  I4B d   1       1.723  -4.919   3.698  0.00  0.00    -0.075 A 
ATOM      2  C2  I4B d   1       0.360  -4.872   3.548  0.00  0.00     0.003 A 
ATOM      3  C3  I4B d   1      -0.487  -5.380   4.562  0.00  0.00     0.002 A 
ATOM      4  C4  I4B d   1       0.068  -5.968   5.680  0.00  0.00    -0.004 A 
ATOM      5  C5  I4B d   1       1.450  -5.995   5.841  0.00  0.00     0.002 A 
ATOM      6  C6  I4B d   1       2.283  -5.457   4.850  0.00  0.00     0.003 A 
ENDROOT
BRANCH   1   7
ATOM      7  C1' I4B d   1       2.589  -4.404   2.593  0.00  0.00     0.060 C 
BRANCH   7   8
ATOM      8  C2' I4B d   1       3.007  -2.991   2.947  0.00  0.00    -0.013 C 
ATOM      9  C4' I4B d   1       1.809  -2.092   3.105  0.00  0.00     0.013 C 
ATOM     10  C3' I4B d   1       3.810  -3.050   4.213  0.00  0.00     0.013 C 
ENDBRANCH   7   8
ENDBRANCH   1   7
TORSDOF 2
ENDMDL
