MODEL 1
REMARK minimizedAffinity 9.35183907
REMARK minimizedRMSD -1
REMARK  2 active torsions:
REMARK  status: ('A' for Active; 'I' for Inactive)
REMARK    1  A    between atoms: C2'_3  and  C1'_4 
REMARK    2  A    between atoms: C1'_4  and  C1_5 
ROOT
ATOM      1  C1  I4B d   1       4.467  -5.835  -3.476  0.00  0.00    -0.075 A 
ATOM      2  C2  I4B d   1       5.120  -5.759  -4.681  0.00  0.00     0.003 A 
ATOM      3  C3  I4B d   1       4.387  -5.789  -5.892  0.00  0.00     0.002 A 
ATOM      4  C4  I4B d   1       3.016  -5.946  -5.853  0.00  0.00    -0.004 A 
ATOM      5  C5  I4B d   1       2.354  -6.000  -4.630  0.00  0.00     0.002 A 
ATOM      6  C6  I4B d   1       3.082  -5.931  -3.433  0.00  0.00     0.003 A 
ENDROOT
BRANCH   1   7
ATOM      7  C1' I4B d   1       5.275  -5.833  -2.217  0.00  0.00     0.060 C 
BRANCH   7   8
ATOM      8  C2' I4B d   1       4.511  -5.042  -1.174  0.00  0.00    -0.013 C 
ATOM      9  C4' I4B d   1       3.078  -5.495  -1.087  0.00  0.00     0.013 C 
ATOM     10  C3' I4B d   1       5.213  -5.212   0.141  0.00  0.00     0.013 C 
ENDBRANCH   7   8
ENDBRANCH   1   7
TORSDOF 2
ENDMDL
