MODEL 1
REMARK minimizedAffinity 9.12300301
REMARK minimizedRMSD -1
REMARK  2 active torsions:
REMARK  status: ('A' for Active; 'I' for Inactive)
REMARK    1  A    between atoms: C2'_3  and  C1'_4 
REMARK    2  A    between atoms: C1'_4  and  C1_5 
ROOT
ATOM      1  C1  I4B d   1       2.237   0.293   2.863  0.00  0.00    -0.075 A 
ATOM      2  C2  I4B d   1       2.619   0.120   1.555  0.00  0.00     0.003 A 
ATOM      3  C3  I4B d   1       3.150   1.207   0.818  0.00  0.00     0.002 A 
ATOM      4  C4  I4B d   1       3.234   2.451   1.408  0.00  0.00    -0.004 A 
ATOM      5  C5  I4B d   1       2.868   2.619   2.740  0.00  0.00     0.002 A 
ATOM      6  C6  I4B d   1       2.378   1.531   3.476  0.00  0.00     0.003 A 
ENDROOT
BRANCH   1   7
ATOM      7  C1' I4B d   1       1.650  -0.867   3.601  0.00  0.00     0.060 C 
BRANCH   7   8
ATOM      8  C2' I4B d   1       2.341  -2.126   3.118  0.00  0.00    -0.013 C 
ATOM      9  C4' I4B d   1       3.423  -2.556   4.073  0.00  0.00     0.013 C 
ATOM     10  C3' I4B d   1       1.300  -3.195   2.963  0.00  0.00     0.013 C 
ENDBRANCH   7   8
ENDBRANCH   1   7
TORSDOF 2
ENDMDL
