MODEL 1
REMARK minimizedAffinity 0.636178553
REMARK minimizedRMSD -1
REMARK  1 active torsions:
REMARK  status: ('A' for Active; 'I' for Inactive)
REMARK    1  A    between atoms: C1_2  and  C2_3 
ROOT
ATOM      1  C2  UNL d   1       3.034  -3.991  -0.146  0.00  0.00    -0.073 A 
ATOM      2  C3  UNL d   1       3.833  -2.843  -0.102  0.00  0.00    -0.002 A 
ATOM      3  C4  UNL d   1       3.277  -1.609   0.237  0.00  0.00     0.004 A 
ATOM      4  C5  UNL d   1       1.920  -1.511   0.543  0.00  0.00    -0.004 A 
ATOM      5  C6  UNL d   1       1.107  -2.648   0.516  0.00  0.00    -0.075 A 
ATOM      6  C7  UNL d   1      -0.356  -2.559   0.840  0.00  0.00     0.076 C 
ATOM      7  C8  UNL d   1       1.672  -3.884   0.171  0.00  0.00     0.001 A 
ENDROOT
BRANCH   1   8
ATOM      8  C1  UNL d   1       3.631  -5.327  -0.506  0.00  0.00     0.053 C 
ATOM      9  C   UNL d   1       4.802  -5.688   0.393  0.00  0.00     0.018 C 
ENDBRANCH   1   8
TORSDOF 1
ENDMDL
