MODEL 1
REMARK minimizedAffinity 9.11652279
REMARK minimizedRMSD -1
REMARK  1 active torsions:
REMARK  status: ('A' for Active; 'I' for Inactive)
REMARK    1  A    between atoms: C1_2  and  C2_3 
ROOT
ATOM      1  C2  UNL d   1       0.978  -3.087   0.346  0.00  0.00    -0.073 A 
ATOM      2  C3  UNL d   1      -0.357  -2.722   0.137  0.00  0.00    -0.002 A 
ATOM      3  C4  UNL d   1      -0.797  -1.439   0.464  0.00  0.00     0.004 A 
ATOM      4  C5  UNL d   1       0.094  -0.506   0.995  0.00  0.00    -0.004 A 
ATOM      5  C6  UNL d   1       1.434  -0.847   1.201  0.00  0.00    -0.075 A 
ATOM      6  C7  UNL d   1       2.404   0.144   1.774  0.00  0.00     0.076 C 
ATOM      7  C8  UNL d   1       1.867  -2.139   0.872  0.00  0.00     0.001 A 
ENDROOT
BRANCH   1   8
ATOM      8  C1  UNL d   1       1.458  -4.469  -0.011  0.00  0.00     0.053 C 
ATOM      9  C   UNL d   1       2.944  -4.644   0.259  0.00  0.00     0.018 C 
ENDBRANCH   1   8
TORSDOF 1
ENDMDL
