MODEL 1
REMARK minimizedAffinity 3.24932766
REMARK minimizedRMSD -1
REMARK  1 active torsions:
REMARK  status: ('A' for Active; 'I' for Inactive)
REMARK    1  A    between atoms: C1_2  and  C2_3 
ROOT
ATOM      1  C2  UNL d   1       0.594  -2.966   0.060  0.00  0.00    -0.073 A 
ATOM      2  C3  UNL d   1      -0.755  -2.602  -0.031  0.00  0.00    -0.002 A 
ATOM      3  C4  UNL d   1      -1.171  -1.334   0.376  0.00  0.00     0.004 A 
ATOM      4  C5  UNL d   1      -0.244  -0.416   0.870  0.00  0.00    -0.004 A 
ATOM      5  C6  UNL d   1       1.109  -0.757   0.956  0.00  0.00    -0.075 A 
ATOM      6  C7  UNL d   1       2.118   0.219   1.487  0.00  0.00     0.076 C 
ATOM      7  C8  UNL d   1       1.519  -2.033   0.549  0.00  0.00     0.001 A 
ENDROOT
BRANCH   1   8
ATOM      8  C1  UNL d   1       1.049  -4.333  -0.384  0.00  0.00     0.053 C 
ATOM      9  C   UNL d   1       2.517  -4.574  -0.070  0.00  0.00     0.018 C 
ENDBRANCH   1   8
TORSDOF 1
ENDMDL
