MODEL 1
REMARK minimizedAffinity -3.26768994
REMARK minimizedRMSD -1
REMARK  1 active torsions:
REMARK  status: ('A' for Active; 'I' for Inactive)
REMARK    1  A    between atoms: C1_2  and  C2_3 
ROOT
ATOM      1  C2  UNL d   1       2.110  -2.047   0.250  0.00  0.00    -0.073 A 
ATOM      2  C3  UNL d   1       1.927  -0.661   0.299  0.00  0.00    -0.002 A 
ATOM      3  C4  UNL d   1       0.655  -0.124   0.505  0.00  0.00     0.004 A 
ATOM      4  C5  UNL d   1      -0.443  -0.967   0.672  0.00  0.00    -0.004 A 
ATOM      5  C6  UNL d   1      -0.279  -2.356   0.639  0.00  0.00    -0.075 A 
ATOM      6  C7  UNL d   1      -1.451  -3.276   0.814  0.00  0.00     0.076 C 
ATOM      7  C8  UNL d   1       1.001  -2.887   0.428  0.00  0.00     0.001 A 
ENDROOT
BRANCH   1   8
ATOM      8  C1  UNL d   1       3.482  -2.631   0.033  0.00  0.00     0.053 C 
ATOM      9  C   UNL d   1       3.490  -4.143   0.189  0.00  0.00     0.018 C 
ENDBRANCH   1   8
TORSDOF 1
ENDMDL
