MODEL 1
REMARK minimizedAffinity -0.153201327
REMARK minimizedRMSD -1
REMARK  1 active torsions:
REMARK  status: ('A' for Active; 'I' for Inactive)
REMARK    1  A    between atoms: C1_2  and  C2_3 
ROOT
ATOM      1  C2  UNL d   1       0.608  -2.698   0.520  0.00  0.00    -0.073 A 
ATOM      2  C3  UNL d   1      -0.708  -2.227   0.448  0.00  0.00    -0.002 A 
ATOM      3  C4  UNL d   1      -0.996  -0.895   0.744  0.00  0.00     0.004 A 
ATOM      4  C5  UNL d   1       0.026  -0.019   1.108  0.00  0.00    -0.004 A 
ATOM      5  C6  UNL d   1       1.349  -0.468   1.174  0.00  0.00    -0.075 A 
ATOM      6  C7  UNL d   1       2.461   0.461   1.566  0.00  0.00     0.076 C 
ATOM      7  C8  UNL d   1       1.631  -1.808   0.877  0.00  0.00     0.001 A 
ENDROOT
BRANCH   1   8
ATOM      8  C1  UNL d   1       0.925  -4.135   0.194  0.00  0.00     0.053 C 
ATOM      9  C   UNL d   1       2.352  -4.503   0.570  0.00  0.00     0.018 C 
ENDBRANCH   1   8
TORSDOF 1
ENDMDL
