MODEL 1
REMARK minimizedAffinity -3.32888293
REMARK minimizedRMSD -1
REMARK  1 active torsions:
REMARK  status: ('A' for Active; 'I' for Inactive)
REMARK    1  A    between atoms: C1_2  and  C2_3 
ROOT
ATOM      1  C2  UNL d   1       2.124  -2.274  -0.020  0.00  0.00    -0.073 A 
ATOM      2  C3  UNL d   1       2.306  -0.930   0.325  0.00  0.00    -0.002 A 
ATOM      3  C4  UNL d   1       1.225  -0.159   0.754  0.00  0.00     0.004 A 
ATOM      4  C5  UNL d   1      -0.046  -0.724   0.849  0.00  0.00    -0.004 A 
ATOM      5  C6  UNL d   1      -0.247  -2.069   0.520  0.00  0.00    -0.075 A 
ATOM      6  C7  UNL d   1      -1.609  -2.691   0.615  0.00  0.00     0.076 C 
ATOM      7  C8  UNL d   1       0.843  -2.836   0.088  0.00  0.00     0.001 A 
ENDROOT
BRANCH   1   8
ATOM      8  C1  UNL d   1       3.289  -3.112  -0.477  0.00  0.00     0.053 C 
ATOM      9  C   UNL d   1       3.267  -4.503   0.137  0.00  0.00     0.018 C 
ENDBRANCH   1   8
TORSDOF 1
ENDMDL
