MODEL 1
REMARK minimizedAffinity 1.78350675
REMARK minimizedRMSD -1
REMARK  1 active torsions:
REMARK  status: ('A' for Active; 'I' for Inactive)
REMARK    1  A    between atoms: C1_2  and  C2_3 
ROOT
ATOM      1  C2  UNL d   1      -1.147  -1.179   1.065  0.00  0.00    -0.073 A 
ATOM      2  C3  UNL d   1      -0.542  -0.507   2.133  0.00  0.00    -0.002 A 
ATOM      3  C4  UNL d   1      -1.102   0.668   2.635  0.00  0.00     0.004 A 
ATOM      4  C5  UNL d   1      -2.275   1.180   2.081  0.00  0.00    -0.004 A 
ATOM      5  C6  UNL d   1      -2.901   0.516   1.021  0.00  0.00    -0.075 A 
ATOM      6  C7  UNL d   1      -4.162   1.054   0.411  0.00  0.00     0.076 C 
ATOM      7  C8  UNL d   1      -2.331  -0.662   0.520  0.00  0.00     0.001 A 
ENDROOT
BRANCH   1   8
ATOM      8  C1  UNL d   1      -0.549  -2.452   0.524  0.00  0.00     0.053 C 
ATOM      9  C   UNL d   1       0.967  -2.460   0.631  0.00  0.00     0.018 C 
ENDBRANCH   1   8
TORSDOF 1
ENDMDL
