MODEL 1
REMARK minimizedAffinity -2.8948853
REMARK minimizedRMSD -1
REMARK  1 active torsions:
REMARK  status: ('A' for Active; 'I' for Inactive)
REMARK    1  A    between atoms: C1_2  and  C2_3 
ROOT
ATOM      1  C2  UNL d   1       1.455  -2.444   0.108  0.00  0.00    -0.073 A 
ATOM      2  C3  UNL d   1       2.305  -1.468   0.641  0.00  0.00    -0.002 A 
ATOM      3  C4  UNL d   1       1.776  -0.359   1.303  0.00  0.00     0.004 A 
ATOM      4  C5  UNL d   1       0.396  -0.219   1.445  0.00  0.00    -0.004 A 
ATOM      5  C6  UNL d   1      -0.469  -1.189   0.930  0.00  0.00    -0.075 A 
ATOM      6  C7  UNL d   1      -1.957  -1.052   1.072  0.00  0.00     0.076 C 
ATOM      7  C8  UNL d   1       0.069  -2.299   0.264  0.00  0.00     0.001 A 
ENDROOT
BRANCH   1   8
ATOM      8  C1  UNL d   1       2.021  -3.647  -0.602  0.00  0.00     0.053 C 
ATOM      9  C   UNL d   1       3.428  -3.979  -0.128  0.00  0.00     0.018 C 
ENDBRANCH   1   8
TORSDOF 1
ENDMDL
