MODEL 1
REMARK minimizedAffinity -2.39305425
REMARK minimizedRMSD -1
REMARK  1 active torsions:
REMARK  status: ('A' for Active; 'I' for Inactive)
REMARK    1  A    between atoms: C1_2  and  C2_3 
ROOT
ATOM      1  C2  UNL d   1      -0.131  -1.110   0.811  0.00  0.00    -0.073 A 
ATOM      2  C3  UNL d   1       0.818  -0.104   1.023  0.00  0.00    -0.002 A 
ATOM      3  C4  UNL d   1       2.181  -0.389   0.924  0.00  0.00     0.004 A 
ATOM      4  C5  UNL d   1       2.607  -1.678   0.606  0.00  0.00    -0.004 A 
ATOM      5  C6  UNL d   1       1.674  -2.694   0.379  0.00  0.00    -0.075 A 
ATOM      6  C7  UNL d   1       2.116  -4.087   0.038  0.00  0.00     0.076 C 
ATOM      7  C8  UNL d   1       0.307  -2.401   0.483  0.00  0.00     0.001 A 
ENDROOT
BRANCH   1   8
ATOM      8  C1  UNL d   1      -1.604  -0.806   0.911  0.00  0.00     0.053 C 
ATOM      9  C   UNL d   1      -1.874   0.441   1.737  0.00  0.00     0.018 C 
ENDBRANCH   1   8
TORSDOF 1
ENDMDL
