MODEL 1
REMARK minimizedAffinity -4.21864414
REMARK minimizedRMSD -1
REMARK  0 active torsions:
REMARK  status: ('A' for Active; 'I' for Inactive)
ROOT
ATOM      1  C1  BNZ d   1       0.450  -0.189   1.352  0.00  0.00     0.000 A 
ATOM      2  C2  BNZ d   1       0.550  -0.585   0.044  0.00  0.00     0.000 A 
ATOM      3  C3  BNZ d   1      -0.094   0.103  -0.946  0.00  0.00     0.000 A 
ATOM      4  C4  BNZ d   1      -0.868   1.159  -0.624  0.00  0.00     0.000 A 
ATOM      5  C5  BNZ d   1      -0.987   1.564   0.690  0.00  0.00     0.000 A 
ATOM      6  C6  BNZ d   1      -0.306   0.893   1.680  0.00  0.00     0.000 A 
ENDROOT
TORSDOF 0
ENDMDL
