MODEL 1
REMARK minimizedAffinity 0.659743726
REMARK minimizedRMSD -1
REMARK  0 active torsions:
REMARK  status: ('A' for Active; 'I' for Inactive)
ROOT
ATOM      1  C1  BNZ d   1       0.565  -0.962   0.027  0.00  0.00     0.000 A 
ATOM      2  C2  BNZ d   1      -0.528  -1.349   0.754  0.00  0.00     0.000 A 
ATOM      3  C3  BNZ d   1      -0.846  -0.723   1.927  0.00  0.00     0.000 A 
ATOM      4  C4  BNZ d   1      -0.049   0.261   2.391  0.00  0.00     0.000 A 
ATOM      5  C5  BNZ d   1       1.062   0.657   1.673  0.00  0.00     0.000 A 
ATOM      6  C6  BNZ d   1       1.357   0.050   0.474  0.00  0.00     0.000 A 
ENDROOT
TORSDOF 0
ENDMDL
