MODEL 1
REMARK minimizedAffinity -3.05758715
REMARK minimizedRMSD -1
REMARK  0 active torsions:
REMARK  status: ('A' for Active; 'I' for Inactive)
ROOT
ATOM      1  C1  BNZ d   1       1.164   0.398   0.132  0.00  0.00     0.000 A 
ATOM      2  C2  BNZ d   1       0.524   0.865   1.250  0.00  0.00     0.000 A 
ATOM      3  C3  BNZ d   1      -0.549   0.199   1.771  0.00  0.00     0.000 A 
ATOM      4  C4  BNZ d   1      -1.006  -0.909   1.153  0.00  0.00     0.000 A 
ATOM      5  C5  BNZ d   1      -0.378  -1.387   0.020  0.00  0.00     0.000 A 
ATOM      6  C6  BNZ d   1       0.726  -0.735  -0.480  0.00  0.00     0.000 A 
ENDROOT
TORSDOF 0
ENDMDL
