MODEL 1
REMARK minimizedAffinity -1.5551548
REMARK minimizedRMSD -1
REMARK  0 active torsions:
REMARK  status: ('A' for Active; 'I' for Inactive)
ROOT
ATOM      1  C1  BNZ d   1       0.321  -0.151   0.124  0.00  0.00     0.000 A 
ATOM      2  C2  BNZ d   1       0.349   0.092   1.471  0.00  0.00     0.000 A 
ATOM      3  C3  BNZ d   1      -0.080   1.288   1.976  0.00  0.00     0.000 A 
ATOM      4  C4  BNZ d   1      -0.498   2.252   1.131  0.00  0.00     0.000 A 
ATOM      5  C5  BNZ d   1      -0.524   2.026  -0.230  0.00  0.00     0.000 A 
ATOM      6  C6  BNZ d   1      -0.128   0.807  -0.732  0.00  0.00     0.000 A 
ENDROOT
TORSDOF 0
ENDMDL
