MODEL 1
REMARK minimizedAffinity 2.85318613
REMARK minimizedRMSD -1
REMARK  0 active torsions:
REMARK  status: ('A' for Active; 'I' for Inactive)
ROOT
ATOM      1  C1  BNZ d   1       3.644  -5.793   1.373  0.00  0.00     0.000 A 
ATOM      2  C2  BNZ d   1       3.365  -5.784   0.033  0.00  0.00     0.000 A 
ATOM      3  C3  BNZ d   1       4.364  -5.906  -0.891  0.00  0.00     0.000 A 
ATOM      4  C4  BNZ d   1       5.644  -5.998  -0.476  0.00  0.00     0.000 A 
ATOM      5  C5  BNZ d   1       5.943  -6.000   0.872  0.00  0.00     0.000 A 
ATOM      6  C6  BNZ d   1       4.930  -5.915   1.801  0.00  0.00     0.000 A 
ENDROOT
TORSDOF 0
ENDMDL
