MODEL 1
REMARK minimizedAffinity -2.9955864
REMARK minimizedRMSD -1
REMARK  0 active torsions:
REMARK  status: ('A' for Active; 'I' for Inactive)
ROOT
ATOM      1  C1  BNZ d   1      -0.944  -1.251   1.006  0.00  0.00     0.000 A 
ATOM      2  C2  BNZ d   1      -0.537   0.056   1.047  0.00  0.00     0.000 A 
ATOM      3  C3  BNZ d   1       0.175   0.600   0.014  0.00  0.00     0.000 A 
ATOM      4  C4  BNZ d   1       0.512  -0.173  -1.038  0.00  0.00     0.000 A 
ATOM      5  C5  BNZ d   1       0.116  -1.494  -1.090  0.00  0.00     0.000 A 
ATOM      6  C6  BNZ d   1      -0.634  -2.028  -0.067  0.00  0.00     0.000 A 
ENDROOT
TORSDOF 0
ENDMDL
