MODEL 1
REMARK minimizedAffinity -2.46357346
REMARK minimizedRMSD -1
REMARK  0 active torsions:
REMARK  status: ('A' for Active; 'I' for Inactive)
ROOT
ATOM      1  C1  BNZ d   1      -0.093   0.976  -2.168  0.00  0.00     0.000 A 
ATOM      2  C2  BNZ d   1       0.740  -0.047  -1.799  0.00  0.00     0.000 A 
ATOM      3  C3  BNZ d   1       0.899  -0.380  -0.482  0.00  0.00     0.000 A 
ATOM      4  C4  BNZ d   1       0.257   0.334   0.464  0.00  0.00     0.000 A 
ATOM      5  C5  BNZ d   1      -0.580   1.374   0.109  0.00  0.00     0.000 A 
ATOM      6  C6  BNZ d   1      -0.767   1.681  -1.219  0.00  0.00     0.000 A 
ENDROOT
TORSDOF 0
ENDMDL
