MODEL 1
REMARK minimizedAffinity -1.74596155
REMARK minimizedRMSD -1
REMARK  0 active torsions:
REMARK  status: ('A' for Active; 'I' for Inactive)
ROOT
ATOM      1  C1  BNZ d   1       0.642  -1.021  -0.355  0.00  0.00     0.000 A 
ATOM      2  C2  BNZ d   1       0.729  -0.795   0.992  0.00  0.00     0.000 A 
ATOM      3  C3  BNZ d   1       0.421   0.429   1.518  0.00  0.00     0.000 A 
ATOM      4  C4  BNZ d   1       0.067   1.435   0.692  0.00  0.00     0.000 A 
ATOM      5  C5  BNZ d   1      -0.016   1.225  -0.670  0.00  0.00     0.000 A 
ATOM      6  C6  BNZ d   1       0.256  -0.019  -1.191  0.00  0.00     0.000 A 
ENDROOT
TORSDOF 0
ENDMDL
