MODEL 1
REMARK minimizedAffinity -4.87176657
REMARK minimizedRMSD -1
REMARK  0 active torsions:
REMARK  status: ('A' for Active; 'I' for Inactive)
ROOT
ATOM      1  C1  BNZ d   1      -0.034   0.293   0.392  0.00  0.00     0.000 A 
ATOM      2  C2  BNZ d   1      -1.039   1.064  -0.129  0.00  0.00     0.000 A 
ATOM      3  C3  BNZ d   1      -1.390   2.247   0.459  0.00  0.00     0.000 A 
ATOM      4  C4  BNZ d   1      -0.764   2.638   1.588  0.00  0.00     0.000 A 
ATOM      5  C5  BNZ d   1       0.245   1.867   2.131  0.00  0.00     0.000 A 
ATOM      6  C6  BNZ d   1       0.622   0.696   1.514  0.00  0.00     0.000 A 
ENDROOT
TORSDOF 0
ENDMDL
