MODEL 1
REMARK minimizedAffinity -5.11365938
REMARK minimizedRMSD -1
REMARK  0 active torsions:
REMARK  status: ('A' for Active; 'I' for Inactive)
ROOT
ATOM      1  C1  BNZ d   1       0.054   0.622   0.386  0.00  0.00     0.000 A 
ATOM      2  C2  BNZ d   1      -0.303   1.766  -0.276  0.00  0.00     0.000 A 
ATOM      3  C3  BNZ d   1      -0.818   2.835   0.402  0.00  0.00     0.000 A 
ATOM      4  C4  BNZ d   1      -1.013   2.744   1.734  0.00  0.00     0.000 A 
ATOM      5  C5  BNZ d   1      -0.667   1.594   2.414  0.00  0.00     0.000 A 
ATOM      6  C6  BNZ d   1      -0.112   0.534   1.734  0.00  0.00     0.000 A 
ENDROOT
TORSDOF 0
ENDMDL
