MODEL 1
REMARK minimizedAffinity -5.12446117
REMARK minimizedRMSD -1
REMARK  0 active torsions:
REMARK  status: ('A' for Active; 'I' for Inactive)
ROOT
ATOM      1  C1  BNZ d   1      -1.097   2.668  -0.256  0.00  0.00     0.000 A 
ATOM      2  C2  BNZ d   1      -0.522   1.581  -0.860  0.00  0.00     0.000 A 
ATOM      3  C3  BNZ d   1      -0.048   0.536  -0.116  0.00  0.00     0.000 A 
ATOM      4  C4  BNZ d   1      -0.113   0.597   1.229  0.00  0.00     0.000 A 
ATOM      5  C5  BNZ d   1      -0.681   1.690   1.853  0.00  0.00     0.000 A 
ATOM      6  C6  BNZ d   1      -1.193   2.722   1.101  0.00  0.00     0.000 A 
ENDROOT
TORSDOF 0
ENDMDL
