MODEL 1
REMARK minimizedAffinity -3.23392272
REMARK minimizedRMSD -1
REMARK  0 active torsions:
REMARK  status: ('A' for Active; 'I' for Inactive)
ROOT
ATOM      1  C1  BNZ d   1       1.561  -0.256   0.969  0.00  0.00     0.000 A 
ATOM      2  C2  BNZ d   1       1.433  -0.553  -0.362  0.00  0.00     0.000 A 
ATOM      3  C3  BNZ d   1       0.210  -0.519  -0.972  0.00  0.00     0.000 A 
ATOM      4  C4  BNZ d   1      -0.887  -0.228  -0.243  0.00  0.00     0.000 A 
ATOM      5  C5  BNZ d   1      -0.775   0.064   1.101  0.00  0.00     0.000 A 
ATOM      6  C6  BNZ d   1       0.462   0.067   1.704  0.00  0.00     0.000 A 
ENDROOT
TORSDOF 0
ENDMDL
