MODEL 1
REMARK minimizedAffinity 14.3015461
REMARK minimizedRMSD -1
REMARK  1 active torsions:
REMARK  status: ('A' for Active; 'I' for Inactive)
REMARK    1  A    between atoms: C1_2  and  C2_3 
ROOT
ATOM      1  C2  UNL d   1       4.858  -4.860   3.293  0.00  0.00    -0.073 A 
ATOM      2  C3  UNL d   1       4.521  -5.780   4.291  0.00  0.00    -0.002 A 
ATOM      3  C4  UNL d   1       4.670  -5.446   5.638  0.00  0.00     0.004 A 
ATOM      4  C5  UNL d   1       5.149  -4.187   6.000  0.00  0.00    -0.004 A 
ATOM      5  C6  UNL d   1       5.480  -3.249   5.017  0.00  0.00    -0.075 A 
ATOM      6  C7  UNL d   1       6.000  -1.892   5.389  0.00  0.00     0.076 C 
ATOM      7  C8  UNL d   1       5.331  -3.593   3.666  0.00  0.00     0.001 A 
ENDROOT
BRANCH   1   8
ATOM      8  C1  UNL d   1       4.693  -5.214   1.838  0.00  0.00     0.053 C 
ATOM      9  C   UNL d   1       5.186  -4.105   0.921  0.00  0.00     0.018 C 
ENDBRANCH   1   8
TORSDOF 1
ENDMDL
