MODEL 1
REMARK minimizedAffinity 8.9307909
REMARK minimizedRMSD -1
REMARK  1 active torsions:
REMARK  status: ('A' for Active; 'I' for Inactive)
REMARK    1  A    between atoms: C1_2  and  C2_3 
ROOT
ATOM      1  C2  UNL d   1       3.820  -2.748   2.799  0.00  0.00    -0.073 A 
ATOM      2  C3  UNL d   1       4.118  -3.514   1.666  0.00  0.00    -0.002 A 
ATOM      3  C4  UNL d   1       3.369  -3.368   0.498  0.00  0.00     0.004 A 
ATOM      4  C5  UNL d   1       2.319  -2.451   0.448  0.00  0.00    -0.004 A 
ATOM      5  C6  UNL d   1       2.013  -1.668   1.566  0.00  0.00    -0.075 A 
ATOM      6  C7  UNL d   1       0.885  -0.678   1.529  0.00  0.00     0.076 C 
ATOM      7  C8  UNL d   1       2.768  -1.822   2.736  0.00  0.00     0.001 A 
ENDROOT
BRANCH   1   8
ATOM      8  C1  UNL d   1       4.631  -2.898   4.060  0.00  0.00     0.053 C 
ATOM      9  C   UNL d   1       5.713  -1.836   4.171  0.00  0.00     0.018 C 
ENDBRANCH   1   8
TORSDOF 1
ENDMDL
