MODEL 1
REMARK minimizedAffinity 18.0783367
REMARK minimizedRMSD -1
REMARK  1 active torsions:
REMARK  status: ('A' for Active; 'I' for Inactive)
REMARK    1  A    between atoms: C1_2  and  C2_3 
ROOT
ATOM      1  C2  UNL d   1       3.382  -0.235   0.201  0.00  0.00    -0.073 A 
ATOM      2  C3  UNL d   1       4.674   0.156  -0.170  0.00  0.00    -0.002 A 
ATOM      3  C4  UNL d   1       5.127   1.446   0.108  0.00  0.00     0.004 A 
ATOM      4  C5  UNL d   1       4.297   2.355   0.764  0.00  0.00    -0.004 A 
ATOM      5  C6  UNL d   1       3.007   1.980   1.154  0.00  0.00    -0.075 A 
ATOM      6  C7  UNL d   1       2.102   2.947   1.858  0.00  0.00     0.076 C 
ATOM      7  C8  UNL d   1       2.559   0.683   0.868  0.00  0.00     0.001 A 
ENDROOT
BRANCH   1   8
ATOM      8  C1  UNL d   1       2.891  -1.629  -0.091  0.00  0.00     0.053 C 
ATOM      9  C   UNL d   1       1.494  -1.868   0.460  0.00  0.00     0.018 C 
ENDBRANCH   1   8
TORSDOF 1
ENDMDL
