MODEL 1
REMARK minimizedAffinity -0.422113538
REMARK minimizedRMSD -1
REMARK  1 active torsions:
REMARK  status: ('A' for Active; 'I' for Inactive)
REMARK    1  A    between atoms: C1_2  and  C2_3 
ROOT
ATOM      1  C2  UNL d   1       4.017  -4.069   2.466  0.00  0.00    -0.073 A 
ATOM      2  C3  UNL d   1       4.666  -4.544   1.320  0.00  0.00    -0.002 A 
ATOM      3  C4  UNL d   1       4.134  -4.295   0.054  0.00  0.00     0.004 A 
ATOM      4  C5  UNL d   1       2.954  -3.563  -0.080  0.00  0.00    -0.004 A 
ATOM      5  C6  UNL d   1       2.298  -3.070   1.052  0.00  0.00    -0.075 A 
ATOM      6  C7  UNL d   1       1.026  -2.283   0.925  0.00  0.00     0.076 C 
ATOM      7  C8  UNL d   1       2.836  -3.327   2.320  0.00  0.00     0.001 A 
ENDROOT
BRANCH   1   8
ATOM      8  C1  UNL d   1       4.590  -4.331   3.834  0.00  0.00     0.053 C 
ATOM      9  C   UNL d   1       4.892  -3.042   4.582  0.00  0.00     0.018 C 
ENDBRANCH   1   8
TORSDOF 1
ENDMDL
