MODEL 1
REMARK minimizedAffinity 11.1643152
REMARK minimizedRMSD -1
REMARK  1 active torsions:
REMARK  status: ('A' for Active; 'I' for Inactive)
REMARK    1  A    between atoms: C1_2  and  C2_3 
ROOT
ATOM      1  C2  UNL d   1       1.458   3.575  -5.611  0.00  0.00    -0.073 A 
ATOM      2  C3  UNL d   1       0.623   2.705  -4.901  0.00  0.00    -0.002 A 
ATOM      3  C4  UNL d   1       1.070   1.432  -4.546  0.00  0.00     0.004 A 
ATOM      4  C5  UNL d   1       2.357   1.018  -4.890  0.00  0.00    -0.004 A 
ATOM      5  C6  UNL d   1       3.211   1.878  -5.589  0.00  0.00    -0.075 A 
ATOM      6  C7  UNL d   1       4.597   1.448  -5.969  0.00  0.00     0.076 C 
ATOM      7  C8  UNL d   1       2.753   3.154  -5.945  0.00  0.00     0.001 A 
ENDROOT
BRANCH   1   8
ATOM      8  C1  UNL d   1       0.982   4.953  -5.992  0.00  0.00     0.053 C 
ATOM      9  C   UNL d   1       2.112   5.969  -5.984  0.00  0.00     0.018 C 
ENDBRANCH   1   8
TORSDOF 1
ENDMDL
