MODEL 1
REMARK minimizedAffinity 4.60236788
REMARK minimizedRMSD -1
REMARK  1 active torsions:
REMARK  status: ('A' for Active; 'I' for Inactive)
REMARK    1  A    between atoms: C1_2  and  C2_3 
ROOT
ATOM      1  C2  UNL d   1      -4.021   3.015  -3.391  0.00  0.00    -0.073 A 
ATOM      2  C3  UNL d   1      -4.539   3.987  -4.255  0.00  0.00    -0.002 A 
ATOM      3  C4  UNL d   1      -5.518   3.649  -5.190  0.00  0.00     0.004 A 
ATOM      4  C5  UNL d   1      -5.995   2.341  -5.266  0.00  0.00    -0.004 A 
ATOM      5  C6  UNL d   1      -5.499   1.358  -4.403  0.00  0.00    -0.075 A 
ATOM      6  C7  UNL d   1      -6.000  -0.055  -4.473  0.00  0.00     0.076 C 
ATOM      7  C8  UNL d   1      -4.514   1.704  -3.468  0.00  0.00     0.001 A 
ENDROOT
BRANCH   1   8
ATOM      8  C1  UNL d   1      -2.968   3.376  -2.375  0.00  0.00     0.053 C 
ATOM      9  C   UNL d   1      -1.570   3.352  -2.971  0.00  0.00     0.018 C 
ENDBRANCH   1   8
TORSDOF 1
ENDMDL
