MODEL 1
REMARK minimizedAffinity 10.2688627
REMARK minimizedRMSD -1
REMARK  1 active torsions:
REMARK  status: ('A' for Active; 'I' for Inactive)
REMARK    1  A    between atoms: C1_2  and  C2_3 
ROOT
ATOM      1  C2  UNL d   1       4.913  -2.624   0.703  0.00  0.00    -0.073 A 
ATOM      2  C3  UNL d   1       5.250  -3.717   1.511  0.00  0.00    -0.002 A 
ATOM      3  C4  UNL d   1       4.254  -4.446   2.162  0.00  0.00     0.004 A 
ATOM      4  C5  UNL d   1       2.913  -4.096   2.007  0.00  0.00    -0.004 A 
ATOM      5  C6  UNL d   1       2.555  -3.015   1.195  0.00  0.00    -0.075 A 
ATOM      6  C7  UNL d   1       1.117  -2.624   1.020  0.00  0.00     0.076 C 
ATOM      7  C8  UNL d   1       3.561  -2.286   0.547  0.00  0.00     0.001 A 
ENDROOT
BRANCH   1   8
ATOM      8  C1  UNL d   1       5.984  -1.838  -0.007  0.00  0.00     0.053 C 
ATOM      9  C   UNL d   1       6.000  -0.379   0.423  0.00  0.00     0.018 C 
ENDBRANCH   1   8
TORSDOF 1
ENDMDL
