MODEL 1
REMARK minimizedAffinity -1.63684213
REMARK minimizedRMSD -1
REMARK  2 active torsions:
REMARK  status: ('A' for Active; 'I' for Inactive)
REMARK    1  A    between atoms: C2'_3  and  C1'_4 
REMARK    2  A    between atoms: C1'_4  and  C1_5 
ROOT
ATOM      1  C1  I4B d   1       0.232   0.644  -0.220  0.00  0.00    -0.075 A 
ATOM      2  C2  I4B d   1       0.405   0.276  -1.531  0.00  0.00     0.003 A 
ATOM      3  C3  I4B d   1       0.802  -1.044  -1.854  0.00  0.00     0.002 A 
ATOM      4  C4  I4B d   1       1.062  -1.943  -0.840  0.00  0.00    -0.004 A 
ATOM      5  C5  I4B d   1       0.864  -1.575   0.488  0.00  0.00     0.002 A 
ATOM      6  C6  I4B d   1       0.435  -0.277   0.800  0.00  0.00     0.003 A 
ENDROOT
BRANCH   1   7
ATOM      7  C1' I4B d   1      -0.156   2.056   0.087  0.00  0.00     0.060 C 
BRANCH   7   8
ATOM      8  C2' I4B d   1       0.928   2.659   0.957  0.00  0.00    -0.013 C 
ATOM      9  C4' I4B d   1       2.215   2.820   0.191  0.00  0.00     0.013 C 
ATOM     10  C3' I4B d   1       0.432   3.980   1.466  0.00  0.00     0.013 C 
ENDBRANCH   7   8
ENDBRANCH   1   7
TORSDOF 2
ENDMDL
