MODEL 1
REMARK minimizedAffinity -1.20466375
REMARK minimizedRMSD -1
REMARK  2 active torsions:
REMARK  status: ('A' for Active; 'I' for Inactive)
REMARK    1  A    between atoms: C2'_3  and  C1'_4 
REMARK    2  A    between atoms: C1'_4  and  C1_5 
ROOT
ATOM      1  C1  I4B d   1      -1.147  -0.811   1.261  0.00  0.00    -0.075 A 
ATOM      2  C2  I4B d   1       0.083  -0.560   0.705  0.00  0.00     0.003 A 
ATOM      3  C3  I4B d   1       0.420   0.749   0.282  0.00  0.00     0.002 A 
ATOM      4  C4  I4B d   1      -0.514   1.759   0.388  0.00  0.00    -0.004 A 
ATOM      5  C5  I4B d   1      -1.751   1.508   0.974  0.00  0.00     0.002 A 
ATOM      6  C6  I4B d   1      -2.066   0.217   1.425  0.00  0.00     0.003 A 
ENDROOT
BRANCH   1   7
ATOM      7  C1' I4B d   1      -1.482  -2.212   1.666  0.00  0.00     0.060 C 
BRANCH   7   8
ATOM      8  C2' I4B d   1      -1.698  -3.023   0.405  0.00  0.00    -0.013 C 
ATOM      9  C4' I4B d   1      -0.745  -4.186   0.334  0.00  0.00     0.013 C 
ATOM     10  C3' I4B d   1      -3.124  -3.489   0.393  0.00  0.00     0.013 C 
ENDBRANCH   7   8
ENDBRANCH   1   7
TORSDOF 2
ENDMDL
