MODEL 1
REMARK minimizedAffinity -3.18095541
REMARK minimizedRMSD -1
REMARK  2 active torsions:
REMARK  status: ('A' for Active; 'I' for Inactive)
REMARK    1  A    between atoms: C2'_3  and  C1'_4 
REMARK    2  A    between atoms: C1'_4  and  C1_5 
ROOT
ATOM      1  C1  I4B d   1       0.723   2.406   0.177  0.00  0.00    -0.075 A 
ATOM      2  C2  I4B d   1       2.060   2.135   0.025  0.00  0.00     0.003 A 
ATOM      3  C3  I4B d   1       3.031   2.983   0.610  0.00  0.00     0.002 A 
ATOM      4  C4  I4B d   1       2.625   4.112   1.292  0.00  0.00    -0.004 A 
ATOM      5  C5  I4B d   1       1.269   4.373   1.464  0.00  0.00     0.002 A 
ATOM      6  C6  I4B d   1       0.311   3.509   0.914  0.00  0.00     0.003 A 
ENDROOT
BRANCH   1   7
ATOM      7  C1' I4B d   1      -0.274   1.508  -0.483  0.00  0.00     0.060 C 
BRANCH   7   8
ATOM      8  C2' I4B d   1      -0.341   0.220   0.313  0.00  0.00    -0.013 C 
ATOM      9  C4' I4B d   1      -1.692   0.044   0.954  0.00  0.00     0.013 C 
ATOM     10  C3' I4B d   1      -0.030  -0.915  -0.615  0.00  0.00     0.013 C 
ENDBRANCH   7   8
ENDBRANCH   1   7
TORSDOF 2
ENDMDL
