MODEL 1
REMARK minimizedAffinity 1.78810632
REMARK minimizedRMSD -1
REMARK  2 active torsions:
REMARK  status: ('A' for Active; 'I' for Inactive)
REMARK    1  A    between atoms: C2'_3  and  C1'_4 
REMARK    2  A    between atoms: C1'_4  and  C1_5 
ROOT
ATOM      1  C1  I4B d   1      -0.951  -2.088   0.378  0.00  0.00    -0.075 A 
ATOM      2  C2  I4B d   1      -0.747  -0.784   0.754  0.00  0.00     0.003 A 
ATOM      3  C3  I4B d   1      -1.703  -0.116   1.557  0.00  0.00     0.002 A 
ATOM      4  C4  I4B d   1      -2.864  -0.769   1.916  0.00  0.00    -0.004 A 
ATOM      5  C5  I4B d   1      -3.059  -2.098   1.553  0.00  0.00     0.002 A 
ATOM      6  C6  I4B d   1      -2.091  -2.766   0.789  0.00  0.00     0.003 A 
ENDROOT
BRANCH   1   7
ATOM      7  C1' I4B d   1       0.063  -2.753  -0.498  0.00  0.00     0.060 C 
BRANCH   7   8
ATOM      8  C2' I4B d   1       1.091  -1.713  -0.894  0.00  0.00    -0.013 C 
ATOM      9  C4' I4B d   1       2.358  -1.865  -0.094  0.00  0.00     0.013 C 
ATOM     10  C3' I4B d   1       1.357  -1.861  -2.363  0.00  0.00     0.013 C 
ENDBRANCH   7   8
ENDBRANCH   1   7
TORSDOF 2
ENDMDL
