MODEL 1
REMARK minimizedAffinity -1.209952
REMARK minimizedRMSD -1
REMARK  2 active torsions:
REMARK  status: ('A' for Active; 'I' for Inactive)
REMARK    1  A    between atoms: C2'_3  and  C1'_4 
REMARK    2  A    between atoms: C1'_4  and  C1_5 
ROOT
ATOM      1  C1  I4B d   1      -0.462  -2.719  -0.668  0.00  0.00    -0.075 A 
ATOM      2  C2  I4B d   1      -0.248  -1.704  -1.567  0.00  0.00     0.003 A 
ATOM      3  C3  I4B d   1       0.966  -0.975  -1.542  0.00  0.00     0.002 A 
ATOM      4  C4  I4B d   1       1.909  -1.258  -0.576  0.00  0.00    -0.004 A 
ATOM      5  C5  I4B d   1       1.699  -2.302   0.320  0.00  0.00     0.002 A 
ATOM      6  C6  I4B d   1       0.512  -3.045   0.266  0.00  0.00     0.003 A 
ENDROOT
BRANCH   1   7
ATOM      7  C1' I4B d   1      -1.769  -3.447  -0.701  0.00  0.00     0.060 C 
BRANCH   7   8
ATOM      8  C2' I4B d   1      -2.598  -2.971   0.474  0.00  0.00    -0.013 C 
ATOM      9  C4' I4B d   1      -2.386  -1.503   0.733  0.00  0.00     0.013 C 
ATOM     10  C3' I4B d   1      -4.038  -3.266   0.175  0.00  0.00     0.013 C 
ENDBRANCH   7   8
ENDBRANCH   1   7
TORSDOF 2
ENDMDL
