MODEL 1
REMARK minimizedAffinity -5.54053831
REMARK minimizedRMSD -1
REMARK  2 active torsions:
REMARK  status: ('A' for Active; 'I' for Inactive)
REMARK    1  A    between atoms: C2'_3  and  C1'_4 
REMARK    2  A    between atoms: C1'_4  and  C1_5 
ROOT
ATOM      1  C1  I4B d   1      -0.553  -0.499   0.519  0.00  0.00    -0.075 A 
ATOM      2  C2  I4B d   1      -1.390  -1.270   1.287  0.00  0.00     0.003 A 
ATOM      3  C3  I4B d   1      -1.291  -2.682   1.250  0.00  0.00     0.002 A 
ATOM      4  C4  I4B d   1      -0.383  -3.278   0.399  0.00  0.00    -0.004 A 
ATOM      5  C5  I4B d   1       0.479  -2.494  -0.362  0.00  0.00     0.002 A 
ATOM      6  C6  I4B d   1       0.403  -1.096  -0.293  0.00  0.00     0.003 A 
ENDROOT
BRANCH   1   7
ATOM      7  C1' I4B d   1      -0.706   0.989   0.558  0.00  0.00     0.060 C 
BRANCH   7   8
ATOM      8  C2' I4B d   1       0.358   1.591  -0.337  0.00  0.00    -0.013 C 
ATOM      9  C4' I4B d   1      -0.244   2.149  -1.600  0.00  0.00     0.013 C 
ATOM     10  C3' I4B d   1       1.068   2.657   0.442  0.00  0.00     0.013 C 
ENDBRANCH   7   8
ENDBRANCH   1   7
TORSDOF 2
ENDMDL
