MODEL 1
REMARK minimizedAffinity -4.50833416
REMARK minimizedRMSD -1
REMARK  2 active torsions:
REMARK  status: ('A' for Active; 'I' for Inactive)
REMARK    1  A    between atoms: C2'_3  and  C1'_4 
REMARK    2  A    between atoms: C1'_4  and  C1_5 
ROOT
ATOM      1  C1  I4B d   1       0.292  -0.749   0.293  0.00  0.00    -0.075 A 
ATOM      2  C2  I4B d   1      -0.814  -1.033   1.054  0.00  0.00     0.003 A 
ATOM      3  C3  I4B d   1      -1.478  -2.276   0.910  0.00  0.00     0.002 A 
ATOM      4  C4  I4B d   1      -1.035  -3.177  -0.036  0.00  0.00    -0.004 A 
ATOM      5  C5  I4B d   1       0.100  -2.897  -0.791  0.00  0.00     0.002 A 
ATOM      6  C6  I4B d   1       0.776  -1.680  -0.617  0.00  0.00     0.003 A 
ENDROOT
BRANCH   1   7
ATOM      7  C1' I4B d   1       0.949   0.586   0.447  0.00  0.00     0.060 C 
BRANCH   7   8
ATOM      8  C2' I4B d   1      -0.038   1.646   0.003  0.00  0.00    -0.013 C 
ATOM      9  C4' I4B d   1       0.321   2.995   0.569  0.00  0.00     0.013 C 
ATOM     10  C3' I4B d   1      -0.046   1.672  -1.496  0.00  0.00     0.013 C 
ENDBRANCH   7   8
ENDBRANCH   1   7
TORSDOF 2
ENDMDL
