MODEL 1
REMARK minimizedAffinity -4.54517221
REMARK minimizedRMSD -1
REMARK  2 active torsions:
REMARK  status: ('A' for Active; 'I' for Inactive)
REMARK    1  A    between atoms: C2'_3  and  C1'_4 
REMARK    2  A    between atoms: C1'_4  and  C1_5 
ROOT
ATOM      1  C1  I4B d   1       0.318  -1.195  -0.151  0.00  0.00    -0.075 A 
ATOM      2  C2  I4B d   1      -0.283  -0.051   0.310  0.00  0.00     0.003 A 
ATOM      3  C3  I4B d   1      -0.586   1.005  -0.583  0.00  0.00     0.002 A 
ATOM      4  C4  I4B d   1      -0.227   0.896  -1.911  0.00  0.00    -0.004 A 
ATOM      5  C5  I4B d   1       0.362  -0.274  -2.381  0.00  0.00     0.002 A 
ATOM      6  C6  I4B d   1       0.625  -1.331  -1.499  0.00  0.00     0.003 A 
ENDROOT
BRANCH   1   7
ATOM      7  C1' I4B d   1       0.654  -2.277   0.826  0.00  0.00     0.060 C 
BRANCH   7   8
ATOM      8  C2' I4B d   1      -0.431  -3.332   0.745  0.00  0.00    -0.013 C 
ATOM      9  C4' I4B d   1      -1.788  -2.740   1.020  0.00  0.00     0.013 C 
ATOM     10  C3' I4B d   1      -0.376  -3.949  -0.621  0.00  0.00     0.013 C 
ENDBRANCH   7   8
ENDBRANCH   1   7
TORSDOF 2
ENDMDL
