MODEL 1
REMARK minimizedAffinity -3.70348787
REMARK minimizedRMSD -1
REMARK  2 active torsions:
REMARK  status: ('A' for Active; 'I' for Inactive)
REMARK    1  A    between atoms: C2'_3  and  C1'_4 
REMARK    2  A    between atoms: C1'_4  and  C1_5 
ROOT
ATOM      1  C1  I4B d   1      -0.413  -0.747   0.679  0.00  0.00    -0.075 A 
ATOM      2  C2  I4B d   1       0.818  -1.298   0.427  0.00  0.00     0.003 A 
ATOM      3  C3  I4B d   1       0.940  -2.687   0.182  0.00  0.00     0.002 A 
ATOM      4  C4  I4B d   1      -0.180  -3.490   0.249  0.00  0.00    -0.004 A 
ATOM      5  C5  I4B d   1      -1.431  -2.926   0.482  0.00  0.00     0.002 A 
ATOM      6  C6  I4B d   1      -1.551  -1.544   0.687  0.00  0.00     0.003 A 
ENDROOT
BRANCH   1   7
ATOM      7  C1' I4B d   1      -0.502   0.719   0.966  0.00  0.00     0.060 C 
BRANCH   7   8
ATOM      8  C2' I4B d   1       0.385   1.443  -0.026  0.00  0.00    -0.013 C 
ATOM      9  C4' I4B d   1      -0.192   1.387  -1.416  0.00  0.00     0.013 C 
ATOM     10  C3' I4B d   1       0.540   2.860   0.440  0.00  0.00     0.013 C 
ENDBRANCH   7   8
ENDBRANCH   1   7
TORSDOF 2
ENDMDL
