MODEL 1
REMARK minimizedAffinity -4.81695747
REMARK minimizedRMSD -1
REMARK  2 active torsions:
REMARK  status: ('A' for Active; 'I' for Inactive)
REMARK    1  A    between atoms: C2'_3  and  C1'_4 
REMARK    2  A    between atoms: C1'_4  and  C1_5 
ROOT
ATOM      1  C1  I4B d   1       0.197   0.249  -0.274  0.00  0.00    -0.075 A 
ATOM      2  C2  I4B d   1      -0.337   0.168   0.987  0.00  0.00     0.003 A 
ATOM      3  C3  I4B d   1      -0.762  -1.080   1.503  0.00  0.00     0.002 A 
ATOM      4  C4  I4B d   1      -0.681  -2.207   0.710  0.00  0.00    -0.004 A 
ATOM      5  C5  I4B d   1      -0.118  -2.127  -0.561  0.00  0.00     0.002 A 
ATOM      6  C6  I4B d   1       0.335  -0.894  -1.052  0.00  0.00     0.003 A 
ENDROOT
BRANCH   1   7
ATOM      7  C1' I4B d   1       0.605   1.588  -0.800  0.00  0.00     0.060 C 
BRANCH   7   8
ATOM      8  C2' I4B d   1       1.357   2.311   0.298  0.00  0.00    -0.013 C 
ATOM      9  C4' I4B d   1       2.786   2.574  -0.101  0.00  0.00     0.013 C 
ATOM     10  C3' I4B d   1       0.633   3.591   0.590  0.00  0.00     0.013 C 
ENDBRANCH   7   8
ENDBRANCH   1   7
TORSDOF 2
ENDMDL
