MODEL 1
REMARK minimizedAffinity 11.0218506
REMARK minimizedRMSD -1
REMARK  0 active torsions:
REMARK  status: ('A' for Active; 'I' for Inactive)
ROOT
ATOM      1  C2' OXE d   1       1.827  -4.306   0.433  0.00  0.00     0.078 C 
ATOM      2  C1' OXE d   1       3.098  -5.859  -1.530  0.00  0.00     0.078 C 
ATOM      3  C1  OXE d   1       1.913  -5.025  -1.950  0.00  0.00    -0.078 A 
ATOM      4  C2  OXE d   1       1.269  -4.305  -0.974  0.00  0.00    -0.078 A 
ATOM      5  C3  OXE d   1       0.204  -3.477  -1.317  0.00  0.00     0.003 A 
ATOM      6  C4  OXE d   1      -0.313  -3.489  -2.618  0.00  0.00    -0.002 A 
ATOM      7  C5  OXE d   1       0.304  -4.246  -3.620  0.00  0.00    -0.002 A 
ATOM      8  C6  OXE d   1       1.442  -4.985  -3.312  0.00  0.00     0.003 A 
ENDROOT
TORSDOF 0
ENDMDL
