MODEL 1
REMARK minimizedAffinity 5.47626162
REMARK minimizedRMSD -1
REMARK  0 active torsions:
REMARK  status: ('A' for Active; 'I' for Inactive)
ROOT
ATOM      1  C2' OXE d   1      -0.591  -4.424  -4.149  0.00  0.00     0.078 C 
ATOM      2  C1' OXE d   1       2.093  -4.061  -4.886  0.00  0.00     0.078 C 
ATOM      3  C1  OXE d   1       1.769  -4.112  -3.414  0.00  0.00    -0.078 A 
ATOM      4  C2  OXE d   1       0.447  -4.243  -3.062  0.00  0.00    -0.078 A 
ATOM      5  C3  OXE d   1       0.098  -4.350  -1.719  0.00  0.00     0.003 A 
ATOM      6  C4  OXE d   1       1.062  -4.172  -0.720  0.00  0.00    -0.002 A 
ATOM      7  C5  OXE d   1       2.409  -3.997  -1.056  0.00  0.00    -0.002 A 
ATOM      8  C6  OXE d   1       2.784  -4.008  -2.395  0.00  0.00     0.003 A 
ENDROOT
TORSDOF 0
ENDMDL
