MODEL 1
REMARK minimizedAffinity 13.8973665
REMARK minimizedRMSD -1
REMARK  0 active torsions:
REMARK  status: ('A' for Active; 'I' for Inactive)
ROOT
ATOM      1  C2' OXE d   1       2.248  -2.390   4.387  0.00  0.00     0.078 C 
ATOM      2  C1' OXE d   1       3.334  -0.750   2.384  0.00  0.00     0.078 C 
ATOM      3  C1  OXE d   1       2.040  -0.315   3.025  0.00  0.00    -0.078 A 
ATOM      4  C2  OXE d   1       1.491  -1.147   3.971  0.00  0.00    -0.078 A 
ATOM      5  C3  OXE d   1       0.327  -0.767   4.632  0.00  0.00     0.003 A 
ATOM      6  C4  OXE d   1      -0.372   0.379   4.235  0.00  0.00    -0.002 A 
ATOM      7  C5  OXE d   1       0.148   1.220   3.245  0.00  0.00    -0.002 A 
ATOM      8  C6  OXE d   1       1.372   0.911   2.662  0.00  0.00     0.003 A 
ENDROOT
TORSDOF 0
ENDMDL
