MODEL 1
REMARK minimizedAffinity 13.8243542
REMARK minimizedRMSD -1
REMARK  0 active torsions:
REMARK  status: ('A' for Active; 'I' for Inactive)
ROOT
ATOM      1  C2' OXE d   1       0.719  -2.605  -3.296  0.00  0.00     0.078 C 
ATOM      2  C1' OXE d   1       2.192  -0.544  -2.086  0.00  0.00     0.078 C 
ATOM      3  C1  OXE d   1       2.096  -1.862  -1.358  0.00  0.00    -0.078 A 
ATOM      4  C2  OXE d   1       1.335  -2.849  -1.936  0.00  0.00    -0.078 A 
ATOM      5  C3  OXE d   1       1.259  -4.102  -1.333  0.00  0.00     0.003 A 
ATOM      6  C4  OXE d   1       1.823  -4.317  -0.070  0.00  0.00    -0.002 A 
ATOM      7  C5  OXE d   1       2.569  -3.312   0.554  0.00  0.00    -0.002 A 
ATOM      8  C6  OXE d   1       2.751  -2.095  -0.094  0.00  0.00     0.003 A 
ENDROOT
TORSDOF 0
ENDMDL
