MODEL 1
REMARK minimizedAffinity 18.3666763
REMARK minimizedRMSD -1
REMARK  0 active torsions:
REMARK  status: ('A' for Active; 'I' for Inactive)
ROOT
ATOM      1  C2' OXE d   1      -3.732   4.292  -2.641  0.00  0.00     0.078 C 
ATOM      2  C1' OXE d   1      -5.164   1.925  -2.161  0.00  0.00     0.078 C 
ATOM      3  C1  OXE d   1      -4.520   2.096  -3.514  0.00  0.00    -0.078 A 
ATOM      4  C2  OXE d   1      -3.862   3.277  -3.757  0.00  0.00    -0.078 A 
ATOM      5  C3  OXE d   1      -3.204   3.463  -4.970  0.00  0.00     0.003 A 
ATOM      6  C4  OXE d   1      -3.337   2.524  -6.000  0.00  0.00    -0.002 A 
ATOM      7  C5  OXE d   1      -4.037   1.332  -5.787  0.00  0.00    -0.002 A 
ATOM      8  C6  OXE d   1      -4.597   1.084  -4.539  0.00  0.00     0.003 A 
ENDROOT
TORSDOF 0
ENDMDL
