MODEL 1
REMARK minimizedAffinity 11.7720547
REMARK minimizedRMSD -1
REMARK  0 active torsions:
REMARK  status: ('A' for Active; 'I' for Inactive)
ROOT
ATOM      1  C2' OXE d   1       2.323  -0.536   2.521  0.00  0.00     0.078 C 
ATOM      2  C1' OXE d   1       0.081   0.384   3.938  0.00  0.00     0.078 C 
ATOM      3  C1  OXE d   1       0.770  -0.859   4.442  0.00  0.00    -0.078 A 
ATOM      4  C2  OXE d   1       1.838  -1.329   3.716  0.00  0.00    -0.078 A 
ATOM      5  C3  OXE d   1       2.543  -2.441   4.167  0.00  0.00     0.003 A 
ATOM      6  C4  OXE d   1       2.082  -3.174   5.267  0.00  0.00    -0.002 A 
ATOM      7  C5  OXE d   1       0.973  -2.736   5.998  0.00  0.00    -0.002 A 
ATOM      8  C6  OXE d   1       0.333  -1.559   5.624  0.00  0.00     0.003 A 
ENDROOT
TORSDOF 0
ENDMDL
