MODEL 1
REMARK minimizedAffinity 8.14272499
REMARK minimizedRMSD -1
REMARK  0 active torsions:
REMARK  status: ('A' for Active; 'I' for Inactive)
ROOT
ATOM      1  C2' OXE d   1       0.100   1.059   3.437  0.00  0.00     0.078 C 
ATOM      2  C1' OXE d   1       2.372   2.355   2.418  0.00  0.00     0.078 C 
ATOM      3  C1  OXE d   1       1.076   2.508   1.662  0.00  0.00    -0.078 A 
ATOM      4  C2  OXE d   1      -0.020   1.832   2.142  0.00  0.00    -0.078 A 
ATOM      5  C3  OXE d   1      -1.252   1.983   1.513  0.00  0.00     0.003 A 
ATOM      6  C4  OXE d   1      -1.352   2.692   0.310  0.00  0.00    -0.002 A 
ATOM      7  C5  OXE d   1      -0.239   3.356  -0.218  0.00  0.00    -0.002 A 
ATOM      8  C6  OXE d   1       0.970   3.309   0.467  0.00  0.00     0.003 A 
ENDROOT
TORSDOF 0
ENDMDL
