MODEL 1
REMARK minimizedAffinity 13.4727755
REMARK minimizedRMSD -1
REMARK  0 active torsions:
REMARK  status: ('A' for Active; 'I' for Inactive)
ROOT
ATOM      1  C2' OXE d   1       1.986   1.202   1.657  0.00  0.00     0.078 C 
ATOM      2  C1' OXE d   1      -0.172   0.675   3.373  0.00  0.00     0.078 C 
ATOM      3  C1  OXE d   1      -0.464   1.376   2.070  0.00  0.00    -0.078 A 
ATOM      4  C2  OXE d   1       0.604   1.671   1.257  0.00  0.00    -0.078 A 
ATOM      5  C3  OXE d   1       0.384   2.267   0.019  0.00  0.00     0.003 A 
ATOM      6  C4  OXE d   1      -0.896   2.706  -0.339  0.00  0.00    -0.002 A 
ATOM      7  C5  OXE d   1      -1.992   2.451   0.492  0.00  0.00    -0.002 A 
ATOM      8  C6  OXE d   1      -1.800   1.751   1.677  0.00  0.00     0.003 A 
ENDROOT
TORSDOF 0
ENDMDL
