MODEL 1
REMARK minimizedAffinity 22.522068
REMARK minimizedRMSD -1
REMARK  0 active torsions:
REMARK  status: ('A' for Active; 'I' for Inactive)
ROOT
ATOM      1  C2' OXE d   1      -2.797  -0.823   2.470  0.00  0.00     0.078 C 
ATOM      2  C1' OXE d   1      -0.551   0.719   3.143  0.00  0.00     0.078 C 
ATOM      3  C1  OXE d   1      -0.893  -0.449   4.032  0.00  0.00    -0.078 A 
ATOM      4  C2  OXE d   1      -2.021  -1.170   3.722  0.00  0.00    -0.078 A 
ATOM      5  C3  OXE d   1      -2.352  -2.291   4.478  0.00  0.00     0.003 A 
ATOM      6  C4  OXE d   1      -1.635  -2.599   5.641  0.00  0.00    -0.002 A 
ATOM      7  C5  OXE d   1      -0.506  -1.854   5.997  0.00  0.00    -0.002 A 
ATOM      8  C6  OXE d   1      -0.098  -0.804   5.182  0.00  0.00     0.003 A 
ENDROOT
TORSDOF 0
ENDMDL
