MODEL 1
REMARK minimizedAffinity 13.9093866
REMARK minimizedRMSD -1
REMARK  0 active torsions:
REMARK  status: ('A' for Active; 'I' for Inactive)
ROOT
ATOM      1  C2' OXE d   1       3.191  -2.572  -0.020  0.00  0.00     0.078 C 
ATOM      2  C1' OXE d   1       5.998  -2.581  -0.031  0.00  0.00     0.078 C 
ATOM      3  C1  OXE d   1       5.289  -3.780  -0.609  0.00  0.00    -0.078 A 
ATOM      4  C2  OXE d   1       3.915  -3.788  -0.557  0.00  0.00    -0.078 A 
ATOM      5  C3  OXE d   1       3.210  -4.845  -1.125  0.00  0.00     0.003 A 
ATOM      6  C4  OXE d   1       3.888  -5.970  -1.610  0.00  0.00    -0.002 A 
ATOM      7  C5  OXE d   1       5.286  -6.000  -1.636  0.00  0.00    -0.002 A 
ATOM      8  C6  OXE d   1       6.000  -4.897  -1.179  0.00  0.00     0.003 A 
ENDROOT
TORSDOF 0
ENDMDL
