MODEL 1
REMARK minimizedAffinity 12.8445282
REMARK minimizedRMSD -1
REMARK  0 active torsions:
REMARK  status: ('A' for Active; 'I' for Inactive)
ROOT
ATOM      1  C2' OXE d   1       1.200  -5.754  -0.857  0.00  0.00     0.078 C 
ATOM      2  C1' OXE d   1      -0.181  -3.791  -2.313  0.00  0.00     0.078 C 
ATOM      3  C1  OXE d   1       0.999  -3.351  -1.482  0.00  0.00    -0.078 A 
ATOM      4  C2  OXE d   1       1.640  -4.311  -0.737  0.00  0.00    -0.078 A 
ATOM      5  C3  OXE d   1       2.768  -3.969   0.004  0.00  0.00     0.003 A 
ATOM      6  C4  OXE d   1       3.162  -2.630   0.118  0.00  0.00    -0.002 A 
ATOM      7  C5  OXE d   1       2.498  -1.631  -0.602  0.00  0.00    -0.002 A 
ATOM      8  C6  OXE d   1       1.443  -1.980  -1.438  0.00  0.00     0.003 A 
ENDROOT
TORSDOF 0
ENDMDL
