MODEL 1
REMARK minimizedAffinity -1.18363309
REMARK minimizedRMSD -1
REMARK  1 active torsions:
REMARK  status: ('A' for Active; 'I' for Inactive)
REMARK    1  A    between atoms: N_2  and  C1_3 
ROOT
ATOM      1  C1  UNL d   1      -4.175  -0.959  -4.150  0.00  0.00     0.143 A 
ATOM      2  C2  UNL d   1      -5.507  -0.569  -4.324  0.00  0.00    -0.057 A 
ATOM      3  C3  UNL d   1      -5.859   0.421  -5.250  0.00  0.00     0.033 A 
ATOM      4  C4  UNL d   1      -4.878   1.061  -6.000  0.00  0.00    -0.042 A 
ATOM      5  C5  UNL d   1      -3.544   0.707  -5.826  0.00  0.00     0.033 A 
ATOM      6  C6  UNL d   1      -3.200  -0.287  -4.905  0.00  0.00    -0.057 A 
ENDROOT
BRANCH   1   7
ATOM      7  N   UNL d   1      -3.751  -1.866  -3.176  0.00  0.00    -0.732 N 
ATOM      8  C   UNL d   1      -3.375  -1.409  -1.856  0.00  0.00     0.284 C 
ATOM      9  H3  UNL d   1      -4.299  -2.723  -3.179  0.00  0.00     0.395 HD
ENDBRANCH   1   7
TORSDOF 1
ENDMDL
