MODEL 1
REMARK minimizedAffinity 2.171947
REMARK minimizedRMSD -1
REMARK  1 active torsions:
REMARK  status: ('A' for Active; 'I' for Inactive)
REMARK    1  A    between atoms: N_2  and  C1_3 
ROOT
ATOM      1  C1  UNL d   1      -4.260  -0.944  -3.383  0.00  0.00     0.143 A 
ATOM      2  C2  UNL d   1      -4.994   0.246  -3.442  0.00  0.00    -0.057 A 
ATOM      3  C3  UNL d   1      -4.837   1.144  -4.504  0.00  0.00     0.033 A 
ATOM      4  C4  UNL d   1      -3.917   0.882  -5.514  0.00  0.00    -0.042 A 
ATOM      5  C5  UNL d   1      -3.159  -0.282  -5.463  0.00  0.00     0.033 A 
ATOM      6  C6  UNL d   1      -3.325  -1.179  -4.403  0.00  0.00    -0.057 A 
ENDROOT
BRANCH   1   7
ATOM      7  N   UNL d   1      -4.300  -1.829  -2.303  0.00  0.00    -0.732 N 
ATOM      8  C   UNL d   1      -3.594  -1.529  -1.076  0.00  0.00     0.284 C 
ATOM      9  H3  UNL d   1      -5.225  -2.230  -2.163  0.00  0.00     0.395 HD
ENDBRANCH   1   7
TORSDOF 1
ENDMDL
