MODEL 1
REMARK minimizedAffinity 6.83694029
REMARK minimizedRMSD -1
REMARK  1 active torsions:
REMARK  status: ('A' for Active; 'I' for Inactive)
REMARK    1  A    between atoms: N_2  and  C1_3 
ROOT
ATOM      1  C1  UNL d   1       3.903  -4.074   3.149  0.00  0.00     0.143 A 
ATOM      2  C2  UNL d   1       2.757  -3.559   2.534  0.00  0.00    -0.057 A 
ATOM      3  C3  UNL d   1       2.682  -3.414   1.143  0.00  0.00     0.033 A 
ATOM      4  C4  UNL d   1       3.768  -3.756   0.343  0.00  0.00    -0.042 A 
ATOM      5  C5  UNL d   1       4.926  -4.247   0.935  0.00  0.00     0.033 A 
ATOM      6  C6  UNL d   1       4.992  -4.395   2.324  0.00  0.00    -0.057 A 
ENDROOT
BRANCH   1   7
ATOM      7  N   UNL d   1       4.075  -4.150   4.533  0.00  0.00    -0.732 N 
ATOM      8  C   UNL d   1       4.261  -2.949   5.320  0.00  0.00     0.284 C 
ATOM      9  H3  UNL d   1       3.462  -4.838   4.964  0.00  0.00     0.395 HD
ENDBRANCH   1   7
TORSDOF 1
ENDMDL
