MODEL 1
REMARK minimizedAffinity -0.265408993
REMARK minimizedRMSD -1
REMARK  1 active torsions:
REMARK  status: ('A' for Active; 'I' for Inactive)
REMARK    1  A    between atoms: N_2  and  C1_3 
ROOT
ATOM      1  C1  UNL d   1      -3.152  -0.140  -5.285  0.00  0.00     0.143 A 
ATOM      2  C2  UNL d   1      -3.001  -1.061  -4.243  0.00  0.00    -0.057 A 
ATOM      3  C3  UNL d   1      -4.101  -1.500  -3.496  0.00  0.00     0.033 A 
ATOM      4  C4  UNL d   1      -5.372  -1.001  -3.761  0.00  0.00    -0.042 A 
ATOM      5  C5  UNL d   1      -5.542  -0.066  -4.776  0.00  0.00     0.033 A 
ATOM      6  C6  UNL d   1      -4.441   0.364  -5.522  0.00  0.00    -0.057 A 
ENDROOT
BRANCH   1   7
ATOM      7  N   UNL d   1      -2.084   0.409  -5.999  0.00  0.00    -0.732 N 
ATOM      8  C   UNL d   1      -1.854   1.838  -5.998  0.00  0.00     0.284 C 
ATOM      9  H3  UNL d   1      -1.236  -0.148  -5.920  0.00  0.00     0.395 HD
ENDBRANCH   1   7
TORSDOF 1
ENDMDL
