MODEL 1
REMARK minimizedAffinity 1.25022137
REMARK minimizedRMSD -1
REMARK  1 active torsions:
REMARK  status: ('A' for Active; 'I' for Inactive)
REMARK    1  A    between atoms: N_2  and  C1_3 
ROOT
ATOM      1  C1  UNL d   1      -3.129   0.828  -5.430  0.00  0.00     0.143 A 
ATOM      2  C2  UNL d   1      -4.358   1.178  -5.999  0.00  0.00    -0.057 A 
ATOM      3  C3  UNL d   1      -5.567   0.751  -5.437  0.00  0.00     0.033 A 
ATOM      4  C4  UNL d   1      -5.568  -0.062  -4.309  0.00  0.00    -0.042 A 
ATOM      5  C5  UNL d   1      -4.357  -0.444  -3.740  0.00  0.00     0.033 A 
ATOM      6  C6  UNL d   1      -3.154  -0.008  -4.303  0.00  0.00    -0.057 A 
ENDROOT
BRANCH   1   7
ATOM      7  N   UNL d   1      -1.892   1.139  -5.998  0.00  0.00    -0.732 N 
ATOM      8  C   UNL d   1      -1.316   2.457  -5.836  0.00  0.00     0.284 C 
ATOM      9  H3  UNL d   1      -1.221   0.379  -5.909  0.00  0.00     0.395 HD
ENDBRANCH   1   7
TORSDOF 1
ENDMDL
