MODEL 1
REMARK minimizedAffinity 6.92524862
REMARK minimizedRMSD -1
REMARK  1 active torsions:
REMARK  status: ('A' for Active; 'I' for Inactive)
REMARK    1  A    between atoms: N_2  and  C1_3 
ROOT
ATOM      1  C1  UNL d   1      -3.949   0.131  -4.084  0.00  0.00     0.143 A 
ATOM      2  C2  UNL d   1      -3.241   0.800  -5.088  0.00  0.00    -0.057 A 
ATOM      3  C3  UNL d   1      -3.892   1.640  -6.000  0.00  0.00     0.033 A 
ATOM      4  C4  UNL d   1      -5.272   1.804  -5.941  0.00  0.00    -0.042 A 
ATOM      5  C5  UNL d   1      -5.999   1.129  -4.967  0.00  0.00     0.033 A 
ATOM      6  C6  UNL d   1      -5.343   0.297  -4.056  0.00  0.00    -0.057 A 
ENDROOT
BRANCH   1   7
ATOM      7  N   UNL d   1      -3.373  -0.794  -3.211  0.00  0.00    -0.732 N 
ATOM      8  C   UNL d   1      -2.967  -0.397  -1.880  0.00  0.00     0.284 C 
ATOM      9  H3  UNL d   1      -3.828  -1.703  -3.253  0.00  0.00     0.395 HD
ENDBRANCH   1   7
TORSDOF 1
ENDMDL
