MODEL 1
REMARK minimizedAffinity -1.23345017
REMARK minimizedRMSD -1
REMARK  1 active torsions:
REMARK  status: ('A' for Active; 'I' for Inactive)
REMARK    1  A    between atoms: N_2  and  C1_3 
ROOT
ATOM      1  C1  UNL d   1       5.236  -3.884   3.349  0.00  0.00     0.143 A 
ATOM      2  C2  UNL d   1       5.008  -4.736   4.435  0.00  0.00    -0.057 A 
ATOM      3  C3  UNL d   1       5.245  -4.315   5.750  0.00  0.00     0.033 A 
ATOM      4  C4  UNL d   1       5.742  -3.041   6.000  0.00  0.00    -0.042 A 
ATOM      5  C5  UNL d   1       6.000  -2.186   4.934  0.00  0.00     0.033 A 
ATOM      6  C6  UNL d   1       5.756  -2.609   3.624  0.00  0.00    -0.057 A 
ENDROOT
BRANCH   1   7
ATOM      7  N   UNL d   1       5.114  -4.277   2.014  0.00  0.00    -0.732 N 
ATOM      8  C   UNL d   1       5.633  -5.553   1.571  0.00  0.00     0.284 C 
ATOM      9  H3  UNL d   1       4.207  -4.037   1.620  0.00  0.00     0.395 HD
ENDBRANCH   1   7
TORSDOF 1
ENDMDL
