MODEL 1
REMARK minimizedAffinity 0.810428679
REMARK minimizedRMSD -1
REMARK  1 active torsions:
REMARK  status: ('A' for Active; 'I' for Inactive)
REMARK    1  A    between atoms: N_2  and  C1_3 
ROOT
ATOM      1  C1  UNL d   1       3.769  -1.401   0.183  0.00  0.00     0.143 A 
ATOM      2  C2  UNL d   1       4.911  -2.087   0.611  0.00  0.00    -0.057 A 
ATOM      3  C3  UNL d   1       4.815  -3.324   1.260  0.00  0.00     0.033 A 
ATOM      4  C4  UNL d   1       3.569  -3.884   1.520  0.00  0.00    -0.042 A 
ATOM      5  C5  UNL d   1       2.419  -3.208   1.127  0.00  0.00     0.033 A 
ATOM      6  C6  UNL d   1       2.522  -1.977   0.473  0.00  0.00    -0.057 A 
ENDROOT
BRANCH   1   7
ATOM      7  N   UNL d   1       3.795  -0.123  -0.379  0.00  0.00    -0.732 N 
ATOM      8  C   UNL d   1       5.045   0.472  -0.801  0.00  0.00     0.284 C 
ATOM      9  H3  UNL d   1       3.022   0.034  -1.022  0.00  0.00     0.395 HD
ENDBRANCH   1   7
TORSDOF 1
ENDMDL
