MODEL 1
REMARK minimizedAffinity -2.15677619
REMARK minimizedRMSD -1
REMARK  1 active torsions:
REMARK  status: ('A' for Active; 'I' for Inactive)
REMARK    1  A    between atoms: N_2  and  C1_3 
ROOT
ATOM      1  C1  UNL d   1       3.433  -0.844   0.049  0.00  0.00     0.143 A 
ATOM      2  C2  UNL d   1       3.080   0.510   0.017  0.00  0.00    -0.057 A 
ATOM      3  C3  UNL d   1       4.052   1.515   0.099  0.00  0.00     0.033 A 
ATOM      4  C4  UNL d   1       5.395   1.182   0.243  0.00  0.00    -0.042 A 
ATOM      5  C5  UNL d   1       5.766  -0.156   0.301  0.00  0.00     0.033 A 
ATOM      6  C6  UNL d   1       4.791  -1.156   0.213  0.00  0.00    -0.057 A 
ENDROOT
BRANCH   1   7
ATOM      7  N   UNL d   1       2.505  -1.889   0.071  0.00  0.00    -0.732 N 
ATOM      8  C   UNL d   1       2.791  -3.112   0.789  0.00  0.00     0.284 C 
ATOM      9  H3  UNL d   1       1.549  -1.557   0.179  0.00  0.00     0.395 HD
ENDBRANCH   1   7
TORSDOF 1
ENDMDL
