MODEL 1
REMARK minimizedAffinity 1.87629771
REMARK minimizedRMSD -1
REMARK  1 active torsions:
REMARK  status: ('A' for Active; 'I' for Inactive)
REMARK    1  A    between atoms: N_2  and  C1_3 
ROOT
ATOM      1  C1  UNL d   1       4.881  -4.521   3.288  0.00  0.00     0.143 A 
ATOM      2  C2  UNL d   1       5.741  -3.477   3.642  0.00  0.00    -0.057 A 
ATOM      3  C3  UNL d   1       5.999  -3.172   4.984  0.00  0.00     0.033 A 
ATOM      4  C4  UNL d   1       5.375  -3.890   5.999  0.00  0.00    -0.042 A 
ATOM      5  C5  UNL d   1       4.496  -4.916   5.670  0.00  0.00     0.033 A 
ATOM      6  C6  UNL d   1       4.248  -5.220   4.328  0.00  0.00    -0.057 A 
ENDROOT
BRANCH   1   7
ATOM      7  N   UNL d   1       4.508  -4.809   1.972  0.00  0.00    -0.732 N 
ATOM      8  C   UNL d   1       3.398  -4.118   1.353  0.00  0.00     0.284 C 
ATOM      9  H3  UNL d   1       5.311  -4.939   1.361  0.00  0.00     0.395 HD
ENDBRANCH   1   7
TORSDOF 1
ENDMDL
