MODEL 1
REMARK minimizedAffinity 18.0187092
REMARK minimizedRMSD -1
REMARK  0 active torsions:
REMARK  status: ('A' for Active; 'I' for Inactive)
ROOT
ATOM      1  O1  BZF d   1       1.002  -4.790   0.103  0.00  0.00    -0.204 OA
ATOM      2  C2  BZF d   1       2.190  -5.448   0.361  0.00  0.00     0.174 A 
ATOM      3  C3  BZF d   1       3.087  -4.612   0.922  0.00  0.00    -0.012 A 
ATOM      4  C3A BZF d   1       2.388  -3.377   1.105  0.00  0.00    -0.107 A 
ATOM      5  C4  BZF d   1       2.741  -2.168   1.632  0.00  0.00     0.055 A 
ATOM      6  C5  BZF d   1       1.847  -1.145   1.596  0.00  0.00    -0.016 A 
ATOM      7  C6  BZF d   1       0.595  -1.295   1.037  0.00  0.00     0.022 A 
ATOM      8  C7  BZF d   1       0.197  -2.478   0.507  0.00  0.00     0.029 A 
ATOM      9  C7A BZF d   1       1.087  -3.522   0.571  0.00  0.00     0.058 A 
ENDROOT
TORSDOF 0
ENDMDL
