MODEL 1
REMARK minimizedAffinity 15.9397793
REMARK minimizedRMSD -1
REMARK  0 active torsions:
REMARK  status: ('A' for Active; 'I' for Inactive)
ROOT
ATOM      1  O1  BZF d   1      -2.267   2.857  -2.506  0.00  0.00    -0.204 OA
ATOM      2  C2  BZF d   1      -1.569   2.764  -3.694  0.00  0.00     0.174 A 
ATOM      3  C3  BZF d   1      -1.228   1.484  -3.950  0.00  0.00    -0.012 A 
ATOM      4  C3A BZF d   1      -1.826   0.719  -2.899  0.00  0.00    -0.107 A 
ATOM      5  C4  BZF d   1      -1.857  -0.615  -2.610  0.00  0.00     0.055 A 
ATOM      6  C5  BZF d   1      -2.466  -1.030  -1.468  0.00  0.00    -0.016 A 
ATOM      7  C6  BZF d   1      -3.047  -0.139  -0.591  0.00  0.00     0.022 A 
ATOM      8  C7  BZF d   1      -3.046   1.194  -0.836  0.00  0.00     0.029 A 
ATOM      9  C7A BZF d   1      -2.460   1.613  -2.006  0.00  0.00     0.058 A 
ENDROOT
TORSDOF 0
ENDMDL
