MODEL 1
REMARK minimizedAffinity 6.32711935
REMARK minimizedRMSD -1
REMARK  0 active torsions:
REMARK  status: ('A' for Active; 'I' for Inactive)
ROOT
ATOM      1  O1  BZF d   1       1.335  -3.628   0.821  0.00  0.00    -0.204 OA
ATOM      2  C2  BZF d   1       2.467  -3.072   0.259  0.00  0.00     0.174 A 
ATOM      3  C3  BZF d   1       2.718  -1.858   0.789  0.00  0.00    -0.012 A 
ATOM      4  C3A BZF d   1       1.729  -1.681   1.809  0.00  0.00    -0.107 A 
ATOM      5  C4  BZF d   1       1.468  -0.680   2.699  0.00  0.00     0.055 A 
ATOM      6  C5  BZF d   1       0.383  -0.785   3.512  0.00  0.00    -0.016 A 
ATOM      7  C6  BZF d   1      -0.462  -1.873   3.457  0.00  0.00     0.022 A 
ATOM      8  C7  BZF d   1      -0.241  -2.894   2.593  0.00  0.00     0.029 A 
ATOM      9  C7A BZF d   1       0.873  -2.806   1.794  0.00  0.00     0.058 A 
ENDROOT
TORSDOF 0
ENDMDL
