MODEL 1
REMARK minimizedAffinity 13.7757654
REMARK minimizedRMSD -1
REMARK  0 active torsions:
REMARK  status: ('A' for Active; 'I' for Inactive)
ROOT
ATOM      1  O1  BZF d   1       1.777  -0.987   1.921  0.00  0.00    -0.204 OA
ATOM      2  C2  BZF d   1       0.444  -1.315   2.075  0.00  0.00     0.174 A 
ATOM      3  C3  BZF d   1       0.143  -2.433   1.382  0.00  0.00    -0.012 A 
ATOM      4  C3A BZF d   1       1.386  -2.880   0.830  0.00  0.00    -0.107 A 
ATOM      5  C4  BZF d   1       1.740  -3.948   0.057  0.00  0.00     0.055 A 
ATOM      6  C5  BZF d   1       3.024  -4.056  -0.372  0.00  0.00    -0.016 A 
ATOM      7  C6  BZF d   1       3.979  -3.113  -0.051  0.00  0.00     0.022 A 
ATOM      8  C7  BZF d   1       3.677  -2.039   0.718  0.00  0.00     0.029 A 
ATOM      9  C7A BZF d   1       2.387  -1.944   1.180  0.00  0.00     0.058 A 
ENDROOT
TORSDOF 0
ENDMDL
