MODEL 1
REMARK minimizedAffinity 9.93965912
REMARK minimizedRMSD -1
REMARK  0 active torsions:
REMARK  status: ('A' for Active; 'I' for Inactive)
ROOT
ATOM      1  O1  BZF d   1      -0.839   4.454   5.954  0.00  0.00    -0.204 OA
ATOM      2  C2  BZF d   1      -1.283   5.762   5.932  0.00  0.00     0.174 A 
ATOM      3  C3  BZF d   1      -2.630   5.810   5.881  0.00  0.00    -0.012 A 
ATOM      4  C3A BZF d   1      -3.058   4.447   5.964  0.00  0.00    -0.107 A 
ATOM      5  C4  BZF d   1      -4.285   3.848   5.979  0.00  0.00     0.055 A 
ATOM      6  C5  BZF d   1      -4.357   2.491   5.994  0.00  0.00    -0.016 A 
ATOM      7  C6  BZF d   1      -3.224   1.704   5.990  0.00  0.00     0.022 A 
ATOM      8  C7  BZF d   1      -1.985   2.253   5.981  0.00  0.00     0.029 A 
ATOM      9  C7A BZF d   1      -1.909   3.624   5.999  0.00  0.00     0.058 A 
ENDROOT
TORSDOF 0
ENDMDL
