MODEL 1
REMARK minimizedAffinity 15.7622204
REMARK minimizedRMSD -1
REMARK  0 active torsions:
REMARK  status: ('A' for Active; 'I' for Inactive)
ROOT
ATOM      1  O1  BZF d   1      -2.598   2.698  -2.951  0.00  0.00    -0.204 OA
ATOM      2  C2  BZF d   1      -1.435   2.966  -3.647  0.00  0.00     0.174 A 
ATOM      3  C3  BZF d   1      -0.493   2.039  -3.380  0.00  0.00    -0.012 A 
ATOM      4  C3A BZF d   1      -1.135   1.083  -2.531  0.00  0.00    -0.107 A 
ATOM      5  C4  BZF d   1      -0.721  -0.078  -1.943  0.00  0.00     0.055 A 
ATOM      6  C5  BZF d   1      -1.572  -0.738  -1.114  0.00  0.00    -0.016 A 
ATOM      7  C6  BZF d   1      -2.839  -0.263  -0.846  0.00  0.00     0.022 A 
ATOM      8  C7  BZF d   1      -3.296   0.881  -1.410  0.00  0.00     0.029 A 
ATOM      9  C7A BZF d   1      -2.451   1.533  -2.275  0.00  0.00     0.058 A 
ENDROOT
TORSDOF 0
ENDMDL
