MODEL 1
REMARK minimizedAffinity 9.22912884
REMARK minimizedRMSD -1
REMARK  0 active torsions:
REMARK  status: ('A' for Active; 'I' for Inactive)
ROOT
ATOM      1  O1  BZF d   1       1.576   3.764  -5.554  0.00  0.00    -0.204 OA
ATOM      2  C2  BZF d   1       0.850   4.936  -5.650  0.00  0.00     0.174 A 
ATOM      3  C3  BZF d   1       1.672   5.998  -5.777  0.00  0.00    -0.012 A 
ATOM      4  C3A BZF d   1       2.990   5.447  -5.851  0.00  0.00    -0.107 A 
ATOM      5  C4  BZF d   1       4.231   5.999  -5.997  0.00  0.00     0.055 A 
ATOM      6  C5  BZF d   1       5.322   5.189  -5.958  0.00  0.00    -0.016 A 
ATOM      7  C6  BZF d   1       5.209   3.827  -5.770  0.00  0.00     0.022 A 
ATOM      8  C7  BZF d   1       3.999   3.234  -5.626  0.00  0.00     0.029 A 
ATOM      9  C7A BZF d   1       2.893   4.045  -5.698  0.00  0.00     0.058 A 
ENDROOT
TORSDOF 0
ENDMDL
