MODEL 1
REMARK minimizedAffinity 10.0792618
REMARK minimizedRMSD -1
REMARK  0 active torsions:
REMARK  status: ('A' for Active; 'I' for Inactive)
ROOT
ATOM      1  O1  BZF d   1       1.126  -1.217   2.483  0.00  0.00    -0.204 OA
ATOM      2  C2  BZF d   1      -0.201  -1.600   2.436  0.00  0.00     0.174 A 
ATOM      3  C3  BZF d   1      -0.392  -2.548   1.496  0.00  0.00    -0.012 A 
ATOM      4  C3A BZF d   1       0.911  -2.837   0.982  0.00  0.00    -0.107 A 
ATOM      5  C4  BZF d   1       1.376  -3.705   0.035  0.00  0.00     0.055 A 
ATOM      6  C5  BZF d   1       2.697  -3.690  -0.283  0.00  0.00    -0.016 A 
ATOM      7  C6  BZF d   1       3.579  -2.817   0.320  0.00  0.00     0.022 A 
ATOM      8  C7  BZF d   1       3.166  -1.942   1.268  0.00  0.00     0.029 A 
ATOM      9  C7A BZF d   1       1.838  -1.978   1.616  0.00  0.00     0.058 A 
ENDROOT
TORSDOF 0
ENDMDL
