MODEL 1
REMARK minimizedAffinity 1.33521628
REMARK minimizedRMSD -1
REMARK  0 active torsions:
REMARK  status: ('A' for Active; 'I' for Inactive)
ROOT
ATOM      1  N1  IND d   1       1.217  -1.141   3.665  0.00  0.00    -0.196 N 
ATOM      2  C2  IND d   1       1.865  -0.503   2.644  0.00  0.00     0.054 A 
ATOM      3  C3  IND d   1       0.971   0.036   1.784  0.00  0.00    -0.031 A 
ATOM      4  C4  IND d   1      -1.599   0.083   1.913  0.00  0.00     0.051 A 
ATOM      5  C5  IND d   1      -2.650  -0.397   2.644  0.00  0.00    -0.031 A 
ATOM      6  C6  IND d   1      -2.462  -1.163   3.776  0.00  0.00     0.015 A 
ATOM      7  C7  IND d   1      -1.210  -1.468   4.229  0.00  0.00    -0.016 A 
ATOM      8  C8  IND d   1      -0.140  -0.989   3.486  0.00  0.00    -0.047 A 
ATOM      9  C9  IND d   1      -0.326  -0.247   2.312  0.00  0.00    -0.096 A 
ATOM     10  HN1 IND d   1       1.594  -1.565   4.311  0.00  0.00     0.298 HD
ENDROOT
TORSDOF 0
ENDMDL
