MODEL 1
REMARK minimizedAffinity -0.12362875
REMARK minimizedRMSD -1
REMARK  0 active torsions:
REMARK  status: ('A' for Active; 'I' for Inactive)
ROOT
ATOM      1  N1  IND d   1       1.351  -1.444   3.636  0.00  0.00    -0.196 N 
ATOM      2  C2  IND d   1       0.871  -1.809   4.863  0.00  0.00     0.054 A 
ATOM      3  C3  IND d   1      -0.410  -1.401   5.008  0.00  0.00    -0.031 A 
ATOM      4  C4  IND d   1      -1.946  -0.208   3.322  0.00  0.00     0.051 A 
ATOM      5  C5  IND d   1      -1.944   0.365   2.081  0.00  0.00    -0.031 A 
ATOM      6  C6  IND d   1      -0.822   0.362   1.278  0.00  0.00     0.015 A 
ATOM      7  C7  IND d   1       0.342  -0.227   1.683  0.00  0.00    -0.016 A 
ATOM      8  C8  IND d   1       0.346  -0.804   2.945  0.00  0.00    -0.047 A 
ATOM      9  C9  IND d   1      -0.777  -0.766   3.782  0.00  0.00    -0.096 A 
ATOM     10  HN1 IND d   1       2.147  -1.590   3.345  0.00  0.00     0.298 HD
ENDROOT
TORSDOF 0
ENDMDL
