MODEL 1
REMARK minimizedAffinity 0.956284285
REMARK minimizedRMSD -1
REMARK  0 active torsions:
REMARK  status: ('A' for Active; 'I' for Inactive)
ROOT
ATOM      1  N1  IND d   1       1.123  -0.320   2.296  0.00  0.00    -0.196 N 
ATOM      2  C2  IND d   1       2.146  -0.818   3.055  0.00  0.00     0.054 A 
ATOM      3  C3  IND d   1       1.659  -1.415   4.166  0.00  0.00    -0.031 A 
ATOM      4  C4  IND d   1      -0.784  -1.781   4.890  0.00  0.00     0.051 A 
ATOM      5  C5  IND d   1      -2.069  -1.472   4.541  0.00  0.00    -0.031 A 
ATOM      6  C6  IND d   1      -2.361  -0.751   3.401  0.00  0.00     0.015 A 
ATOM      7  C7  IND d   1      -1.376  -0.320   2.558  0.00  0.00    -0.016 A 
ATOM      8  C8  IND d   1      -0.070  -0.626   2.914  0.00  0.00    -0.047 A 
ATOM      9  C9  IND d   1       0.236  -1.320   4.091  0.00  0.00    -0.096 A 
ATOM     10  HN1 IND d   1       1.211   0.111   1.558  0.00  0.00     0.298 HD
ENDROOT
TORSDOF 0
ENDMDL
