MODEL 1
REMARK minimizedAffinity 10.5813351
REMARK minimizedRMSD -1
REMARK  0 active torsions:
REMARK  status: ('A' for Active; 'I' for Inactive)
ROOT
ATOM      1  N1  IND d   1      -0.528  -0.051   1.611  0.00  0.00    -0.196 N 
ATOM      2  C2  IND d   1      -1.349   0.204   2.674  0.00  0.00     0.054 A 
ATOM      3  C3  IND d   1      -2.606   0.461   2.246  0.00  0.00    -0.031 A 
ATOM      4  C4  IND d   1      -3.561   0.418  -0.144  0.00  0.00     0.051 A 
ATOM      5  C5  IND d   1      -3.188   0.272  -1.450  0.00  0.00    -0.031 A 
ATOM      6  C6  IND d   1      -1.883   0.003  -1.810  0.00  0.00     0.015 A 
ATOM      7  C7  IND d   1      -0.901  -0.142  -0.872  0.00  0.00    -0.016 A 
ATOM      8  C8  IND d   1      -1.275   0.012   0.455  0.00  0.00    -0.047 A 
ATOM      9  C9  IND d   1      -2.589   0.327   0.824  0.00  0.00    -0.096 A 
ATOM     10  HN1 IND d   1       0.314  -0.221   1.657  0.00  0.00     0.298 HD
ENDROOT
TORSDOF 0
ENDMDL
