MODEL 1
REMARK minimizedAffinity 2.48303747
REMARK minimizedRMSD -1
REMARK  0 active torsions:
REMARK  status: ('A' for Active; 'I' for Inactive)
ROOT
ATOM      1  N1  IND d   1      -2.149  -1.694   5.272  0.00  0.00    -0.196 N 
ATOM      2  C2  IND d   1      -0.829  -1.595   5.615  0.00  0.00     0.054 A 
ATOM      3  C3  IND d   1      -0.132  -0.986   4.631  0.00  0.00    -0.031 A 
ATOM      4  C4  IND d   1      -0.970   0.023   2.415  0.00  0.00     0.051 A 
ATOM      5  C5  IND d   1      -2.091   0.145   1.643  0.00  0.00    -0.031 A 
ATOM      6  C6  IND d   1      -3.314  -0.347   2.051  0.00  0.00     0.015 A 
ATOM      7  C7  IND d   1      -3.464  -0.972   3.256  0.00  0.00    -0.016 A 
ATOM      8  C8  IND d   1      -2.327  -1.104   4.040  0.00  0.00    -0.047 A 
ATOM      9  C9  IND d   1      -1.074  -0.644   3.613  0.00  0.00    -0.096 A 
ATOM     10  HN1 IND d   1      -2.765  -2.062   5.746  0.00  0.00     0.298 HD
ENDROOT
TORSDOF 0
ENDMDL
