MODEL 1
REMARK minimizedAffinity 2.30954909
REMARK minimizedRMSD -1
REMARK  0 active torsions:
REMARK  status: ('A' for Active; 'I' for Inactive)
ROOT
ATOM      1  N1  IND d   1       1.401  -0.983   2.378  0.00  0.00    -0.196 N 
ATOM      2  C2  IND d   1       0.616  -1.281   3.457  0.00  0.00     0.054 A 
ATOM      3  C3  IND d   1      -0.676  -0.979   3.196  0.00  0.00    -0.031 A 
ATOM      4  C4  IND d   1      -1.741  -0.082   1.031  0.00  0.00     0.051 A 
ATOM      5  C5  IND d   1      -1.422   0.378  -0.216  0.00  0.00    -0.031 A 
ATOM      6  C6  IND d   1      -0.120   0.405  -0.672  0.00  0.00     0.015 A 
ATOM      7  C7  IND d   1       0.915  -0.039   0.101  0.00  0.00    -0.016 A 
ATOM      8  C8  IND d   1       0.596  -0.500   1.370  0.00  0.00    -0.047 A 
ATOM      9  C9  IND d   1      -0.719  -0.490   1.854  0.00  0.00    -0.096 A 
ATOM     10  HN1 IND d   1       2.254  -1.082   2.336  0.00  0.00     0.298 HD
ENDROOT
TORSDOF 0
ENDMDL
