MODEL 1
REMARK minimizedAffinity 2.25364256
REMARK minimizedRMSD -1
REMARK  0 active torsions:
REMARK  status: ('A' for Active; 'I' for Inactive)
ROOT
ATOM      1  N1  IND d   1       1.517  -0.458   1.062  0.00  0.00    -0.196 N 
ATOM      2  C2  IND d   1       0.784   0.070   0.036  0.00  0.00     0.054 A 
ATOM      3  C3  IND d   1      -0.467   0.366   0.456  0.00  0.00    -0.031 A 
ATOM      4  C4  IND d   1      -1.495   0.160   2.807  0.00  0.00     0.051 A 
ATOM      5  C5  IND d   1      -1.224  -0.304   4.064  0.00  0.00    -0.031 A 
ATOM      6  C6  IND d   1      -0.001  -0.851   4.392  0.00  0.00     0.015 A 
ATOM      7  C7  IND d   1       1.007  -0.945   3.474  0.00  0.00    -0.016 A 
ATOM      8  C8  IND d   1       0.733  -0.482   2.195  0.00  0.00    -0.047 A 
ATOM      9  C9  IND d   1      -0.521   0.036   1.845  0.00  0.00    -0.096 A 
ATOM     10  HN1 IND d   1       2.331  -0.729   1.009  0.00  0.00     0.298 HD
ENDROOT
TORSDOF 0
ENDMDL
