MODEL 1
REMARK minimizedAffinity -4.82111931
REMARK minimizedRMSD -1
REMARK  1 active torsions:
REMARK  status: ('A' for Active; 'I' for Inactive)
REMARK    1  A    between atoms: C1_2  and  C2_3 
ROOT
ATOM      1  C2  UNL d   1       0.279   0.027   0.579  0.00  0.00    -0.073 A 
ATOM      2  C3  UNL d   1       0.793   0.024   1.881  0.00  0.00    -0.002 A 
ATOM      3  C4  UNL d   1      -0.067  -0.008   2.979  0.00  0.00     0.004 A 
ATOM      4  C5  UNL d   1      -1.448  -0.044   2.788  0.00  0.00    -0.004 A 
ATOM      5  C6  UNL d   1      -1.981  -0.053   1.495  0.00  0.00    -0.075 A 
ATOM      6  C7  UNL d   1      -3.465  -0.089   1.272  0.00  0.00     0.076 C 
ATOM      7  C8  UNL d   1      -1.111  -0.018   0.397  0.00  0.00     0.001 A 
ENDROOT
BRANCH   1   8
ATOM      8  C1  UNL d   1       1.204   0.055  -0.610  0.00  0.00     0.053 C 
ATOM      9  C   UNL d   1       0.492  -0.335  -1.895  0.00  0.00     0.018 C 
ENDBRANCH   1   8
TORSDOF 1
ENDMDL
