MODEL 1
REMARK minimizedAffinity -3.77317214
REMARK minimizedRMSD -1
REMARK  1 active torsions:
REMARK  status: ('A' for Active; 'I' for Inactive)
REMARK    1  A    between atoms: C1_2  and  C2_3 
ROOT
ATOM      1  C2  UNL d   1      -0.871  -0.561   0.584  0.00  0.00    -0.073 A 
ATOM      2  C3  UNL d   1      -0.021   0.549   0.634  0.00  0.00    -0.002 A 
ATOM      3  C4  UNL d   1       0.862   0.808  -0.416  0.00  0.00     0.004 A 
ATOM      4  C5  UNL d   1       0.899  -0.036  -1.526  0.00  0.00    -0.004 A 
ATOM      5  C6  UNL d   1       0.049  -1.143  -1.599  0.00  0.00    -0.075 A 
ATOM      6  C7  UNL d   1       0.077  -2.062  -2.785  0.00  0.00     0.076 C 
ATOM      7  C8  UNL d   1      -0.834  -1.398  -0.540  0.00  0.00     0.001 A 
ENDROOT
BRANCH   1   8
ATOM      8  C1  UNL d   1      -1.831  -0.840   1.712  0.00  0.00     0.053 C 
ATOM      9  C   UNL d   1      -1.452  -0.094   2.981  0.00  0.00     0.018 C 
ENDBRANCH   1   8
TORSDOF 1
ENDMDL
