MODEL 1
REMARK minimizedAffinity -6.01939583
REMARK minimizedRMSD -1
REMARK  1 active torsions:
REMARK  status: ('A' for Active; 'I' for Inactive)
REMARK    1  A    between atoms: C1_2  and  C2_3 
ROOT
ATOM      1  C2  UNL d   1      -0.172  -0.118   0.613  0.00  0.00    -0.073 A 
ATOM      2  C3  UNL d   1       0.294  -0.422   1.897  0.00  0.00    -0.002 A 
ATOM      3  C4  UNL d   1      -0.599  -0.524   2.965  0.00  0.00     0.004 A 
ATOM      4  C5  UNL d   1      -1.965  -0.329   2.759  0.00  0.00    -0.004 A 
ATOM      5  C6  UNL d   1      -2.451  -0.036   1.481  0.00  0.00    -0.075 A 
ATOM      6  C7  UNL d   1      -3.917   0.179   1.243  0.00  0.00     0.076 C 
ATOM      7  C8  UNL d   1      -1.548   0.067   0.414  0.00  0.00     0.001 A 
ENDROOT
BRANCH   1   8
ATOM      8  C1  UNL d   1       0.788  -0.013  -0.544  0.00  0.00     0.053 C 
ATOM      9  C   UNL d   1       0.156   0.666  -1.749  0.00  0.00     0.018 C 
ENDBRANCH   1   8
TORSDOF 1
ENDMDL
