MODEL 1
REMARK minimizedAffinity -3.79654074
REMARK minimizedRMSD -1
REMARK  1 active torsions:
REMARK  status: ('A' for Active; 'I' for Inactive)
REMARK    1  A    between atoms: C1_2  and  C2_3 
ROOT
ATOM      1  C2  UNL d   1      -0.413   0.290   0.159  0.00  0.00    -0.073 A 
ATOM      2  C3  UNL d   1       0.939   0.449   0.483  0.00  0.00    -0.002 A 
ATOM      3  C4  UNL d   1       1.355   0.408   1.814  0.00  0.00     0.004 A 
ATOM      4  C5  UNL d   1       0.425   0.202   2.833  0.00  0.00    -0.004 A 
ATOM      5  C6  UNL d   1      -0.929   0.029   2.529  0.00  0.00    -0.075 A 
ATOM      6  C7  UNL d   1      -1.942  -0.192   3.614  0.00  0.00     0.076 C 
ATOM      7  C8  UNL d   1      -1.339   0.074   1.190  0.00  0.00     0.001 A 
ENDROOT
BRANCH   1   8
ATOM      8  C1  UNL d   1      -0.865   0.326  -1.278  0.00  0.00     0.053 C 
ATOM      9  C   UNL d   1       0.295   0.157  -2.246  0.00  0.00     0.018 C 
ENDBRANCH   1   8
TORSDOF 1
ENDMDL
