MODEL 1
REMARK minimizedAffinity -5.20856953
REMARK minimizedRMSD -1
REMARK  1 active torsions:
REMARK  status: ('A' for Active; 'I' for Inactive)
REMARK    1  A    between atoms: C1_2  and  C2_3 
ROOT
ATOM      1  C2  UNL d   1      -0.572  -0.032   0.184  0.00  0.00    -0.073 A 
ATOM      2  C3  UNL d   1      -1.854   0.327  -0.247  0.00  0.00    -0.002 A 
ATOM      3  C4  UNL d   1      -2.914   0.378   0.660  0.00  0.00     0.004 A 
ATOM      4  C5  UNL d   1      -2.702   0.079   2.005  0.00  0.00    -0.004 A 
ATOM      5  C6  UNL d   1      -1.425  -0.270   2.458  0.00  0.00    -0.075 A 
ATOM      6  C7  UNL d   1      -1.181  -0.597   3.902  0.00  0.00     0.076 C 
ATOM      7  C8  UNL d   1      -0.367  -0.322   1.541  0.00  0.00     0.001 A 
ENDROOT
BRANCH   1   8
ATOM      8  C1  UNL d   1       0.577  -0.083  -0.790  0.00  0.00     0.053 C 
ATOM      9  C   UNL d   1       0.290   0.715  -2.051  0.00  0.00     0.018 C 
ENDBRANCH   1   8
TORSDOF 1
ENDMDL
