MODEL 1
REMARK minimizedAffinity -6.08973408
REMARK minimizedRMSD -1
REMARK  1 active torsions:
REMARK  status: ('A' for Active; 'I' for Inactive)
REMARK    1  A    between atoms: C1_2  and  C2_3 
ROOT
ATOM      1  C2  UNL d   1      -0.007   0.238   0.075  0.00  0.00    -0.073 A 
ATOM      2  C3  UNL d   1       0.911   0.030   1.110  0.00  0.00    -0.002 A 
ATOM      3  C4  UNL d   1       0.468  -0.140   2.422  0.00  0.00     0.004 A 
ATOM      4  C5  UNL d   1      -0.896  -0.111   2.711  0.00  0.00    -0.004 A 
ATOM      5  C6  UNL d   1      -1.830   0.084   1.689  0.00  0.00    -0.075 A 
ATOM      6  C7  UNL d   1      -3.301   0.120   1.984  0.00  0.00     0.076 C 
ATOM      7  C8  UNL d   1      -1.377   0.257   0.374  0.00  0.00     0.001 A 
ENDROOT
BRANCH   1   8
ATOM      8  C1  UNL d   1       0.466   0.416  -1.345  0.00  0.00     0.053 C 
ATOM      9  C   UNL d   1       0.481  -0.898  -2.110  0.00  0.00     0.018 C 
ENDBRANCH   1   8
TORSDOF 1
ENDMDL
