MODEL 1
REMARK minimizedAffinity -5.79970121
REMARK minimizedRMSD -1
REMARK  1 active torsions:
REMARK  status: ('A' for Active; 'I' for Inactive)
REMARK    1  A    between atoms: C1_2  and  C2_3 
ROOT
ATOM      1  C2  UNL d   1       0.111   0.380   0.697  0.00  0.00    -0.073 A 
ATOM      2  C3  UNL d   1       0.612   0.472   2.000  0.00  0.00    -0.002 A 
ATOM      3  C4  UNL d   1      -0.245   0.357   3.095  0.00  0.00     0.004 A 
ATOM      4  C5  UNL d   1      -1.609   0.141   2.899  0.00  0.00    -0.004 A 
ATOM      5  C6  UNL d   1      -2.128   0.035   1.604  0.00  0.00    -0.075 A 
ATOM      6  C7  UNL d   1      -3.593  -0.194   1.376  0.00  0.00     0.076 C 
ATOM      7  C8  UNL d   1      -1.261   0.155   0.510  0.00  0.00     0.001 A 
ENDROOT
BRANCH   1   8
ATOM      8  C1  UNL d   1       1.034   0.497  -0.489  0.00  0.00     0.053 C 
ATOM      9  C   UNL d   1       0.291   0.347  -1.807  0.00  0.00     0.018 C 
ENDBRANCH   1   8
TORSDOF 1
ENDMDL
