MODEL 1
REMARK minimizedAffinity -5.45966721
REMARK minimizedRMSD -1
REMARK  1 active torsions:
REMARK  status: ('A' for Active; 'I' for Inactive)
REMARK    1  A    between atoms: C1_2  and  C2_3 
ROOT
ATOM      1  C2  UNL d   1      -0.213   0.016   1.085  0.00  0.00    -0.073 A 
ATOM      2  C3  UNL d   1       0.240   0.060   2.408  0.00  0.00    -0.002 A 
ATOM      3  C4  UNL d   1      -0.666  -0.033   3.466  0.00  0.00     0.004 A 
ATOM      4  C5  UNL d   1      -2.030  -0.177   3.212  0.00  0.00    -0.004 A 
ATOM      5  C6  UNL d   1      -2.500  -0.235   1.896  0.00  0.00    -0.075 A 
ATOM      6  C7  UNL d   1      -3.964  -0.388   1.606  0.00  0.00     0.076 C 
ATOM      7  C8  UNL d   1      -1.585  -0.139   0.839  0.00  0.00     0.001 A 
ENDROOT
BRANCH   1   8
ATOM      8  C1  UNL d   1       0.762   0.109  -0.061  0.00  0.00     0.053 C 
ATOM      9  C   UNL d   1       0.061   0.085  -1.410  0.00  0.00     0.018 C 
ENDBRANCH   1   8
TORSDOF 1
ENDMDL
