MODEL 1
REMARK minimizedAffinity -5.65927696
REMARK minimizedRMSD -1
REMARK  1 active torsions:
REMARK  status: ('A' for Active; 'I' for Inactive)
REMARK    1  A    between atoms: C1_2  and  C2_3 
ROOT
ATOM      1  C2  UNL d   1      -0.030   0.049  -0.097  0.00  0.00    -0.073 A 
ATOM      2  C3  UNL d   1       0.927  -0.134   0.908  0.00  0.00    -0.002 A 
ATOM      3  C4  UNL d   1       0.534  -0.265   2.241  0.00  0.00     0.004 A 
ATOM      4  C5  UNL d   1      -0.818  -0.223   2.581  0.00  0.00    -0.004 A 
ATOM      5  C6  UNL d   1      -1.790  -0.053   1.590  0.00  0.00    -0.075 A 
ATOM      6  C7  UNL d   1      -3.249  -0.003   1.940  0.00  0.00     0.076 C 
ATOM      7  C8  UNL d   1      -1.388   0.081   0.255  0.00  0.00     0.001 A 
ENDROOT
BRANCH   1   8
ATOM      8  C1  UNL d   1       0.389   0.185  -1.538  0.00  0.00     0.053 C 
ATOM      9  C   UNL d   1       0.058  -1.058  -2.347  0.00  0.00     0.018 C 
ENDBRANCH   1   8
TORSDOF 1
ENDMDL
