MODEL 1
REMARK minimizedAffinity -6.52025032
REMARK minimizedRMSD -1
REMARK  1 active torsions:
REMARK  status: ('A' for Active; 'I' for Inactive)
REMARK    1  A    between atoms: C1_2  and  C2_3 
ROOT
ATOM      1  C2  UNL d   1      -0.092  -0.050   0.933  0.00  0.00    -0.073 A 
ATOM      2  C3  UNL d   1       0.338  -0.460   2.199  0.00  0.00    -0.002 A 
ATOM      3  C4  UNL d   1      -0.581  -0.625   3.237  0.00  0.00     0.004 A 
ATOM      4  C5  UNL d   1      -1.938  -0.389   3.017  0.00  0.00    -0.004 A 
ATOM      5  C6  UNL d   1      -2.389   0.010   1.755  0.00  0.00    -0.075 A 
ATOM      6  C7  UNL d   1      -3.845   0.271   1.502  0.00  0.00     0.076 C 
ATOM      7  C8  UNL d   1      -1.459   0.176   0.719  0.00  0.00     0.001 A 
ENDROOT
BRANCH   1   8
ATOM      8  C1  UNL d   1       0.895   0.123  -0.192  0.00  0.00     0.053 C 
ATOM      9  C   UNL d   1       0.266  -0.144  -1.550  0.00  0.00     0.018 C 
ENDBRANCH   1   8
TORSDOF 1
ENDMDL
