MODEL 1
REMARK minimizedAffinity -2.89476991
REMARK minimizedRMSD -1
REMARK  1 active torsions:
REMARK  status: ('A' for Active; 'I' for Inactive)
REMARK    1  A    between atoms: C1_2  and  C2_3 
ROOT
ATOM      1  C2  UNL d   1      -0.977   0.637   1.749  0.00  0.00    -0.073 A 
ATOM      2  C3  UNL d   1       0.143   0.521   2.580  0.00  0.00    -0.002 A 
ATOM      3  C4  UNL d   1       1.396   0.233   2.038  0.00  0.00     0.004 A 
ATOM      4  C5  UNL d   1       1.543   0.065   0.661  0.00  0.00    -0.004 A 
ATOM      5  C6  UNL d   1       0.438   0.188  -0.187  0.00  0.00    -0.075 A 
ATOM      6  C7  UNL d   1       0.580   0.008  -1.670  0.00  0.00     0.076 C 
ATOM      7  C8  UNL d   1      -0.818   0.475   0.365  0.00  0.00     0.001 A 
ENDROOT
BRANCH   1   8
ATOM      8  C1  UNL d   1      -2.331   0.954   2.329  0.00  0.00     0.053 C 
ATOM      9  C   UNL d   1      -3.429   0.896   1.279  0.00  0.00     0.018 C 
ENDBRANCH   1   8
TORSDOF 1
ENDMDL
