MODEL 1
REMARK minimizedAffinity 4.4524889
REMARK minimizedRMSD -1
REMARK  3 active torsions:
REMARK  status: ('A' for Active; 'I' for Inactive)
REMARK    1  A    between atoms: C3'_2  and  C2'_3 
REMARK    2  A    between atoms: C2'_3  and  C1'_4 
REMARK    3  A    between atoms: C1'_4  and  C1_5 
ROOT
ATOM      1  C1  N4B d   1       1.595   1.972  -3.888  0.00  0.00    -0.075 A 
ATOM      2  C2  N4B d   1       1.168   0.718  -3.399  0.00  0.00     0.002 A 
ATOM      3  C3  N4B d   1       1.394   0.379  -2.088  0.00  0.00     0.002 A 
ATOM      4  C4  N4B d   1       2.058   1.267  -1.255  0.00  0.00    -0.004 A 
ATOM      5  C5  N4B d   1       2.445   2.486  -1.728  0.00  0.00     0.002 A 
ATOM      6  C6  N4B d   1       2.221   2.842  -3.043  0.00  0.00     0.002 A 
ENDROOT
BRANCH   1   7
ATOM      7  C1' N4B d   1       1.447   2.352  -5.336  0.00  0.00     0.057 C 
BRANCH   7   8
ATOM      8  C2' N4B d   1       0.510   3.552  -5.446  0.00  0.00     0.009 C 
BRANCH   8   9
ATOM      9  C3' N4B d   1       1.220   4.780  -5.989  0.00  0.00     0.004 C 
ATOM     10  C4' N4B d   1       0.347   5.999  -6.000  0.00  0.00     0.003 C 
ENDBRANCH   8   9
ENDBRANCH   7   8
ENDBRANCH   1   7
TORSDOF 3
ENDMDL
