MODEL 1
REMARK minimizedAffinity 4.57222509
REMARK minimizedRMSD -1
REMARK  3 active torsions:
REMARK  status: ('A' for Active; 'I' for Inactive)
REMARK    1  A    between atoms: C3'_2  and  C2'_3 
REMARK    2  A    between atoms: C2'_3  and  C1'_4 
REMARK    3  A    between atoms: C1'_4  and  C1_5 
ROOT
ATOM      1  C1  N4B d   1       2.622   1.019  -3.806  0.00  0.00    -0.075 A 
ATOM      2  C2  N4B d   1       1.326   1.173  -4.347  0.00  0.00     0.002 A 
ATOM      3  C3  N4B d   1       0.242   0.639  -3.695  0.00  0.00     0.002 A 
ATOM      4  C4  N4B d   1       0.429  -0.066  -2.516  0.00  0.00    -0.004 A 
ATOM      5  C5  N4B d   1       1.680  -0.189  -1.987  0.00  0.00     0.002 A 
ATOM      6  C6  N4B d   1       2.779   0.346  -2.629  0.00  0.00     0.002 A 
ENDROOT
BRANCH   1   7
ATOM      7  C1' N4B d   1       3.847   1.511  -4.526  0.00  0.00     0.057 C 
BRANCH   7   8
ATOM      8  C2' N4B d   1       5.088   1.109  -3.735  0.00  0.00     0.009 C 
BRANCH   8   9
ATOM      9  C3' N4B d   1       5.999   0.193  -4.533  0.00  0.00     0.004 C 
ATOM     10  C4' N4B d   1       5.999   0.507  -6.000  0.00  0.00     0.003 C 
ENDBRANCH   8   9
ENDBRANCH   7   8
ENDBRANCH   1   7
TORSDOF 3
ENDMDL
