MODEL 1
REMARK minimizedAffinity 8.68685341
REMARK minimizedRMSD -1
REMARK  3 active torsions:
REMARK  status: ('A' for Active; 'I' for Inactive)
REMARK    1  A    between atoms: C3'_2  and  C2'_3 
REMARK    2  A    between atoms: C2'_3  and  C1'_4 
REMARK    3  A    between atoms: C1'_4  and  C1_5 
ROOT
ATOM      1  C1  N4B d   1      -3.397   3.970   4.153  0.00  0.00    -0.075 A 
ATOM      2  C2  N4B d   1      -2.118   4.526   4.373  0.00  0.00     0.002 A 
ATOM      3  C3  N4B d   1      -1.954   5.527   5.299  0.00  0.00     0.002 A 
ATOM      4  C4  N4B d   1      -3.054   5.999   6.000  0.00  0.00    -0.004 A 
ATOM      5  C5  N4B d   1      -4.282   5.439   5.800  0.00  0.00     0.002 A 
ATOM      6  C6  N4B d   1      -4.460   4.429   4.875  0.00  0.00     0.002 A 
ENDROOT
BRANCH   1   7
ATOM      7  C1' N4B d   1      -3.640   2.933   3.090  0.00  0.00     0.057 C 
BRANCH   7   8
ATOM      8  C2' N4B d   1      -2.595   1.828   3.220  0.00  0.00     0.009 C 
BRANCH   8   9
ATOM      9  C3' N4B d   1      -2.916   0.636   2.336  0.00  0.00     0.004 C 
ATOM     10  C4' N4B d   1      -3.582  -0.480   3.084  0.00  0.00     0.003 C 
ENDBRANCH   8   9
ENDBRANCH   7   8
ENDBRANCH   1   7
TORSDOF 3
ENDMDL
