MODEL 1
REMARK minimizedAffinity 12.2203188
REMARK minimizedRMSD -1
REMARK  3 active torsions:
REMARK  status: ('A' for Active; 'I' for Inactive)
REMARK    1  A    between atoms: C3'_2  and  C2'_3 
REMARK    2  A    between atoms: C2'_3  and  C1'_4 
REMARK    3  A    between atoms: C1'_4  and  C1_5 
ROOT
ATOM      1  C1  N4B d   1      -3.361   4.050   4.031  0.00  0.00    -0.075 A 
ATOM      2  C2  N4B d   1      -4.392   4.234   4.977  0.00  0.00     0.002 A 
ATOM      3  C3  N4B d   1      -4.271   5.201   5.945  0.00  0.00     0.002 A 
ATOM      4  C4  N4B d   1      -3.124   5.979   5.998  0.00  0.00    -0.004 A 
ATOM      5  C5  N4B d   1      -2.144   5.812   5.064  0.00  0.00     0.002 A 
ATOM      6  C6  N4B d   1      -2.254   4.847   4.083  0.00  0.00     0.002 A 
ENDROOT
BRANCH   1   7
ATOM      7  C1' N4B d   1      -3.410   2.949   3.007  0.00  0.00     0.057 C 
BRANCH   7   8
ATOM      8  C2' N4B d   1      -2.650   1.737   3.538  0.00  0.00     0.009 C 
BRANCH   8   9
ATOM      9  C3' N4B d   1      -3.058   0.456   2.830  0.00  0.00     0.004 C 
ATOM     10  C4' N4B d   1      -3.862  -0.460   3.703  0.00  0.00     0.003 C 
ENDBRANCH   8   9
ENDBRANCH   7   8
ENDBRANCH   1   7
TORSDOF 3
ENDMDL
