MODEL 1
REMARK minimizedAffinity 16.1769104
REMARK minimizedRMSD -1
REMARK  3 active torsions:
REMARK  status: ('A' for Active; 'I' for Inactive)
REMARK    1  A    between atoms: C3'_2  and  C2'_3 
REMARK    2  A    between atoms: C2'_3  and  C1'_4 
REMARK    3  A    between atoms: C1'_4  and  C1_5 
ROOT
ATOM      1  C1  N4B d   1       1.890   1.116  -3.850  0.00  0.00    -0.075 A 
ATOM      2  C2  N4B d   1       2.696   1.517  -2.762  0.00  0.00     0.002 A 
ATOM      3  C3  N4B d   1       2.725   0.763  -1.614  0.00  0.00     0.002 A 
ATOM      4  C4  N4B d   1       1.945  -0.380  -1.525  0.00  0.00    -0.004 A 
ATOM      5  C5  N4B d   1       1.189  -0.774  -2.590  0.00  0.00     0.002 A 
ATOM      6  C6  N4B d   1       1.153  -0.029  -3.751  0.00  0.00     0.002 A 
ENDROOT
BRANCH   1   7
ATOM      7  C1' N4B d   1       1.760   1.953  -5.093  0.00  0.00     0.057 C 
BRANCH   7   8
ATOM      8  C2' N4B d   1       2.088   3.405  -4.756  0.00  0.00     0.009 C 
BRANCH   8   9
ATOM      9  C3' N4B d   1       2.169   4.273  -6.000  0.00  0.00     0.004 C 
ATOM     10  C4' N4B d   1       1.386   5.546  -5.872  0.00  0.00     0.003 C 
ENDBRANCH   8   9
ENDBRANCH   7   8
ENDBRANCH   1   7
TORSDOF 3
ENDMDL
