MODEL 1
REMARK minimizedAffinity -5.42869616
REMARK minimizedRMSD -1
REMARK  3 active torsions:
REMARK  status: ('A' for Active; 'I' for Inactive)
REMARK    1  A    between atoms: C3'_2  and  C2'_3 
REMARK    2  A    between atoms: C2'_3  and  C1'_4 
REMARK    3  A    between atoms: C1'_4  and  C1_5 
ROOT
ATOM      1  C1  N4B d   1      -3.364   0.676   1.757  0.00  0.00    -0.075 A 
ATOM      2  C2  N4B d   1      -3.797  -0.307   2.674  0.00  0.00     0.002 A 
ATOM      3  C3  N4B d   1      -3.916   0.003   4.007  0.00  0.00     0.002 A 
ATOM      4  C4  N4B d   1      -3.590   1.278   4.446  0.00  0.00    -0.004 A 
ATOM      5  C5  N4B d   1      -3.197   2.228   3.550  0.00  0.00     0.002 A 
ATOM      6  C6  N4B d   1      -3.077   1.932   2.207  0.00  0.00     0.002 A 
ENDROOT
BRANCH   1   7
ATOM      7  C1' N4B d   1      -3.136   0.360   0.304  0.00  0.00     0.057 C 
BRANCH   7   8
ATOM      8  C2' N4B d   1      -3.282  -1.144   0.089  0.00  0.00     0.009 C 
BRANCH   8   9
ATOM      9  C3' N4B d   1      -1.968  -1.877   0.291  0.00  0.00     0.004 C 
ATOM     10  C4' N4B d   1      -2.110  -3.366   0.180  0.00  0.00     0.003 C 
ENDBRANCH   8   9
ENDBRANCH   7   8
ENDBRANCH   1   7
TORSDOF 3
ENDMDL
