MODEL 1
REMARK minimizedAffinity 16.511137
REMARK minimizedRMSD -1
REMARK  1 active torsions:
REMARK  status: ('A' for Active; 'I' for Inactive)
REMARK    1  A    between atoms: N_2  and  C1_3 
ROOT
ATOM      1  C1  UNL d   1      -0.097  -5.165   1.268  0.00  0.00     0.143 A 
ATOM      2  C2  UNL d   1      -0.054  -3.768   1.326  0.00  0.00    -0.057 A 
ATOM      3  C3  UNL d   1      -0.326  -2.986   0.197  0.00  0.00     0.033 A 
ATOM      4  C4  UNL d   1      -0.619  -3.590  -1.021  0.00  0.00    -0.042 A 
ATOM      5  C5  UNL d   1      -0.643  -4.977  -1.108  0.00  0.00     0.033 A 
ATOM      6  C6  UNL d   1      -0.377  -5.753   0.024  0.00  0.00    -0.057 A 
ENDROOT
BRANCH   1   7
ATOM      7  N   UNL d   1       0.260  -5.999   2.330  0.00  0.00    -0.732 N 
ATOM      8  C   UNL d   1      -0.507  -5.999   3.557  0.00  0.00     0.284 C 
ATOM      9  H3  UNL d   1       0.546  -6.924   2.018  0.00  0.00     0.395 HD
ENDBRANCH   1   7
TORSDOF 1
ENDMDL
