MODEL 1
REMARK minimizedAffinity 10.2041922
REMARK minimizedRMSD -1
REMARK  1 active torsions:
REMARK  status: ('A' for Active; 'I' for Inactive)
REMARK    1  A    between atoms: N_2  and  C1_3 
ROOT
ATOM      1  C1  UNL d   1      -0.503   0.403  -3.476  0.00  0.00     0.143 A 
ATOM      2  C2  UNL d   1       0.021   1.498  -4.171  0.00  0.00    -0.057 A 
ATOM      3  C3  UNL d   1      -0.796   2.563  -4.570  0.00  0.00     0.033 A 
ATOM      4  C4  UNL d   1      -2.161   2.537  -4.305  0.00  0.00    -0.042 A 
ATOM      5  C5  UNL d   1      -2.708   1.447  -3.638  0.00  0.00     0.033 A 
ATOM      6  C6  UNL d   1      -1.886   0.390  -3.236  0.00  0.00    -0.057 A 
ENDROOT
BRANCH   1   7
ATOM      7  N   UNL d   1       0.240  -0.732  -3.139  0.00  0.00    -0.732 N 
ATOM      8  C   UNL d   1      -0.379  -2.040  -3.125  0.00  0.00     0.284 C 
ATOM      9  H3  UNL d   1       1.174  -0.718  -3.542  0.00  0.00     0.395 HD
ENDBRANCH   1   7
TORSDOF 1
ENDMDL
