MODEL 1
REMARK minimizedAffinity 11.417819
REMARK minimizedRMSD -1
REMARK  1 active torsions:
REMARK  status: ('A' for Active; 'I' for Inactive)
REMARK    1  A    between atoms: N_2  and  C1_3 
ROOT
ATOM      1  C1  UNL d   1      -0.954  -3.594  -1.676  0.00  0.00     0.143 A 
ATOM      2  C2  UNL d   1      -1.131  -4.908  -2.123  0.00  0.00    -0.057 A 
ATOM      3  C3  UNL d   1      -0.686  -5.999  -1.367  0.00  0.00     0.033 A 
ATOM      4  C4  UNL d   1      -0.028  -5.793  -0.159  0.00  0.00    -0.042 A 
ATOM      5  C5  UNL d   1       0.182  -4.495   0.294  0.00  0.00     0.033 A 
ATOM      6  C6  UNL d   1      -0.271  -3.410  -0.463  0.00  0.00    -0.057 A 
ENDROOT
BRANCH   1   7
ATOM      7  N   UNL d   1      -1.285  -2.465  -2.428  0.00  0.00    -0.732 N 
ATOM      8  C   UNL d   1      -0.287  -1.797  -3.235  0.00  0.00     0.284 C 
ATOM      9  H3  UNL d   1      -2.194  -2.551  -2.878  0.00  0.00     0.395 HD
ENDBRANCH   1   7
TORSDOF 1
ENDMDL
