MODEL 1
REMARK minimizedAffinity 9.6842823
REMARK minimizedRMSD -1
REMARK  1 active torsions:
REMARK  status: ('A' for Active; 'I' for Inactive)
REMARK    1  A    between atoms: N_2  and  C1_3 
ROOT
ATOM      1  C1  UNL d   1       0.539  -2.545   2.600  0.00  0.00     0.143 A 
ATOM      2  C2  UNL d   1      -0.713  -2.506   3.223  0.00  0.00    -0.057 A 
ATOM      3  C3  UNL d   1      -0.847  -2.111   4.560  0.00  0.00     0.033 A 
ATOM      4  C4  UNL d   1       0.277  -1.775   5.308  0.00  0.00    -0.042 A 
ATOM      5  C5  UNL d   1       1.534  -1.831   4.716  0.00  0.00     0.033 A 
ATOM      6  C6  UNL d   1       1.660  -2.220   3.379  0.00  0.00    -0.057 A 
ENDROOT
BRANCH   1   7
ATOM      7  N   UNL d   1       0.748  -3.023   1.304  0.00  0.00    -0.732 N 
ATOM      8  C   UNL d   1      -0.368  -3.236   0.408  0.00  0.00     0.284 C 
ATOM      9  H3  UNL d   1       1.562  -2.603   0.862  0.00  0.00     0.395 HD
ENDBRANCH   1   7
TORSDOF 1
ENDMDL
