MODEL 1
REMARK minimizedAffinity 12.4634924
REMARK minimizedRMSD -1
REMARK  1 active torsions:
REMARK  status: ('A' for Active; 'I' for Inactive)
REMARK    1  A    between atoms: N_2  and  C1_3 
ROOT
ATOM      1  C1  UNL d   1      -3.720   1.140   5.369  0.00  0.00     0.143 A 
ATOM      2  C2  UNL d   1      -2.525   0.767   5.993  0.00  0.00    -0.057 A 
ATOM      3  C3  UNL d   1      -1.751  -0.292   5.503  0.00  0.00     0.033 A 
ATOM      4  C4  UNL d   1      -2.175  -1.018   4.395  0.00  0.00    -0.042 A 
ATOM      5  C5  UNL d   1      -3.373  -0.680   3.774  0.00  0.00     0.033 A 
ATOM      6  C6  UNL d   1      -4.138   0.383   4.263  0.00  0.00    -0.057 A 
ENDROOT
BRANCH   1   7
ATOM      7  N   UNL d   1      -4.584   2.120   5.866  0.00  0.00    -0.732 N 
ATOM      8  C   UNL d   1      -6.000   1.855   6.000  0.00  0.00     0.284 C 
ATOM      9  H3  UNL d   1      -4.181   2.633   6.646  0.00  0.00     0.395 HD
ENDBRANCH   1   7
TORSDOF 1
ENDMDL
