MODEL 1
REMARK minimizedAffinity 14.6677332
REMARK minimizedRMSD -1
REMARK  1 active torsions:
REMARK  status: ('A' for Active; 'I' for Inactive)
REMARK    1  A    between atoms: N_2  and  C1_3 
ROOT
ATOM      1  C1  UNL d   1      -0.542  -3.209  -0.324  0.00  0.00     0.143 A 
ATOM      2  C2  UNL d   1      -0.055  -3.084   0.982  0.00  0.00    -0.057 A 
ATOM      3  C3  UNL d   1       0.298  -4.209   1.736  0.00  0.00     0.033 A 
ATOM      4  C4  UNL d   1       0.142  -5.486   1.206  0.00  0.00    -0.042 A 
ATOM      5  C5  UNL d   1      -0.364  -5.636  -0.080  0.00  0.00     0.033 A 
ATOM      6  C6  UNL d   1      -0.708  -4.508  -0.831  0.00  0.00    -0.057 A 
ENDROOT
BRANCH   1   7
ATOM      7  N   UNL d   1      -1.003  -2.135  -1.089  0.00  0.00    -0.732 N 
ATOM      8  C   UNL d   1      -2.213  -1.433  -0.720  0.00  0.00     0.284 C 
ATOM      9  H3  UNL d   1      -0.248  -1.527  -1.399  0.00  0.00     0.395 HD
ENDBRANCH   1   7
TORSDOF 1
ENDMDL
