MODEL 1
REMARK minimizedAffinity 15.128767
REMARK minimizedRMSD -1
REMARK  1 active torsions:
REMARK  status: ('A' for Active; 'I' for Inactive)
REMARK    1  A    between atoms: N_2  and  C1_3 
ROOT
ATOM      1  C1  UNL d   1      -0.953  -3.168  -0.868  0.00  0.00     0.143 A 
ATOM      2  C2  UNL d   1      -0.811  -3.018  -2.251  0.00  0.00    -0.057 A 
ATOM      3  C3  UNL d   1      -1.425  -1.961  -2.934  0.00  0.00     0.033 A 
ATOM      4  C4  UNL d   1      -2.218  -1.048  -2.246  0.00  0.00    -0.042 A 
ATOM      5  C5  UNL d   1      -2.394  -1.192  -0.875  0.00  0.00     0.033 A 
ATOM      6  C6  UNL d   1      -1.773  -2.246  -0.198  0.00  0.00    -0.057 A 
ENDROOT
BRANCH   1   7
ATOM      7  N   UNL d   1      -0.449  -4.253  -0.147  0.00  0.00    -0.732 N 
ATOM      8  C   UNL d   1      -0.053  -4.100   1.236  0.00  0.00     0.284 C 
ATOM      9  H3  UNL d   1      -0.951  -5.116  -0.342  0.00  0.00     0.395 HD
ENDBRANCH   1   7
TORSDOF 1
ENDMDL
