MODEL 1
REMARK minimizedAffinity 10.4017773
REMARK minimizedRMSD -1
REMARK  1 active torsions:
REMARK  status: ('A' for Active; 'I' for Inactive)
REMARK    1  A    between atoms: N_2  and  C1_3 
ROOT
ATOM      1  C1  UNL d   1      -5.049   5.115   0.496  0.00  0.00     0.143 A 
ATOM      2  C2  UNL d   1      -3.908   4.309   0.426  0.00  0.00    -0.057 A 
ATOM      3  C3  UNL d   1      -3.047   4.364  -0.677  0.00  0.00     0.033 A 
ATOM      4  C4  UNL d   1      -3.329   5.208  -1.746  0.00  0.00    -0.042 A 
ATOM      5  C5  UNL d   1      -4.471   6.000  -1.709  0.00  0.00     0.033 A 
ATOM      6  C6  UNL d   1      -5.324   5.946  -0.602  0.00  0.00    -0.057 A 
ENDROOT
BRANCH   1   7
ATOM      7  N   UNL d   1      -5.997   5.036   1.520  0.00  0.00    -0.732 N 
ATOM      8  C   UNL d   1      -5.999   6.000   2.599  0.00  0.00     0.284 C 
ATOM      9  H3  UNL d   1      -6.923   4.797   1.174  0.00  0.00     0.395 HD
ENDBRANCH   1   7
TORSDOF 1
ENDMDL
