MODEL 1
REMARK minimizedAffinity 12.4531536
REMARK minimizedRMSD -1
REMARK  1 active torsions:
REMARK  status: ('A' for Active; 'I' for Inactive)
REMARK    1  A    between atoms: N_2  and  C1_3 
ROOT
ATOM      1  C1  UNL d   1      -2.663   0.439   5.421  0.00  0.00     0.143 A 
ATOM      2  C2  UNL d   1      -1.545  -0.172   6.000  0.00  0.00    -0.057 A 
ATOM      3  C3  UNL d   1      -0.973  -1.320   5.440  0.00  0.00     0.033 A 
ATOM      4  C4  UNL d   1      -1.528  -1.897   4.303  0.00  0.00    -0.042 A 
ATOM      5  C5  UNL d   1      -2.654  -1.322   3.724  0.00  0.00     0.033 A 
ATOM      6  C6  UNL d   1      -3.217  -0.172   4.285  0.00  0.00    -0.057 A 
ENDROOT
BRANCH   1   7
ATOM      7  N   UNL d   1      -3.336   1.524   5.986  0.00  0.00    -0.732 N 
ATOM      8  C   UNL d   1      -4.783   1.569   5.997  0.00  0.00     0.284 C 
ATOM      9  H3  UNL d   1      -2.904   1.843   6.850  0.00  0.00     0.395 HD
ENDBRANCH   1   7
TORSDOF 1
ENDMDL
