MODEL 1
REMARK minimizedAffinity 18.8642731
REMARK minimizedRMSD -1
REMARK  1 active torsions:
REMARK  status: ('A' for Active; 'I' for Inactive)
REMARK    1  A    between atoms: N_2  and  C1_3 
ROOT
ATOM      1  C1  UNL d   1       3.756  -0.469  -3.214  0.00  0.00     0.143 A 
ATOM      2  C2  UNL d   1       3.599   0.598  -2.322  0.00  0.00    -0.057 A 
ATOM      3  C3  UNL d   1       2.333   0.970  -1.852  0.00  0.00     0.033 A 
ATOM      4  C4  UNL d   1       1.197   0.298  -2.289  0.00  0.00    -0.042 A 
ATOM      5  C5  UNL d   1       1.327  -0.749  -3.194  0.00  0.00     0.033 A 
ATOM      6  C6  UNL d   1       2.594  -1.120  -3.655  0.00  0.00    -0.057 A 
ENDROOT
BRANCH   1   7
ATOM      7  N   UNL d   1       4.976  -0.824  -3.794  0.00  0.00    -0.732 N 
ATOM      8  C   UNL d   1       6.000   0.173  -4.027  0.00  0.00     0.284 C 
ATOM      9  H3  UNL d   1       5.331  -1.709  -3.441  0.00  0.00     0.395 HD
ENDBRANCH   1   7
TORSDOF 1
ENDMDL
