MODEL 1
REMARK minimizedAffinity 8.58745766
REMARK minimizedRMSD -1
REMARK  1 active torsions:
REMARK  status: ('A' for Active; 'I' for Inactive)
REMARK    1  A    between atoms: N_2  and  C1_3 
ROOT
ATOM      1  C1  UNL d   1       3.848   2.168   3.223  0.00  0.00     0.143 A 
ATOM      2  C2  UNL d   1       5.003   1.390   3.091  0.00  0.00    -0.057 A 
ATOM      3  C3  UNL d   1       6.000   1.398   4.074  0.00  0.00     0.033 A 
ATOM      4  C4  UNL d   1       5.872   2.211   5.196  0.00  0.00    -0.042 A 
ATOM      5  C5  UNL d   1       4.745   3.012   5.335  0.00  0.00     0.033 A 
ATOM      6  C6  UNL d   1       3.749   2.994   4.354  0.00  0.00    -0.057 A 
ENDROOT
BRANCH   1   7
ATOM      7  N   UNL d   1       2.867   2.278   2.234  0.00  0.00    -0.732 N 
ATOM      8  C   UNL d   1       3.233   2.326   0.835  0.00  0.00     0.284 C 
ATOM      9  H3  UNL d   1       2.051   1.703   2.431  0.00  0.00     0.395 HD
ENDBRANCH   1   7
TORSDOF 1
ENDMDL
