MODEL 1
REMARK minimizedAffinity 6.41411114
REMARK minimizedRMSD -1
REMARK  1 active torsions:
REMARK  status: ('A' for Active; 'I' for Inactive)
REMARK    1  A    between atoms: N_2  and  C1_3 
ROOT
ATOM      1  C1  UNL d   1       0.329  -0.220  -2.025  0.00  0.00     0.143 A 
ATOM      2  C2  UNL d   1      -0.444  -0.790  -3.042  0.00  0.00    -0.057 A 
ATOM      3  C3  UNL d   1      -1.674  -1.399  -2.764  0.00  0.00     0.033 A 
ATOM      4  C4  UNL d   1      -2.141  -1.474  -1.456  0.00  0.00    -0.042 A 
ATOM      5  C5  UNL d   1      -1.377  -0.936  -0.426  0.00  0.00     0.033 A 
ATOM      6  C6  UNL d   1      -0.153  -0.323  -0.711  0.00  0.00    -0.057 A 
ENDROOT
BRANCH   1   7
ATOM      7  N   UNL d   1       1.605   0.312  -2.224  0.00  0.00    -0.732 N 
ATOM      8  C   UNL d   1       1.969   1.590  -1.650  0.00  0.00     0.284 C 
ATOM      9  H3  UNL d   1       2.335  -0.395  -2.161  0.00  0.00     0.395 HD
ENDBRANCH   1   7
TORSDOF 1
ENDMDL
