MODEL 1
REMARK minimizedAffinity -5.0032444
REMARK minimizedRMSD -1
REMARK  0 active torsions:
REMARK  status: ('A' for Active; 'I' for Inactive)
ROOT
ATOM      1  C   UNL d   1       0.129   0.852   3.515  0.00  0.00     0.023 A 
ATOM      2  C1  UNL d   1      -0.757   1.424   2.602  0.00  0.00     0.003 A 
ATOM      3  C2  UNL d   1      -0.711   1.053   1.257  0.00  0.00     0.048 A 
ATOM      4  C3  UNL d   1       0.222   0.108   0.831  0.00  0.00     0.023 A 
ATOM      5  C4  UNL d   1       1.111  -0.467   1.742  0.00  0.00     0.048 A 
ATOM      6  C5  UNL d   1       1.062  -0.092   3.086  0.00  0.00     0.003 A 
ATOM      7  I   UNL d   1       0.292  -0.446  -1.170  0.00  0.00    -0.146 I 
ENDROOT
TORSDOF 0
ENDMDL
