MODEL 1
REMARK minimizedAffinity -4.92595577
REMARK minimizedRMSD -1
REMARK  0 active torsions:
REMARK  status: ('A' for Active; 'I' for Inactive)
ROOT
ATOM      1  C   UNL d   1       1.009   0.472   3.120  0.00  0.00     0.023 A 
ATOM      2  C1  UNL d   1      -0.324   0.824   3.335  0.00  0.00     0.003 A 
ATOM      3  C2  UNL d   1      -1.238   0.779   2.280  0.00  0.00     0.048 A 
ATOM      4  C3  UNL d   1      -0.813   0.381   1.013  0.00  0.00     0.023 A 
ATOM      5  C4  UNL d   1       0.519   0.027   0.794  0.00  0.00     0.048 A 
ATOM      6  C5  UNL d   1       1.430   0.074   1.851  0.00  0.00     0.003 A 
ATOM      7  I   UNL d   1      -2.172   0.313  -0.558  0.00  0.00    -0.146 I 
ENDROOT
TORSDOF 0
ENDMDL
