MODEL 1
REMARK minimizedAffinity -3.70506525
REMARK minimizedRMSD -1
REMARK  0 active torsions:
REMARK  status: ('A' for Active; 'I' for Inactive)
ROOT
ATOM      1  C   UNL d   1      -0.979   1.157   3.224  0.00  0.00     0.023 A 
ATOM      2  C1  UNL d   1       0.170   1.708   2.659  0.00  0.00     0.003 A 
ATOM      3  C2  UNL d   1       0.607   1.280   1.403  0.00  0.00     0.048 A 
ATOM      4  C3  UNL d   1      -0.111   0.300   0.719  0.00  0.00     0.023 A 
ATOM      5  C4  UNL d   1      -1.262  -0.255   1.281  0.00  0.00     0.048 A 
ATOM      6  C5  UNL d   1      -1.695   0.176   2.536  0.00  0.00     0.003 A 
ATOM      7  I   UNL d   1       0.537  -0.339  -1.150  0.00  0.00    -0.146 I 
ENDROOT
TORSDOF 0
ENDMDL
