MODEL 1
REMARK minimizedAffinity -4.47437811
REMARK minimizedRMSD -1
REMARK  0 active torsions:
REMARK  status: ('A' for Active; 'I' for Inactive)
ROOT
ATOM      1  C   UNL d   1      -0.818   0.858   3.052  0.00  0.00     0.023 A 
ATOM      2  C1  UNL d   1      -1.735   0.964   2.006  0.00  0.00     0.003 A 
ATOM      3  C2  UNL d   1      -1.345   0.662   0.700  0.00  0.00     0.048 A 
ATOM      4  C3  UNL d   1      -0.036   0.252   0.447  0.00  0.00     0.023 A 
ATOM      5  C4  UNL d   1       0.885   0.144   1.490  0.00  0.00     0.048 A 
ATOM      6  C5  UNL d   1       0.490   0.448   2.794  0.00  0.00     0.003 A 
ATOM      7  I   UNL d   1       0.547  -0.199  -1.496  0.00  0.00    -0.146 I 
ENDROOT
TORSDOF 0
ENDMDL
