MODEL 1
REMARK minimizedAffinity -3.41876149
REMARK minimizedRMSD -1
REMARK  0 active torsions:
REMARK  status: ('A' for Active; 'I' for Inactive)
ROOT
ATOM      1  C   UNL d   1      -0.682   0.949   3.490  0.00  0.00     0.023 A 
ATOM      2  C1  UNL d   1       0.525   0.274   3.304  0.00  0.00     0.003 A 
ATOM      3  C2  UNL d   1       0.898  -0.155   2.028  0.00  0.00     0.048 A 
ATOM      4  C3  UNL d   1       0.059   0.095   0.943  0.00  0.00     0.023 A 
ATOM      5  C4  UNL d   1      -1.149   0.771   1.123  0.00  0.00     0.048 A 
ATOM      6  C5  UNL d   1      -1.518   1.197   2.401  0.00  0.00     0.003 A 
ATOM      7  I   UNL d   1       0.611  -0.542  -0.957  0.00  0.00    -0.146 I 
ENDROOT
TORSDOF 0
ENDMDL
