MODEL 1
REMARK minimizedAffinity -2.57653093
REMARK minimizedRMSD -1
REMARK  1 active torsions:
REMARK  status: ('A' for Active; 'I' for Inactive)
REMARK    1  A    between atoms: C1_2  and  C2_3 
ROOT
ATOM      1  C2  UNL d   1      -1.318  -0.561  -0.658  0.00  0.00    -0.081 A 
ATOM      2  C3  UNL d   1      -0.493  -0.940   0.408  0.00  0.00     0.006 A 
ATOM      3  C4  UNL d   1       0.659  -0.208   0.706  0.00  0.00     0.002 A 
ATOM      4  C5  UNL d   1       1.000   0.918  -0.050  0.00  0.00    -0.080 A 
ATOM      5  C6  UNL d   1       2.218   1.730   0.278  0.00  0.00     0.076 C 
ATOM      6  C7  UNL d   1       0.185   1.287  -1.126  0.00  0.00     0.002 A 
ATOM      7  C8  UNL d   1      -0.967   0.555  -1.425  0.00  0.00     0.006 A 
ENDROOT
BRANCH   1   8
ATOM      8  C1  UNL d   1      -2.596  -1.310  -0.942  0.00  0.00     0.054 C 
ATOM      9  C   UNL d   1      -3.748  -0.776  -0.103  0.00  0.00     0.018 C 
ENDBRANCH   1   8
TORSDOF 1
ENDMDL
