MODEL 1
REMARK minimizedAffinity -4.75829744
REMARK minimizedRMSD -1
REMARK  1 active torsions:
REMARK  status: ('A' for Active; 'I' for Inactive)
REMARK    1  A    between atoms: C1_2  and  C2_3 
ROOT
ATOM      1  C2  UNL d   1       1.015   0.492  -0.089  0.00  0.00    -0.081 A 
ATOM      2  C3  UNL d   1       0.344   0.664  -1.306  0.00  0.00     0.006 A 
ATOM      3  C4  UNL d   1      -0.955   0.177  -1.473  0.00  0.00     0.002 A 
ATOM      4  C5  UNL d   1      -1.606  -0.483  -0.425  0.00  0.00    -0.080 A 
ATOM      5  C6  UNL d   1      -3.011  -0.984  -0.582  0.00  0.00     0.076 C 
ATOM      6  C7  UNL d   1      -0.929  -0.670   0.784  0.00  0.00     0.002 A 
ATOM      7  C8  UNL d   1       0.369  -0.184   0.952  0.00  0.00     0.006 A 
ENDROOT
BRANCH   1   8
ATOM      8  C1  UNL d   1       2.391   1.073   0.116  0.00  0.00     0.054 C 
ATOM      9  C   UNL d   1       2.407   2.063   1.272  0.00  0.00     0.018 C 
ENDBRANCH   1   8
TORSDOF 1
ENDMDL
