MODEL 1
REMARK minimizedAffinity -2.78241491
REMARK minimizedRMSD -1
REMARK  1 active torsions:
REMARK  status: ('A' for Active; 'I' for Inactive)
REMARK    1  A    between atoms: C1_2  and  C2_3 
ROOT
ATOM      1  C2  UNL d   1       0.618   0.179   0.008  0.00  0.00    -0.081 A 
ATOM      2  C3  UNL d   1       0.017  -0.497   1.077  0.00  0.00     0.006 A 
ATOM      3  C4  UNL d   1      -1.272  -1.019   0.951  0.00  0.00     0.002 A 
ATOM      4  C5  UNL d   1      -1.979  -0.882  -0.249  0.00  0.00    -0.080 A 
ATOM      5  C6  UNL d   1      -3.352  -1.464  -0.408  0.00  0.00     0.076 C 
ATOM      6  C7  UNL d   1      -1.386  -0.192  -1.311  0.00  0.00     0.002 A 
ATOM      7  C8  UNL d   1      -0.097   0.331  -1.185  0.00  0.00     0.006 A 
ENDROOT
BRANCH   1   8
ATOM      8  C1  UNL d   1       2.033   0.686   0.119  0.00  0.00     0.054 C 
ATOM      9  C   UNL d   1       2.204   1.585   1.336  0.00  0.00     0.018 C 
ENDBRANCH   1   8
TORSDOF 1
ENDMDL
