MODEL 1
REMARK minimizedAffinity -5.28678036
REMARK minimizedRMSD -1
REMARK  1 active torsions:
REMARK  status: ('A' for Active; 'I' for Inactive)
REMARK    1  A    between atoms: C1_2  and  C2_3 
ROOT
ATOM      1  C2  UNL d   1       1.174   0.317  -0.132  0.00  0.00    -0.081 A 
ATOM      2  C3  UNL d   1       0.395   0.754  -1.210  0.00  0.00     0.006 A 
ATOM      3  C4  UNL d   1      -0.953   0.401  -1.299  0.00  0.00     0.002 A 
ATOM      4  C5  UNL d   1      -1.547  -0.389  -0.308  0.00  0.00    -0.080 A 
ATOM      5  C6  UNL d   1      -3.001  -0.750  -0.375  0.00  0.00     0.076 C 
ATOM      6  C7  UNL d   1      -0.764  -0.840   0.761  0.00  0.00     0.002 A 
ATOM      7  C8  UNL d   1       0.584  -0.487   0.849  0.00  0.00     0.006 A 
ENDROOT
BRANCH   1   8
ATOM      8  C1  UNL d   1       2.612   0.750   0.000  0.00  0.00     0.054 C 
ATOM      9  C   UNL d   1       2.755   1.901   0.986  0.00  0.00     0.018 C 
ENDBRANCH   1   8
TORSDOF 1
ENDMDL
