MODEL 1
REMARK minimizedAffinity -4.60679913
REMARK minimizedRMSD -1
REMARK  1 active torsions:
REMARK  status: ('A' for Active; 'I' for Inactive)
REMARK    1  A    between atoms: C1_2  and  C2_3 
ROOT
ATOM      1  C2  UNL d   1       0.569   0.173  -0.003  0.00  0.00    -0.081 A 
ATOM      2  C3  UNL d   1      -0.230   0.456  -1.118  0.00  0.00     0.006 A 
ATOM      3  C4  UNL d   1      -1.550   0.002  -1.176  0.00  0.00     0.002 A 
ATOM      4  C5  UNL d   1      -2.095  -0.734  -0.119  0.00  0.00    -0.080 A 
ATOM      5  C6  UNL d   1      -3.520  -1.201  -0.156  0.00  0.00     0.076 C 
ATOM      6  C7  UNL d   1      -1.292  -1.031   0.987  0.00  0.00     0.002 A 
ATOM      7  C8  UNL d   1       0.028  -0.579   1.046  0.00  0.00     0.006 A 
ENDROOT
BRANCH   1   8
ATOM      8  C1  UNL d   1       1.972   0.716   0.092  0.00  0.00     0.054 C 
ATOM      9  C   UNL d   1       1.991   2.090   0.746  0.00  0.00     0.018 C 
ENDBRANCH   1   8
TORSDOF 1
ENDMDL
