MODEL 1
REMARK minimizedAffinity -4.80558252
REMARK minimizedRMSD -1
REMARK  1 active torsions:
REMARK  status: ('A' for Active; 'I' for Inactive)
REMARK    1  A    between atoms: C1_2  and  C2_3 
ROOT
ATOM      1  C2  UNL d   1       0.866   0.567   0.087  0.00  0.00    -0.081 A 
ATOM      2  C3  UNL d   1       0.107   0.891  -1.044  0.00  0.00     0.006 A 
ATOM      3  C4  UNL d   1      -1.193   0.399  -1.190  0.00  0.00     0.002 A 
ATOM      4  C5  UNL d   1      -1.757  -0.418  -0.205  0.00  0.00    -0.080 A 
ATOM      5  C6  UNL d   1      -3.161  -0.929  -0.335  0.00  0.00     0.076 C 
ATOM      6  C7  UNL d   1      -0.992  -0.756   0.917  0.00  0.00     0.002 A 
ATOM      7  C8  UNL d   1       0.307  -0.265   1.063  0.00  0.00     0.006 A 
ENDROOT
BRANCH   1   8
ATOM      8  C1  UNL d   1       2.243   1.149   0.278  0.00  0.00     0.054 C 
ATOM      9  C   UNL d   1       2.231   2.273   1.304  0.00  0.00     0.018 C 
ENDBRANCH   1   8
TORSDOF 1
ENDMDL
