MODEL 1
REMARK minimizedAffinity -5.08037663
REMARK minimizedRMSD -1
REMARK  1 active torsions:
REMARK  status: ('A' for Active; 'I' for Inactive)
REMARK    1  A    between atoms: C1_2  and  C2_3 
ROOT
ATOM      1  C2  UNL d   1       0.968   0.599   0.097  0.00  0.00    -0.081 A 
ATOM      2  C3  UNL d   1       0.309   0.880  -1.106  0.00  0.00     0.006 A 
ATOM      3  C4  UNL d   1      -0.962   0.358  -1.356  0.00  0.00     0.002 A 
ATOM      4  C5  UNL d   1      -1.598  -0.448  -0.405  0.00  0.00    -0.080 A 
ATOM      5  C6  UNL d   1      -2.975  -0.990  -0.648  0.00  0.00     0.076 C 
ATOM      6  C7  UNL d   1      -0.932  -0.743   0.790  0.00  0.00     0.002 A 
ATOM      7  C8  UNL d   1       0.339  -0.221   1.040  0.00  0.00     0.006 A 
ENDROOT
BRANCH   1   8
ATOM      8  C1  UNL d   1       2.311   1.214   0.397  0.00  0.00     0.054 C 
ATOM      9  C   UNL d   1       2.228   2.180   1.571  0.00  0.00     0.018 C 
ENDBRANCH   1   8
TORSDOF 1
ENDMDL
