MODEL 1
REMARK minimizedAffinity 2.3907721
REMARK minimizedRMSD -1
REMARK  1 active torsions:
REMARK  status: ('A' for Active; 'I' for Inactive)
REMARK    1  A    between atoms: C1_2  and  C2_3 
ROOT
ATOM      1  C2  UNL d   1       0.082   0.388  -0.408  0.00  0.00    -0.081 A 
ATOM      2  C3  UNL d   1       0.996  -0.306   0.393  0.00  0.00     0.006 A 
ATOM      3  C4  UNL d   1       0.549  -1.122   1.436  0.00  0.00     0.002 A 
ATOM      4  C5  UNL d   1      -0.820  -1.263   1.689  0.00  0.00    -0.080 A 
ATOM      5  C6  UNL d   1      -1.315  -2.158   2.785  0.00  0.00     0.076 C 
ATOM      6  C7  UNL d   1      -1.733  -0.556   0.899  0.00  0.00     0.002 A 
ATOM      7  C8  UNL d   1      -1.286   0.260  -0.142  0.00  0.00     0.006 A 
ENDROOT
BRANCH   1   8
ATOM      8  C1  UNL d   1       0.558   1.217  -1.573  0.00  0.00     0.054 C 
ATOM      9  C   UNL d   1       0.066   0.647  -2.896  0.00  0.00     0.018 C 
ENDBRANCH   1   8
TORSDOF 1
ENDMDL
