MODEL 1
REMARK minimizedAffinity -3.66012073
REMARK minimizedRMSD -1
REMARK  1 active torsions:
REMARK  status: ('A' for Active; 'I' for Inactive)
REMARK    1  A    between atoms: C1_2  and  C2_3 
ROOT
ATOM      1  C2  UNL d   1       1.030   0.647  -0.023  0.00  0.00    -0.081 A 
ATOM      2  C3  UNL d   1       0.258   0.781  -1.183  0.00  0.00     0.006 A 
ATOM      3  C4  UNL d   1      -1.049   0.289  -1.225  0.00  0.00     0.002 A 
ATOM      4  C5  UNL d   1      -1.608  -0.337  -0.106  0.00  0.00    -0.080 A 
ATOM      5  C6  UNL d   1      -3.020  -0.843  -0.128  0.00  0.00     0.076 C 
ATOM      6  C7  UNL d   1      -0.831  -0.487   1.048  0.00  0.00     0.002 A 
ATOM      7  C8  UNL d   1       0.476   0.004   1.090  0.00  0.00     0.006 A 
ENDROOT
BRANCH   1   8
ATOM      8  C1  UNL d   1       2.416   1.233   0.048  0.00  0.00     0.054 C 
ATOM      9  C   UNL d   1       2.413   2.577   0.762  0.00  0.00     0.018 C 
ENDBRANCH   1   8
TORSDOF 1
ENDMDL
