MODEL 1
REMARK minimizedAffinity -3.76857543
REMARK minimizedRMSD -1
REMARK  1 active torsions:
REMARK  status: ('A' for Active; 'I' for Inactive)
REMARK    1  A    between atoms: C1_2  and  C2_3 
ROOT
ATOM      1  C2  UNL d   1       0.340   0.006   0.403  0.00  0.00    -0.081 A 
ATOM      2  C3  UNL d   1      -0.325  -0.798   1.337  0.00  0.00     0.006 A 
ATOM      3  C4  UNL d   1      -1.620  -1.256   1.081  0.00  0.00     0.002 A 
ATOM      4  C5  UNL d   1      -2.267  -0.926  -0.114  0.00  0.00    -0.080 A 
ATOM      5  C6  UNL d   1      -3.645  -1.437  -0.414  0.00  0.00     0.076 C 
ATOM      6  C7  UNL d   1      -1.609  -0.109  -1.040  0.00  0.00     0.002 A 
ATOM      7  C8  UNL d   1      -0.315   0.351  -0.785  0.00  0.00     0.006 A 
ENDROOT
BRANCH   1   8
ATOM      8  C1  UNL d   1       1.761   0.448   0.647  0.00  0.00     0.054 C 
ATOM      9  C   UNL d   1       1.943   1.925   0.324  0.00  0.00     0.018 C 
ENDBRANCH   1   8
TORSDOF 1
ENDMDL
