MODEL 1
REMARK minimizedAffinity 5.73676968
REMARK minimizedRMSD -1
REMARK  3 active torsions:
REMARK  status: ('A' for Active; 'I' for Inactive)
REMARK    1  A    between atoms: C3'_2  and  C2'_3 
REMARK    2  A    between atoms: C2'_3  and  C1'_4 
REMARK    3  A    between atoms: C1'_4  and  C1_5 
ROOT
ATOM      1  C1  N4B d   1       0.153   1.576  -0.788  0.00  0.00    -0.075 A 
ATOM      2  C2  N4B d   1       0.205   2.755  -0.012  0.00  0.00     0.002 A 
ATOM      3  C3  N4B d   1       0.136   2.680   1.357  0.00  0.00     0.002 A 
ATOM      4  C4  N4B d   1      -0.003   1.443   1.970  0.00  0.00    -0.004 A 
ATOM      5  C5  N4B d   1      -0.026   0.307   1.214  0.00  0.00     0.002 A 
ATOM      6  C6  N4B d   1       0.046   0.368  -0.163  0.00  0.00     0.002 A 
ENDROOT
BRANCH   1   7
ATOM      7  C1' N4B d   1       0.139   1.615  -2.292  0.00  0.00     0.057 C 
BRANCH   7   8
ATOM      8  C2' N4B d   1       1.362   0.875  -2.824  0.00  0.00     0.009 C 
BRANCH   8   9
ATOM      9  C3' N4B d   1       1.120   0.299  -4.208  0.00  0.00     0.004 C 
ATOM     10  C4' N4B d   1       1.455   1.264  -5.306  0.00  0.00     0.003 C 
ENDBRANCH   8   9
ENDBRANCH   7   8
ENDBRANCH   1   7
TORSDOF 3
ENDMDL
