MODEL 1
REMARK minimizedAffinity 5.30583715
REMARK minimizedRMSD -1
REMARK  3 active torsions:
REMARK  status: ('A' for Active; 'I' for Inactive)
REMARK    1  A    between atoms: C3'_2  and  C2'_3 
REMARK    2  A    between atoms: C2'_3  and  C1'_4 
REMARK    3  A    between atoms: C1'_4  and  C1_5 
ROOT
ATOM      1  C1  N4B d   1      -4.133   2.990  -4.040  0.00  0.00    -0.075 A 
ATOM      2  C2  N4B d   1      -4.609   4.012  -4.890  0.00  0.00     0.002 A 
ATOM      3  C3  N4B d   1      -5.543   3.723  -5.855  0.00  0.00     0.002 A 
ATOM      4  C4  N4B d   1      -6.000   2.422  -5.999  0.00  0.00    -0.004 A 
ATOM      5  C5  N4B d   1      -5.554   1.445  -5.157  0.00  0.00     0.002 A 
ATOM      6  C6  N4B d   1      -4.619   1.722  -4.181  0.00  0.00     0.002 A 
ENDROOT
BRANCH   1   7
ATOM      7  C1' N4B d   1      -3.049   3.239  -3.027  0.00  0.00     0.057 C 
BRANCH   7   8
ATOM      8  C2' N4B d   1      -2.442   1.905  -2.604  0.00  0.00     0.009 C 
BRANCH   8   9
ATOM      9  C3' N4B d   1      -2.043   1.901  -1.139  0.00  0.00     0.004 C 
ATOM     10  C4' N4B d   1      -0.635   1.432  -0.921  0.00  0.00     0.003 C 
ENDBRANCH   8   9
ENDBRANCH   7   8
ENDBRANCH   1   7
TORSDOF 3
ENDMDL
