MODEL 1
REMARK minimizedAffinity 3.01646686
REMARK minimizedRMSD -1
REMARK  3 active torsions:
REMARK  status: ('A' for Active; 'I' for Inactive)
REMARK    1  A    between atoms: C3'_2  and  C2'_3 
REMARK    2  A    between atoms: C2'_3  and  C1'_4 
REMARK    3  A    between atoms: C1'_4  and  C1_5 
ROOT
ATOM      1  C1  N4B d   1      -3.311   3.311  -4.699  0.00  0.00    -0.075 A 
ATOM      2  C2  N4B d   1      -4.024   2.558  -3.741  0.00  0.00     0.002 A 
ATOM      3  C3  N4B d   1      -5.356   2.285  -3.935  0.00  0.00     0.002 A 
ATOM      4  C4  N4B d   1      -5.997   2.769  -5.065  0.00  0.00    -0.004 A 
ATOM      5  C5  N4B d   1      -5.295   3.474  -5.998  0.00  0.00     0.002 A 
ATOM      6  C6  N4B d   1      -3.955   3.753  -5.818  0.00  0.00     0.002 A 
ENDROOT
BRANCH   1   7
ATOM      7  C1' N4B d   1      -1.875   3.708  -4.489  0.00  0.00     0.057 C 
BRANCH   7   8
ATOM      8  C2' N4B d   1      -1.150   2.590  -3.746  0.00  0.00     0.009 C 
BRANCH   8   9
ATOM      9  C3' N4B d   1       0.068   2.098  -4.508  0.00  0.00     0.004 C 
ATOM     10  C4' N4B d   1       0.893   1.125  -3.720  0.00  0.00     0.003 C 
ENDBRANCH   8   9
ENDBRANCH   7   8
ENDBRANCH   1   7
TORSDOF 3
ENDMDL
