MODEL 1
REMARK minimizedAffinity 10.0476646
REMARK minimizedRMSD -1
REMARK  3 active torsions:
REMARK  status: ('A' for Active; 'I' for Inactive)
REMARK    1  A    between atoms: C3'_2  and  C2'_3 
REMARK    2  A    between atoms: C2'_3  and  C1'_4 
REMARK    3  A    between atoms: C1'_4  and  C1_5 
ROOT
ATOM      1  C1  N4B d   1       0.300   1.259  -1.150  0.00  0.00    -0.075 A 
ATOM      2  C2  N4B d   1       0.019   2.308  -0.248  0.00  0.00     0.002 A 
ATOM      3  C3  N4B d   1      -0.035   2.057   1.102  0.00  0.00     0.002 A 
ATOM      4  C4  N4B d   1       0.167   0.767   1.568  0.00  0.00    -0.004 A 
ATOM      5  C5  N4B d   1       0.463  -0.236   0.692  0.00  0.00     0.002 A 
ATOM      6  C6  N4B d   1       0.526   0.003  -0.666  0.00  0.00     0.002 A 
ENDROOT
BRANCH   1   7
ATOM      7  C1' N4B d   1       0.286   1.467  -2.640  0.00  0.00     0.057 C 
BRANCH   7   8
ATOM      8  C2' N4B d   1       0.717   0.176  -3.330  0.00  0.00     0.009 C 
BRANCH   8   9
ATOM      9  C3' N4B d   1       1.542   0.447  -4.577  0.00  0.00     0.004 C 
ATOM     10  C4' N4B d   1       1.250   1.785  -5.186  0.00  0.00     0.003 C 
ENDBRANCH   8   9
ENDBRANCH   7   8
ENDBRANCH   1   7
TORSDOF 3
ENDMDL
