MODEL 1
REMARK minimizedAffinity 6.1080761
REMARK minimizedRMSD -1
REMARK  3 active torsions:
REMARK  status: ('A' for Active; 'I' for Inactive)
REMARK    1  A    between atoms: C3'_2  and  C2'_3 
REMARK    2  A    between atoms: C2'_3  and  C1'_4 
REMARK    3  A    between atoms: C1'_4  and  C1_5 
ROOT
ATOM      1  C1  N4B d   1       0.282   1.484  -0.508  0.00  0.00    -0.075 A 
ATOM      2  C2  N4B d   1       0.062   2.584   0.351  0.00  0.00     0.002 A 
ATOM      3  C3  N4B d   1       0.299   2.461   1.698  0.00  0.00     0.002 A 
ATOM      4  C4  N4B d   1       0.737   1.248   2.210  0.00  0.00    -0.004 A 
ATOM      5  C5  N4B d   1       0.971   0.199   1.370  0.00  0.00     0.002 A 
ATOM      6  C6  N4B d   1       0.740   0.309   0.014  0.00  0.00     0.002 A 
ENDROOT
BRANCH   1   7
ATOM      7  C1' N4B d   1      -0.046   1.544  -1.975  0.00  0.00     0.057 C 
BRANCH   7   8
ATOM      8  C2' N4B d   1       1.188   1.145  -2.779  0.00  0.00     0.009 C 
BRANCH   8   9
ATOM      9  C3' N4B d   1       0.844   0.821  -4.223  0.00  0.00     0.004 C 
ATOM     10  C4' N4B d   1       0.927   2.018  -5.123  0.00  0.00     0.003 C 
ENDBRANCH   8   9
ENDBRANCH   7   8
ENDBRANCH   1   7
TORSDOF 3
ENDMDL
