MODEL 1
REMARK minimizedAffinity 7.01419353
REMARK minimizedRMSD -1
REMARK  3 active torsions:
REMARK  status: ('A' for Active; 'I' for Inactive)
REMARK    1  A    between atoms: C3'_2  and  C2'_3 
REMARK    2  A    between atoms: C2'_3  and  C1'_4 
REMARK    3  A    between atoms: C1'_4  and  C1_5 
ROOT
ATOM      1  C1  N4B d   1      -4.720   3.677  -4.929  0.00  0.00    -0.075 A 
ATOM      2  C2  N4B d   1      -5.516   3.210  -5.999  0.00  0.00     0.002 A 
ATOM      3  C3  N4B d   1      -5.999   1.925  -5.985  0.00  0.00     0.002 A 
ATOM      4  C4  N4B d   1      -5.687   1.086  -4.925  0.00  0.00    -0.004 A 
ATOM      5  C5  N4B d   1      -4.940   1.552  -3.884  0.00  0.00     0.002 A 
ATOM      6  C6  N4B d   1      -4.450   2.843  -3.883  0.00  0.00     0.002 A 
ENDROOT
BRANCH   1   7
ATOM      7  C1' N4B d   1      -4.098   5.046  -4.941  0.00  0.00     0.057 C 
BRANCH   7   8
ATOM      8  C2' N4B d   1      -2.583   4.908  -4.825  0.00  0.00     0.009 C 
BRANCH   8   9
ATOM      9  C3' N4B d   1      -1.852   5.950  -5.655  0.00  0.00     0.004 C 
ATOM     10  C4' N4B d   1      -0.368   5.925  -5.442  0.00  0.00     0.003 C 
ENDBRANCH   8   9
ENDBRANCH   7   8
ENDBRANCH   1   7
TORSDOF 3
ENDMDL
