MODEL 1
REMARK minimizedAffinity 5.22158146
REMARK minimizedRMSD -1
REMARK  3 active torsions:
REMARK  status: ('A' for Active; 'I' for Inactive)
REMARK    1  A    between atoms: C3'_2  and  C2'_3 
REMARK    2  A    between atoms: C2'_3  and  C1'_4 
REMARK    3  A    between atoms: C1'_4  and  C1_5 
ROOT
ATOM      1  C1  N4B d   1       1.201  -0.236   0.261  0.00  0.00    -0.075 A 
ATOM      2  C2  N4B d   1       1.315   0.717  -0.775  0.00  0.00     0.002 A 
ATOM      3  C3  N4B d   1       0.755   1.962  -0.626  0.00  0.00     0.002 A 
ATOM      4  C4  N4B d   1       0.063   2.269   0.535  0.00  0.00    -0.004 A 
ATOM      5  C5  N4B d   1      -0.021   1.352   1.541  0.00  0.00     0.002 A 
ATOM      6  C6  N4B d   1       0.540   0.098   1.408  0.00  0.00     0.002 A 
ENDROOT
BRANCH   1   7
ATOM      7  C1' N4B d   1       1.722  -1.639   0.110  0.00  0.00     0.057 C 
BRANCH   7   8
ATOM      8  C2' N4B d   1       0.576  -2.558  -0.302  0.00  0.00     0.009 C 
BRANCH   8   9
ATOM      9  C3' N4B d   1       1.073  -3.796  -1.028  0.00  0.00     0.004 C 
ATOM     10  C4' N4B d   1       1.378  -4.932  -0.098  0.00  0.00     0.003 C 
ENDBRANCH   8   9
ENDBRANCH   7   8
ENDBRANCH   1   7
TORSDOF 3
ENDMDL
