MODEL 1
REMARK minimizedAffinity 4.27438593
REMARK minimizedRMSD -1
REMARK  3 active torsions:
REMARK  status: ('A' for Active; 'I' for Inactive)
REMARK    1  A    between atoms: C3'_2  and  C2'_3 
REMARK    2  A    between atoms: C2'_3  and  C1'_4 
REMARK    3  A    between atoms: C1'_4  and  C1_5 
ROOT
ATOM      1  C1  N4B d   1      -3.519   3.071  -4.555  0.00  0.00    -0.075 A 
ATOM      2  C2  N4B d   1      -4.520   4.035  -4.303  0.00  0.00     0.002 A 
ATOM      3  C3  N4B d   1      -5.748   3.922  -4.908  0.00  0.00     0.002 A 
ATOM      4  C4  N4B d   1      -5.991   2.870  -5.778  0.00  0.00    -0.004 A 
ATOM      5  C5  N4B d   1      -5.027   1.930  -5.996  0.00  0.00     0.002 A 
ATOM      6  C6  N4B d   1      -3.789   2.028  -5.392  0.00  0.00     0.002 A 
ENDROOT
BRANCH   1   7
ATOM      7  C1' N4B d   1      -2.133   3.199  -3.985  0.00  0.00     0.057 C 
BRANCH   7   8
ATOM      8  C2' N4B d   1      -1.725   1.870  -3.356  0.00  0.00     0.009 C 
BRANCH   8   9
ATOM      9  C3' N4B d   1      -0.497   2.012  -2.473  0.00  0.00     0.004 C 
ATOM     10  C4' N4B d   1      -0.740   1.563  -1.063  0.00  0.00     0.003 C 
ENDBRANCH   8   9
ENDBRANCH   7   8
ENDBRANCH   1   7
TORSDOF 3
ENDMDL
