MODEL 1
REMARK minimizedAffinity 0.300301194
REMARK minimizedRMSD -1
REMARK  0 active torsions:
REMARK  status: ('A' for Active; 'I' for Inactive)
ROOT
ATOM      1  C4' PXY d   1      -3.314   0.545  -2.352  0.00  0.00     0.077 C 
ATOM      2  C1' PXY d   1       1.097   3.971  -3.842  0.00  0.00     0.077 C 
ATOM      3  C1  PXY d   1      -0.053   3.069  -3.440  0.00  0.00    -0.082 A 
ATOM      4  C2  PXY d   1      -0.826   2.539  -4.374  0.00  0.00     0.003 A 
ATOM      5  C3  PXY d   1      -1.891   1.748  -4.027  0.00  0.00     0.003 A 
ATOM      6  C4  PXY d   1      -2.135   1.453  -2.713  0.00  0.00    -0.082 A 
ATOM      7  C5  PXY d   1      -1.344   1.981  -1.754  0.00  0.00     0.003 A 
ATOM      8  C6  PXY d   1      -0.294   2.815  -2.125  0.00  0.00     0.003 A 
ENDROOT
TORSDOF 0
ENDMDL
