MODEL 1
REMARK minimizedAffinity -1.75583398
REMARK minimizedRMSD -1
REMARK  0 active torsions:
REMARK  status: ('A' for Active; 'I' for Inactive)
ROOT
ATOM      1  C4' PXY d   1       0.356   3.653  -5.279  0.00  0.00     0.077 C 
ATOM      2  C1' PXY d   1      -3.311   0.969  -1.707  0.00  0.00     0.077 C 
ATOM      3  C1  PXY d   1      -2.348   1.682  -2.635  0.00  0.00    -0.082 A 
ATOM      4  C2  PXY d   1      -2.437   1.494  -3.942  0.00  0.00     0.003 A 
ATOM      5  C3  PXY d   1      -1.553   2.106  -4.793  0.00  0.00     0.003 A 
ATOM      6  C4  PXY d   1      -0.602   2.961  -4.305  0.00  0.00    -0.082 A 
ATOM      7  C5  PXY d   1      -0.511   3.167  -2.974  0.00  0.00     0.003 A 
ATOM      8  C6  PXY d   1      -1.391   2.504  -2.124  0.00  0.00     0.003 A 
ENDROOT
TORSDOF 0
ENDMDL
