MODEL 1
REMARK minimizedAffinity -3.26583934
REMARK minimizedRMSD -1
REMARK  0 active torsions:
REMARK  status: ('A' for Active; 'I' for Inactive)
ROOT
ATOM      1  C4' PXY d   1      -1.414   1.722  -1.152  0.00  0.00     0.077 C 
ATOM      2  C1' PXY d   1       2.487  -1.690   1.408  0.00  0.00     0.077 C 
ATOM      3  C1  PXY d   1       1.455  -0.803   0.741  0.00  0.00    -0.082 A 
ATOM      4  C2  PXY d   1       1.809  -0.040  -0.281  0.00  0.00     0.003 A 
ATOM      5  C3  PXY d   1       0.896   0.791  -0.875  0.00  0.00     0.003 A 
ATOM      6  C4  PXY d   1      -0.407   0.803  -0.454  0.00  0.00    -0.082 A 
ATOM      7  C5  PXY d   1      -0.779   0.020   0.581  0.00  0.00     0.003 A 
ATOM      8  C6  PXY d   1       0.173  -0.786   1.197  0.00  0.00     0.003 A 
ENDROOT
TORSDOF 0
ENDMDL
