MODEL 1
REMARK minimizedAffinity -3.918432
REMARK minimizedRMSD -1
REMARK  0 active torsions:
REMARK  status: ('A' for Active; 'I' for Inactive)
ROOT
ATOM      1  C4' PXY d   1       0.697   3.403  -4.690  0.00  0.00     0.077 C 
ATOM      2  C1' PXY d   1      -3.339   0.809  -1.465  0.00  0.00     0.077 C 
ATOM      3  C1  PXY d   1      -2.279   1.499  -2.302  0.00  0.00    -0.082 A 
ATOM      4  C2  PXY d   1      -2.284   1.350  -3.616  0.00  0.00     0.003 A 
ATOM      5  C3  PXY d   1      -1.313   1.940  -4.385  0.00  0.00     0.003 A 
ATOM      6  C4  PXY d   1      -0.360   2.734  -3.807  0.00  0.00    -0.082 A 
ATOM      7  C5  PXY d   1      -0.354   2.900  -2.467  0.00  0.00     0.003 A 
ATOM      8  C6  PXY d   1      -1.323   2.259  -1.701  0.00  0.00     0.003 A 
ENDROOT
TORSDOF 0
ENDMDL
