MODEL 1
REMARK minimizedAffinity -3.9827075
REMARK minimizedRMSD -1
REMARK  0 active torsions:
REMARK  status: ('A' for Active; 'I' for Inactive)
ROOT
ATOM      1  C4' PXY d   1      -1.859   1.914  -1.381  0.00  0.00     0.077 C 
ATOM      2  C1' PXY d   1       2.237  -1.402   0.994  0.00  0.00     0.077 C 
ATOM      3  C1  PXY d   1       1.154  -0.540   0.376  0.00  0.00    -0.082 A 
ATOM      4  C2  PXY d   1       1.444   0.234  -0.657  0.00  0.00     0.003 A 
ATOM      5  C3  PXY d   1       0.484   1.044  -1.208  0.00  0.00     0.003 A 
ATOM      6  C4  PXY d   1      -0.799   1.021  -0.731  0.00  0.00    -0.082 A 
ATOM      7  C5  PXY d   1      -1.106   0.225   0.315  0.00  0.00     0.003 A 
ATOM      8  C6  PXY d   1      -0.107  -0.558   0.887  0.00  0.00     0.003 A 
ENDROOT
TORSDOF 0
ENDMDL
