MODEL 1
REMARK minimizedAffinity -3.11120296
REMARK minimizedRMSD -1
REMARK  0 active torsions:
REMARK  status: ('A' for Active; 'I' for Inactive)
ROOT
ATOM      1  C4' PXY d   1      -1.038  -1.109   2.631  0.00  0.00     0.077 C 
ATOM      2  C1' PXY d   1       2.952   0.257  -1.322  0.00  0.00     0.077 C 
ATOM      3  C1  PXY d   1       1.901  -0.089  -0.287  0.00  0.00    -0.082 A 
ATOM      4  C2  PXY d   1       2.143  -1.042   0.598  0.00  0.00     0.003 A 
ATOM      5  C3  PXY d   1       1.191  -1.390   1.522  0.00  0.00     0.003 A 
ATOM      6  C4  PXY d   1      -0.001  -0.719   1.573  0.00  0.00    -0.082 A 
ATOM      7  C5  PXY d   1      -0.252   0.262   0.680  0.00  0.00     0.003 A 
ATOM      8  C6  PXY d   1       0.711   0.572  -0.275  0.00  0.00     0.003 A 
ENDROOT
TORSDOF 0
ENDMDL
