MODEL 1
REMARK minimizedAffinity -3.14875269
REMARK minimizedRMSD -1
REMARK  0 active torsions:
REMARK  status: ('A' for Active; 'I' for Inactive)
ROOT
ATOM      1  C4' PXY d   1      -1.761   1.128  -1.933  0.00  0.00     0.077 C 
ATOM      2  C1' PXY d   1       2.091  -1.521   1.468  0.00  0.00     0.077 C 
ATOM      3  C1  PXY d   1       1.071  -0.829   0.585  0.00  0.00    -0.082 A 
ATOM      4  C2  PXY d   1       1.269  -0.773  -0.722  0.00  0.00     0.003 A 
ATOM      5  C3  PXY d   1       0.373  -0.123  -1.532  0.00  0.00     0.003 A 
ATOM      6  C4  PXY d   1      -0.763   0.430  -1.004  0.00  0.00    -0.082 A 
ATOM      7  C5  PXY d   1      -0.977   0.368   0.327  0.00  0.00     0.003 A 
ATOM      8  C6  PXY d   1      -0.035  -0.260   1.137  0.00  0.00     0.003 A 
ENDROOT
TORSDOF 0
ENDMDL
