MODEL 1
REMARK minimizedAffinity 0.230516002
REMARK minimizedRMSD -1
REMARK  0 active torsions:
REMARK  status: ('A' for Active; 'I' for Inactive)
ROOT
ATOM      1  C4' PXY d   1       0.343   4.870  -3.581  0.00  0.00     0.077 C 
ATOM      2  C1' PXY d   1      -3.155   0.393  -2.513  0.00  0.00     0.077 C 
ATOM      3  C1  PXY d   1      -2.242   1.573  -2.782  0.00  0.00    -0.082 A 
ATOM      4  C2  PXY d   1      -1.885   1.854  -4.025  0.00  0.00     0.003 A 
ATOM      5  C3  PXY d   1      -1.034   2.898  -4.283  0.00  0.00     0.003 A 
ATOM      6  C4  PXY d   1      -0.586   3.694  -3.264  0.00  0.00    -0.082 A 
ATOM      7  C5  PXY d   1      -0.954   3.420  -1.994  0.00  0.00     0.003 A 
ATOM      8  C6  PXY d   1      -1.785   2.331  -1.749  0.00  0.00     0.003 A 
ENDROOT
TORSDOF 0
ENDMDL
