MODEL 1
REMARK minimizedAffinity 0.125360668
REMARK minimizedRMSD -1
REMARK  0 active torsions:
REMARK  status: ('A' for Active; 'I' for Inactive)
ROOT
ATOM      1  C4' PXY d   1       3.267  -0.928   1.565  0.00  0.00     0.077 C 
ATOM      2  C1' PXY d   1      -1.351   1.107  -1.253  0.00  0.00     0.077 C 
ATOM      3  C1  PXY d   1      -0.148   0.569  -0.505  0.00  0.00    -0.082 A 
ATOM      4  C2  PXY d   1       1.048   1.091  -0.727  0.00  0.00     0.003 A 
ATOM      5  C3  PXY d   1       2.152   0.595  -0.082  0.00  0.00     0.003 A 
ATOM      6  C4  PXY d   1       2.023  -0.410   0.839  0.00  0.00    -0.082 A 
ATOM      7  C5  PXY d   1       0.805  -0.941   1.079  0.00  0.00     0.003 A 
ATOM      8  C6  PXY d   1      -0.297  -0.451   0.384  0.00  0.00     0.003 A 
ENDROOT
TORSDOF 0
ENDMDL
