MODEL 1
REMARK minimizedAffinity -5.01550913
REMARK minimizedRMSD -1
REMARK  0 active torsions:
REMARK  status: ('A' for Active; 'I' for Inactive)
ROOT
ATOM      1  C4' PXY d   1       2.129  -1.515   0.875  0.00  0.00     0.077 C 
ATOM      2  C1' PXY d   1      -1.174   2.483  -1.678  0.00  0.00     0.077 C 
ATOM      3  C1  PXY d   1      -0.299   1.436  -1.018  0.00  0.00    -0.082 A 
ATOM      4  C2  PXY d   1      -0.848   0.529  -0.226  0.00  0.00     0.003 A 
ATOM      5  C3  PXY d   1      -0.067  -0.406   0.404  0.00  0.00     0.003 A 
ATOM      6  C4  PXY d   1       1.283  -0.445   0.180  0.00  0.00    -0.082 A 
ATOM      7  C5  PXY d   1       1.850   0.470  -0.635  0.00  0.00     0.003 A 
ATOM      8  C6  PXY d   1       1.045   1.436  -1.232  0.00  0.00     0.003 A 
ENDROOT
TORSDOF 0
ENDMDL
