MODEL 1
REMARK minimizedAffinity -3.50337505
REMARK minimizedRMSD -1
REMARK  0 active torsions:
REMARK  status: ('A' for Active; 'I' for Inactive)
ROOT
ATOM      1  C4' PXY d   1      -1.241   1.983  -1.547  0.00  0.00     0.077 C 
ATOM      2  C1' PXY d   1       2.156  -1.887   1.080  0.00  0.00     0.077 C 
ATOM      3  C1  PXY d   1       1.275  -0.864   0.390  0.00  0.00    -0.082 A 
ATOM      4  C2  PXY d   1      -0.031  -0.874   0.604  0.00  0.00     0.003 A 
ATOM      5  C3  PXY d   1      -0.846   0.023  -0.037  0.00  0.00     0.003 A 
ATOM      6  C4  PXY d   1      -0.312   0.975  -0.864  0.00  0.00    -0.082 A 
ATOM      7  C5  PXY d   1       1.020   0.999  -1.079  0.00  0.00     0.003 A 
ATOM      8  C6  PXY d   1       1.825   0.053  -0.451  0.00  0.00     0.003 A 
ENDROOT
TORSDOF 0
ENDMDL
