MODEL 1
REMARK minimizedAffinity -3.95387411
REMARK minimizedRMSD -1
REMARK  0 active torsions:
REMARK  status: ('A' for Active; 'I' for Inactive)
ROOT
ATOM      1  C4' PXY d   1      -1.785  -0.874   1.252  0.00  0.00     0.077 C 
ATOM      2  C1' PXY d   1       3.603  -0.123  -0.702  0.00  0.00     0.077 C 
ATOM      3  C1  PXY d   1       2.192  -0.333  -0.189  0.00  0.00    -0.082 A 
ATOM      4  C2  PXY d   1       1.260   0.569  -0.451  0.00  0.00     0.003 A 
ATOM      5  C3  PXY d   1      -0.013   0.410   0.032  0.00  0.00     0.003 A 
ATOM      6  C4  PXY d   1      -0.349  -0.708   0.746  0.00  0.00    -0.082 A 
ATOM      7  C5  PXY d   1       0.594  -1.638   1.009  0.00  0.00     0.003 A 
ATOM      8  C6  PXY d   1       1.891  -1.438   0.545  0.00  0.00     0.003 A 
ENDROOT
TORSDOF 0
ENDMDL
