MODEL 1
REMARK minimizedAffinity 1.58421409
REMARK minimizedRMSD -1
REMARK  0 active torsions:
REMARK  status: ('A' for Active; 'I' for Inactive)
ROOT
ATOM      1  C4' PXY d   1      -1.534   0.453   1.032  0.00  0.00     0.077 C 
ATOM      2  C1' PXY d   1       3.585   1.399  -1.482  0.00  0.00     0.077 C 
ATOM      3  C1  PXY d   1       2.237   1.160  -0.831  0.00  0.00    -0.082 A 
ATOM      4  C2  PXY d   1       2.182   0.701   0.409  0.00  0.00     0.003 A 
ATOM      5  C3  PXY d   1       0.972   0.449   1.002  0.00  0.00     0.003 A 
ATOM      6  C4  PXY d   1      -0.195   0.719   0.338  0.00  0.00    -0.082 A 
ATOM      7  C5  PXY d   1      -0.147   1.197  -0.924  0.00  0.00     0.003 A 
ATOM      8  C6  PXY d   1       1.091   1.408  -1.522  0.00  0.00     0.003 A 
ENDROOT
TORSDOF 0
ENDMDL
