MODEL 1
REMARK minimizedAffinity -0.389348537
REMARK minimizedRMSD -1
REMARK  0 active torsions:
REMARK  status: ('A' for Active; 'I' for Inactive)
ROOT
ATOM      1  C4' PXY d   1      -1.493   0.033   1.261  0.00  0.00     0.077 C 
ATOM      2  C1' PXY d   1       3.543   0.677  -1.502  0.00  0.00     0.077 C 
ATOM      3  C1  PXY d   1       2.217   0.517  -0.785  0.00  0.00    -0.082 A 
ATOM      4  C2  PXY d   1       2.194   0.035   0.447  0.00  0.00     0.003 A 
ATOM      5  C3  PXY d   1       1.001  -0.146   1.098  0.00  0.00     0.003 A 
ATOM      6  C4  PXY d   1      -0.176   0.220   0.502  0.00  0.00    -0.082 A 
ATOM      7  C5  PXY d   1      -0.160   0.723  -0.751  0.00  0.00     0.003 A 
ATOM      8  C6  PXY d   1       1.058   0.860  -1.410  0.00  0.00     0.003 A 
ENDROOT
TORSDOF 0
ENDMDL
