MODEL 1
REMARK minimizedAffinity 0.526769042
REMARK minimizedRMSD -1
REMARK  0 active torsions:
REMARK  status: ('A' for Active; 'I' for Inactive)
ROOT
ATOM      1  C4' PXY d   1       3.582  -0.786  -1.222  0.00  0.00     0.077 C 
ATOM      2  C1' PXY d   1      -1.264  -0.135   1.860  0.00  0.00     0.077 C 
ATOM      3  C1  PXY d   1       0.013  -0.309   1.063  0.00  0.00    -0.082 A 
ATOM      4  C2  PXY d   1       0.144   0.302  -0.104  0.00  0.00     0.003 A 
ATOM      5  C3  PXY d   1       1.280   0.130  -0.853  0.00  0.00     0.003 A 
ATOM      6  C4  PXY d   1       2.314  -0.632  -0.378  0.00  0.00    -0.082 A 
ATOM      7  C5  PXY d   1       2.192  -1.250   0.816  0.00  0.00     0.003 A 
ATOM      8  C6  PXY d   1       1.015  -1.096   1.542  0.00  0.00     0.003 A 
ENDROOT
TORSDOF 0
ENDMDL
