MODEL 1
REMARK minimizedAffinity -1.31925118
REMARK minimizedRMSD -1
REMARK  0 active torsions:
REMARK  status: ('A' for Active; 'I' for Inactive)
ROOT
ATOM      1  C4' PXY d   1       2.280   0.159  -0.683  0.00  0.00     0.077 C 
ATOM      2  C1' PXY d   1      -2.915   0.679   1.799  0.00  0.00     0.077 C 
ATOM      3  C1  PXY d   1      -1.558   0.542   1.136  0.00  0.00    -0.082 A 
ATOM      4  C2  PXY d   1      -0.535   0.072   1.831  0.00  0.00     0.003 A 
ATOM      5  C3  PXY d   1       0.706  -0.029   1.257  0.00  0.00     0.003 A 
ATOM      6  C4  PXY d   1       0.890   0.305  -0.058  0.00  0.00    -0.082 A 
ATOM      7  C5  PXY d   1      -0.151   0.775  -0.777  0.00  0.00     0.003 A 
ATOM      8  C6  PXY d   1      -1.394   0.909  -0.164  0.00  0.00     0.003 A 
ENDROOT
TORSDOF 0
ENDMDL
