MODEL 1
REMARK minimizedAffinity -1.55236673
REMARK minimizedRMSD -1
REMARK  0 active torsions:
REMARK  status: ('A' for Active; 'I' for Inactive)
ROOT
ATOM      1  C4' PXY d   1       2.461  -0.075  -0.611  0.00  0.00     0.077 C 
ATOM      2  C1' PXY d   1      -2.353  -0.231   2.585  0.00  0.00     0.077 C 
ATOM      3  C1  PXY d   1      -1.083  -0.192   1.758  0.00  0.00    -0.082 A 
ATOM      4  C2  PXY d   1      -1.076   0.448   0.600  0.00  0.00     0.003 A 
ATOM      5  C3  PXY d   1       0.054   0.466  -0.176  0.00  0.00     0.003 A 
ATOM      6  C4  PXY d   1       1.205  -0.133   0.262  0.00  0.00    -0.082 A 
ATOM      7  C5  PXY d   1       1.209  -0.779   1.448  0.00  0.00     0.003 A 
ATOM      8  C6  PXY d   1       0.039  -0.820   2.201  0.00  0.00     0.003 A 
ENDROOT
TORSDOF 0
ENDMDL
