MODEL 1
REMARK minimizedAffinity -0.93142873
REMARK minimizedRMSD -1
REMARK  0 active torsions:
REMARK  status: ('A' for Active; 'I' for Inactive)
ROOT
ATOM      1  C4' PXY d   1       4.305  -0.078  -1.526  0.00  0.00     0.077 C 
ATOM      2  C1' PXY d   1      -1.164   0.595   0.219  0.00  0.00     0.077 C 
ATOM      3  C1  PXY d   1       0.272   0.432  -0.237  0.00  0.00    -0.082 A 
ATOM      4  C2  PXY d   1       0.612  -0.623  -0.959  0.00  0.00     0.003 A 
ATOM      5  C3  PXY d   1       1.913  -0.803  -1.354  0.00  0.00     0.003 A 
ATOM      6  C4  PXY d   1       2.865   0.133  -1.051  0.00  0.00    -0.082 A 
ATOM      7  C5  PXY d   1       2.523   1.218  -0.324  0.00  0.00     0.003 A 
ATOM      8  C6  PXY d   1       1.206   1.361   0.102  0.00  0.00     0.003 A 
ENDROOT
TORSDOF 0
ENDMDL
