MODEL 1
REMARK minimizedAffinity -3.28822732
REMARK minimizedRMSD -1
REMARK  0 active torsions:
REMARK  status: ('A' for Active; 'I' for Inactive)
ROOT
ATOM      1  C4' PXY d   1      -0.886   1.642  -1.110  0.00  0.00     0.077 C 
ATOM      2  C1' PXY d   1       0.703  -2.313   2.795  0.00  0.00     0.077 C 
ATOM      3  C1  PXY d   1       0.298  -1.271   1.771  0.00  0.00    -0.082 A 
ATOM      4  C2  PXY d   1      -0.965  -0.885   1.695  0.00  0.00     0.003 A 
ATOM      5  C3  PXY d   1      -1.354   0.033   0.753  0.00  0.00     0.003 A 
ATOM      6  C4  PXY d   1      -0.431   0.600  -0.085  0.00  0.00    -0.082 A 
ATOM      7  C5  PXY d   1       0.862   0.218  -0.006  0.00  0.00     0.003 A 
ATOM      8  C6  PXY d   1       1.229  -0.745   0.929  0.00  0.00     0.003 A 
ENDROOT
TORSDOF 0
ENDMDL
