MODEL 1
REMARK minimizedAffinity 0.407506108
REMARK minimizedRMSD -1
REMARK  0 active torsions:
REMARK  status: ('A' for Active; 'I' for Inactive)
ROOT
ATOM      1  C4' PXY d   1      -2.487   1.589  -2.797  0.00  0.00     0.077 C 
ATOM      2  C1' PXY d   1       1.256  -0.748   0.937  0.00  0.00     0.077 C 
ATOM      3  C1  PXY d   1       0.271  -0.127  -0.033  0.00  0.00    -0.082 A 
ATOM      4  C2  PXY d   1      -0.188  -0.842  -1.048  0.00  0.00     0.003 A 
ATOM      5  C3  PXY d   1      -1.055  -0.285  -1.953  0.00  0.00     0.003 A 
ATOM      6  C4  PXY d   1      -1.498   1.000  -1.788  0.00  0.00    -0.082 A 
ATOM      7  C5  PXY d   1      -1.043   1.732  -0.749  0.00  0.00     0.003 A 
ATOM      8  C6  PXY d   1      -0.131   1.162   0.135  0.00  0.00     0.003 A 
ENDROOT
TORSDOF 0
ENDMDL
