MODEL 1
REMARK minimizedAffinity -1.50857604
REMARK minimizedRMSD -1
REMARK  1 active torsions:
REMARK  status: ('A' for Active; 'I' for Inactive)
REMARK    1  A    between atoms: N_2  and  C1_3 
ROOT
ATOM      1  C1  UNL d   1      -1.272  -0.501  -0.839  0.00  0.00     0.143 A 
ATOM      2  C2  UNL d   1      -0.801  -0.791   0.446  0.00  0.00    -0.057 A 
ATOM      3  C3  UNL d   1       0.538  -0.575   0.795  0.00  0.00     0.033 A 
ATOM      4  C4  UNL d   1       1.439  -0.091  -0.148  0.00  0.00    -0.042 A 
ATOM      5  C5  UNL d   1       0.999   0.181  -1.438  0.00  0.00     0.033 A 
ATOM      6  C6  UNL d   1      -0.341  -0.031  -1.778  0.00  0.00    -0.057 A 
ENDROOT
BRANCH   1   7
ATOM      7  N   UNL d   1      -2.568  -0.786  -1.275  0.00  0.00    -0.732 N 
ATOM      8  C   UNL d   1      -3.582  -1.222  -0.338  0.00  0.00     0.284 C 
ATOM      9  H3  UNL d   1      -2.901  -0.119  -1.967  0.00  0.00     0.395 HD
ENDBRANCH   1   7
TORSDOF 1
ENDMDL
