MODEL 1
REMARK minimizedAffinity -3.77225733
REMARK minimizedRMSD -1
REMARK  1 active torsions:
REMARK  status: ('A' for Active; 'I' for Inactive)
REMARK    1  A    between atoms: N_2  and  C1_3 
ROOT
ATOM      1  C1  UNL d   1       1.117   1.144   0.186  0.00  0.00     0.143 A 
ATOM      2  C2  UNL d   1       2.503   1.013   0.046  0.00  0.00    -0.057 A 
ATOM      3  C3  UNL d   1       3.376   2.007   0.504  0.00  0.00     0.033 A 
ATOM      4  C4  UNL d   1       2.876   3.168   1.085  0.00  0.00    -0.042 A 
ATOM      5  C5  UNL d   1       1.501   3.331   1.211  0.00  0.00     0.033 A 
ATOM      6  C6  UNL d   1       0.634   2.331   0.758  0.00  0.00    -0.057 A 
ENDROOT
BRANCH   1   7
ATOM      7  N   UNL d   1       0.194   0.236  -0.337  0.00  0.00    -0.732 N 
ATOM      8  C   UNL d   1      -1.088   0.690  -0.831  0.00  0.00     0.284 C 
ATOM      9  H3  UNL d   1       0.634  -0.476  -0.916  0.00  0.00     0.395 HD
ENDBRANCH   1   7
TORSDOF 1
ENDMDL
