MODEL 1
REMARK minimizedAffinity -1.58944249
REMARK minimizedRMSD -1
REMARK  1 active torsions:
REMARK  status: ('A' for Active; 'I' for Inactive)
REMARK    1  A    between atoms: N_2  and  C1_3 
ROOT
ATOM      1  C1  UNL d   1      -0.031  -0.020   0.053  0.00  0.00     0.143 A 
ATOM      2  C2  UNL d   1       0.385   1.118   0.753  0.00  0.00    -0.057 A 
ATOM      3  C3  UNL d   1       0.930   1.021   2.039  0.00  0.00     0.033 A 
ATOM      4  C4  UNL d   1       1.042  -0.217   2.662  0.00  0.00    -0.042 A 
ATOM      5  C5  UNL d   1       0.613  -1.360   1.995  0.00  0.00     0.033 A 
ATOM      6  C6  UNL d   1       0.076  -1.257   0.708  0.00  0.00    -0.057 A 
ENDROOT
BRANCH   1   7
ATOM      7  N   UNL d   1      -0.671   0.020  -1.188  0.00  0.00    -0.732 N 
ATOM      8  C   UNL d   1      -2.023  -0.473  -1.336  0.00  0.00     0.284 C 
ATOM      9  H3  UNL d   1      -0.486   0.884  -1.693  0.00  0.00     0.395 HD
ENDBRANCH   1   7
TORSDOF 1
ENDMDL
