MODEL 1
REMARK minimizedAffinity -1.77027845
REMARK minimizedRMSD -1
REMARK  1 active torsions:
REMARK  status: ('A' for Active; 'I' for Inactive)
REMARK    1  A    between atoms: N_2  and  C1_3 
ROOT
ATOM      1  C1  UNL d   1       0.760   0.362  -0.176  0.00  0.00     0.143 A 
ATOM      2  C2  UNL d   1       1.702   1.386  -0.032  0.00  0.00    -0.057 A 
ATOM      3  C3  UNL d   1       2.008   1.918   1.227  0.00  0.00     0.033 A 
ATOM      4  C4  UNL d   1       1.355   1.454   2.363  0.00  0.00    -0.042 A 
ATOM      5  C5  UNL d   1       0.397   0.454   2.240  0.00  0.00     0.033 A 
ATOM      6  C6  UNL d   1       0.100  -0.078   0.982  0.00  0.00    -0.057 A 
ENDROOT
BRANCH   1   7
ATOM      7  N   UNL d   1       0.340  -0.140  -1.410  0.00  0.00    -0.732 N 
ATOM      8  C   UNL d   1      -1.053  -0.075  -1.797  0.00  0.00     0.284 C 
ATOM      9  H3  UNL d   1       0.991   0.080  -2.161  0.00  0.00     0.395 HD
ENDBRANCH   1   7
TORSDOF 1
ENDMDL
