MODEL 1
REMARK minimizedAffinity -2.85086131
REMARK minimizedRMSD -1
REMARK  1 active torsions:
REMARK  status: ('A' for Active; 'I' for Inactive)
REMARK    1  A    between atoms: N_2  and  C1_3 
ROOT
ATOM      1  C1  UNL d   1       0.260  -0.252  -0.404  0.00  0.00     0.143 A 
ATOM      2  C2  UNL d   1      -0.743  -1.218  -0.260  0.00  0.00    -0.057 A 
ATOM      3  C3  UNL d   1      -1.927  -1.150  -1.003  0.00  0.00     0.033 A 
ATOM      4  C4  UNL d   1      -2.144  -0.096  -1.885  0.00  0.00    -0.042 A 
ATOM      5  C5  UNL d   1      -1.172   0.888  -2.026  0.00  0.00     0.033 A 
ATOM      6  C6  UNL d   1       0.012   0.811  -1.286  0.00  0.00    -0.057 A 
ENDROOT
BRANCH   1   7
ATOM      7  N   UNL d   1       1.417  -0.210   0.377  0.00  0.00    -0.732 N 
ATOM      8  C   UNL d   1       2.143   1.029   0.554  0.00  0.00     0.284 C 
ATOM      9  H3  UNL d   1       1.334  -0.768   1.224  0.00  0.00     0.395 HD
ENDBRANCH   1   7
TORSDOF 1
ENDMDL
