MODEL 1
REMARK minimizedAffinity -2.18074107
REMARK minimizedRMSD -1
REMARK  1 active torsions:
REMARK  status: ('A' for Active; 'I' for Inactive)
REMARK    1  A    between atoms: N_2  and  C1_3 
ROOT
ATOM      1  C1  UNL d   1       0.220  -0.010  -0.193  0.00  0.00     0.143 A 
ATOM      2  C2  UNL d   1      -0.255   0.700  -1.301  0.00  0.00    -0.057 A 
ATOM      3  C3  UNL d   1      -1.475   0.372  -1.904  0.00  0.00     0.033 A 
ATOM      4  C4  UNL d   1      -2.230  -0.695  -1.426  0.00  0.00    -0.042 A 
ATOM      5  C5  UNL d   1      -1.765  -1.430  -0.342  0.00  0.00     0.033 A 
ATOM      6  C6  UNL d   1      -0.549  -1.093   0.261  0.00  0.00    -0.057 A 
ENDROOT
BRANCH   1   7
ATOM      7  N   UNL d   1       1.472   0.204   0.390  0.00  0.00    -0.732 N 
ATOM      8  C   UNL d   1       1.802   1.486   0.976  0.00  0.00     0.284 C 
ATOM      9  H3  UNL d   1       1.789  -0.595   0.933  0.00  0.00     0.395 HD
ENDBRANCH   1   7
TORSDOF 1
ENDMDL
