MODEL 1
REMARK minimizedAffinity -2.39875674
REMARK minimizedRMSD -1
REMARK  1 active torsions:
REMARK  status: ('A' for Active; 'I' for Inactive)
REMARK    1  A    between atoms: N_2  and  C1_3 
ROOT
ATOM      1  C1  UNL d   1       0.431  -0.282  -0.424  0.00  0.00     0.143 A 
ATOM      2  C2  UNL d   1       1.444  -0.267  -1.389  0.00  0.00    -0.057 A 
ATOM      3  C3  UNL d   1       1.195   0.173  -2.695  0.00  0.00     0.033 A 
ATOM      4  C4  UNL d   1      -0.081   0.581  -3.067  0.00  0.00    -0.042 A 
ATOM      5  C5  UNL d   1      -1.109   0.552  -2.130  0.00  0.00     0.033 A 
ATOM      6  C6  UNL d   1      -0.853   0.117  -0.826  0.00  0.00    -0.057 A 
ENDROOT
BRANCH   1   7
ATOM      7  N   UNL d   1       0.591  -0.801   0.863  0.00  0.00    -0.732 N 
ATOM      8  C   UNL d   1      -0.295  -1.833   1.357  0.00  0.00     0.284 C 
ATOM      9  H3  UNL d   1       1.569  -0.941   1.107  0.00  0.00     0.395 HD
ENDBRANCH   1   7
TORSDOF 1
ENDMDL
