MODEL 1
REMARK minimizedAffinity -2.11031055
REMARK minimizedRMSD -1
REMARK  1 active torsions:
REMARK  status: ('A' for Active; 'I' for Inactive)
REMARK    1  A    between atoms: N_2  and  C1_3 
ROOT
ATOM      1  C1  UNL d   1      -0.809  -0.486  -0.747  0.00  0.00     0.143 A 
ATOM      2  C2  UNL d   1      -0.474  -1.229   0.390  0.00  0.00    -0.057 A 
ATOM      3  C3  UNL d   1       0.789  -1.117   0.985  0.00  0.00     0.033 A 
ATOM      4  C4  UNL d   1       1.753  -0.279   0.433  0.00  0.00    -0.042 A 
ATOM      5  C5  UNL d   1       1.450   0.449  -0.712  0.00  0.00     0.033 A 
ATOM      6  C6  UNL d   1       0.185   0.339  -1.297  0.00  0.00    -0.057 A 
ENDROOT
BRANCH   1   7
ATOM      7  N   UNL d   1      -2.013  -0.627  -1.441  0.00  0.00    -0.732 N 
ATOM      8  C   UNL d   1      -2.858  -1.782  -1.225  0.00  0.00     0.284 C 
ATOM      9  H3  UNL d   1      -2.521   0.251  -1.519  0.00  0.00     0.395 HD
ENDBRANCH   1   7
TORSDOF 1
ENDMDL
