MODEL 1
REMARK minimizedAffinity -2.21752739
REMARK minimizedRMSD -1
REMARK  1 active torsions:
REMARK  status: ('A' for Active; 'I' for Inactive)
REMARK    1  A    between atoms: N_2  and  C1_3 
ROOT
ATOM      1  C1  UNL d   1       1.881   1.070   0.740  0.00  0.00     0.143 A 
ATOM      2  C2  UNL d   1       2.480   1.976  -0.142  0.00  0.00    -0.057 A 
ATOM      3  C3  UNL d   1       2.877   3.250   0.285  0.00  0.00     0.033 A 
ATOM      4  C4  UNL d   1       2.652   3.651   1.598  0.00  0.00    -0.042 A 
ATOM      5  C5  UNL d   1       2.035   2.776   2.484  0.00  0.00     0.033 A 
ATOM      6  C6  UNL d   1       1.648   1.503   2.054  0.00  0.00    -0.057 A 
ENDROOT
BRANCH   1   7
ATOM      7  N   UNL d   1       1.376  -0.173   0.352  0.00  0.00    -0.732 N 
ATOM      8  C   UNL d   1       0.073  -0.279  -0.270  0.00  0.00     0.284 C 
ATOM      9  H3  UNL d   1       2.087  -0.767  -0.069  0.00  0.00     0.395 HD
ENDBRANCH   1   7
TORSDOF 1
ENDMDL
