MODEL 1
REMARK minimizedAffinity 0.37223348
REMARK minimizedRMSD -1
REMARK  1 active torsions:
REMARK  status: ('A' for Active; 'I' for Inactive)
REMARK    1  A    between atoms: N_2  and  C1_3 
ROOT
ATOM      1  C1  UNL d   1      -0.392  -2.061   0.335  0.00  0.00     0.143 A 
ATOM      2  C2  UNL d   1      -0.415  -0.977  -0.549  0.00  0.00    -0.057 A 
ATOM      3  C3  UNL d   1      -1.529  -0.722  -1.358  0.00  0.00     0.033 A 
ATOM      4  C4  UNL d   1      -2.633  -1.568  -1.317  0.00  0.00    -0.042 A 
ATOM      5  C5  UNL d   1      -2.623  -2.666  -0.464  0.00  0.00     0.033 A 
ATOM      6  C6  UNL d   1      -1.509  -2.911   0.346  0.00  0.00    -0.057 A 
ENDROOT
BRANCH   1   7
ATOM      7  N   UNL d   1       0.724  -2.424   1.092  0.00  0.00    -0.732 N 
ATOM      8  C   UNL d   1       1.011  -1.761   2.347  0.00  0.00     0.284 C 
ATOM      9  H3  UNL d   1       0.871  -3.430   1.111  0.00  0.00     0.395 HD
ENDBRANCH   1   7
TORSDOF 1
ENDMDL
