MODEL 1
REMARK minimizedAffinity -4.73796844
REMARK minimizedRMSD -1
REMARK  1 active torsions:
REMARK  status: ('A' for Active; 'I' for Inactive)
REMARK    1  A    between atoms: N_2  and  C1_3 
ROOT
ATOM      1  C1  UNL d   1       0.086  -1.124   0.519  0.00  0.00     0.143 A 
ATOM      2  C2  UNL d   1      -0.654  -2.187   1.047  0.00  0.00    -0.057 A 
ATOM      3  C3  UNL d   1      -1.859  -2.594   0.461  0.00  0.00     0.033 A 
ATOM      4  C4  UNL d   1      -2.361  -1.924  -0.650  0.00  0.00    -0.042 A 
ATOM      5  C5  UNL d   1      -1.654  -0.848  -1.176  0.00  0.00     0.033 A 
ATOM      6  C6  UNL d   1      -0.448  -0.450  -0.590  0.00  0.00    -0.057 A 
ENDROOT
BRANCH   1   7
ATOM      7  N   UNL d   1       1.240  -0.609   1.115  0.00  0.00    -0.732 N 
ATOM      8  C   UNL d   1       1.772   0.673   0.704  0.00  0.00     0.284 C 
ATOM      9  H3  UNL d   1       1.261  -0.765   2.120  0.00  0.00     0.395 HD
ENDBRANCH   1   7
TORSDOF 1
ENDMDL
