MODEL 1
REMARK minimizedAffinity -1.7831316
REMARK minimizedRMSD -1
REMARK  1 active torsions:
REMARK  status: ('A' for Active; 'I' for Inactive)
REMARK    1  A    between atoms: N_2  and  C1_3 
ROOT
ATOM      1  C1  UNL d   1       0.238  -0.004  -0.184  0.00  0.00     0.143 A 
ATOM      2  C2  UNL d   1      -0.668  -0.983   0.239  0.00  0.00    -0.057 A 
ATOM      3  C3  UNL d   1      -1.883  -1.184  -0.426  0.00  0.00     0.033 A 
ATOM      4  C4  UNL d   1      -2.229  -0.386  -1.512  0.00  0.00    -0.042 A 
ATOM      5  C5  UNL d   1      -1.355   0.610  -1.934  0.00  0.00     0.033 A 
ATOM      6  C6  UNL d   1      -0.140   0.801  -1.270  0.00  0.00    -0.057 A 
ENDROOT
BRANCH   1   7
ATOM      7  N   UNL d   1       1.418   0.309   0.495  0.00  0.00    -0.732 N 
ATOM      8  C   UNL d   1       1.966   1.647   0.441  0.00  0.00     0.284 C 
ATOM      9  H3  UNL d   1       1.462  -0.121   1.416  0.00  0.00     0.395 HD
ENDBRANCH   1   7
TORSDOF 1
ENDMDL
