MODEL 1
REMARK minimizedAffinity -2.99496889
REMARK minimizedRMSD -1
REMARK  1 active torsions:
REMARK  status: ('A' for Active; 'I' for Inactive)
REMARK    1  A    between atoms: N_2  and  C1_3 
ROOT
ATOM      1  C1  UNL d   1       1.163   1.154   0.465  0.00  0.00     0.143 A 
ATOM      2  C2  UNL d   1       2.025   1.814  -0.418  0.00  0.00    -0.057 A 
ATOM      3  C3  UNL d   1       2.765   2.931  -0.011  0.00  0.00     0.033 A 
ATOM      4  C4  UNL d   1       2.633   3.428   1.281  0.00  0.00    -0.042 A 
ATOM      5  C5  UNL d   1       1.763   2.803   2.168  0.00  0.00     0.033 A 
ATOM      6  C6  UNL d   1       1.032   1.684   1.759  0.00  0.00    -0.057 A 
ENDROOT
BRANCH   1   7
ATOM      7  N   UNL d   1       0.327   0.099   0.093  0.00  0.00    -0.732 N 
ATOM      8  C   UNL d   1      -0.659   0.273  -0.952  0.00  0.00     0.284 C 
ATOM      9  H3  UNL d   1       0.818  -0.792   0.058  0.00  0.00     0.395 HD
ENDBRANCH   1   7
TORSDOF 1
ENDMDL
