MODEL 1
REMARK minimizedAffinity 9.51450443
REMARK minimizedRMSD -1
REMARK  0 active torsions:
REMARK  status: ('A' for Active; 'I' for Inactive)
ROOT
ATOM      1  C2' OXE d   1       2.614   1.258   0.924  0.00  0.00     0.078 C 
ATOM      2  C1' OXE d   1       4.063  -1.062   1.556  0.00  0.00     0.078 C 
ATOM      3  C1  OXE d   1       2.562  -1.108   1.702  0.00  0.00    -0.078 A 
ATOM      4  C2  OXE d   1       1.865   0.046   1.435  0.00  0.00    -0.078 A 
ATOM      5  C3  OXE d   1       0.475   0.043   1.501  0.00  0.00     0.003 A 
ATOM      6  C4  OXE d   1      -0.209  -1.079   1.984  0.00  0.00    -0.002 A 
ATOM      7  C5  OXE d   1       0.485  -2.252   2.299  0.00  0.00    -0.002 A 
ATOM      8  C6  OXE d   1       1.863  -2.297   2.123  0.00  0.00     0.003 A 
ENDROOT
TORSDOF 0
ENDMDL
