MODEL 1
REMARK minimizedAffinity 5.36503267
REMARK minimizedRMSD -1
REMARK  0 active torsions:
REMARK  status: ('A' for Active; 'I' for Inactive)
ROOT
ATOM      1  C2' OXE d   1       2.887   1.068   0.712  0.00  0.00     0.078 C 
ATOM      2  C1' OXE d   1       1.717   2.271   2.962  0.00  0.00     0.078 C 
ATOM      3  C1  OXE d   1       1.502   0.791   2.765  0.00  0.00    -0.078 A 
ATOM      4  C2  OXE d   1       2.039   0.220   1.636  0.00  0.00    -0.078 A 
ATOM      5  C3  OXE d   1       1.918  -1.152   1.433  0.00  0.00     0.003 A 
ATOM      6  C4  OXE d   1       1.124  -1.927   2.288  0.00  0.00    -0.002 A 
ATOM      7  C5  OXE d   1       0.535  -1.357   3.421  0.00  0.00    -0.002 A 
ATOM      8  C6  OXE d   1       0.749  -0.011   3.697  0.00  0.00     0.003 A 
ENDROOT
TORSDOF 0
ENDMDL
