MODEL 1
REMARK minimizedAffinity 10.1255369
REMARK minimizedRMSD -1
REMARK  0 active torsions:
REMARK  status: ('A' for Active; 'I' for Inactive)
ROOT
ATOM      1  C2' OXE d   1       2.716   4.479  -1.876  0.00  0.00     0.078 C 
ATOM      2  C1' OXE d   1       4.897   5.878  -0.794  0.00  0.00     0.078 C 
ATOM      3  C1  OXE d   1       4.918   5.575  -2.271  0.00  0.00    -0.078 A 
ATOM      4  C2  OXE d   1       3.870   4.849  -2.783  0.00  0.00    -0.078 A 
ATOM      5  C3  OXE d   1       3.813   4.590  -4.150  0.00  0.00     0.003 A 
ATOM      6  C4  OXE d   1       4.889   4.927  -4.980  0.00  0.00    -0.002 A 
ATOM      7  C5  OXE d   1       5.985   5.631  -4.472  0.00  0.00    -0.002 A 
ATOM      8  C6  OXE d   1       5.996   5.999  -3.131  0.00  0.00     0.003 A 
ENDROOT
TORSDOF 0
ENDMDL
