MODEL 1
REMARK minimizedAffinity 11.0921011
REMARK minimizedRMSD -1
REMARK  0 active torsions:
REMARK  status: ('A' for Active; 'I' for Inactive)
ROOT
ATOM      1  C2' OXE d   1      -5.820  -1.890  -5.406  0.00  0.00     0.078 C 
ATOM      2  C1' OXE d   1      -3.714  -2.479  -3.646  0.00  0.00     0.078 C 
ATOM      3  C1  OXE d   1      -4.335  -3.623  -4.407  0.00  0.00    -0.078 A 
ATOM      4  C2  OXE d   1      -5.396  -3.332  -5.231  0.00  0.00    -0.078 A 
ATOM      5  C3  OXE d   1      -5.971  -4.342  -5.997  0.00  0.00     0.003 A 
ATOM      6  C4  OXE d   1      -5.580  -5.675  -5.821  0.00  0.00    -0.002 A 
ATOM      7  C5  OXE d   1      -4.528  -5.998  -4.958  0.00  0.00    -0.002 A 
ATOM      8  C6  OXE d   1      -3.868  -4.981  -4.277  0.00  0.00     0.003 A 
ENDROOT
TORSDOF 0
ENDMDL
