MODEL 1
REMARK minimizedAffinity 4.0188899
REMARK minimizedRMSD -1
REMARK  0 active torsions:
REMARK  status: ('A' for Active; 'I' for Inactive)
ROOT
ATOM      1  C2' OXE d   1      -4.247  -1.781  -3.585  0.00  0.00     0.078 C 
ATOM      2  C1' OXE d   1      -5.978  -1.836  -5.794  0.00  0.00     0.078 C 
ATOM      3  C1  OXE d   1      -5.384  -3.143  -5.333  0.00  0.00    -0.078 A 
ATOM      4  C2  OXE d   1      -4.502  -3.101  -4.281  0.00  0.00    -0.078 A 
ATOM      5  C3  OXE d   1      -3.967  -4.284  -3.781  0.00  0.00     0.003 A 
ATOM      6  C4  OXE d   1      -4.199  -5.500  -4.436  0.00  0.00    -0.002 A 
ATOM      7  C5  OXE d   1      -5.064  -5.560  -5.535  0.00  0.00    -0.002 A 
ATOM      8  C6  OXE d   1      -5.696  -4.400  -5.968  0.00  0.00     0.003 A 
ENDROOT
TORSDOF 0
ENDMDL
