MODEL 1
REMARK minimizedAffinity 11.2393761
REMARK minimizedRMSD -1
REMARK  0 active torsions:
REMARK  status: ('A' for Active; 'I' for Inactive)
ROOT
ATOM      1  C2' OXE d   1      -6.000   3.755  -3.891  0.00  0.00     0.078 C 
ATOM      2  C1' OXE d   1      -5.782   4.223  -1.132  0.00  0.00     0.078 C 
ATOM      3  C1  OXE d   1      -4.834   3.229  -1.754  0.00  0.00    -0.078 A 
ATOM      4  C2  OXE d   1      -4.978   2.971  -3.096  0.00  0.00    -0.078 A 
ATOM      5  C3  OXE d   1      -4.094   2.104  -3.730  0.00  0.00     0.003 A 
ATOM      6  C4  OXE d   1      -3.159   1.375  -2.986  0.00  0.00    -0.002 A 
ATOM      7  C5  OXE d   1      -3.021   1.593  -1.610  0.00  0.00    -0.002 A 
ATOM      8  C6  OXE d   1      -3.821   2.545  -0.988  0.00  0.00     0.003 A 
ENDROOT
TORSDOF 0
ENDMDL
