MODEL 1
REMARK minimizedAffinity 14.1634417
REMARK minimizedRMSD -1
REMARK  0 active torsions:
REMARK  status: ('A' for Active; 'I' for Inactive)
ROOT
ATOM      1  C2' OXE d   1       3.037   2.718   1.009  0.00  0.00     0.078 C 
ATOM      2  C1' OXE d   1       1.297   2.669   3.212  0.00  0.00     0.078 C 
ATOM      3  C1  OXE d   1       1.551   1.371   2.486  0.00  0.00    -0.078 A 
ATOM      4  C2  OXE d   1       2.366   1.413   1.381  0.00  0.00    -0.078 A 
ATOM      5  C3  OXE d   1       2.677   0.235   0.708  0.00  0.00     0.003 A 
ATOM      6  C4  OXE d   1       2.044  -0.966   1.052  0.00  0.00    -0.002 A 
ATOM      7  C5  OXE d   1       1.179  -1.023   2.150  0.00  0.00    -0.002 A 
ATOM      8  C6  OXE d   1       0.955   0.125   2.902  0.00  0.00     0.003 A 
ENDROOT
TORSDOF 0
ENDMDL
