MODEL 1
REMARK minimizedAffinity 12.0377455
REMARK minimizedRMSD -1
REMARK  0 active torsions:
REMARK  status: ('A' for Active; 'I' for Inactive)
ROOT
ATOM      1  C2' OXE d   1       4.871   5.776  -0.801  0.00  0.00     0.078 C 
ATOM      2  C1' OXE d   1       2.482   5.071  -2.095  0.00  0.00     0.078 C 
ATOM      3  C1  OXE d   1       3.689   5.357  -2.953  0.00  0.00    -0.078 A 
ATOM      4  C2  OXE d   1       4.841   5.746  -2.314  0.00  0.00    -0.078 A 
ATOM      5  C3  OXE d   1       5.999   5.969  -3.054  0.00  0.00     0.003 A 
ATOM      6  C4  OXE d   1       5.960   5.950  -4.454  0.00  0.00    -0.002 A 
ATOM      7  C5  OXE d   1       4.786   5.594  -5.126  0.00  0.00    -0.002 A 
ATOM      8  C6  OXE d   1       3.656   5.254  -4.391  0.00  0.00     0.003 A 
ENDROOT
TORSDOF 0
ENDMDL
