MODEL 1
REMARK minimizedAffinity 8.52608013
REMARK minimizedRMSD -1
REMARK  0 active torsions:
REMARK  status: ('A' for Active; 'I' for Inactive)
ROOT
ATOM      1  C2' OXE d   1       1.896  -4.240   1.869  0.00  0.00     0.078 C 
ATOM      2  C1' OXE d   1      -0.872  -4.375   2.320  0.00  0.00     0.078 C 
ATOM      3  C1  OXE d   1      -0.266  -3.018   2.067  0.00  0.00    -0.078 A 
ATOM      4  C2  OXE d   1       1.096  -2.955   1.893  0.00  0.00    -0.078 A 
ATOM      5  C3  OXE d   1       1.698  -1.735   1.602  0.00  0.00     0.003 A 
ATOM      6  C4  OXE d   1       0.953  -0.550   1.636  0.00  0.00    -0.002 A 
ATOM      7  C5  OXE d   1      -0.429  -0.587   1.851  0.00  0.00    -0.002 A 
ATOM      8  C6  OXE d   1      -1.059  -1.814   2.025  0.00  0.00     0.003 A 
ENDROOT
TORSDOF 0
ENDMDL
