MODEL 1
REMARK minimizedAffinity 9.43799686
REMARK minimizedRMSD -1
REMARK  0 active torsions:
REMARK  status: ('A' for Active; 'I' for Inactive)
ROOT
ATOM      1  C2' OXE d   1      -3.745  -0.873  -3.451  0.00  0.00     0.078 C 
ATOM      2  C1' OXE d   1      -5.168  -0.879  -1.032  0.00  0.00     0.078 C 
ATOM      3  C1  OXE d   1      -5.226   0.368  -1.879  0.00  0.00    -0.078 A 
ATOM      4  C2  OXE d   1      -4.489   0.378  -3.039  0.00  0.00    -0.078 A 
ATOM      5  C3  OXE d   1      -4.551   1.482  -3.885  0.00  0.00     0.003 A 
ATOM      6  C4  OXE d   1      -5.234   2.640  -3.491  0.00  0.00    -0.002 A 
ATOM      7  C5  OXE d   1      -5.958   2.664  -2.295  0.00  0.00    -0.002 A 
ATOM      8  C6  OXE d   1      -6.000   1.524  -1.500  0.00  0.00     0.003 A 
ENDROOT
TORSDOF 0
ENDMDL
