MODEL 1
REMARK minimizedAffinity 4.83477306
REMARK minimizedRMSD -1
REMARK  0 active torsions:
REMARK  status: ('A' for Active; 'I' for Inactive)
ROOT
ATOM      1  C2' OXE d   1       5.200  -3.130   5.951  0.00  0.00     0.078 C 
ATOM      2  C1' OXE d   1       6.000  -2.517   3.331  0.00  0.00     0.078 C 
ATOM      3  C1  OXE d   1       4.523  -2.498   3.638  0.00  0.00    -0.078 A 
ATOM      4  C2  OXE d   1       4.138  -2.844   4.911  0.00  0.00    -0.078 A 
ATOM      5  C3  OXE d   1       2.792  -2.790   5.262  0.00  0.00     0.003 A 
ATOM      6  C4  OXE d   1       1.816  -2.535   4.292  0.00  0.00    -0.002 A 
ATOM      7  C5  OXE d   1       2.184  -2.218   2.980  0.00  0.00    -0.002 A 
ATOM      8  C6  OXE d   1       3.533  -2.154   2.648  0.00  0.00     0.003 A 
ENDROOT
TORSDOF 0
ENDMDL
