MODEL 1
REMARK minimizedAffinity 11.8439054
REMARK minimizedRMSD -1
REMARK  3 active torsions:
REMARK  status: ('A' for Active; 'I' for Inactive)
REMARK    1  A    between atoms: C3'_2  and  C2'_3 
REMARK    2  A    between atoms: C2'_3  and  C1'_4 
REMARK    3  A    between atoms: C1'_4  and  C1_5 
ROOT
ATOM      1  C1  N4B d   1      -5.614   3.472  -2.850  0.00  0.00    -0.075 A 
ATOM      2  C2  N4B d   1      -5.304   3.249  -1.490  0.00  0.00     0.002 A 
ATOM      3  C3  N4B d   1      -5.048   1.976  -1.044  0.00  0.00     0.002 A 
ATOM      4  C4  N4B d   1      -5.115   0.912  -1.931  0.00  0.00    -0.004 A 
ATOM      5  C5  N4B d   1      -5.390   1.139  -3.248  0.00  0.00     0.002 A 
ATOM      6  C6  N4B d   1      -5.645   2.414  -3.711  0.00  0.00     0.002 A 
ENDROOT
BRANCH   1   7
ATOM      7  C1' N4B d   1      -5.986   4.835  -3.366  0.00  0.00     0.057 C 
BRANCH   7   8
ATOM      8  C2' N4B d   1      -4.734   5.705  -3.429  0.00  0.00     0.009 C 
BRANCH   8   9
ATOM      9  C3' N4B d   1      -3.896   5.408  -4.661  0.00  0.00     0.004 C 
ATOM     10  C4' N4B d   1      -4.725   4.996  -5.841  0.00  0.00     0.003 C 
ENDBRANCH   8   9
ENDBRANCH   7   8
ENDBRANCH   1   7
TORSDOF 3
ENDMDL
