MODEL 1
REMARK minimizedAffinity -3.38012075
REMARK minimizedRMSD -1
REMARK  3 active torsions:
REMARK  status: ('A' for Active; 'I' for Inactive)
REMARK    1  A    between atoms: C3'_2  and  C2'_3 
REMARK    2  A    between atoms: C2'_3  and  C1'_4 
REMARK    3  A    between atoms: C1'_4  and  C1_5 
ROOT
ATOM      1  C1  N4B d   1      -4.975   3.166  -5.383  0.00  0.00    -0.075 A 
ATOM      2  C2  N4B d   1      -3.628   3.080  -5.798  0.00  0.00     0.002 A 
ATOM      3  C3  N4B d   1      -3.049   1.851  -6.000  0.00  0.00     0.002 A 
ATOM      4  C4  N4B d   1      -3.789   0.699  -5.775  0.00  0.00    -0.004 A 
ATOM      5  C5  N4B d   1      -5.097   0.792  -5.399  0.00  0.00     0.002 A 
ATOM      6  C6  N4B d   1      -5.693   2.020  -5.196  0.00  0.00     0.002 A 
ENDROOT
BRANCH   1   7
ATOM      7  C1' N4B d   1      -5.625   4.485  -5.067  0.00  0.00     0.057 C 
BRANCH   7   8
ATOM      8  C2' N4B d   1      -5.999   4.518  -3.588  0.00  0.00     0.009 C 
BRANCH   8   9
ATOM      9  C3' N4B d   1      -4.890   3.966  -2.709  0.00  0.00     0.004 C 
ATOM     10  C4' N4B d   1      -5.349   2.837  -1.835  0.00  0.00     0.003 C 
ENDBRANCH   8   9
ENDBRANCH   7   8
ENDBRANCH   1   7
TORSDOF 3
ENDMDL
