MODEL 1
REMARK minimizedAffinity -2.74745822
REMARK minimizedRMSD -1
REMARK  3 active torsions:
REMARK  status: ('A' for Active; 'I' for Inactive)
REMARK    1  A    between atoms: C3'_2  and  C2'_3 
REMARK    2  A    between atoms: C2'_3  and  C1'_4 
REMARK    3  A    between atoms: C1'_4  and  C1_5 
ROOT
ATOM      1  C1  N4B d   1      -5.968   2.890  -4.237  0.00  0.00    -0.075 A 
ATOM      2  C2  N4B d   1      -5.957   3.929  -3.281  0.00  0.00     0.002 A 
ATOM      3  C3  N4B d   1      -5.958   5.240  -3.692  0.00  0.00     0.002 A 
ATOM      4  C4  N4B d   1      -5.951   5.534  -5.048  0.00  0.00    -0.004 A 
ATOM      5  C5  N4B d   1      -5.988   4.524  -5.964  0.00  0.00     0.002 A 
ATOM      6  C6  N4B d   1      -5.991   3.202  -5.566  0.00  0.00     0.002 A 
ENDROOT
BRANCH   1   7
ATOM      7  C1' N4B d   1      -5.882   1.442  -3.837  0.00  0.00     0.057 C 
BRANCH   7   8
ATOM      8  C2' N4B d   1      -4.806   0.756  -4.673  0.00  0.00     0.009 C 
BRANCH   8   9
ATOM      9  C3' N4B d   1      -3.488   1.510  -4.633  0.00  0.00     0.004 C 
ATOM     10  C4' N4B d   1      -2.965   1.839  -6.000  0.00  0.00     0.003 C 
ENDBRANCH   8   9
ENDBRANCH   7   8
ENDBRANCH   1   7
TORSDOF 3
ENDMDL
