MODEL 1
REMARK minimizedAffinity 12.1417217
REMARK minimizedRMSD -1
REMARK  0 active torsions:
REMARK  status: ('A' for Active; 'I' for Inactive)
ROOT
ATOM      1  C   UNL d   1      -4.484   0.148   5.249  0.00  0.00     0.078 C 
ATOM      2  C1  UNL d   1      -5.006  -1.223   4.938  0.00  0.00    -0.077 A 
ATOM      3  C2  UNL d   1      -5.350  -1.584   3.629  0.00  0.00    -0.001 A 
ATOM      4  C3  UNL d   1      -5.844  -2.861   3.356  0.00  0.00     0.003 A 
ATOM      5  C4  UNL d   1      -5.999  -3.786   4.386  0.00  0.00    -0.005 A 
ATOM      6  C5  UNL d   1      -5.662  -3.436   5.691  0.00  0.00     0.003 A 
ATOM      7  C6  UNL d   1      -5.168  -2.159   5.967  0.00  0.00    -0.001 A 
ENDROOT
TORSDOF 0
ENDMDL
