MODEL 1
REMARK minimizedAffinity 5.68830538
REMARK minimizedRMSD -1
REMARK  0 active torsions:
REMARK  status: ('A' for Active; 'I' for Inactive)
ROOT
ATOM      1  C   UNL d   1       0.758   5.213   1.178  0.00  0.00     0.078 C 
ATOM      2  C1  UNL d   1       1.191   4.089   2.070  0.00  0.00    -0.077 A 
ATOM      3  C2  UNL d   1       2.257   4.247   2.964  0.00  0.00    -0.001 A 
ATOM      4  C3  UNL d   1       2.656   3.188   3.781  0.00  0.00     0.003 A 
ATOM      5  C4  UNL d   1       1.995   1.964   3.712  0.00  0.00    -0.005 A 
ATOM      6  C5  UNL d   1       0.934   1.796   2.824  0.00  0.00     0.003 A 
ATOM      7  C6  UNL d   1       0.534   2.853   2.006  0.00  0.00    -0.001 A 
ENDROOT
TORSDOF 0
ENDMDL
