MODEL 1
REMARK minimizedAffinity -2.79608202
REMARK minimizedRMSD -1
REMARK  0 active torsions:
REMARK  status: ('A' for Active; 'I' for Inactive)
ROOT
ATOM      1  C   UNL d   1       1.621   4.848   1.153  0.00  0.00     0.078 C 
ATOM      2  C1  UNL d   1       0.470   4.159   0.483  0.00  0.00    -0.077 A 
ATOM      3  C2  UNL d   1      -0.546   3.555   1.234  0.00  0.00    -0.001 A 
ATOM      4  C3  UNL d   1      -1.606   2.909   0.597  0.00  0.00     0.003 A 
ATOM      5  C4  UNL d   1      -1.660   2.859  -0.795  0.00  0.00    -0.005 A 
ATOM      6  C5  UNL d   1      -0.653   3.454  -1.551  0.00  0.00     0.003 A 
ATOM      7  C6  UNL d   1       0.408   4.101  -0.915  0.00  0.00    -0.001 A 
ENDROOT
TORSDOF 0
ENDMDL
