MODEL 1
REMARK minimizedAffinity -2.98203969
REMARK minimizedRMSD -1
REMARK  0 active torsions:
REMARK  status: ('A' for Active; 'I' for Inactive)
ROOT
ATOM      1  C   UNL d   1       0.188  -0.426  -0.092  0.00  0.00     0.078 C 
ATOM      2  C1  UNL d   1      -0.222   0.978   0.235  0.00  0.00    -0.077 A 
ATOM      3  C2  UNL d   1      -1.193   1.641  -0.526  0.00  0.00    -0.001 A 
ATOM      4  C3  UNL d   1      -1.559   2.952  -0.216  0.00  0.00     0.003 A 
ATOM      5  C4  UNL d   1      -0.958   3.612   0.854  0.00  0.00    -0.005 A 
ATOM      6  C5  UNL d   1       0.011   2.962   1.615  0.00  0.00     0.003 A 
ATOM      7  C6  UNL d   1       0.378   1.651   1.307  0.00  0.00    -0.001 A 
ENDROOT
TORSDOF 0
ENDMDL
