MODEL 1
REMARK minimizedAffinity -3.65382552
REMARK minimizedRMSD -1
REMARK  0 active torsions:
REMARK  status: ('A' for Active; 'I' for Inactive)
ROOT
ATOM      1  C   UNL d   1       1.851   3.119   3.117  0.00  0.00     0.078 C 
ATOM      2  C1  UNL d   1       0.714   2.866   2.173  0.00  0.00    -0.077 A 
ATOM      3  C2  UNL d   1      -0.275   3.834   1.959  0.00  0.00    -0.001 A 
ATOM      4  C3  UNL d   1      -1.334   3.580   1.085  0.00  0.00     0.003 A 
ATOM      5  C4  UNL d   1      -1.414   2.359   0.420  0.00  0.00    -0.005 A 
ATOM      6  C5  UNL d   1      -0.437   1.389   0.628  0.00  0.00     0.003 A 
ATOM      7  C6  UNL d   1       0.623   1.640   1.501  0.00  0.00    -0.001 A 
ENDROOT
TORSDOF 0
ENDMDL
