MODEL 1
REMARK minimizedAffinity -3.5174551
REMARK minimizedRMSD -1
REMARK  0 active torsions:
REMARK  status: ('A' for Active; 'I' for Inactive)
ROOT
ATOM      1  C   UNL d   1      -0.083  -0.357  -0.910  0.00  0.00     0.078 C 
ATOM      2  C1  UNL d   1      -0.450   0.981  -0.341  0.00  0.00    -0.077 A 
ATOM      3  C2  UNL d   1      -0.570   1.168   1.041  0.00  0.00    -0.001 A 
ATOM      4  C3  UNL d   1      -0.922   2.417   1.556  0.00  0.00     0.003 A 
ATOM      5  C4  UNL d   1      -1.158   3.487   0.696  0.00  0.00    -0.005 A 
ATOM      6  C5  UNL d   1      -1.043   3.310  -0.681  0.00  0.00     0.003 A 
ATOM      7  C6  UNL d   1      -0.691   2.062  -1.198  0.00  0.00    -0.001 A 
ENDROOT
TORSDOF 0
ENDMDL
