MODEL 1
REMARK minimizedAffinity -0.573034346
REMARK minimizedRMSD -1
REMARK  0 active torsions:
REMARK  status: ('A' for Active; 'I' for Inactive)
ROOT
ATOM      1  C   UNL d   1       0.955   5.529  -0.744  0.00  0.00     0.078 C 
ATOM      2  C1  UNL d   1       0.778   4.219  -0.036  0.00  0.00    -0.077 A 
ATOM      3  C2  UNL d   1       0.956   4.119   1.350  0.00  0.00    -0.001 A 
ATOM      4  C3  UNL d   1       0.798   2.891   1.995  0.00  0.00     0.003 A 
ATOM      5  C4  UNL d   1       0.462   1.754   1.263  0.00  0.00    -0.005 A 
ATOM      6  C5  UNL d   1       0.285   1.844  -0.116  0.00  0.00     0.003 A 
ATOM      7  C6  UNL d   1       0.443   3.070  -0.763  0.00  0.00    -0.001 A 
ENDROOT
TORSDOF 0
ENDMDL
