MODEL 1
REMARK minimizedAffinity -1.54349113
REMARK minimizedRMSD -1
REMARK  0 active torsions:
REMARK  status: ('A' for Active; 'I' for Inactive)
ROOT
ATOM      1  C1  BNZ d   1       0.671  -0.336   1.139  0.00  0.00     0.000 A 
ATOM      2  C2  BNZ d   1       0.970  -0.963  -0.041  0.00  0.00     0.000 A 
ATOM      3  C3  BNZ d   1       0.621  -0.402  -1.238  0.00  0.00     0.000 A 
ATOM      4  C4  BNZ d   1      -0.061   0.761  -1.252  0.00  0.00     0.000 A 
ATOM      5  C5  BNZ d   1      -0.378   1.400  -0.070  0.00  0.00     0.000 A 
ATOM      6  C6  BNZ d   1       0.009   0.853   1.132  0.00  0.00     0.000 A 
ENDROOT
TORSDOF 0
ENDMDL
