MODEL 1
REMARK minimizedAffinity -2.65561795
REMARK minimizedRMSD -1
REMARK  0 active torsions:
REMARK  status: ('A' for Active; 'I' for Inactive)
ROOT
ATOM      1  C1  BNZ d   1      -1.449   0.994   0.277  0.00  0.00     0.000 A 
ATOM      2  C2  BNZ d   1      -1.976   1.880   1.179  0.00  0.00     0.000 A 
ATOM      3  C3  BNZ d   1      -1.313   2.177   2.337  0.00  0.00     0.000 A 
ATOM      4  C4  BNZ d   1      -0.146   1.560   2.610  0.00  0.00     0.000 A 
ATOM      5  C5  BNZ d   1       0.394   0.657   1.716  0.00  0.00     0.000 A 
ATOM      6  C6  BNZ d   1      -0.257   0.390   0.533  0.00  0.00     0.000 A 
ENDROOT
TORSDOF 0
ENDMDL
