MODEL 1
REMARK minimizedAffinity -1.92690253
REMARK minimizedRMSD -1
REMARK  0 active torsions:
REMARK  status: ('A' for Active; 'I' for Inactive)
ROOT
ATOM      1  C1  BNZ d   1      -0.978   2.248   1.840  0.00  0.00     0.000 A 
ATOM      2  C2  BNZ d   1      -1.577   1.248   1.122  0.00  0.00     0.000 A 
ATOM      3  C3  BNZ d   1      -0.878   0.130   0.761  0.00  0.00     0.000 A 
ATOM      4  C4  BNZ d   1       0.428   0.033   1.082  0.00  0.00     0.000 A 
ATOM      5  C5  BNZ d   1       1.049   1.037   1.797  0.00  0.00     0.000 A 
ATOM      6  C6  BNZ d   1       0.332   2.143   2.193  0.00  0.00     0.000 A 
ENDROOT
TORSDOF 0
ENDMDL
