MODEL 1
REMARK minimizedAffinity -3.87150598
REMARK minimizedRMSD -1
REMARK  0 active torsions:
REMARK  status: ('A' for Active; 'I' for Inactive)
ROOT
ATOM      1  C1  BNZ d   1      -0.020   0.329   1.215  0.00  0.00     0.000 A 
ATOM      2  C2  BNZ d   1      -0.527   1.426   1.860  0.00  0.00     0.000 A 
ATOM      3  C3  BNZ d   1      -1.322   2.320   1.200  0.00  0.00     0.000 A 
ATOM      4  C4  BNZ d   1      -1.575   2.139  -0.112  0.00  0.00     0.000 A 
ATOM      5  C5  BNZ d   1      -1.064   1.044  -0.779  0.00  0.00     0.000 A 
ATOM      6  C6  BNZ d   1      -0.296   0.124  -0.101  0.00  0.00     0.000 A 
ENDROOT
TORSDOF 0
ENDMDL
