MODEL 1
REMARK minimizedAffinity -1.45488954
REMARK minimizedRMSD -1
REMARK  0 active torsions:
REMARK  status: ('A' for Active; 'I' for Inactive)
ROOT
ATOM      1  C1  BNZ d   1       0.706  -0.309   1.713  0.00  0.00     0.000 A 
ATOM      2  C2  BNZ d   1       1.055  -1.294   0.828  0.00  0.00     0.000 A 
ATOM      3  C3  BNZ d   1       0.682  -1.219  -0.485  0.00  0.00     0.000 A 
ATOM      4  C4  BNZ d   1      -0.072  -0.182  -0.902  0.00  0.00     0.000 A 
ATOM      5  C5  BNZ d   1      -0.440   0.814  -0.020  0.00  0.00     0.000 A 
ATOM      6  C6  BNZ d   1      -0.030   0.756   1.292  0.00  0.00     0.000 A 
ENDROOT
TORSDOF 0
ENDMDL
