MODEL 1
REMARK minimizedAffinity -3.10947943
REMARK minimizedRMSD -1
REMARK  0 active torsions:
REMARK  status: ('A' for Active; 'I' for Inactive)
ROOT
ATOM      1  C1  BNZ d   1       0.356   1.081  -1.947  0.00  0.00     0.000 A 
ATOM      2  C2  BNZ d   1       1.078  -0.041  -1.639  0.00  0.00     0.000 A 
ATOM      3  C3  BNZ d   1       0.973  -0.626  -0.408  0.00  0.00     0.000 A 
ATOM      4  C4  BNZ d   1       0.178  -0.066   0.526  0.00  0.00     0.000 A 
ATOM      5  C5  BNZ d   1      -0.549   1.071   0.234  0.00  0.00     0.000 A 
ATOM      6  C6  BNZ d   1      -0.471   1.635  -1.018  0.00  0.00     0.000 A 
ENDROOT
TORSDOF 0
ENDMDL
