MODEL 1
REMARK minimizedAffinity -2.49897075
REMARK minimizedRMSD -1
REMARK  0 active torsions:
REMARK  status: ('A' for Active; 'I' for Inactive)
ROOT
ATOM      1  C1  BNZ d   1      -1.559  -3.335  -0.776  0.00  0.00     0.000 A 
ATOM      2  C2  BNZ d   1      -1.436  -1.992  -0.538  0.00  0.00     0.000 A 
ATOM      3  C3  BNZ d   1      -0.222  -1.371  -0.642  0.00  0.00     0.000 A 
ATOM      4  C4  BNZ d   1       0.872  -2.100  -0.943  0.00  0.00     0.000 A 
ATOM      5  C5  BNZ d   1       0.766  -3.456  -1.176  0.00  0.00     0.000 A 
ATOM      6  C6  BNZ d   1      -0.463  -4.071  -1.110  0.00  0.00     0.000 A 
ENDROOT
TORSDOF 0
ENDMDL
