MODEL 1
REMARK minimizedAffinity -5.10479259
REMARK minimizedRMSD -1
REMARK  0 active torsions:
REMARK  status: ('A' for Active; 'I' for Inactive)
ROOT
ATOM      1  C1  BNZ d   1       0.130   0.553  -0.973  0.00  0.00     0.000 A 
ATOM      2  C2  BNZ d   1      -0.680   1.641  -0.788  0.00  0.00     0.000 A 
ATOM      3  C3  BNZ d   1      -1.029   2.048   0.469  0.00  0.00     0.000 A 
ATOM      4  C4  BNZ d   1      -0.601   1.344   1.537  0.00  0.00     0.000 A 
ATOM      5  C5  BNZ d   1       0.209   0.239   1.366  0.00  0.00     0.000 A 
ATOM      6  C6  BNZ d   1       0.590  -0.145   0.101  0.00  0.00     0.000 A 
ENDROOT
TORSDOF 0
ENDMDL
