MODEL 1
REMARK minimizedAffinity -4.37883663
REMARK minimizedRMSD -1
REMARK  1 active torsions:
REMARK  status: ('A' for Active; 'I' for Inactive)
REMARK    1  A    between atoms: N_2  and  C1_3 
ROOT
ATOM      1  C1  UNL d   1      -0.006   0.194   0.112  0.00  0.00     0.143 A 
ATOM      2  C2  UNL d   1      -0.680   1.158  -0.645  0.00  0.00    -0.057 A 
ATOM      3  C3  UNL d   1      -1.715   1.922  -0.092  0.00  0.00     0.033 A 
ATOM      4  C4  UNL d   1      -2.114   1.715   1.224  0.00  0.00    -0.042 A 
ATOM      5  C5  UNL d   1      -1.475   0.745   1.988  0.00  0.00     0.033 A 
ATOM      6  C6  UNL d   1      -0.438  -0.010   1.432  0.00  0.00    -0.057 A 
ENDROOT
BRANCH   1   7
ATOM      7  N   UNL d   1       0.964  -0.665  -0.409  0.00  0.00    -0.732 N 
ATOM      8  C   UNL d   1       0.587  -1.769  -1.266  0.00  0.00     0.284 C 
ATOM      9  H3  UNL d   1       1.800  -0.170  -0.712  0.00  0.00     0.395 HD
ENDBRANCH   1   7
TORSDOF 1
ENDMDL
