MODEL 1
REMARK minimizedAffinity -4.96627378
REMARK minimizedRMSD -1
REMARK  1 active torsions:
REMARK  status: ('A' for Active; 'I' for Inactive)
REMARK    1  A    between atoms: N_2  and  C1_3 
ROOT
ATOM      1  C1  UNL d   1      -0.045  -0.094   0.275  0.00  0.00     0.143 A 
ATOM      2  C2  UNL d   1      -0.779  -0.434   1.416  0.00  0.00    -0.057 A 
ATOM      3  C3  UNL d   1      -1.772   0.415   1.920  0.00  0.00     0.033 A 
ATOM      4  C4  UNL d   1      -2.029   1.636   1.306  0.00  0.00    -0.042 A 
ATOM      5  C5  UNL d   1      -1.295   2.006   0.184  0.00  0.00     0.033 A 
ATOM      6  C6  UNL d   1      -0.309   1.151  -0.318  0.00  0.00    -0.057 A 
ENDROOT
BRANCH   1   7
ATOM      7  N   UNL d   1       1.022  -0.850  -0.217  0.00  0.00    -0.732 N 
ATOM      8  C   UNL d   1       0.799  -1.885  -1.203  0.00  0.00     0.284 C 
ATOM      9  H3  UNL d   1       1.852  -0.286  -0.387  0.00  0.00     0.395 HD
ENDBRANCH   1   7
TORSDOF 1
ENDMDL
