MODEL 1
REMARK minimizedAffinity -2.89744616
REMARK minimizedRMSD -1
REMARK  1 active torsions:
REMARK  status: ('A' for Active; 'I' for Inactive)
REMARK    1  A    between atoms: N_2  and  C1_3 
ROOT
ATOM      1  C1  UNL d   1       0.709  -1.175  -0.717  0.00  0.00     0.143 A 
ATOM      2  C2  UNL d   1       0.895   0.063  -1.342  0.00  0.00    -0.057 A 
ATOM      3  C3  UNL d   1       0.239   1.212  -0.886  0.00  0.00     0.033 A 
ATOM      4  C4  UNL d   1      -0.640   1.138   0.190  0.00  0.00    -0.042 A 
ATOM      5  C5  UNL d   1      -0.859  -0.086   0.811  0.00  0.00     0.033 A 
ATOM      6  C6  UNL d   1      -0.196  -1.229   0.355  0.00  0.00    -0.057 A 
ENDROOT
BRANCH   1   7
ATOM      7  N   UNL d   1       1.256  -2.372  -1.184  0.00  0.00    -0.732 N 
ATOM      8  C   UNL d   1       0.598  -3.125  -2.230  0.00  0.00     0.284 C 
ATOM      9  H3  UNL d   1       2.268  -2.326  -1.280  0.00  0.00     0.395 HD
ENDBRANCH   1   7
TORSDOF 1
ENDMDL
