MODEL 1
REMARK minimizedAffinity -3.88260388
REMARK minimizedRMSD -1
REMARK  1 active torsions:
REMARK  status: ('A' for Active; 'I' for Inactive)
REMARK    1  A    between atoms: N_2  and  C1_3 
ROOT
ATOM      1  C1  UNL d   1       0.255  -0.042  -0.182  0.00  0.00     0.143 A 
ATOM      2  C2  UNL d   1      -0.045  -0.310   1.158  0.00  0.00    -0.057 A 
ATOM      3  C3  UNL d   1      -1.006   0.436   1.850  0.00  0.00     0.033 A 
ATOM      4  C4  UNL d   1      -1.667   1.486   1.221  0.00  0.00    -0.042 A 
ATOM      5  C5  UNL d   1      -1.367   1.786  -0.103  0.00  0.00     0.033 A 
ATOM      6  C6  UNL d   1      -0.410   1.033  -0.791  0.00  0.00    -0.057 A 
ENDROOT
BRANCH   1   7
ATOM      7  N   UNL d   1       1.271  -0.683  -0.895  0.00  0.00    -0.732 N 
ATOM      8  C   UNL d   1       1.154  -2.082  -1.247  0.00  0.00     0.284 C 
ATOM      9  H3  UNL d   1       1.654  -0.099  -1.635  0.00  0.00     0.395 HD
ENDBRANCH   1   7
TORSDOF 1
ENDMDL
