MODEL 1
REMARK minimizedAffinity -3.32419658
REMARK minimizedRMSD -1
REMARK  1 active torsions:
REMARK  status: ('A' for Active; 'I' for Inactive)
REMARK    1  A    between atoms: N_2  and  C1_3 
ROOT
ATOM      1  C1  UNL d   1      -0.005  -0.197   0.041  0.00  0.00     0.143 A 
ATOM      2  C2  UNL d   1      -0.590  -0.224   1.312  0.00  0.00    -0.057 A 
ATOM      3  C3  UNL d   1      -1.433   0.806   1.745  0.00  0.00     0.033 A 
ATOM      4  C4  UNL d   1      -1.685   1.899   0.922  0.00  0.00    -0.042 A 
ATOM      5  C5  UNL d   1      -1.095   1.959  -0.335  0.00  0.00     0.033 A 
ATOM      6  C6  UNL d   1      -0.259   0.924  -0.764  0.00  0.00    -0.057 A 
ENDROOT
BRANCH   1   7
ATOM      7  N   UNL d   1       0.920  -1.142  -0.410  0.00  0.00    -0.732 N 
ATOM      8  C   UNL d   1       0.583  -2.050  -1.484  0.00  0.00     0.284 C 
ATOM      9  H3  UNL d   1       1.864  -0.765  -0.464  0.00  0.00     0.395 HD
ENDBRANCH   1   7
TORSDOF 1
ENDMDL
