MODEL 1
REMARK minimizedAffinity -3.89513588
REMARK minimizedRMSD -1
REMARK  1 active torsions:
REMARK  status: ('A' for Active; 'I' for Inactive)
REMARK    1  A    between atoms: N_2  and  C1_3 
ROOT
ATOM      1  C1  UNL d   1      -0.076   0.265  -0.283  0.00  0.00     0.143 A 
ATOM      2  C2  UNL d   1      -0.788   1.458  -0.115  0.00  0.00    -0.057 A 
ATOM      3  C3  UNL d   1      -1.272   1.844   1.140  0.00  0.00     0.033 A 
ATOM      4  C4  UNL d   1      -1.078   1.027   2.249  0.00  0.00    -0.042 A 
ATOM      5  C5  UNL d   1      -0.395  -0.175   2.101  0.00  0.00     0.033 A 
ATOM      6  C6  UNL d   1       0.092  -0.552   0.846  0.00  0.00    -0.057 A 
ENDROOT
BRANCH   1   7
ATOM      7  N   UNL d   1       0.346  -0.221  -1.522  0.00  0.00    -0.732 N 
ATOM      8  C   UNL d   1       1.041  -1.487  -1.620  0.00  0.00     0.284 C 
ATOM      9  H3  UNL d   1      -0.343  -0.068  -2.255  0.00  0.00     0.395 HD
ENDBRANCH   1   7
TORSDOF 1
ENDMDL
