MODEL 1
REMARK minimizedAffinity -5.11078119
REMARK minimizedRMSD -1
REMARK  1 active torsions:
REMARK  status: ('A' for Active; 'I' for Inactive)
REMARK    1  A    between atoms: N_2  and  C1_3 
ROOT
ATOM      1  C1  UNL d   1      -0.124   0.690  -0.203  0.00  0.00     0.143 A 
ATOM      2  C2  UNL d   1      -0.636   0.466   1.079  0.00  0.00    -0.057 A 
ATOM      3  C3  UNL d   1      -1.404   1.436   1.735  0.00  0.00     0.033 A 
ATOM      4  C4  UNL d   1      -1.649   2.664   1.128  0.00  0.00    -0.042 A 
ATOM      5  C5  UNL d   1      -1.129   2.918  -0.136  0.00  0.00     0.033 A 
ATOM      6  C6  UNL d   1      -0.369   1.943  -0.788  0.00  0.00    -0.057 A 
ENDROOT
BRANCH   1   7
ATOM      7  N   UNL d   1       0.729  -0.196  -0.866  0.00  0.00    -0.732 N 
ATOM      8  C   UNL d   1       0.422  -1.609  -0.925  0.00  0.00     0.284 C 
ATOM      9  H3  UNL d   1       1.087   0.188  -1.738  0.00  0.00     0.395 HD
ENDBRANCH   1   7
TORSDOF 1
ENDMDL
