MODEL 1
REMARK minimizedAffinity -2.55857301
REMARK minimizedRMSD -1
REMARK  1 active torsions:
REMARK  status: ('A' for Active; 'I' for Inactive)
REMARK    1  A    between atoms: N_2  and  C1_3 
ROOT
ATOM      1  C1  UNL d   1      -1.482   1.110   0.988  0.00  0.00     0.143 A 
ATOM      2  C2  UNL d   1      -0.831   0.907   2.209  0.00  0.00    -0.057 A 
ATOM      3  C3  UNL d   1       0.384   0.215   2.278  0.00  0.00     0.033 A 
ATOM      4  C4  UNL d   1       0.957  -0.314   1.126  0.00  0.00    -0.042 A 
ATOM      5  C5  UNL d   1       0.315  -0.146  -0.095  0.00  0.00     0.033 A 
ATOM      6  C6  UNL d   1      -0.895   0.551  -0.159  0.00  0.00    -0.057 A 
ENDROOT
BRANCH   1   7
ATOM      7  N   UNL d   1      -2.741   1.703   0.866  0.00  0.00    -0.732 N 
ATOM      8  C   UNL d   1      -3.482   1.612  -0.373  0.00  0.00     0.284 C 
ATOM      9  H3  UNL d   1      -3.310   1.582   1.701  0.00  0.00     0.395 HD
ENDBRANCH   1   7
TORSDOF 1
ENDMDL
