MODEL 1
REMARK minimizedAffinity -4.67267084
REMARK minimizedRMSD -1
REMARK  1 active torsions:
REMARK  status: ('A' for Active; 'I' for Inactive)
REMARK    1  A    between atoms: N_2  and  C1_3 
ROOT
ATOM      1  C1  UNL d   1      -0.516   0.814   1.093  0.00  0.00     0.143 A 
ATOM      2  C2  UNL d   1      -1.188   1.937   1.587  0.00  0.00    -0.057 A 
ATOM      3  C3  UNL d   1      -1.121   3.171   0.929  0.00  0.00     0.033 A 
ATOM      4  C4  UNL d   1      -0.354   3.311  -0.223  0.00  0.00    -0.042 A 
ATOM      5  C5  UNL d   1       0.343   2.214  -0.718  0.00  0.00     0.033 A 
ATOM      6  C6  UNL d   1       0.266   0.983  -0.060  0.00  0.00    -0.057 A 
ENDROOT
BRANCH   1   7
ATOM      7  N   UNL d   1      -0.464  -0.415   1.755  0.00  0.00    -0.732 N 
ATOM      8  C   UNL d   1       0.781  -0.902   2.309  0.00  0.00     0.284 C 
ATOM      9  H3  UNL d   1      -1.273  -0.569   2.352  0.00  0.00     0.395 HD
ENDBRANCH   1   7
TORSDOF 1
ENDMDL
