MODEL 1
REMARK minimizedAffinity -3.89868474
REMARK minimizedRMSD -1
REMARK  1 active torsions:
REMARK  status: ('A' for Active; 'I' for Inactive)
REMARK    1  A    between atoms: N_2  and  C1_3 
ROOT
ATOM      1  C1  UNL d   1      -0.197  -0.002   0.121  0.00  0.00     0.143 A 
ATOM      2  C2  UNL d   1      -0.743   1.227  -0.267  0.00  0.00    -0.057 A 
ATOM      3  C3  UNL d   1      -1.732   1.856   0.498  0.00  0.00     0.033 A 
ATOM      4  C4  UNL d   1      -2.214   1.253   1.655  0.00  0.00    -0.042 A 
ATOM      5  C5  UNL d   1      -1.704   0.020   2.047  0.00  0.00     0.033 A 
ATOM      6  C6  UNL d   1      -0.712  -0.601   1.282  0.00  0.00    -0.057 A 
ENDROOT
BRANCH   1   7
ATOM      7  N   UNL d   1       0.717  -0.725  -0.649  0.00  0.00    -0.732 N 
ATOM      8  C   UNL d   1       0.283  -1.856  -1.439  0.00  0.00     0.284 C 
ATOM      9  H3  UNL d   1       1.391  -0.124  -1.118  0.00  0.00     0.395 HD
ENDBRANCH   1   7
TORSDOF 1
ENDMDL
