MODEL 1
REMARK minimizedAffinity -3.36665463
REMARK minimizedRMSD -1
REMARK  1 active torsions:
REMARK  status: ('A' for Active; 'I' for Inactive)
REMARK    1  A    between atoms: N_2  and  C1_3 
ROOT
ATOM      1  C1  UNL d   1      -0.472   0.766   1.278  0.00  0.00     0.143 A 
ATOM      2  C2  UNL d   1       0.019  -0.470   1.713  0.00  0.00    -0.057 A 
ATOM      3  C3  UNL d   1       0.730  -1.314   0.850  0.00  0.00     0.033 A 
ATOM      4  C4  UNL d   1       0.937  -0.947  -0.476  0.00  0.00    -0.042 A 
ATOM      5  C5  UNL d   1       0.436   0.265  -0.937  0.00  0.00     0.033 A 
ATOM      6  C6  UNL d   1      -0.267   1.106  -0.068  0.00  0.00    -0.057 A 
ENDROOT
BRANCH   1   7
ATOM      7  N   UNL d   1      -1.270   1.604   2.060  0.00  0.00    -0.732 N 
ATOM      8  C   UNL d   1      -2.418   2.274   1.487  0.00  0.00     0.284 C 
ATOM      9  H3  UNL d   1      -1.430   1.230   2.992  0.00  0.00     0.395 HD
ENDBRANCH   1   7
TORSDOF 1
ENDMDL
