MODEL 1
REMARK minimizedAffinity -4.20450163
REMARK minimizedRMSD -1
REMARK  1 active torsions:
REMARK  status: ('A' for Active; 'I' for Inactive)
REMARK    1  A    between atoms: N_2  and  C1_3 
ROOT
ATOM      1  C1  UNL d   1      -0.552   0.713  -0.157  0.00  0.00     0.143 A 
ATOM      2  C2  UNL d   1      -1.419   1.738  -0.550  0.00  0.00    -0.057 A 
ATOM      3  C3  UNL d   1      -2.088   2.525   0.395  0.00  0.00     0.033 A 
ATOM      4  C4  UNL d   1      -1.924   2.281   1.754  0.00  0.00    -0.042 A 
ATOM      5  C5  UNL d   1      -1.086   1.251   2.168  0.00  0.00     0.033 A 
ATOM      6  C6  UNL d   1      -0.416   0.473   1.219  0.00  0.00    -0.057 A 
ENDROOT
BRANCH   1   7
ATOM      7  N   UNL d   1       0.066  -0.168  -1.048  0.00  0.00    -0.732 N 
ATOM      8  C   UNL d   1       0.423  -1.508  -0.632  0.00  0.00     0.284 C 
ATOM      9  H3  UNL d   1      -0.330  -0.115  -1.984  0.00  0.00     0.395 HD
ENDBRANCH   1   7
TORSDOF 1
ENDMDL
