MODEL 1
REMARK minimizedAffinity 7.9418807
REMARK minimizedRMSD -1
REMARK  0 active torsions:
REMARK  status: ('A' for Active; 'I' for Inactive)
ROOT
ATOM      1  O1  BZF d   1      -1.046   3.057   1.519  0.00  0.00    -0.204 OA
ATOM      2  C2  BZF d   1       0.129   2.496   1.981  0.00  0.00     0.174 A 
ATOM      3  C3  BZF d   1       1.119   2.649   1.077  0.00  0.00    -0.012 A 
ATOM      4  C3A BZF d   1       0.549   3.430   0.023  0.00  0.00    -0.107 A 
ATOM      5  C4  BZF d   1       1.041   3.924  -1.151  0.00  0.00     0.055 A 
ATOM      6  C5  BZF d   1       0.203   4.585  -1.993  0.00  0.00    -0.016 A 
ATOM      7  C6  BZF d   1      -1.131   4.766  -1.694  0.00  0.00     0.022 A 
ATOM      8  C7  BZF d   1      -1.664   4.299  -0.539  0.00  0.00     0.029 A 
ATOM      9  C7A BZF d   1      -0.813   3.659   0.328  0.00  0.00     0.058 A 
ENDROOT
TORSDOF 0
ENDMDL
