MODEL 1
REMARK minimizedAffinity 3.12152243
REMARK minimizedRMSD -1
REMARK  0 active torsions:
REMARK  status: ('A' for Active; 'I' for Inactive)
ROOT
ATOM      1  O1  BZF d   1      -4.451   5.555  -3.885  0.00  0.00    -0.204 OA
ATOM      2  C2  BZF d   1      -3.895   5.942  -5.088  0.00  0.00     0.174 A 
ATOM      3  C3  BZF d   1      -3.985   4.951  -5.998  0.00  0.00    -0.012 A 
ATOM      4  C3A BZF d   1      -4.722   3.910  -5.349  0.00  0.00    -0.107 A 
ATOM      5  C4  BZF d   1      -5.147   2.674  -5.744  0.00  0.00     0.055 A 
ATOM      6  C5  BZF d   1      -5.780   1.875  -4.845  0.00  0.00    -0.016 A 
ATOM      7  C6  BZF d   1      -5.998   2.277  -3.544  0.00  0.00     0.022 A 
ATOM      8  C7  BZF d   1      -5.599   3.496  -3.107  0.00  0.00     0.029 A 
ATOM      9  C7A BZF d   1      -4.989   4.319  -4.022  0.00  0.00     0.058 A 
ENDROOT
TORSDOF 0
ENDMDL
