MODEL 1
REMARK minimizedAffinity 9.26889229
REMARK minimizedRMSD -1
REMARK  0 active torsions:
REMARK  status: ('A' for Active; 'I' for Inactive)
ROOT
ATOM      1  O1  BZF d   1      -0.747   3.962   1.175  0.00  0.00    -0.204 OA
ATOM      2  C2  BZF d   1       0.258   3.029   1.003  0.00  0.00     0.174 A 
ATOM      3  C3  BZF d   1       0.663   2.994  -0.282  0.00  0.00    -0.012 A 
ATOM      4  C3A BZF d   1      -0.074   4.031  -0.938  0.00  0.00    -0.107 A 
ATOM      5  C4  BZF d   1      -0.099   4.498  -2.221  0.00  0.00     0.055 A 
ATOM      6  C5  BZF d   1      -0.986   5.473  -2.552  0.00  0.00    -0.016 A 
ATOM      7  C6  BZF d   1      -1.864   5.999  -1.628  0.00  0.00     0.022 A 
ATOM      8  C7  BZF d   1      -1.874   5.572  -0.342  0.00  0.00     0.029 A 
ATOM      9  C7A BZF d   1      -0.956   4.609   0.004  0.00  0.00     0.058 A 
ENDROOT
TORSDOF 0
ENDMDL
