MODEL 1
REMARK minimizedAffinity 0.0722347274
REMARK minimizedRMSD -1
REMARK  0 active torsions:
REMARK  status: ('A' for Active; 'I' for Inactive)
ROOT
ATOM      1  O1  BZF d   1       0.666   3.233  -0.333  0.00  0.00    -0.204 OA
ATOM      2  C2  BZF d   1       1.084   4.549  -0.290  0.00  0.00     0.174 A 
ATOM      3  C3  BZF d   1       0.196   5.354  -0.908  0.00  0.00    -0.012 A 
ATOM      4  C3A BZF d   1      -0.887   4.500  -1.286  0.00  0.00    -0.107 A 
ATOM      5  C4  BZF d   1      -2.077   4.717  -1.920  0.00  0.00     0.055 A 
ATOM      6  C5  BZF d   1      -2.878   3.656  -2.202  0.00  0.00    -0.016 A 
ATOM      7  C6  BZF d   1      -2.519   2.366  -1.869  0.00  0.00     0.022 A 
ATOM      8  C7  BZF d   1      -1.351   2.102  -1.234  0.00  0.00     0.029 A 
ATOM      9  C7A BZF d   1      -0.555   3.175  -0.919  0.00  0.00     0.058 A 
ENDROOT
TORSDOF 0
ENDMDL
