MODEL 1
REMARK minimizedAffinity 2.52253771
REMARK minimizedRMSD -1
REMARK  0 active torsions:
REMARK  status: ('A' for Active; 'I' for Inactive)
ROOT
ATOM      1  O1  BZF d   1      -6.000   0.634   3.712  0.00  0.00    -0.204 OA
ATOM      2  C2  BZF d   1      -5.209   0.822   2.595  0.00  0.00     0.174 A 
ATOM      3  C3  BZF d   1      -4.218  -0.092   2.550  0.00  0.00    -0.012 A 
ATOM      4  C3A BZF d   1      -4.456  -0.959   3.663  0.00  0.00    -0.107 A 
ATOM      5  C4  BZF d   1      -3.820  -2.069   4.141  0.00  0.00     0.055 A 
ATOM      6  C5  BZF d   1      -4.264  -2.640   5.292  0.00  0.00    -0.016 A 
ATOM      7  C6  BZF d   1      -5.335  -2.124   5.993  0.00  0.00     0.022 A 
ATOM      8  C7  BZF d   1      -6.000  -1.028   5.555  0.00  0.00     0.029 A 
ATOM      9  C7A BZF d   1      -5.575  -0.468   4.375  0.00  0.00     0.058 A 
ENDROOT
TORSDOF 0
ENDMDL
