MODEL 1
REMARK minimizedAffinity 3.50181127
REMARK minimizedRMSD -1
REMARK  0 active torsions:
REMARK  status: ('A' for Active; 'I' for Inactive)
ROOT
ATOM      1  O1  BZF d   1      -0.319  -4.850  -2.287  0.00  0.00    -0.204 OA
ATOM      2  C2  BZF d   1      -1.256  -4.384  -3.188  0.00  0.00     0.174 A 
ATOM      3  C3  BZF d   1      -1.409  -3.049  -3.073  0.00  0.00    -0.012 A 
ATOM      4  C3A BZF d   1      -0.444  -2.643  -2.098  0.00  0.00    -0.107 A 
ATOM      5  C4  BZF d   1      -0.100  -1.434  -1.565  0.00  0.00     0.055 A 
ATOM      6  C5  BZF d   1       0.834  -1.389  -0.579  0.00  0.00    -0.016 A 
ATOM      7  C6  BZF d   1       1.439  -2.532  -0.098  0.00  0.00     0.022 A 
ATOM      8  C7  BZF d   1       1.134  -3.753  -0.599  0.00  0.00     0.029 A 
ATOM      9  C7A BZF d   1       0.214  -3.799  -1.619  0.00  0.00     0.058 A 
ENDROOT
TORSDOF 0
ENDMDL
