MODEL 1
REMARK minimizedAffinity 4.24213266
REMARK minimizedRMSD -1
REMARK  0 active torsions:
REMARK  status: ('A' for Active; 'I' for Inactive)
ROOT
ATOM      1  O1  BZF d   1       1.869   3.860  -0.208  0.00  0.00    -0.204 OA
ATOM      2  C2  BZF d   1       0.666   3.693  -0.867  0.00  0.00     0.174 A 
ATOM      3  C3  BZF d   1      -0.211   3.017  -0.097  0.00  0.00    -0.012 A 
ATOM      4  C3A BZF d   1       0.456   2.825   1.154  0.00  0.00    -0.107 A 
ATOM      5  C4  BZF d   1       0.093   2.233   2.330  0.00  0.00     0.055 A 
ATOM      6  C5  BZF d   1       1.004   2.150   3.336  0.00  0.00    -0.016 A 
ATOM      7  C6  BZF d   1       2.285   2.641   3.198  0.00  0.00     0.022 A 
ATOM      8  C7  BZF d   1       2.689   3.241   2.052  0.00  0.00     0.029 A 
ATOM      9  C7A BZF d   1       1.762   3.357   1.046  0.00  0.00     0.058 A 
ENDROOT
TORSDOF 0
ENDMDL
