MODEL 1
REMARK minimizedAffinity 3.38775134
REMARK minimizedRMSD -1
REMARK  0 active torsions:
REMARK  status: ('A' for Active; 'I' for Inactive)
ROOT
ATOM      1  O1  BZF d   1      -0.932   5.579  -2.415  0.00  0.00    -0.204 OA
ATOM      2  C2  BZF d   1      -2.271   5.244  -2.475  0.00  0.00     0.174 A 
ATOM      3  C3  BZF d   1      -2.544   4.217  -1.645  0.00  0.00    -0.012 A 
ATOM      4  C3A BZF d   1      -1.318   3.950  -0.959  0.00  0.00    -0.107 A 
ATOM      5  C4  BZF d   1      -0.957   3.052   0.005  0.00  0.00     0.055 A 
ATOM      6  C5  BZF d   1       0.339   3.003   0.410  0.00  0.00    -0.016 A 
ATOM      7  C6  BZF d   1       1.301   3.831  -0.131  0.00  0.00     0.022 A 
ATOM      8  C7  BZF d   1       0.990   4.741  -1.086  0.00  0.00     0.029 A 
ATOM      9  C7A BZF d   1      -0.326   4.816  -1.473  0.00  0.00     0.058 A 
ENDROOT
TORSDOF 0
ENDMDL
