MODEL 1
REMARK minimizedAffinity 15.8132458
REMARK minimizedRMSD -1
REMARK  0 active torsions:
REMARK  status: ('A' for Active; 'I' for Inactive)
ROOT
ATOM      1  O1  BZF d   1       0.552   4.599  -0.728  0.00  0.00    -0.204 OA
ATOM      2  C2  BZF d   1      -0.327   3.681  -1.268  0.00  0.00     0.174 A 
ATOM      3  C3  BZF d   1      -0.604   2.704  -0.381  0.00  0.00    -0.012 A 
ATOM      4  C3A BZF d   1       0.077   3.082   0.819  0.00  0.00    -0.107 A 
ATOM      5  C4  BZF d   1       0.172   2.521   2.061  0.00  0.00     0.055 A 
ATOM      6  C5  BZF d   1       0.977   3.103   2.988  0.00  0.00    -0.016 A 
ATOM      7  C6  BZF d   1       1.704   4.241   2.707  0.00  0.00     0.022 A 
ATOM      8  C7  BZF d   1       1.638   4.836   1.491  0.00  0.00     0.029 A 
ATOM      9  C7A BZF d   1       0.800   4.269   0.563  0.00  0.00     0.058 A 
ENDROOT
TORSDOF 0
ENDMDL
