MODEL 1
REMARK minimizedAffinity 5.04071426
REMARK minimizedRMSD -1
REMARK  0 active torsions:
REMARK  status: ('A' for Active; 'I' for Inactive)
ROOT
ATOM      1  O1  BZF d   1       1.350   3.853   0.553  0.00  0.00    -0.204 OA
ATOM      2  C2  BZF d   1       0.301   3.962  -0.341  0.00  0.00     0.174 A 
ATOM      3  C3  BZF d   1      -0.747   3.212   0.058  0.00  0.00    -0.012 A 
ATOM      4  C3A BZF d   1      -0.361   2.669   1.324  0.00  0.00    -0.107 A 
ATOM      5  C4  BZF d   1      -0.985   1.856   2.227  0.00  0.00     0.055 A 
ATOM      6  C5  BZF d   1      -0.305   1.452   3.332  0.00  0.00    -0.016 A 
ATOM      7  C6  BZF d   1       0.999   1.837   3.563  0.00  0.00     0.022 A 
ATOM      8  C7  BZF d   1       1.658   2.647   2.700  0.00  0.00     0.029 A 
ATOM      9  C7A BZF d   1       0.963   3.084   1.598  0.00  0.00     0.058 A 
ENDROOT
TORSDOF 0
ENDMDL
