MODEL 1
REMARK minimizedAffinity 6.83704567
REMARK minimizedRMSD -1
REMARK  0 active torsions:
REMARK  status: ('A' for Active; 'I' for Inactive)
ROOT
ATOM      1  O1  BZF d   1       1.340   3.661   0.157  0.00  0.00    -0.204 OA
ATOM      2  C2  BZF d   1       0.045   3.489  -0.293  0.00  0.00     0.174 A 
ATOM      3  C3  BZF d   1      -0.691   2.817   0.616  0.00  0.00    -0.012 A 
ATOM      4  C3A BZF d   1       0.174   2.634   1.741  0.00  0.00    -0.107 A 
ATOM      5  C4  BZF d   1       0.012   2.050   2.964  0.00  0.00     0.055 A 
ATOM      6  C5  BZF d   1       1.077   1.973   3.806  0.00  0.00    -0.016 A 
ATOM      7  C6  BZF d   1       2.316   2.466   3.454  0.00  0.00     0.022 A 
ATOM      8  C7  BZF d   1       2.524   3.059   2.253  0.00  0.00     0.029 A 
ATOM      9  C7A BZF d   1       1.443   3.167   1.414  0.00  0.00     0.058 A 
ENDROOT
TORSDOF 0
ENDMDL
