MODEL 1
REMARK minimizedAffinity 3.26547456
REMARK minimizedRMSD -1
REMARK  0 active torsions:
REMARK  status: ('A' for Active; 'I' for Inactive)
ROOT
ATOM      1  O1  BZF d   1      -0.221   3.660   1.680  0.00  0.00    -0.204 OA
ATOM      2  C2  BZF d   1      -0.060   2.304   1.472  0.00  0.00     0.174 A 
ATOM      3  C3  BZF d   1      -0.213   1.999   0.167  0.00  0.00    -0.012 A 
ATOM      4  C3A BZF d   1      -0.395   3.254  -0.494  0.00  0.00    -0.107 A 
ATOM      5  C4  BZF d   1      -0.581   3.609  -1.800  0.00  0.00     0.055 A 
ATOM      6  C5  BZF d   1      -0.800   4.916  -2.104  0.00  0.00    -0.016 A 
ATOM      7  C6  BZF d   1      -0.843   5.891  -1.129  0.00  0.00     0.022 A 
ATOM      8  C7  BZF d   1      -0.658   5.588   0.179  0.00  0.00     0.029 A 
ATOM      9  C7A BZF d   1      -0.405   4.273   0.486  0.00  0.00     0.058 A 
ENDROOT
TORSDOF 0
ENDMDL
