MODEL 1
REMARK minimizedAffinity -1.55639231
REMARK minimizedRMSD -1
REMARK  1 active torsions:
REMARK  status: ('A' for Active; 'I' for Inactive)
REMARK    1  A    between atoms: C1_2  and  C2_3 
ROOT
ATOM      1  C2  UNL d   1      -1.882  -5.999  -3.932  0.00  0.00    -0.077 A 
ATOM      2  C3  UNL d   1      -0.986  -6.000  -2.854  0.00  0.00     0.002 A 
ATOM      3  C4  UNL d   1       0.392  -5.985  -3.081  0.00  0.00     0.002 A 
ATOM      4  C5  UNL d   1       0.885  -5.965  -4.384  0.00  0.00    -0.004 A 
ATOM      5  C6  UNL d   1       0.002  -5.965  -5.463  0.00  0.00     0.002 A 
ATOM      6  C7  UNL d   1      -1.375  -5.981  -5.238  0.00  0.00     0.002 A 
ENDROOT
BRANCH   1   7
ATOM      7  C1  UNL d   1      -3.368  -5.965  -3.689  0.00  0.00     0.055 C 
ATOM      8  C   UNL d   1      -3.687  -5.999  -2.202  0.00  0.00     0.019 C 
ENDBRANCH   1   7
TORSDOF 1
ENDMDL
