MODEL 1
REMARK minimizedAffinity 1.27760541
REMARK minimizedRMSD -1
REMARK  1 active torsions:
REMARK  status: ('A' for Active; 'I' for Inactive)
REMARK    1  A    between atoms: C1_2  and  C2_3 
ROOT
ATOM      1  C2  UNL d   1       0.459  -0.232   0.318  0.00  0.00    -0.077 A 
ATOM      2  C3  UNL d   1       1.246  -1.327   0.702  0.00  0.00     0.002 A 
ATOM      3  C4  UNL d   1       0.649  -2.545   1.034  0.00  0.00     0.002 A 
ATOM      4  C5  UNL d   1      -0.737  -2.680   0.982  0.00  0.00    -0.004 A 
ATOM      5  C6  UNL d   1      -1.529  -1.597   0.603  0.00  0.00     0.002 A 
ATOM      6  C7  UNL d   1      -0.934  -0.379   0.272  0.00  0.00     0.002 A 
ENDROOT
BRANCH   1   7
ATOM      7  C1  UNL d   1       1.104   1.067  -0.089  0.00  0.00     0.055 C 
ATOM      8  C   UNL d   1       2.371   0.827  -0.896  0.00  0.00     0.019 C 
ENDBRANCH   1   7
TORSDOF 1
ENDMDL
