MODEL 1
REMARK minimizedAffinity 4.86114073
REMARK minimizedRMSD -1
REMARK  1 active torsions:
REMARK  status: ('A' for Active; 'I' for Inactive)
REMARK    1  A    between atoms: C1_2  and  C2_3 
ROOT
ATOM      1  C2  UNL d   1      -0.223  -5.634  -3.480  0.00  0.00    -0.077 A 
ATOM      2  C3  UNL d   1       0.963  -4.894  -3.589  0.00  0.00     0.002 A 
ATOM      3  C4  UNL d   1       1.451  -4.522  -4.843  0.00  0.00     0.002 A 
ATOM      4  C5  UNL d   1       0.758  -4.882  -5.997  0.00  0.00    -0.004 A 
ATOM      5  C6  UNL d   1      -0.421  -5.620  -5.899  0.00  0.00     0.002 A 
ATOM      6  C7  UNL d   1      -0.910  -5.993  -4.647  0.00  0.00     0.002 A 
ENDROOT
BRANCH   1   7
ATOM      7  C1  UNL d   1      -0.776  -5.994  -2.126  0.00  0.00     0.055 C 
ATOM      8  C   UNL d   1      -2.298  -5.997  -2.134  0.00  0.00     0.019 C 
ENDBRANCH   1   7
TORSDOF 1
ENDMDL
