MODEL 1
REMARK minimizedAffinity 0.745634913
REMARK minimizedRMSD -1
REMARK  1 active torsions:
REMARK  status: ('A' for Active; 'I' for Inactive)
REMARK    1  A    between atoms: C1_2  and  C2_3 
ROOT
ATOM      1  C2  UNL d   1      -1.282  -5.999  -3.459  0.00  0.00    -0.077 A 
ATOM      2  C3  UNL d   1       0.114  -5.994  -3.592  0.00  0.00     0.002 A 
ATOM      3  C4  UNL d   1       0.703  -5.953  -4.857  0.00  0.00     0.002 A 
ATOM      4  C5  UNL d   1      -0.095  -5.912  -5.998  0.00  0.00    -0.004 A 
ATOM      5  C6  UNL d   1      -1.484  -5.918  -5.877  0.00  0.00     0.002 A 
ATOM      6  C7  UNL d   1      -2.075  -5.961  -4.613  0.00  0.00     0.002 A 
ENDROOT
BRANCH   1   7
ATOM      7  C1  UNL d   1      -1.919  -5.994  -2.094  0.00  0.00     0.055 C 
ATOM      8  C   UNL d   1      -3.438  -5.965  -2.192  0.00  0.00     0.019 C 
ENDBRANCH   1   7
TORSDOF 1
ENDMDL
