MODEL 1
REMARK minimizedAffinity 5.48108482
REMARK minimizedRMSD -1
REMARK  1 active torsions:
REMARK  status: ('A' for Active; 'I' for Inactive)
REMARK    1  A    between atoms: C1_2  and  C2_3 
ROOT
ATOM      1  C2  UNL d   1       2.589  -0.827   0.496  0.00  0.00    -0.077 A 
ATOM      2  C3  UNL d   1       1.554   0.093   0.274  0.00  0.00     0.002 A 
ATOM      3  C4  UNL d   1       0.221  -0.317   0.335  0.00  0.00     0.002 A 
ATOM      4  C5  UNL d   1      -0.090  -1.644   0.622  0.00  0.00    -0.004 A 
ATOM      5  C6  UNL d   1       0.932  -2.567   0.842  0.00  0.00     0.002 A 
ATOM      6  C7  UNL d   1       2.266  -2.159   0.780  0.00  0.00     0.002 A 
ENDROOT
BRANCH   1   7
ATOM      7  C1  UNL d   1       4.027  -0.377   0.479  0.00  0.00     0.055 C 
ATOM      8  C   UNL d   1       4.424   0.156  -0.890  0.00  0.00     0.019 C 
ENDBRANCH   1   7
TORSDOF 1
ENDMDL
