MODEL 1
REMARK minimizedAffinity 3.30047703
REMARK minimizedRMSD -1
REMARK  1 active torsions:
REMARK  status: ('A' for Active; 'I' for Inactive)
REMARK    1  A    between atoms: C1_2  and  C2_3 
ROOT
ATOM      1  C2  UNL d   1       2.322  -0.105  -0.321  0.00  0.00    -0.077 A 
ATOM      2  C3  UNL d   1       2.809  -1.127   0.507  0.00  0.00     0.002 A 
ATOM      3  C4  UNL d   1       1.925  -1.943   1.216  0.00  0.00     0.002 A 
ATOM      4  C5  UNL d   1       0.550  -1.748   1.102  0.00  0.00    -0.004 A 
ATOM      5  C6  UNL d   1       0.056  -0.733   0.283  0.00  0.00     0.002 A 
ATOM      6  C7  UNL d   1       0.938   0.084  -0.426  0.00  0.00     0.002 A 
ENDROOT
BRANCH   1   7
ATOM      7  C1  UNL d   1       3.272   0.744  -1.125  0.00  0.00     0.055 C 
ATOM      8  C   UNL d   1       4.017  -0.088  -2.159  0.00  0.00     0.019 C 
ENDBRANCH   1   7
TORSDOF 1
ENDMDL
