MODEL 1
REMARK minimizedAffinity 0.0166897103
REMARK minimizedRMSD -1
REMARK  1 active torsions:
REMARK  status: ('A' for Active; 'I' for Inactive)
REMARK    1  A    between atoms: C1_2  and  C2_3 
ROOT
ATOM      1  C2  UNL d   1      -1.650  -5.995  -3.686  0.00  0.00    -0.077 A 
ATOM      2  C3  UNL d   1      -0.327  -5.998  -3.221  0.00  0.00     0.002 A 
ATOM      3  C4  UNL d   1       0.738  -5.975  -4.123  0.00  0.00     0.002 A 
ATOM      4  C5  UNL d   1       0.492  -5.944  -5.494  0.00  0.00    -0.004 A 
ATOM      5  C6  UNL d   1      -0.820  -5.943  -5.966  0.00  0.00     0.002 A 
ATOM      6  C7  UNL d   1      -1.886  -5.967  -5.066  0.00  0.00     0.002 A 
ENDROOT
BRANCH   1   7
ATOM      7  C1  UNL d   1      -2.800  -5.970  -2.714  0.00  0.00     0.055 C 
ATOM      8  C   UNL d   1      -4.138  -5.999  -3.438  0.00  0.00     0.019 C 
ENDBRANCH   1   7
TORSDOF 1
ENDMDL
