MODEL 1
REMARK minimizedAffinity 1.48430908
REMARK minimizedRMSD -1
REMARK  1 active torsions:
REMARK  status: ('A' for Active; 'I' for Inactive)
REMARK    1  A    between atoms: C1_2  and  C2_3 
ROOT
ATOM      1  C2  UNL d   1       0.168  -0.540   0.885  0.00  0.00    -0.077 A 
ATOM      2  C3  UNL d   1      -0.901  -1.419   0.659  0.00  0.00     0.002 A 
ATOM      3  C4  UNL d   1      -0.683  -2.797   0.608  0.00  0.00     0.002 A 
ATOM      4  C5  UNL d   1       0.600  -3.308   0.786  0.00  0.00    -0.004 A 
ATOM      5  C6  UNL d   1       1.670  -2.442   1.009  0.00  0.00     0.002 A 
ATOM      6  C7  UNL d   1       1.455  -1.065   1.059  0.00  0.00     0.002 A 
ENDROOT
BRANCH   1   7
ATOM      7  C1  UNL d   1      -0.073   0.944   0.989  0.00  0.00     0.055 C 
ATOM      8  C   UNL d   1       0.580   1.693  -0.163  0.00  0.00     0.019 C 
ENDBRANCH   1   7
TORSDOF 1
ENDMDL
