MODEL 1
REMARK minimizedAffinity -1.59315062
REMARK minimizedRMSD -1
REMARK  1 active torsions:
REMARK  status: ('A' for Active; 'I' for Inactive)
REMARK    1  A    between atoms: C1_2  and  C2_3 
ROOT
ATOM      1  C2  UNL d   1       1.478  -1.247   1.047  0.00  0.00    -0.077 A 
ATOM      2  C3  UNL d   1       0.340  -0.442   1.200  0.00  0.00     0.002 A 
ATOM      3  C4  UNL d   1       0.323   0.861   0.698  0.00  0.00     0.002 A 
ATOM      4  C5  UNL d   1       1.440   1.369   0.037  0.00  0.00    -0.004 A 
ATOM      5  C6  UNL d   1       2.577   0.577  -0.119  0.00  0.00     0.002 A 
ATOM      6  C7  UNL d   1       2.596  -0.725   0.383  0.00  0.00     0.002 A 
ENDROOT
BRANCH   1   7
ATOM      7  C1  UNL d   1       1.481  -2.669   1.544  0.00  0.00     0.055 C 
ATOM      8  C   UNL d   1       0.347  -3.473   0.925  0.00  0.00     0.019 C 
ENDBRANCH   1   7
TORSDOF 1
ENDMDL
