MODEL 1
REMARK minimizedAffinity 0.0854149163
REMARK minimizedRMSD -1
REMARK  1 active torsions:
REMARK  status: ('A' for Active; 'I' for Inactive)
REMARK    1  A    between atoms: C1_2  and  C2_3 
ROOT
ATOM      1  C2  UNL d   1      -1.225  -5.931  -4.410  0.00  0.00    -0.077 A 
ATOM      2  C3  UNL d   1      -0.734  -6.000  -5.722  0.00  0.00     0.002 A 
ATOM      3  C4  UNL d   1       0.641  -5.982  -5.963  0.00  0.00     0.002 A 
ATOM      4  C5  UNL d   1       1.536  -5.900  -4.898  0.00  0.00    -0.004 A 
ATOM      5  C6  UNL d   1       1.058  -5.829  -3.590  0.00  0.00     0.002 A 
ATOM      6  C7  UNL d   1      -0.317  -5.845  -3.347  0.00  0.00     0.002 A 
ENDROOT
BRANCH   1   7
ATOM      7  C1  UNL d   1      -2.706  -5.999  -4.145  0.00  0.00     0.055 C 
ATOM      8  C   UNL d   1      -3.002  -5.994  -2.652  0.00  0.00     0.019 C 
ENDBRANCH   1   7
TORSDOF 1
ENDMDL
