MODEL 1
REMARK minimizedAffinity -3.26510143
REMARK minimizedRMSD -1
REMARK  1 active torsions:
REMARK  status: ('A' for Active; 'I' for Inactive)
REMARK    1  A    between atoms: C1_2  and  C2_3 
ROOT
ATOM      1  C2  UNL d   1      -1.931  -5.756  -4.071  0.00  0.00    -0.077 A 
ATOM      2  C3  UNL d   1      -0.740  -5.947  -3.356  0.00  0.00     0.002 A 
ATOM      3  C4  UNL d   1       0.493  -5.688  -3.957  0.00  0.00     0.002 A 
ATOM      4  C5  UNL d   1       0.547  -5.234  -5.273  0.00  0.00    -0.004 A 
ATOM      5  C6  UNL d   1      -0.632  -5.044  -5.993  0.00  0.00     0.002 A 
ATOM      6  C7  UNL d   1      -1.865  -5.302  -5.394  0.00  0.00     0.002 A 
ENDROOT
BRANCH   1   7
ATOM      7  C1  UNL d   1      -3.264  -5.987  -3.408  0.00  0.00     0.055 C 
ATOM      8  C   UNL d   1      -3.134  -5.996  -1.892  0.00  0.00     0.019 C 
ENDBRANCH   1   7
TORSDOF 1
ENDMDL
