MODEL 1
REMARK minimizedAffinity -0.742047369
REMARK minimizedRMSD -1
REMARK  1 active torsions:
REMARK  status: ('A' for Active; 'I' for Inactive)
REMARK    1  A    between atoms: C1_2  and  C2_3 
ROOT
ATOM      1  C2  UNL d   1       0.470  -5.963  -3.548  0.00  0.00    -0.077 A 
ATOM      2  C3  UNL d   1       1.180  -5.961  -4.757  0.00  0.00     0.002 A 
ATOM      3  C4  UNL d   1       0.500  -5.977  -5.976  0.00  0.00     0.002 A 
ATOM      4  C5  UNL d   1      -0.893  -5.990  -5.998  0.00  0.00    -0.004 A 
ATOM      5  C6  UNL d   1      -1.608  -5.995  -4.802  0.00  0.00     0.002 A 
ATOM      6  C7  UNL d   1      -0.930  -5.980  -3.582  0.00  0.00     0.002 A 
ENDROOT
BRANCH   1   7
ATOM      7  C1  UNL d   1       1.201  -5.897  -2.233  0.00  0.00     0.055 C 
ATOM      8  C   UNL d   1       0.572  -4.872  -1.301  0.00  0.00     0.019 C 
ENDBRANCH   1   7
TORSDOF 1
ENDMDL
