MODEL 1
REMARK minimizedAffinity 2.11957407
REMARK minimizedRMSD -1
REMARK  1 active torsions:
REMARK  status: ('A' for Active; 'I' for Inactive)
REMARK    1  A    between atoms: C1_2  and  C2_3 
ROOT
ATOM      1  C2  UNL d   1       1.062  -5.639  -3.294  0.00  0.00    -0.077 A 
ATOM      2  C3  UNL d   1       1.993  -5.300  -4.287  0.00  0.00     0.002 A 
ATOM      3  C4  UNL d   1       1.626  -5.313  -5.633  0.00  0.00     0.002 A 
ATOM      4  C5  UNL d   1       0.327  -5.660  -6.000  0.00  0.00    -0.004 A 
ATOM      5  C6  UNL d   1      -0.605  -6.000  -5.021  0.00  0.00     0.002 A 
ATOM      6  C7  UNL d   1      -0.240  -5.989  -3.674  0.00  0.00     0.002 A 
ENDROOT
BRANCH   1   7
ATOM      7  C1  UNL d   1       1.443  -5.578  -1.838  0.00  0.00     0.055 C 
ATOM      8  C   UNL d   1       0.613  -4.543  -1.092  0.00  0.00     0.019 C 
ENDBRANCH   1   7
TORSDOF 1
ENDMDL
