MODEL 1
REMARK minimizedAffinity -4.3089633
REMARK minimizedRMSD -1
REMARK  1 active torsions:
REMARK  status: ('A' for Active; 'I' for Inactive)
REMARK    1  A    between atoms: C1_2  and  C2_3 
ROOT
ATOM      1  C2  UNL d   1      -0.209   0.082  -0.544  0.00  0.00    -0.077 A 
ATOM      2  C3  UNL d   1      -0.073  -1.307  -0.411  0.00  0.00     0.002 A 
ATOM      3  C4  UNL d   1       1.133  -1.933  -0.736  0.00  0.00     0.002 A 
ATOM      4  C5  UNL d   1       2.211  -1.177  -1.191  0.00  0.00    -0.004 A 
ATOM      5  C6  UNL d   1       2.085   0.204  -1.328  0.00  0.00     0.002 A 
ATOM      6  C7  UNL d   1       0.881   0.831  -1.005  0.00  0.00     0.002 A 
ENDROOT
BRANCH   1   7
ATOM      7  C1  UNL d   1      -1.492   0.764  -0.147  0.00  0.00     0.055 C 
ATOM      8  C   UNL d   1      -1.652   0.807   1.366  0.00  0.00     0.019 C 
ENDBRANCH   1   7
TORSDOF 1
ENDMDL
