MODEL 1
REMARK minimizedAffinity -5.36177731
REMARK minimizedRMSD -1
REMARK  1 active torsions:
REMARK  status: ('A' for Active; 'I' for Inactive)
REMARK    1  A    between atoms: C1_2  and  C2_3 
ROOT
ATOM      1  C2  UNL d   1       0.375   0.069   0.117  0.00  0.00    -0.077 A 
ATOM      2  C3  UNL d   1       1.512   0.880   0.239  0.00  0.00     0.002 A 
ATOM      3  C4  UNL d   1       2.693   0.544  -0.424  0.00  0.00     0.002 A 
ATOM      4  C5  UNL d   1       2.748  -0.600  -1.218  0.00  0.00    -0.004 A 
ATOM      5  C6  UNL d   1       1.624  -1.414  -1.344  0.00  0.00     0.002 A 
ATOM      6  C7  UNL d   1       0.442  -1.081  -0.680  0.00  0.00     0.002 A 
ENDROOT
BRANCH   1   7
ATOM      7  C1  UNL d   1      -0.915   0.455   0.793  0.00  0.00     0.055 C 
ATOM      8  C   UNL d   1      -0.659   1.102   2.146  0.00  0.00     0.019 C 
ENDBRANCH   1   7
TORSDOF 1
ENDMDL
