MODEL 1
REMARK minimizedAffinity -5.18167114
REMARK minimizedRMSD -1
REMARK  1 active torsions:
REMARK  status: ('A' for Active; 'I' for Inactive)
REMARK    1  A    between atoms: C1_2  and  C2_3 
ROOT
ATOM      1  C2  UNL d   1       0.899  -0.528  -0.756  0.00  0.00    -0.077 A 
ATOM      2  C3  UNL d   1      -0.167  -1.125  -0.068  0.00  0.00     0.002 A 
ATOM      3  C4  UNL d   1      -1.296  -0.377   0.271  0.00  0.00     0.002 A 
ATOM      4  C5  UNL d   1      -1.372   0.970  -0.078  0.00  0.00    -0.004 A 
ATOM      5  C6  UNL d   1      -0.317   1.573  -0.761  0.00  0.00     0.002 A 
ATOM      6  C7  UNL d   1       0.813   0.827  -1.099  0.00  0.00     0.002 A 
ENDROOT
BRANCH   1   7
ATOM      7  C1  UNL d   1       2.096  -1.345  -1.165  0.00  0.00     0.055 C 
ATOM      8  C   UNL d   1       3.360  -0.498  -1.197  0.00  0.00     0.019 C 
ENDBRANCH   1   7
TORSDOF 1
ENDMDL
