MODEL 1
REMARK minimizedAffinity -5.16143322
REMARK minimizedRMSD -1
REMARK  1 active torsions:
REMARK  status: ('A' for Active; 'I' for Inactive)
REMARK    1  A    between atoms: C1_2  and  C2_3 
ROOT
ATOM      1  C2  UNL d   1       0.202   0.434  -1.231  0.00  0.00    -0.077 A 
ATOM      2  C3  UNL d   1      -0.073  -0.292  -0.063  0.00  0.00     0.002 A 
ATOM      3  C4  UNL d   1       0.757  -1.345   0.325  0.00  0.00     0.002 A 
ATOM      4  C5  UNL d   1       1.870  -1.679  -0.445  0.00  0.00    -0.004 A 
ATOM      5  C6  UNL d   1       2.150  -0.964  -1.609  0.00  0.00     0.002 A 
ATOM      6  C7  UNL d   1       1.321   0.089  -1.999  0.00  0.00     0.002 A 
ENDROOT
BRANCH   1   7
ATOM      7  C1  UNL d   1      -0.664   1.602  -1.625  0.00  0.00     0.055 C 
ATOM      8  C   UNL d   1       0.094   2.578  -2.514  0.00  0.00     0.019 C 
ENDBRANCH   1   7
TORSDOF 1
ENDMDL
