MODEL 1
REMARK minimizedAffinity -4.34326792
REMARK minimizedRMSD -1
REMARK  1 active torsions:
REMARK  status: ('A' for Active; 'I' for Inactive)
REMARK    1  A    between atoms: C1_2  and  C2_3 
ROOT
ATOM      1  C2  UNL d   1       1.201  -0.694  -1.092  0.00  0.00    -0.077 A 
ATOM      2  C3  UNL d   1       0.143  -1.248  -0.359  0.00  0.00     0.002 A 
ATOM      3  C4  UNL d   1      -0.860  -0.429   0.163  0.00  0.00     0.002 A 
ATOM      4  C5  UNL d   1      -0.816   0.948  -0.045  0.00  0.00    -0.004 A 
ATOM      5  C6  UNL d   1       0.234   1.509  -0.771  0.00  0.00     0.002 A 
ATOM      6  C7  UNL d   1       1.238   0.692  -1.293  0.00  0.00     0.002 A 
ENDROOT
BRANCH   1   7
ATOM      7  C1  UNL d   1       2.257  -1.581  -1.699  0.00  0.00     0.055 C 
ATOM      8  C   UNL d   1       3.467  -0.775  -2.148  0.00  0.00     0.019 C 
ENDBRANCH   1   7
TORSDOF 1
ENDMDL
