MODEL 1
REMARK minimizedAffinity -4.740592
REMARK minimizedRMSD -1
REMARK  1 active torsions:
REMARK  status: ('A' for Active; 'I' for Inactive)
REMARK    1  A    between atoms: C1_2  and  C2_3 
ROOT
ATOM      1  C2  UNL d   1       0.579  -0.208   0.050  0.00  0.00    -0.077 A 
ATOM      2  C3  UNL d   1       1.677   0.557   0.467  0.00  0.00     0.002 A 
ATOM      3  C4  UNL d   1       2.914   0.420  -0.166  0.00  0.00     0.002 A 
ATOM      4  C5  UNL d   1       3.063  -0.477  -1.221  0.00  0.00    -0.004 A 
ATOM      5  C6  UNL d   1       1.977  -1.244  -1.641  0.00  0.00     0.002 A 
ATOM      6  C7  UNL d   1       0.740  -1.109  -1.009  0.00  0.00     0.002 A 
ENDROOT
BRANCH   1   7
ATOM      7  C1  UNL d   1      -0.769  -0.026   0.699  0.00  0.00     0.055 C 
ATOM      8  C   UNL d   1      -1.613   0.992  -0.055  0.00  0.00     0.019 C 
ENDBRANCH   1   7
TORSDOF 1
ENDMDL
