MODEL 1
REMARK minimizedAffinity -5.54783916
REMARK minimizedRMSD -1
REMARK  1 active torsions:
REMARK  status: ('A' for Active; 'I' for Inactive)
REMARK    1  A    between atoms: C1_2  and  C2_3 
ROOT
ATOM      1  C2  UNL d   1       0.443   0.346  -0.633  0.00  0.00    -0.077 A 
ATOM      2  C3  UNL d   1       1.568   1.160  -0.826  0.00  0.00     0.002 A 
ATOM      3  C4  UNL d   1       2.811   0.591  -1.111  0.00  0.00     0.002 A 
ATOM      4  C5  UNL d   1       2.940  -0.793  -1.209  0.00  0.00    -0.004 A 
ATOM      5  C6  UNL d   1       1.828  -1.611  -1.016  0.00  0.00     0.002 A 
ATOM      6  C7  UNL d   1       0.585  -1.044  -0.730  0.00  0.00     0.002 A 
ENDROOT
BRANCH   1   7
ATOM      7  C1  UNL d   1      -0.908   0.960  -0.374  0.00  0.00     0.055 C 
ATOM      8  C   UNL d   1      -1.500   0.463   0.937  0.00  0.00     0.019 C 
ENDBRANCH   1   7
TORSDOF 1
ENDMDL
