MODEL 1
REMARK minimizedAffinity -2.80987215
REMARK minimizedRMSD -1
REMARK  1 active torsions:
REMARK  status: ('A' for Active; 'I' for Inactive)
REMARK    1  A    between atoms: C1_2  and  C2_3 
ROOT
ATOM      1  C2  UNL d   1       0.905  -0.717  -1.151  0.00  0.00    -0.077 A 
ATOM      2  C3  UNL d   1       1.144   0.602  -0.739  0.00  0.00     0.002 A 
ATOM      3  C4  UNL d   1       0.199   1.283   0.031  0.00  0.00     0.002 A 
ATOM      4  C5  UNL d   1      -0.988   0.653   0.398  0.00  0.00    -0.004 A 
ATOM      5  C6  UNL d   1      -1.236  -0.657  -0.009  0.00  0.00     0.002 A 
ATOM      6  C7  UNL d   1      -0.293  -1.339  -0.779  0.00  0.00     0.002 A 
ENDROOT
BRANCH   1   7
ATOM      7  C1  UNL d   1       1.944  -1.470  -1.939  0.00  0.00     0.055 C 
ATOM      8  C   UNL d   1       3.347  -0.971  -1.625  0.00  0.00     0.019 C 
ENDBRANCH   1   7
TORSDOF 1
ENDMDL
