MODEL 1
REMARK minimizedAffinity -4.36114311
REMARK minimizedRMSD -1
REMARK  1 active torsions:
REMARK  status: ('A' for Active; 'I' for Inactive)
REMARK    1  A    between atoms: C1_2  and  C2_3 
ROOT
ATOM      1  C2  UNL d   1       1.265  -0.744  -0.788  0.00  0.00    -0.077 A 
ATOM      2  C3  UNL d   1       0.871   0.506  -1.287  0.00  0.00     0.002 A 
ATOM      3  C4  UNL d   1      -0.388   1.024  -0.979  0.00  0.00     0.002 A 
ATOM      4  C5  UNL d   1      -1.262   0.302  -0.168  0.00  0.00    -0.004 A 
ATOM      5  C6  UNL d   1      -0.880  -0.943   0.331  0.00  0.00     0.002 A 
ATOM      6  C7  UNL d   1       0.378  -1.463   0.023  0.00  0.00     0.002 A 
ENDROOT
BRANCH   1   7
ATOM      7  C1  UNL d   1       2.642  -1.282  -1.079  0.00  0.00     0.055 C 
ATOM      8  C   UNL d   1       3.491  -0.259  -1.819  0.00  0.00     0.019 C 
ENDBRANCH   1   7
TORSDOF 1
ENDMDL
