MODEL 1
REMARK minimizedAffinity -4.4765296
REMARK minimizedRMSD -1
REMARK  1 active torsions:
REMARK  status: ('A' for Active; 'I' for Inactive)
REMARK    1  A    between atoms: C1_2  and  C2_3 
ROOT
ATOM      1  C2  UNL d   1      -0.315   0.078   0.025  0.00  0.00    -0.077 A 
ATOM      2  C3  UNL d   1      -0.019  -1.183   0.560  0.00  0.00     0.002 A 
ATOM      3  C4  UNL d   1       1.066  -1.918   0.076  0.00  0.00     0.002 A 
ATOM      4  C5  UNL d   1       1.864  -1.398  -0.940  0.00  0.00    -0.004 A 
ATOM      5  C6  UNL d   1       1.576  -0.144  -1.480  0.00  0.00     0.002 A 
ATOM      6  C7  UNL d   1       0.492   0.591  -0.998  0.00  0.00     0.002 A 
ENDROOT
BRANCH   1   7
ATOM      7  C1  UNL d   1      -1.455   0.893   0.579  0.00  0.00     0.055 C 
ATOM      8  C   UNL d   1      -1.938   0.336   1.910  0.00  0.00     0.019 C 
ENDBRANCH   1   7
TORSDOF 1
ENDMDL
