MODEL 1
REMARK minimizedAffinity -5.34935713
REMARK minimizedRMSD -1
REMARK  1 active torsions:
REMARK  status: ('A' for Active; 'I' for Inactive)
REMARK    1  A    between atoms: C1_2  and  C2_3 
ROOT
ATOM      1  C2  UNL d   1      -0.057   0.007  -0.074  0.00  0.00    -0.077 A 
ATOM      2  C3  UNL d   1       0.730   0.933  -0.773  0.00  0.00     0.002 A 
ATOM      3  C4  UNL d   1       1.907   0.527  -1.403  0.00  0.00     0.002 A 
ATOM      4  C5  UNL d   1       2.307  -0.807  -1.344  0.00  0.00    -0.004 A 
ATOM      5  C6  UNL d   1       1.532  -1.735  -0.649  0.00  0.00     0.002 A 
ATOM      6  C7  UNL d   1       0.355  -1.330  -0.018  0.00  0.00     0.002 A 
ENDROOT
BRANCH   1   7
ATOM      7  C1  UNL d   1      -1.353   0.434   0.565  0.00  0.00     0.055 C 
ATOM      8  C   UNL d   1      -1.153   0.811   2.025  0.00  0.00     0.019 C 
ENDBRANCH   1   7
TORSDOF 1
ENDMDL
