MODEL 1
REMARK minimizedAffinity 11.3342152
REMARK minimizedRMSD -1
REMARK  1 active torsions:
REMARK  status: ('A' for Active; 'I' for Inactive)
REMARK    1  A    between atoms: C1_2  and  C2_3 
ROOT
ATOM      1  C2  UNL d   1       0.935  -1.353   1.594  0.00  0.00    -0.081 A 
ATOM      2  C3  UNL d   1       2.274  -1.682   1.349  0.00  0.00     0.006 A 
ATOM      3  C4  UNL d   1       2.741  -1.823   0.040  0.00  0.00     0.002 A 
ATOM      4  C5  UNL d   1       1.879  -1.630  -1.045  0.00  0.00    -0.080 A 
ATOM      5  C6  UNL d   1       2.375  -1.749  -2.456  0.00  0.00     0.076 C 
ATOM      6  C7  UNL d   1       0.538  -1.318  -0.801  0.00  0.00     0.002 A 
ATOM      7  C8  UNL d   1       0.070  -1.178   0.508  0.00  0.00     0.006 A 
ENDROOT
BRANCH   1   8
ATOM      8  C1  UNL d   1       0.444  -1.136   3.003  0.00  0.00     0.054 C 
ATOM      9  C   UNL d   1       1.177   0.017   3.672  0.00  0.00     0.018 C 
ENDBRANCH   1   8
TORSDOF 1
ENDMDL
