MODEL 1
REMARK minimizedAffinity 10.6634903
REMARK minimizedRMSD -1
REMARK  1 active torsions:
REMARK  status: ('A' for Active; 'I' for Inactive)
REMARK    1  A    between atoms: C1_2  and  C2_3 
ROOT
ATOM      1  C2  UNL d   1       0.715  -1.889   1.954  0.00  0.00    -0.081 A 
ATOM      2  C3  UNL d   1      -0.454  -1.873   1.183  0.00  0.00     0.006 A 
ATOM      3  C4  UNL d   1      -1.561  -1.126   1.591  0.00  0.00     0.002 A 
ATOM      4  C5  UNL d   1      -1.515  -0.376   2.771  0.00  0.00    -0.080 A 
ATOM      5  C6  UNL d   1      -2.686   0.455   3.205  0.00  0.00     0.076 C 
ATOM      6  C7  UNL d   1      -0.354  -0.405   3.550  0.00  0.00     0.002 A 
ATOM      7  C8  UNL d   1       0.753  -1.153   3.143  0.00  0.00     0.006 A 
ENDROOT
BRANCH   1   8
ATOM      8  C1  UNL d   1       1.933  -2.643   1.483  0.00  0.00     0.054 C 
ATOM      9  C   UNL d   1       2.577  -1.961   0.285  0.00  0.00     0.018 C 
ENDBRANCH   1   8
TORSDOF 1
ENDMDL
