MODEL 1
REMARK minimizedAffinity 3.47635221
REMARK minimizedRMSD -1
REMARK  1 active torsions:
REMARK  status: ('A' for Active; 'I' for Inactive)
REMARK    1  A    between atoms: C1_2  and  C2_3 
ROOT
ATOM      1  C2  UNL d   1       1.064  -1.518   2.564  0.00  0.00    -0.081 A 
ATOM      2  C3  UNL d   1       1.023  -0.471   3.493  0.00  0.00     0.006 A 
ATOM      3  C4  UNL d   1      -0.153   0.259   3.685  0.00  0.00     0.002 A 
ATOM      4  C5  UNL d   1      -1.307  -0.051   2.958  0.00  0.00    -0.080 A 
ATOM      5  C6  UNL d   1      -2.584   0.705   3.177  0.00  0.00     0.076 C 
ATOM      6  C7  UNL d   1      -1.261  -1.086   2.018  0.00  0.00     0.002 A 
ATOM      7  C8  UNL d   1      -0.086  -1.816   1.825  0.00  0.00     0.006 A 
ENDROOT
BRANCH   1   8
ATOM      8  C1  UNL d   1       2.311  -2.349   2.401  0.00  0.00     0.054 C 
ATOM      9  C   UNL d   1       2.642  -2.569   0.932  0.00  0.00     0.018 C 
ENDBRANCH   1   8
TORSDOF 1
ENDMDL
