MODEL 1
REMARK minimizedAffinity 8.74741364
REMARK minimizedRMSD -1
REMARK  1 active torsions:
REMARK  status: ('A' for Active; 'I' for Inactive)
REMARK    1  A    between atoms: C1_2  and  C2_3 
ROOT
ATOM      1  C2  UNL d   1      -3.490   3.007  -5.209  0.00  0.00    -0.081 A 
ATOM      2  C3  UNL d   1      -2.979   1.878  -5.860  0.00  0.00     0.006 A 
ATOM      3  C4  UNL d   1      -2.606   0.748  -5.130  0.00  0.00     0.002 A 
ATOM      4  C5  UNL d   1      -2.745   0.724  -3.738  0.00  0.00    -0.080 A 
ATOM      5  C6  UNL d   1      -2.376  -0.495  -2.945  0.00  0.00     0.076 C 
ATOM      6  C7  UNL d   1      -3.239   1.858  -3.086  0.00  0.00     0.002 A 
ATOM      7  C8  UNL d   1      -3.612   2.989  -3.815  0.00  0.00     0.006 A 
ENDROOT
BRANCH   1   8
ATOM      8  C1  UNL d   1      -3.954   4.204  -5.999  0.00  0.00     0.054 C 
ATOM      9  C   UNL d   1      -5.102   4.918  -5.300  0.00  0.00     0.018 C 
ENDBRANCH   1   8
TORSDOF 1
ENDMDL
