MODEL 1
REMARK minimizedAffinity 5.11491203
REMARK minimizedRMSD -1
REMARK  1 active torsions:
REMARK  status: ('A' for Active; 'I' for Inactive)
REMARK    1  A    between atoms: C1_2  and  C2_3 
ROOT
ATOM      1  C2  UNL d   1       2.451  -0.723  -0.352  0.00  0.00    -0.081 A 
ATOM      2  C3  UNL d   1       2.796   0.605  -0.068  0.00  0.00     0.006 A 
ATOM      3  C4  UNL d   1       2.816   1.564  -1.083  0.00  0.00     0.002 A 
ATOM      4  C5  UNL d   1       2.485   1.215  -2.396  0.00  0.00    -0.080 A 
ATOM      5  C6  UNL d   1       2.474   2.241  -3.490  0.00  0.00     0.076 C 
ATOM      6  C7  UNL d   1       2.158  -0.115  -2.684  0.00  0.00     0.002 A 
ATOM      7  C8  UNL d   1       2.138  -1.075  -1.670  0.00  0.00     0.006 A 
ENDROOT
BRANCH   1   8
ATOM      8  C1  UNL d   1       2.366  -1.745   0.752  0.00  0.00     0.054 C 
ATOM      9  C   UNL d   1       1.041  -1.648   1.495  0.00  0.00     0.018 C 
ENDBRANCH   1   8
TORSDOF 1
ENDMDL
