MODEL 1
REMARK minimizedAffinity 6.3650527
REMARK minimizedRMSD -1
REMARK  1 active torsions:
REMARK  status: ('A' for Active; 'I' for Inactive)
REMARK    1  A    between atoms: C1_2  and  C2_3 
ROOT
ATOM      1  C2  UNL d   1       1.517  -1.582   2.543  0.00  0.00    -0.081 A 
ATOM      2  C3  UNL d   1       0.423  -2.428   2.320  0.00  0.00     0.006 A 
ATOM      3  C4  UNL d   1      -0.878  -1.980   2.560  0.00  0.00     0.002 A 
ATOM      4  C5  UNL d   1      -1.108  -0.678   3.017  0.00  0.00    -0.080 A 
ATOM      5  C6  UNL d   1      -2.502  -0.176   3.249  0.00  0.00     0.076 C 
ATOM      6  C7  UNL d   1      -0.014   0.161   3.256  0.00  0.00     0.002 A 
ATOM      7  C8  UNL d   1       1.287  -0.286   3.018  0.00  0.00     0.006 A 
ENDROOT
BRANCH   1   8
ATOM      8  C1  UNL d   1       2.917  -2.040   2.224  0.00  0.00     0.054 C 
ATOM      9  C   UNL d   1       3.169  -2.049   0.723  0.00  0.00     0.018 C 
ENDBRANCH   1   8
TORSDOF 1
ENDMDL
