MODEL 1
REMARK minimizedAffinity 1.13606799
REMARK minimizedRMSD -1
REMARK  1 active torsions:
REMARK  status: ('A' for Active; 'I' for Inactive)
REMARK    1  A    between atoms: C1_2  and  C2_3 
ROOT
ATOM      1  C2  UNL d   1       2.338  -0.964  -0.019  0.00  0.00    -0.081 A 
ATOM      2  C3  UNL d   1       2.269   0.382   0.361  0.00  0.00     0.006 A 
ATOM      3  C4  UNL d   1       2.359   1.394  -0.597  0.00  0.00     0.002 A 
ATOM      4  C5  UNL d   1       2.510   1.078  -1.951  0.00  0.00    -0.080 A 
ATOM      5  C6  UNL d   1       2.578   2.154  -2.994  0.00  0.00     0.076 C 
ATOM      6  C7  UNL d   1       2.597  -0.267  -2.329  0.00  0.00     0.002 A 
ATOM      7  C8  UNL d   1       2.508  -1.279  -1.371  0.00  0.00     0.006 A 
ENDROOT
BRANCH   1   8
ATOM      8  C1  UNL d   1       2.176  -2.059   1.005  0.00  0.00     0.054 C 
ATOM      9  C   UNL d   1       1.786  -1.493   2.363  0.00  0.00     0.018 C 
ENDBRANCH   1   8
TORSDOF 1
ENDMDL
