MODEL 1
REMARK minimizedAffinity 2.55286717
REMARK minimizedRMSD -1
REMARK  2 active torsions:
REMARK  status: ('A' for Active; 'I' for Inactive)
REMARK    1  A    between atoms: C1_2  and  C2_3 
REMARK    2  A    between atoms: C2_3  and  C3_4 
ROOT
ATOM      1  C3  UNL d   1       2.392  -1.383   0.632  0.00  0.00    -0.075 A 
ATOM      2  C4  UNL d   1       3.626  -1.224  -0.015  0.00  0.00     0.002 A 
ATOM      3  C5  UNL d   1       4.193   0.043  -0.158  0.00  0.00     0.002 A 
ATOM      4  C6  UNL d   1       3.531   1.165   0.334  0.00  0.00    -0.004 A 
ATOM      5  C7  UNL d   1       2.297   1.021   0.964  0.00  0.00     0.002 A 
ATOM      6  C8  UNL d   1       1.729  -0.246   1.113  0.00  0.00     0.002 A 
ENDROOT
BRANCH   1   7
ATOM      7  C2  UNL d   1       1.787  -2.754   0.816  0.00  0.00     0.056 C 
BRANCH   7   8
ATOM      8  C1  UNL d   1       1.318  -3.409  -0.487  0.00  0.00     0.007 C 
ATOM      9  C   UNL d   1      -0.184  -3.659  -0.526  0.00  0.00     0.009 C 
ENDBRANCH   7   8
ENDBRANCH   1   7
TORSDOF 2
ENDMDL
