MODEL 1
REMARK minimizedAffinity 3.8122983
REMARK minimizedRMSD -1
REMARK  2 active torsions:
REMARK  status: ('A' for Active; 'I' for Inactive)
REMARK    1  A    between atoms: C1_2  and  C2_3 
REMARK    2  A    between atoms: C2_3  and  C3_4 
ROOT
ATOM      1  C3  UNL d   1       2.963   1.880   0.818  0.00  0.00    -0.075 A 
ATOM      2  C4  UNL d   1       3.372   2.409   2.050  0.00  0.00     0.002 A 
ATOM      3  C5  UNL d   1       2.548   2.313   3.172  0.00  0.00     0.002 A 
ATOM      4  C6  UNL d   1       1.302   1.697   3.073  0.00  0.00    -0.004 A 
ATOM      5  C7  UNL d   1       0.878   1.183   1.850  0.00  0.00     0.002 A 
ATOM      6  C8  UNL d   1       1.702   1.274   0.727  0.00  0.00     0.002 A 
ENDROOT
BRANCH   1   7
ATOM      7  C2  UNL d   1       3.863   1.955  -0.393  0.00  0.00     0.056 C 
BRANCH   7   8
ATOM      8  C1  UNL d   1       5.357   1.858  -0.066  0.00  0.00     0.007 C 
ATOM      9  C   UNL d   1       5.996   3.209   0.228  0.00  0.00     0.009 C 
ENDBRANCH   7   8
ENDBRANCH   1   7
TORSDOF 2
ENDMDL
