MODEL 1
REMARK minimizedAffinity 1.03350163
REMARK minimizedRMSD -1
REMARK  2 active torsions:
REMARK  status: ('A' for Active; 'I' for Inactive)
REMARK    1  A    between atoms: C1_2  and  C2_3 
REMARK    2  A    between atoms: C2_3  and  C3_4 
ROOT
ATOM      1  C3  UNL d   1      -4.266   1.797  -2.904  0.00  0.00    -0.075 A 
ATOM      2  C4  UNL d   1      -2.875   1.769  -3.081  0.00  0.00     0.002 A 
ATOM      3  C5  UNL d   1      -2.313   1.090  -4.163  0.00  0.00     0.002 A 
ATOM      4  C6  UNL d   1      -3.131   0.424  -5.073  0.00  0.00    -0.004 A 
ATOM      5  C7  UNL d   1      -4.513   0.431  -4.896  0.00  0.00     0.002 A 
ATOM      6  C8  UNL d   1      -5.078   1.113  -3.818  0.00  0.00     0.002 A 
ENDROOT
BRANCH   1   7
ATOM      7  C2  UNL d   1      -4.882   2.555  -1.752  0.00  0.00     0.056 C 
BRANCH   7   8
ATOM      8  C1  UNL d   1      -5.691   3.785  -2.176  0.00  0.00     0.007 C 
ATOM      9  C   UNL d   1      -5.996   3.817  -3.668  0.00  0.00     0.009 C 
ENDBRANCH   7   8
ENDBRANCH   1   7
TORSDOF 2
ENDMDL
