MODEL 1
REMARK minimizedAffinity 1.50940549
REMARK minimizedRMSD -1
REMARK  2 active torsions:
REMARK  status: ('A' for Active; 'I' for Inactive)
REMARK    1  A    between atoms: C1_2  and  C2_3 
REMARK    2  A    between atoms: C2_3  and  C3_4 
ROOT
ATOM      1  C3  UNL d   1      -5.275   1.361  -4.303  0.00  0.00    -0.075 A 
ATOM      2  C4  UNL d   1      -3.894   1.509  -4.497  0.00  0.00     0.002 A 
ATOM      3  C5  UNL d   1      -3.251   2.691  -4.128  0.00  0.00     0.002 A 
ATOM      4  C6  UNL d   1      -3.979   3.740  -3.572  0.00  0.00    -0.004 A 
ATOM      5  C7  UNL d   1      -5.354   3.610  -3.390  0.00  0.00     0.002 A 
ATOM      6  C8  UNL d   1      -6.000   2.427  -3.754  0.00  0.00     0.002 A 
ENDROOT
BRANCH   1   7
ATOM      7  C2  UNL d   1      -5.973   0.073  -4.672  0.00  0.00     0.056 C 
BRANCH   7   8
ATOM      8  C1  UNL d   1      -5.646  -1.102  -3.745  0.00  0.00     0.007 C 
ATOM      9  C   UNL d   1      -4.529  -0.794  -2.757  0.00  0.00     0.009 C 
ENDBRANCH   7   8
ENDBRANCH   1   7
TORSDOF 2
ENDMDL
