MODEL 1
REMARK minimizedAffinity 0.255769819
REMARK minimizedRMSD -1
REMARK  2 active torsions:
REMARK  status: ('A' for Active; 'I' for Inactive)
REMARK    1  A    between atoms: C1_2  and  C2_3 
REMARK    2  A    between atoms: C2_3  and  C3_4 
ROOT
ATOM      1  C3  UNL d   1      -4.568   0.736  -2.590  0.00  0.00    -0.075 A 
ATOM      2  C4  UNL d   1      -5.027   2.060  -2.631  0.00  0.00     0.002 A 
ATOM      3  C5  UNL d   1      -5.734   2.599  -1.556  0.00  0.00     0.002 A 
ATOM      4  C6  UNL d   1      -5.998   1.819  -0.432  0.00  0.00    -0.004 A 
ATOM      5  C7  UNL d   1      -5.561   0.497  -0.387  0.00  0.00     0.002 A 
ATOM      6  C8  UNL d   1      -4.850  -0.043  -1.460  0.00  0.00     0.002 A 
ENDROOT
BRANCH   1   7
ATOM      7  C2  UNL d   1      -3.777   0.156  -3.739  0.00  0.00     0.056 C 
BRANCH   7   8
ATOM      8  C1  UNL d   1      -2.330   0.654  -3.814  0.00  0.00     0.007 C 
ATOM      9  C   UNL d   1      -1.348  -0.240  -3.068  0.00  0.00     0.009 C 
ENDBRANCH   7   8
ENDBRANCH   1   7
TORSDOF 2
ENDMDL
