MODEL 1
REMARK minimizedAffinity 2.03550887
REMARK minimizedRMSD -1
REMARK  2 active torsions:
REMARK  status: ('A' for Active; 'I' for Inactive)
REMARK    1  A    between atoms: C1_2  and  C2_3 
REMARK    2  A    between atoms: C2_3  and  C3_4 
ROOT
ATOM      1  C3  UNL d   1      -3.558   1.651  -3.400  0.00  0.00    -0.075 A 
ATOM      2  C4  UNL d   1      -4.055   2.856  -2.881  0.00  0.00     0.002 A 
ATOM      3  C5  UNL d   1      -5.259   3.384  -3.347  0.00  0.00     0.002 A 
ATOM      4  C6  UNL d   1      -5.976   2.723  -4.341  0.00  0.00    -0.004 A 
ATOM      5  C7  UNL d   1      -5.484   1.534  -4.876  0.00  0.00     0.002 A 
ATOM      6  C8  UNL d   1      -4.281   1.000  -4.409  0.00  0.00     0.002 A 
ENDROOT
BRANCH   1   7
ATOM      7  C2  UNL d   1      -2.271   1.058  -2.880  0.00  0.00     0.056 C 
BRANCH   7   8
ATOM      8  C1  UNL d   1      -2.469  -0.105  -1.902  0.00  0.00     0.007 C 
ATOM      9  C   UNL d   1      -3.793  -0.039  -1.153  0.00  0.00     0.009 C 
ENDBRANCH   7   8
ENDBRANCH   1   7
TORSDOF 2
ENDMDL
