MODEL 1
REMARK minimizedAffinity 1.12647402
REMARK minimizedRMSD -1
REMARK  0 active torsions:
REMARK  status: ('A' for Active; 'I' for Inactive)
ROOT
ATOM      1  C   UNL d   1      -1.647  -4.631  -3.073  0.00  0.00     0.078 C 
ATOM      2  C1  UNL d   1      -2.643  -4.164  -4.091  0.00  0.00    -0.077 A 
ATOM      3  C2  UNL d   1      -3.064  -2.828  -4.129  0.00  0.00    -0.001 A 
ATOM      4  C3  UNL d   1      -3.999  -2.410  -5.077  0.00  0.00     0.003 A 
ATOM      5  C4  UNL d   1      -4.523  -3.320  -5.992  0.00  0.00    -0.005 A 
ATOM      6  C5  UNL d   1      -4.113  -4.651  -5.961  0.00  0.00     0.003 A 
ATOM      7  C6  UNL d   1      -3.177  -5.072  -5.014  0.00  0.00    -0.001 A 
ENDROOT
TORSDOF 0
ENDMDL
