MODEL 1
REMARK minimizedAffinity 8.10961533
REMARK minimizedRMSD -1
REMARK  0 active torsions:
REMARK  status: ('A' for Active; 'I' for Inactive)
ROOT
ATOM      1  C   UNL d   1       4.811   1.023   0.713  0.00  0.00     0.078 C 
ATOM      2  C1  UNL d   1       4.040  -0.101   0.087  0.00  0.00    -0.077 A 
ATOM      3  C2  UNL d   1       4.403  -1.435   0.308  0.00  0.00    -0.001 A 
ATOM      4  C3  UNL d   1       3.682  -2.471  -0.290  0.00  0.00     0.003 A 
ATOM      5  C4  UNL d   1       2.595  -2.183  -1.112  0.00  0.00    -0.005 A 
ATOM      6  C5  UNL d   1       2.228  -0.858  -1.340  0.00  0.00     0.003 A 
ATOM      7  C6  UNL d   1       2.948   0.179  -0.743  0.00  0.00    -0.001 A 
ENDROOT
TORSDOF 0
ENDMDL
