MODEL 1
REMARK minimizedAffinity 2.83979964
REMARK minimizedRMSD -1
REMARK  0 active torsions:
REMARK  status: ('A' for Active; 'I' for Inactive)
ROOT
ATOM      1  C   UNL d   1      -5.661  -2.465  -6.000  0.00  0.00     0.078 C 
ATOM      2  C1  UNL d   1      -4.542  -3.360  -5.558  0.00  0.00    -0.077 A 
ATOM      3  C2  UNL d   1      -4.461  -4.686  -6.000  0.00  0.00    -0.001 A 
ATOM      4  C3  UNL d   1      -3.419  -5.510  -5.572  0.00  0.00     0.003 A 
ATOM      5  C4  UNL d   1      -2.450  -5.018  -4.699  0.00  0.00    -0.005 A 
ATOM      6  C5  UNL d   1      -2.524  -3.700  -4.252  0.00  0.00     0.003 A 
ATOM      7  C6  UNL d   1      -3.565  -2.875  -4.679  0.00  0.00    -0.001 A 
ENDROOT
TORSDOF 0
ENDMDL
