MODEL 1
REMARK minimizedAffinity 10.5731325
REMARK minimizedRMSD -1
REMARK  0 active torsions:
REMARK  status: ('A' for Active; 'I' for Inactive)
ROOT
ATOM      1  C   UNL d   1       0.669  -3.577  -3.638  0.00  0.00     0.078 C 
ATOM      2  C1  UNL d   1       1.425  -3.339  -2.365  0.00  0.00    -0.077 A 
ATOM      3  C2  UNL d   1       1.786  -4.404  -1.531  0.00  0.00    -0.001 A 
ATOM      4  C3  UNL d   1       2.481  -4.166  -0.344  0.00  0.00     0.003 A 
ATOM      5  C4  UNL d   1       2.820  -2.864   0.020  0.00  0.00    -0.005 A 
ATOM      6  C5  UNL d   1       2.463  -1.798  -0.802  0.00  0.00     0.003 A 
ATOM      7  C6  UNL d   1       1.768  -2.034  -1.990  0.00  0.00    -0.001 A 
ENDROOT
TORSDOF 0
ENDMDL
