MODEL 1
REMARK minimizedAffinity -2.34167314
REMARK minimizedRMSD -1
REMARK  0 active torsions:
REMARK  status: ('A' for Active; 'I' for Inactive)
ROOT
ATOM      1  C   UNL d   1       1.145  -3.744  -3.712  0.00  0.00     0.078 C 
ATOM      2  C1  UNL d   1       1.971  -4.219  -2.554  0.00  0.00    -0.077 A 
ATOM      3  C2  UNL d   1       2.309  -5.571  -2.415  0.00  0.00    -0.001 A 
ATOM      4  C3  UNL d   1       3.071  -6.000  -1.327  0.00  0.00     0.003 A 
ATOM      5  C4  UNL d   1       3.500  -5.084  -0.369  0.00  0.00    -0.005 A 
ATOM      6  C5  UNL d   1       3.166  -3.737  -0.497  0.00  0.00     0.003 A 
ATOM      7  C6  UNL d   1       2.405  -3.306  -1.584  0.00  0.00    -0.001 A 
ENDROOT
TORSDOF 0
ENDMDL
