MODEL 1
REMARK minimizedAffinity 11.8893633
REMARK minimizedRMSD -1
REMARK  0 active torsions:
REMARK  status: ('A' for Active; 'I' for Inactive)
ROOT
ATOM      1  C   UNL d   1       2.621  -4.978   0.283  0.00  0.00     0.078 C 
ATOM      2  C1  UNL d   1       2.596  -3.506  -0.002  0.00  0.00    -0.077 A 
ATOM      3  C2  UNL d   1       3.764  -2.736   0.072  0.00  0.00    -0.001 A 
ATOM      4  C3  UNL d   1       3.723  -1.365  -0.186  0.00  0.00     0.003 A 
ATOM      5  C4  UNL d   1       2.518  -0.751  -0.518  0.00  0.00    -0.005 A 
ATOM      6  C5  UNL d   1       1.350  -1.508  -0.592  0.00  0.00     0.003 A 
ATOM      7  C6  UNL d   1       1.388  -2.879  -0.334  0.00  0.00    -0.001 A 
ENDROOT
TORSDOF 0
ENDMDL
