MODEL 1
REMARK minimizedAffinity 3.43351984
REMARK minimizedRMSD -1
REMARK  0 active torsions:
REMARK  status: ('A' for Active; 'I' for Inactive)
ROOT
ATOM      1  C   UNL d   1      -4.103  -2.679  -5.626  0.00  0.00     0.078 C 
ATOM      2  C1  UNL d   1      -3.254  -3.825  -5.163  0.00  0.00    -0.077 A 
ATOM      3  C2  UNL d   1      -2.640  -3.805  -3.904  0.00  0.00    -0.001 A 
ATOM      4  C3  UNL d   1      -1.845  -4.875  -3.490  0.00  0.00     0.003 A 
ATOM      5  C4  UNL d   1      -1.655  -5.971  -4.328  0.00  0.00    -0.005 A 
ATOM      6  C5  UNL d   1      -2.260  -5.999  -5.583  0.00  0.00     0.003 A 
ATOM      7  C6  UNL d   1      -3.056  -4.930  -5.999  0.00  0.00    -0.001 A 
ENDROOT
TORSDOF 0
ENDMDL
