MODEL 1
REMARK minimizedAffinity 9.97581196
REMARK minimizedRMSD -1
REMARK  0 active torsions:
REMARK  status: ('A' for Active; 'I' for Inactive)
ROOT
ATOM      1  C   UNL d   1      -1.554   1.450   2.577  0.00  0.00     0.078 C 
ATOM      2  C1  UNL d   1      -0.187   1.530   3.190  0.00  0.00    -0.077 A 
ATOM      3  C2  UNL d   1      -0.023   1.630   4.577  0.00  0.00    -0.001 A 
ATOM      4  C3  UNL d   1       1.254   1.713   5.132  0.00  0.00     0.003 A 
ATOM      5  C4  UNL d   1       2.378   1.698   4.308  0.00  0.00    -0.005 A 
ATOM      6  C5  UNL d   1       2.225   1.601   2.927  0.00  0.00     0.003 A 
ATOM      7  C6  UNL d   1       0.948   1.518   2.369  0.00  0.00    -0.001 A 
ENDROOT
TORSDOF 0
ENDMDL
