MODEL 1
REMARK minimizedAffinity 11.7482643
REMARK minimizedRMSD -1
REMARK  0 active torsions:
REMARK  status: ('A' for Active; 'I' for Inactive)
ROOT
ATOM      1  C   UNL d   1      -2.023   0.783   2.641  0.00  0.00     0.078 C 
ATOM      2  C1  UNL d   1      -3.411   1.214   3.011  0.00  0.00    -0.077 A 
ATOM      3  C2  UNL d   1      -4.517   0.405   2.725  0.00  0.00    -0.001 A 
ATOM      4  C3  UNL d   1      -5.804   0.822   3.067  0.00  0.00     0.003 A 
ATOM      5  C4  UNL d   1      -5.997   2.051   3.696  0.00  0.00    -0.005 A 
ATOM      6  C5  UNL d   1      -4.902   2.863   3.983  0.00  0.00     0.003 A 
ATOM      7  C6  UNL d   1      -3.615   2.447   3.642  0.00  0.00    -0.001 A 
ENDROOT
TORSDOF 0
ENDMDL
