MODEL 1
REMARK minimizedAffinity 4.66133022
REMARK minimizedRMSD -1
REMARK  0 active torsions:
REMARK  status: ('A' for Active; 'I' for Inactive)
ROOT
ATOM      1  C   UNL d   1       1.457  -0.678  -1.736  0.00  0.00     0.078 C 
ATOM      2  C1  UNL d   1       2.799  -0.766  -1.074  0.00  0.00    -0.077 A 
ATOM      3  C2  UNL d   1       3.613   0.365  -0.941  0.00  0.00    -0.001 A 
ATOM      4  C3  UNL d   1       4.865   0.266  -0.332  0.00  0.00     0.003 A 
ATOM      5  C4  UNL d   1       5.315  -0.962   0.147  0.00  0.00    -0.005 A 
ATOM      6  C5  UNL d   1       4.513  -2.094   0.017  0.00  0.00     0.003 A 
ATOM      7  C6  UNL d   1       3.261  -1.997  -0.591  0.00  0.00    -0.001 A 
ENDROOT
TORSDOF 0
ENDMDL
