MODEL 1
REMARK minimizedAffinity 17.1633968
REMARK minimizedRMSD -1
REMARK  0 active torsions:
REMARK  status: ('A' for Active; 'I' for Inactive)
ROOT
ATOM      1  C   UNL d   1       5.420  -2.403   0.422  0.00  0.00     0.078 C 
ATOM      2  C1  UNL d   1       4.493  -1.231   0.301  0.00  0.00    -0.077 A 
ATOM      3  C2  UNL d   1       3.202  -1.382  -0.220  0.00  0.00    -0.001 A 
ATOM      4  C3  UNL d   1       2.353  -0.280  -0.336  0.00  0.00     0.003 A 
ATOM      5  C4  UNL d   1       2.786   0.981   0.067  0.00  0.00    -0.005 A 
ATOM      6  C5  UNL d   1       4.070   1.142   0.585  0.00  0.00     0.003 A 
ATOM      7  C6  UNL d   1       4.920   0.042   0.701  0.00  0.00    -0.001 A 
ENDROOT
TORSDOF 0
ENDMDL
