MODEL 1
REMARK minimizedAffinity 11.849658
REMARK minimizedRMSD -1
REMARK  0 active torsions:
REMARK  status: ('A' for Active; 'I' for Inactive)
ROOT
ATOM      1  C   UNL d   1      -5.950  -1.320  -5.894  0.00  0.00     0.078 C 
ATOM      2  C1  UNL d   1      -5.219  -2.629  -5.922  0.00  0.00    -0.077 A 
ATOM      3  C2  UNL d   1      -3.820  -2.674  -5.941  0.00  0.00    -0.001 A 
ATOM      4  C3  UNL d   1      -3.153  -3.899  -5.977  0.00  0.00     0.003 A 
ATOM      5  C4  UNL d   1      -3.877  -5.090  -5.996  0.00  0.00    -0.005 A 
ATOM      6  C5  UNL d   1      -5.269  -5.055  -5.979  0.00  0.00     0.003 A 
ATOM      7  C6  UNL d   1      -5.938  -3.831  -5.943  0.00  0.00    -0.001 A 
ENDROOT
TORSDOF 0
ENDMDL
