MODEL 1
REMARK minimizedAffinity 7.98576593
REMARK minimizedRMSD -1
REMARK  0 active torsions:
REMARK  status: ('A' for Active; 'I' for Inactive)
ROOT
ATOM      1  C   UNL d   1      -0.856  -4.407  -2.620  0.00  0.00     0.078 C 
ATOM      2  C1  UNL d   1       0.186  -3.453  -2.115  0.00  0.00    -0.077 A 
ATOM      3  C2  UNL d   1       0.774  -3.627  -0.856  0.00  0.00    -0.001 A 
ATOM      4  C3  UNL d   1       1.735  -2.726  -0.396  0.00  0.00     0.003 A 
ATOM      5  C4  UNL d   1       2.116  -1.644  -1.187  0.00  0.00    -0.005 A 
ATOM      6  C5  UNL d   1       1.535  -1.462  -2.440  0.00  0.00     0.003 A 
ATOM      7  C6  UNL d   1       0.574  -2.362  -2.903  0.00  0.00    -0.001 A 
ENDROOT
TORSDOF 0
ENDMDL
