MODEL 1
REMARK minimizedAffinity 13.4348335
REMARK minimizedRMSD -1
REMARK  0 active torsions:
REMARK  status: ('A' for Active; 'I' for Inactive)
ROOT
ATOM      1  C   UNL d   1      -5.678   4.316  -5.975  0.00  0.00     0.078 C 
ATOM      2  C1  UNL d   1      -4.207   4.023  -5.976  0.00  0.00    -0.077 A 
ATOM      3  C2  UNL d   1      -3.735   2.705  -5.998  0.00  0.00    -0.001 A 
ATOM      4  C3  UNL d   1      -2.364   2.446  -5.988  0.00  0.00     0.003 A 
ATOM      5  C4  UNL d   1      -1.453   3.500  -5.956  0.00  0.00    -0.005 A 
ATOM      6  C5  UNL d   1      -1.913   4.815  -5.932  0.00  0.00     0.003 A 
ATOM      7  C6  UNL d   1      -3.285   5.076  -5.941  0.00  0.00    -0.001 A 
ENDROOT
TORSDOF 0
ENDMDL
