MODEL 1
REMARK minimizedAffinity 4.48762226
REMARK minimizedRMSD -1
REMARK  0 active torsions:
REMARK  status: ('A' for Active; 'I' for Inactive)
ROOT
ATOM      1  C   UNL d   1       1.482  -2.200  -0.683  0.00  0.00     0.078 C 
ATOM      2  C1  UNL d   1       1.771  -0.897  -1.365  0.00  0.00    -0.077 A 
ATOM      3  C2  UNL d   1       1.549  -0.736  -2.738  0.00  0.00    -0.001 A 
ATOM      4  C3  UNL d   1       1.832   0.481  -3.361  0.00  0.00     0.003 A 
ATOM      5  C4  UNL d   1       2.340   1.545  -2.619  0.00  0.00    -0.005 A 
ATOM      6  C5  UNL d   1       2.566   1.394  -1.253  0.00  0.00     0.003 A 
ATOM      7  C6  UNL d   1       2.284   0.178  -0.628  0.00  0.00    -0.001 A 
ENDROOT
TORSDOF 0
ENDMDL
