MODEL 1
REMARK minimizedAffinity 10.1971178
REMARK minimizedRMSD -1
REMARK  0 active torsions:
REMARK  status: ('A' for Active; 'I' for Inactive)
ROOT
ATOM      1  C   UNL d   1      -5.707   3.156   4.148  0.00  0.00     0.078 C 
ATOM      2  C1  UNL d   1      -4.843   1.957   4.400  0.00  0.00    -0.077 A 
ATOM      3  C2  UNL d   1      -4.620   1.005   3.397  0.00  0.00    -0.001 A 
ATOM      4  C3  UNL d   1      -3.821  -0.112   3.648  0.00  0.00     0.003 A 
ATOM      5  C4  UNL d   1      -3.239  -0.287   4.902  0.00  0.00    -0.005 A 
ATOM      6  C5  UNL d   1      -3.456   0.653   5.907  0.00  0.00     0.003 A 
ATOM      7  C6  UNL d   1      -4.255   1.771   5.657  0.00  0.00    -0.001 A 
ENDROOT
TORSDOF 0
ENDMDL
