MODEL 1
REMARK minimizedAffinity 19.4020309
REMARK minimizedRMSD -1
REMARK  0 active torsions:
REMARK  status: ('A' for Active; 'I' for Inactive)
ROOT
ATOM      1  C   UNL d   1      -6.000   3.377   3.006  0.00  0.00     0.078 C 
ATOM      2  C1  UNL d   1      -4.961   2.580   3.737  0.00  0.00    -0.077 A 
ATOM      3  C2  UNL d   1      -4.200   1.608   3.076  0.00  0.00    -0.001 A 
ATOM      4  C3  UNL d   1      -3.243   0.867   3.771  0.00  0.00     0.003 A 
ATOM      5  C4  UNL d   1      -3.039   1.088   5.131  0.00  0.00    -0.005 A 
ATOM      6  C5  UNL d   1      -3.793   2.051   5.799  0.00  0.00     0.003 A 
ATOM      7  C6  UNL d   1      -4.751   2.794   5.105  0.00  0.00    -0.001 A 
ENDROOT
TORSDOF 0
ENDMDL
