MODEL 1
REMARK minimizedAffinity -4.4876976
REMARK minimizedRMSD -1
REMARK  0 active torsions:
REMARK  status: ('A' for Active; 'I' for Inactive)
ROOT
ATOM      1  C1  BNZ d   1       0.946   2.160   1.411  0.00  0.00     0.000 A 
ATOM      2  C2  BNZ d   1       1.354   1.481   0.294  0.00  0.00     0.000 A 
ATOM      3  C3  BNZ d   1       0.682   0.370  -0.134  0.00  0.00     0.000 A 
ATOM      4  C4  BNZ d   1      -0.370  -0.083   0.577  0.00  0.00     0.000 A 
ATOM      5  C5  BNZ d   1      -0.788   0.586   1.711  0.00  0.00     0.000 A 
ATOM      6  C6  BNZ d   1      -0.133   1.726   2.116  0.00  0.00     0.000 A 
ENDROOT
TORSDOF 0
ENDMDL
