MODEL 1
REMARK minimizedAffinity -3.41823554
REMARK minimizedRMSD -1
REMARK  0 active torsions:
REMARK  status: ('A' for Active; 'I' for Inactive)
ROOT
ATOM      1  C1  BNZ d   1       1.428   1.680  -0.542  0.00  0.00     0.000 A 
ATOM      2  C2  BNZ d   1       1.114   2.638   0.384  0.00  0.00     0.000 A 
ATOM      3  C3  BNZ d   1       0.249   2.365   1.407  0.00  0.00     0.000 A 
ATOM      4  C4  BNZ d   1      -0.330   1.149   1.479  0.00  0.00     0.000 A 
ATOM      5  C5  BNZ d   1      -0.030   0.176   0.548  0.00  0.00     0.000 A 
ATOM      6  C6  BNZ d   1       0.870   0.441  -0.458  0.00  0.00     0.000 A 
ENDROOT
TORSDOF 0
ENDMDL
