MODEL 1
REMARK minimizedAffinity -3.19115591
REMARK minimizedRMSD -1
REMARK  0 active torsions:
REMARK  status: ('A' for Active; 'I' for Inactive)
ROOT
ATOM      1  C1  BNZ d   1      -0.413   0.514   1.584  0.00  0.00     0.000 A 
ATOM      2  C2  BNZ d   1       0.193   1.598   2.162  0.00  0.00     0.000 A 
ATOM      3  C3  BNZ d   1       0.928   2.472   1.410  0.00  0.00     0.000 A 
ATOM      4  C4  BNZ d   1       1.089   2.240   0.092  0.00  0.00     0.000 A 
ATOM      5  C5  BNZ d   1       0.493   1.146  -0.504  0.00  0.00     0.000 A 
ATOM      6  C6  BNZ d   1      -0.278   0.290   0.248  0.00  0.00     0.000 A 
ENDROOT
TORSDOF 0
ENDMDL
