MODEL 1
REMARK minimizedAffinity -3.08578253
REMARK minimizedRMSD -1
REMARK  0 active torsions:
REMARK  status: ('A' for Active; 'I' for Inactive)
ROOT
ATOM      1  C1  BNZ d   1       0.584   0.186  -0.319  0.00  0.00     0.000 A 
ATOM      2  C2  BNZ d   1       1.008   1.468  -0.087  0.00  0.00     0.000 A 
ATOM      3  C3  BNZ d   1       0.564   2.164   1.003  0.00  0.00     0.000 A 
ATOM      4  C4  BNZ d   1      -0.332   1.594   1.834  0.00  0.00     0.000 A 
ATOM      5  C5  BNZ d   1      -0.775   0.306   1.608  0.00  0.00     0.000 A 
ATOM      6  C6  BNZ d   1      -0.296  -0.406   0.532  0.00  0.00     0.000 A 
ENDROOT
TORSDOF 0
ENDMDL
