MODEL 1
REMARK minimizedAffinity -4.42759418
REMARK minimizedRMSD -1
REMARK  0 active torsions:
REMARK  status: ('A' for Active; 'I' for Inactive)
ROOT
ATOM      1  C1  BNZ d   1      -0.527   0.869   1.247  0.00  0.00     0.000 A 
ATOM      2  C2  BNZ d   1       0.248   1.919   1.664  0.00  0.00     0.000 A 
ATOM      3  C3  BNZ d   1       1.498   2.115   1.147  0.00  0.00     0.000 A 
ATOM      4  C4  BNZ d   1       1.987   1.240   0.245  0.00  0.00     0.000 A 
ATOM      5  C5  BNZ d   1       1.222   0.172  -0.178  0.00  0.00     0.000 A 
ATOM      6  C6  BNZ d   1      -0.051  -0.001   0.315  0.00  0.00     0.000 A 
ENDROOT
TORSDOF 0
ENDMDL
