MODEL 1
REMARK minimizedAffinity -4.78940725
REMARK minimizedRMSD -1
REMARK  0 active torsions:
REMARK  status: ('A' for Active; 'I' for Inactive)
ROOT
ATOM      1  C1  BNZ d   1       0.191  -0.427   0.573  0.00  0.00     0.000 A 
ATOM      2  C2  BNZ d   1       0.770   0.390  -0.361  0.00  0.00     0.000 A 
ATOM      3  C3  BNZ d   1       0.769   1.748  -0.200  0.00  0.00     0.000 A 
ATOM      4  C4  BNZ d   1       0.157   2.288   0.873  0.00  0.00     0.000 A 
ATOM      5  C5  BNZ d   1      -0.439   1.478   1.819  0.00  0.00     0.000 A 
ATOM      6  C6  BNZ d   1      -0.403   0.110   1.674  0.00  0.00     0.000 A 
ENDROOT
TORSDOF 0
ENDMDL
