MODEL 1
REMARK minimizedAffinity -4.44487095
REMARK minimizedRMSD -1
REMARK  0 active torsions:
REMARK  status: ('A' for Active; 'I' for Inactive)
ROOT
ATOM      1  C1  BNZ d   1      -0.475   0.126   0.004  0.00  0.00     0.000 A 
ATOM      2  C2  BNZ d   1       0.209   1.152  -0.591  0.00  0.00     0.000 A 
ATOM      3  C3  BNZ d   1       0.805   2.125   0.161  0.00  0.00     0.000 A 
ATOM      4  C4  BNZ d   1       0.684   2.092   1.504  0.00  0.00     0.000 A 
ATOM      5  C5  BNZ d   1      -0.011   1.069   2.119  0.00  0.00     0.000 A 
ATOM      6  C6  BNZ d   1      -0.577   0.070   1.360  0.00  0.00     0.000 A 
ENDROOT
TORSDOF 0
ENDMDL
