MODEL 1
REMARK minimizedAffinity -4.46731234
REMARK minimizedRMSD -1
REMARK  0 active torsions:
REMARK  status: ('A' for Active; 'I' for Inactive)
ROOT
ATOM      1  C1  BNZ d   1      -0.516   1.471  -0.436  0.00  0.00     0.000 A 
ATOM      2  C2  BNZ d   1      -0.146   2.715   0.003  0.00  0.00     0.000 A 
ATOM      3  C3  BNZ d   1       0.496   2.872   1.200  0.00  0.00     0.000 A 
ATOM      4  C4  BNZ d   1       0.732   1.792   1.972  0.00  0.00     0.000 A 
ATOM      5  C5  BNZ d   1       0.357   0.533   1.548  0.00  0.00     0.000 A 
ATOM      6  C6  BNZ d   1      -0.255   0.374   0.325  0.00  0.00     0.000 A 
ENDROOT
TORSDOF 0
ENDMDL
