MODEL 1
REMARK minimizedAffinity -0.733445168
REMARK minimizedRMSD -1
REMARK  0 active torsions:
REMARK  status: ('A' for Active; 'I' for Inactive)
ROOT
ATOM      1  C1  BNZ d   1      -1.186   0.383   1.448  0.00  0.00     0.000 A 
ATOM      2  C2  BNZ d   1      -1.242  -0.557   0.454  0.00  0.00     0.000 A 
ATOM      3  C3  BNZ d   1      -0.141  -0.840  -0.305  0.00  0.00     0.000 A 
ATOM      4  C4  BNZ d   1       1.002  -0.155  -0.095  0.00  0.00     0.000 A 
ATOM      5  C5  BNZ d   1       1.072   0.802   0.897  0.00  0.00     0.000 A 
ATOM      6  C6  BNZ d   1      -0.027   1.056   1.685  0.00  0.00     0.000 A 
ENDROOT
TORSDOF 0
ENDMDL
