MODEL 1
REMARK minimizedAffinity -3.68670201
REMARK minimizedRMSD -1
REMARK  0 active torsions:
REMARK  status: ('A' for Active; 'I' for Inactive)
ROOT
ATOM      1  C1  BNZ d   1       1.693   0.045  -0.406  0.00  0.00     0.000 A 
ATOM      2  C2  BNZ d   1       1.191  -1.172  -0.782  0.00  0.00     0.000 A 
ATOM      3  C3  BNZ d   1      -0.035  -1.589  -0.344  0.00  0.00     0.000 A 
ATOM      4  C4  BNZ d   1      -0.739  -0.806   0.499  0.00  0.00     0.000 A 
ATOM      5  C5  BNZ d   1      -0.242   0.419   0.895  0.00  0.00     0.000 A 
ATOM      6  C6  BNZ d   1       0.976   0.852   0.422  0.00  0.00     0.000 A 
ENDROOT
TORSDOF 0
ENDMDL
