MODEL 1
REMARK minimizedAffinity -2.42976117
REMARK minimizedRMSD -1
REMARK  0 active torsions:
REMARK  status: ('A' for Active; 'I' for Inactive)
ROOT
ATOM      1  C1  BNZ d   1      -1.002  -0.538   0.819  0.00  0.00     0.000 A 
ATOM      2  C2  BNZ d   1      -0.739   0.692   1.361  0.00  0.00     0.000 A 
ATOM      3  C3  BNZ d   1       0.269   1.473   0.868  0.00  0.00     0.000 A 
ATOM      4  C4  BNZ d   1       1.037   1.008  -0.138  0.00  0.00     0.000 A 
ATOM      5  C5  BNZ d   1       0.790  -0.234  -0.689  0.00  0.00     0.000 A 
ATOM      6  C6  BNZ d   1      -0.250  -1.001  -0.216  0.00  0.00     0.000 A 
ENDROOT
TORSDOF 0
ENDMDL
