MODEL 1
REMARK minimizedAffinity -4.11030769
REMARK minimizedRMSD -1
REMARK  0 active torsions:
REMARK  status: ('A' for Active; 'I' for Inactive)
ROOT
ATOM      1  C1  BNZ d   1      -0.888   0.239   1.743  0.00  0.00     0.000 A 
ATOM      2  C2  BNZ d   1      -0.282   1.425   2.061  0.00  0.00     0.000 A 
ATOM      3  C3  BNZ d   1       0.764   1.898   1.318  0.00  0.00     0.000 A 
ATOM      4  C4  BNZ d   1       1.228   1.166   0.285  0.00  0.00     0.000 A 
ATOM      5  C5  BNZ d   1       0.633  -0.036  -0.042  0.00  0.00     0.000 A 
ATOM      6  C6  BNZ d   1      -0.444  -0.490   0.683  0.00  0.00     0.000 A 
ENDROOT
TORSDOF 0
ENDMDL
