MODEL 1
REMARK minimizedAffinity -2.79387903
REMARK minimizedRMSD -1
REMARK  0 active torsions:
REMARK  status: ('A' for Active; 'I' for Inactive)
ROOT
ATOM      1  C1  BNZ d   1      -2.924  -1.638  -1.993  0.00  0.00     0.000 A 
ATOM      2  C2  BNZ d   1      -2.152  -1.660  -0.862  0.00  0.00     0.000 A 
ATOM      3  C3  BNZ d   1      -0.843  -1.268  -0.901  0.00  0.00     0.000 A 
ATOM      4  C4  BNZ d   1      -0.297  -0.894  -2.076  0.00  0.00     0.000 A 
ATOM      5  C5  BNZ d   1      -1.059  -0.875  -3.226  0.00  0.00     0.000 A 
ATOM      6  C6  BNZ d   1      -2.387  -1.233  -3.177  0.00  0.00     0.000 A 
ENDROOT
TORSDOF 0
ENDMDL
