MODEL 1
REMARK minimizedAffinity -4.32572174
REMARK minimizedRMSD -1
REMARK  0 active torsions:
REMARK  status: ('A' for Active; 'I' for Inactive)
ROOT
ATOM      1  C1  BNZ d   1       1.372   0.970  -0.222  0.00  0.00     0.000 A 
ATOM      2  C2  BNZ d   1       0.621  -0.173  -0.294  0.00  0.00     0.000 A 
ATOM      3  C3  BNZ d   1      -0.442  -0.365   0.542  0.00  0.00     0.000 A 
ATOM      4  C4  BNZ d   1      -0.729   0.566   1.475  0.00  0.00     0.000 A 
ATOM      5  C5  BNZ d   1       0.024   1.719   1.566  0.00  0.00     0.000 A 
ATOM      6  C6  BNZ d   1       1.070   1.927   0.697  0.00  0.00     0.000 A 
ENDROOT
TORSDOF 0
ENDMDL
