MODEL 1
REMARK minimizedAffinity -4.59351158
REMARK minimizedRMSD -1
REMARK  0 active torsions:
REMARK  status: ('A' for Active; 'I' for Inactive)
ROOT
ATOM      1  C1  BNZ d   1       1.402   1.034  -0.362  0.00  0.00     0.000 A 
ATOM      2  C2  BNZ d   1       0.563   0.029  -0.763  0.00  0.00     0.000 A 
ATOM      3  C3  BNZ d   1      -0.596  -0.227  -0.085  0.00  0.00     0.000 A 
ATOM      4  C4  BNZ d   1      -0.894   0.494   1.015  0.00  0.00     0.000 A 
ATOM      5  C5  BNZ d   1      -0.053   1.504   1.437  0.00  0.00     0.000 A 
ATOM      6  C6  BNZ d   1       1.093   1.785   0.730  0.00  0.00     0.000 A 
ENDROOT
TORSDOF 0
ENDMDL
