MODEL 1
REMARK minimizedAffinity -4.29509163
REMARK minimizedRMSD -1
REMARK  0 active torsions:
REMARK  status: ('A' for Active; 'I' for Inactive)
ROOT
ATOM      1  C1  BNZ d   1       1.715   0.988  -0.499  0.00  0.00     0.000 A 
ATOM      2  C2  BNZ d   1       1.497   2.040   0.350  0.00  0.00     0.000 A 
ATOM      3  C3  BNZ d   1       0.566   1.953   1.348  0.00  0.00     0.000 A 
ATOM      4  C4  BNZ d   1      -0.172   0.831   1.470  0.00  0.00     0.000 A 
ATOM      5  C5  BNZ d   1       0.029  -0.235   0.615  0.00  0.00     0.000 A 
ATOM      6  C6  BNZ d   1       0.994  -0.158  -0.363  0.00  0.00     0.000 A 
ENDROOT
TORSDOF 0
ENDMDL
