MODEL 1
REMARK minimizedAffinity -2.3963387
REMARK minimizedRMSD -1
REMARK  0 active torsions:
REMARK  status: ('A' for Active; 'I' for Inactive)
ROOT
ATOM      1  C4' PXY d   1      -2.393   0.799   1.794  0.00  0.00     0.077 C 
ATOM      2  C1' PXY d   1       1.416  -1.980  -1.551  0.00  0.00     0.077 C 
ATOM      3  C1  PXY d   1       0.422  -1.240  -0.678  0.00  0.00    -0.082 A 
ATOM      4  C2  PXY d   1      -0.102  -1.846   0.375  0.00  0.00     0.003 A 
ATOM      5  C3  PXY d   1      -1.027  -1.203   1.157  0.00  0.00     0.003 A 
ATOM      6  C4  PXY d   1      -1.378   0.093   0.889  0.00  0.00    -0.082 A 
ATOM      7  C5  PXY d   1      -0.840   0.722  -0.177  0.00  0.00     0.003 A 
ATOM      8  C6  PXY d   1       0.066   0.037  -0.982  0.00  0.00     0.003 A 
ENDROOT
TORSDOF 0
ENDMDL
