MODEL 1
REMARK minimizedAffinity -2.72148228
REMARK minimizedRMSD -1
REMARK  0 active torsions:
REMARK  status: ('A' for Active; 'I' for Inactive)
ROOT
ATOM      1  C4' PXY d   1      -4.514  -1.984   4.114  0.00  0.00     0.077 C 
ATOM      2  C1' PXY d   1      -1.115   2.500   2.789  0.00  0.00     0.077 C 
ATOM      3  C1  PXY d   1      -2.009   1.322   3.124  0.00  0.00    -0.082 A 
ATOM      4  C2  PXY d   1      -2.549   1.233   4.329  0.00  0.00     0.003 A 
ATOM      5  C3  PXY d   1      -3.334   0.158   4.659  0.00  0.00     0.003 A 
ATOM      6  C4  PXY d   1      -3.613  -0.808   3.729  0.00  0.00    -0.082 A 
ATOM      7  C5  PXY d   1      -3.074  -0.718   2.494  0.00  0.00     0.003 A 
ATOM      8  C6  PXY d   1      -2.247   0.360   2.192  0.00  0.00     0.003 A 
ENDROOT
TORSDOF 0
ENDMDL
