MODEL 1
REMARK minimizedAffinity -0.632934272
REMARK minimizedRMSD -1
REMARK  0 active torsions:
REMARK  status: ('A' for Active; 'I' for Inactive)
ROOT
ATOM      1  C4' PXY d   1       1.513   2.385  -2.690  0.00  0.00     0.077 C 
ATOM      2  C1' PXY d   1       1.135  -2.549   0.298  0.00  0.00     0.077 C 
ATOM      3  C1  PXY d   1       1.246  -1.259  -0.490  0.00  0.00    -0.082 A 
ATOM      4  C2  PXY d   1       0.509  -0.216  -0.144  0.00  0.00     0.003 A 
ATOM      5  C3  PXY d   1       0.573   0.949  -0.865  0.00  0.00     0.003 A 
ATOM      6  C4  PXY d   1       1.440   1.064  -1.918  0.00  0.00    -0.082 A 
ATOM      7  C5  PXY d   1       2.204   0.008  -2.270  0.00  0.00     0.003 A 
ATOM      8  C6  PXY d   1       2.094  -1.178  -1.551  0.00  0.00     0.003 A 
ENDROOT
TORSDOF 0
ENDMDL
