MODEL 1
REMARK minimizedAffinity -2.68683481
REMARK minimizedRMSD -1
REMARK  0 active torsions:
REMARK  status: ('A' for Active; 'I' for Inactive)
ROOT
ATOM      1  C4' PXY d   1      -2.229   0.489   2.054  0.00  0.00     0.077 C 
ATOM      2  C1' PXY d   1       1.989  -1.228  -1.506  0.00  0.00     0.077 C 
ATOM      3  C1  PXY d   1       0.886  -0.766  -0.575  0.00  0.00    -0.082 A 
ATOM      4  C2  PXY d   1       0.465  -1.567   0.390  0.00  0.00     0.003 A 
ATOM      5  C3  PXY d   1      -0.553  -1.177   1.221  0.00  0.00     0.003 A 
ATOM      6  C4  PXY d   1      -1.111   0.067   1.096  0.00  0.00    -0.082 A 
ATOM      7  C5  PXY d   1      -0.681   0.895   0.121  0.00  0.00     0.003 A 
ATOM      8  C6  PXY d   1       0.326   0.464  -0.738  0.00  0.00     0.003 A 
ENDROOT
TORSDOF 0
ENDMDL
