MODEL 1
REMARK minimizedAffinity -3.74509406
REMARK minimizedRMSD -1
REMARK  0 active torsions:
REMARK  status: ('A' for Active; 'I' for Inactive)
ROOT
ATOM      1  C4' PXY d   1      -2.467   0.755   2.135  0.00  0.00     0.077 C 
ATOM      2  C1' PXY d   1       1.946  -0.767  -1.275  0.00  0.00     0.077 C 
ATOM      3  C1  PXY d   1       0.784  -0.361  -0.390  0.00  0.00    -0.082 A 
ATOM      4  C2  PXY d   1       0.930  -0.366   0.925  0.00  0.00     0.003 A 
ATOM      5  C3  PXY d   1      -0.121  -0.032   1.740  0.00  0.00     0.003 A 
ATOM      6  C4  PXY d   1      -1.317   0.361   1.203  0.00  0.00    -0.082 A 
ATOM      7  C5  PXY d   1      -1.471   0.379  -0.138  0.00  0.00     0.003 A 
ATOM      8  C6  PXY d   1      -0.405  -0.003  -0.947  0.00  0.00     0.003 A 
ENDROOT
TORSDOF 0
ENDMDL
