MODEL 1
REMARK minimizedAffinity -4.22448683
REMARK minimizedRMSD -1
REMARK  0 active torsions:
REMARK  status: ('A' for Active; 'I' for Inactive)
ROOT
ATOM      1  C4' PXY d   1       2.908  -0.922  -1.035  0.00  0.00     0.077 C 
ATOM      2  C1' PXY d   1      -2.376   0.119   1.065  0.00  0.00     0.077 C 
ATOM      3  C1  PXY d   1      -0.989  -0.165   0.522  0.00  0.00    -0.082 A 
ATOM      4  C2  PXY d   1      -0.259   0.828   0.041  0.00  0.00     0.003 A 
ATOM      5  C3  PXY d   1       0.984   0.584  -0.484  0.00  0.00     0.003 A 
ATOM      6  C4  PXY d   1       1.507  -0.681  -0.467  0.00  0.00    -0.082 A 
ATOM      7  C5  PXY d   1       0.772  -1.698   0.032  0.00  0.00     0.003 A 
ATOM      8  C6  PXY d   1      -0.504  -1.436   0.522  0.00  0.00     0.003 A 
ENDROOT
TORSDOF 0
ENDMDL
