MODEL 1
REMARK minimizedAffinity -4.51912355
REMARK minimizedRMSD -1
REMARK  0 active torsions:
REMARK  status: ('A' for Active; 'I' for Inactive)
ROOT
ATOM      1  C4' PXY d   1       2.912  -0.602  -1.399  0.00  0.00     0.077 C 
ATOM      2  C1' PXY d   1      -2.449   0.399   0.518  0.00  0.00     0.077 C 
ATOM      3  C1  PXY d   1      -1.044   0.147   0.008  0.00  0.00    -0.082 A 
ATOM      4  C2  PXY d   1      -0.554  -1.082   0.021  0.00  0.00     0.003 A 
ATOM      5  C3  PXY d   1       0.727  -1.322  -0.407  0.00  0.00     0.003 A 
ATOM      6  C4  PXY d   1       1.495  -0.303  -0.902  0.00  0.00    -0.082 A 
ATOM      7  C5  PXY d   1       0.998   0.952  -0.929  0.00  0.00     0.003 A 
ATOM      8  C6  PXY d   1      -0.289   1.182  -0.452  0.00  0.00     0.003 A 
ENDROOT
TORSDOF 0
ENDMDL
