MODEL 1
REMARK minimizedAffinity -5.33656979
REMARK minimizedRMSD -1
REMARK  0 active torsions:
REMARK  status: ('A' for Active; 'I' for Inactive)
ROOT
ATOM      1  C4' PXY d   1      -2.370   0.061   1.795  0.00  0.00     0.077 C 
ATOM      2  C1' PXY d   1       2.313   0.001  -1.594  0.00  0.00     0.077 C 
ATOM      3  C1  PXY d   1       1.081   0.005  -0.710  0.00  0.00    -0.082 A 
ATOM      4  C2  PXY d   1       0.590   1.155  -0.279  0.00  0.00     0.003 A 
ATOM      5  C3  PXY d   1      -0.504   1.175   0.547  0.00  0.00     0.003 A 
ATOM      6  C4  PXY d   1      -1.134   0.009   0.892  0.00  0.00    -0.082 A 
ATOM      7  C5  PXY d   1      -0.644  -1.168   0.448  0.00  0.00     0.003 A 
ATOM      8  C6  PXY d   1       0.492  -1.169  -0.356  0.00  0.00     0.003 A 
ENDROOT
TORSDOF 0
ENDMDL
