MODEL 1
REMARK minimizedAffinity -4.56087589
REMARK minimizedRMSD -1
REMARK  0 active torsions:
REMARK  status: ('A' for Active; 'I' for Inactive)
ROOT
ATOM      1  C4' PXY d   1      -4.924  -2.272   3.721  0.00  0.00     0.077 C 
ATOM      2  C1' PXY d   1      -1.810   2.504   2.768  0.00  0.00     0.077 C 
ATOM      3  C1  PXY d   1      -2.617   1.246   3.024  0.00  0.00    -0.082 A 
ATOM      4  C2  PXY d   1      -3.653   0.965   2.251  0.00  0.00     0.003 A 
ATOM      5  C3  PXY d   1      -4.412  -0.152   2.488  0.00  0.00     0.003 A 
ATOM      6  C4  PXY d   1      -4.075  -1.018   3.494  0.00  0.00    -0.082 A 
ATOM      7  C5  PXY d   1      -3.013  -0.743   4.280  0.00  0.00     0.003 A 
ATOM      8  C6  PXY d   1      -2.280   0.417   4.049  0.00  0.00     0.003 A 
ENDROOT
TORSDOF 0
ENDMDL
