MODEL 1
REMARK minimizedAffinity -4.47185135
REMARK minimizedRMSD -1
REMARK  0 active torsions:
REMARK  status: ('A' for Active; 'I' for Inactive)
ROOT
ATOM      1  C4' PXY d   1      -2.093   0.360   1.972  0.00  0.00     0.077 C 
ATOM      2  C1' PXY d   1       2.305  -0.885  -1.568  0.00  0.00     0.077 C 
ATOM      3  C1  PXY d   1       1.146  -0.570  -0.642  0.00  0.00    -0.082 A 
ATOM      4  C2  PXY d   1       0.806   0.690  -0.424  0.00  0.00     0.003 A 
ATOM      5  C3  PXY d   1      -0.218   0.993   0.436  0.00  0.00     0.003 A 
ATOM      6  C4  PXY d   1      -0.936  -0.005   1.037  0.00  0.00    -0.082 A 
ATOM      7  C5  PXY d   1      -0.603  -1.293   0.812  0.00  0.00     0.003 A 
ATOM      8  C6  PXY d   1       0.467  -1.579  -0.032  0.00  0.00     0.003 A 
ENDROOT
TORSDOF 0
ENDMDL
