MODEL 1
REMARK minimizedAffinity -4.34718466
REMARK minimizedRMSD -1
REMARK  0 active torsions:
REMARK  status: ('A' for Active; 'I' for Inactive)
ROOT
ATOM      1  C4' PXY d   1       2.730  -1.097  -1.168  0.00  0.00     0.077 C 
ATOM      2  C1' PXY d   1      -2.120   0.854   1.299  0.00  0.00     0.077 C 
ATOM      3  C1  PXY d   1      -0.850   0.331   0.658  0.00  0.00    -0.082 A 
ATOM      4  C2  PXY d   1       0.080   1.183   0.258  0.00  0.00     0.003 A 
ATOM      5  C3  PXY d   1       1.220   0.729  -0.353  0.00  0.00     0.003 A 
ATOM      6  C4  PXY d   1       1.436  -0.614  -0.507  0.00  0.00    -0.082 A 
ATOM      7  C5  PXY d   1       0.497  -1.491  -0.092  0.00  0.00     0.003 A 
ATOM      8  C6  PXY d   1      -0.673  -1.007   0.488  0.00  0.00     0.003 A 
ENDROOT
TORSDOF 0
ENDMDL
