MODEL 1
REMARK minimizedAffinity -2.63923693
REMARK minimizedRMSD -1
REMARK  0 active torsions:
REMARK  status: ('A' for Active; 'I' for Inactive)
ROOT
ATOM      1  C4' PXY d   1      -2.008   0.479   1.916  0.00  0.00     0.077 C 
ATOM      2  C1' PXY d   1       2.218  -1.123  -1.687  0.00  0.00     0.077 C 
ATOM      3  C1  PXY d   1       1.115  -0.691  -0.742  0.00  0.00    -0.082 A 
ATOM      4  C2  PXY d   1       0.489  -1.598  -0.009  0.00  0.00     0.003 A 
ATOM      5  C3  PXY d   1      -0.533  -1.229   0.827  0.00  0.00     0.003 A 
ATOM      6  C4  PXY d   1      -0.882   0.089   0.955  0.00  0.00    -0.082 A 
ATOM      7  C5  PXY d   1      -0.241   1.022   0.219  0.00  0.00     0.003 A 
ATOM      8  C6  PXY d   1       0.766   0.621  -0.655  0.00  0.00     0.003 A 
ENDROOT
TORSDOF 0
ENDMDL
