MODEL 1
REMARK minimizedAffinity -5.49133015
REMARK minimizedRMSD -1
REMARK  0 active torsions:
REMARK  status: ('A' for Active; 'I' for Inactive)
ROOT
ATOM      1  C4' PXY d   1      -2.106   0.602   1.016  0.00  0.00     0.077 C 
ATOM      2  C1' PXY d   1       2.933  -0.793  -1.449  0.00  0.00     0.077 C 
ATOM      3  C1  PXY d   1       1.608  -0.440  -0.803  0.00  0.00    -0.082 A 
ATOM      4  C2  PXY d   1       1.139   0.793  -0.905  0.00  0.00     0.003 A 
ATOM      5  C3  PXY d   1      -0.043   1.138  -0.300  0.00  0.00     0.003 A 
ATOM      6  C4  PXY d   1      -0.777   0.198   0.372  0.00  0.00    -0.082 A 
ATOM      7  C5  PXY d   1      -0.310  -1.065   0.472  0.00  0.00     0.003 A 
ATOM      8  C6  PXY d   1       0.911  -1.385  -0.115  0.00  0.00     0.003 A 
ENDROOT
TORSDOF 0
ENDMDL
