MODEL 1
REMARK minimizedAffinity -2.84674835
REMARK minimizedRMSD -1
REMARK  0 active torsions:
REMARK  status: ('A' for Active; 'I' for Inactive)
ROOT
ATOM      1  C4' PXY d   1      -0.596  -0.017  -0.035  0.00  0.00     0.077 C 
ATOM      2  C1' PXY d   1      -3.222   1.561   4.867  0.00  0.00     0.077 C 
ATOM      3  C1  PXY d   1      -2.540   1.136   3.582  0.00  0.00    -0.082 A 
ATOM      4  C2  PXY d   1      -1.348   1.625   3.281  0.00  0.00     0.003 A 
ATOM      5  C3  PXY d   1      -0.731   1.276   2.107  0.00  0.00     0.003 A 
ATOM      6  C4  PXY d   1      -1.317   0.377   1.257  0.00  0.00    -0.082 A 
ATOM      7  C5  PXY d   1      -2.529  -0.135   1.562  0.00  0.00     0.003 A 
ATOM      8  C6  PXY d   1      -3.156   0.264   2.739  0.00  0.00     0.003 A 
ENDROOT
TORSDOF 0
ENDMDL
