MODEL 1
REMARK minimizedAffinity 8.73458862
REMARK minimizedRMSD -1
REMARK  0 active torsions:
REMARK  status: ('A' for Active; 'I' for Inactive)
ROOT
ATOM      1  C4' PXY d   1      -3.009   1.109   2.079  0.00  0.00     0.077 C 
ATOM      2  C1' PXY d   1       1.578   0.823  -1.427  0.00  0.00     0.077 C 
ATOM      3  C1  PXY d   1       0.367   0.894  -0.517  0.00  0.00    -0.082 A 
ATOM      4  C2  PXY d   1       0.406   1.655   0.565  0.00  0.00     0.003 A 
ATOM      5  C3  PXY d   1      -0.668   1.706   1.416  0.00  0.00     0.003 A 
ATOM      6  C4  PXY d   1      -1.813   1.014   1.127  0.00  0.00    -0.082 A 
ATOM      7  C5  PXY d   1      -1.865   0.244   0.020  0.00  0.00     0.003 A 
ATOM      8  C6  PXY d   1      -0.749   0.173  -0.809  0.00  0.00     0.003 A 
ENDROOT
TORSDOF 0
ENDMDL
