MODEL 1
REMARK minimizedAffinity -4.8915062
REMARK minimizedRMSD -1
REMARK  0 active torsions:
REMARK  status: ('A' for Active; 'I' for Inactive)
ROOT
ATOM      1  C4' PXY d   1       3.123  -0.906  -1.355  0.00  0.00     0.077 C 
ATOM      2  C1' PXY d   1      -2.121   0.911   0.263  0.00  0.00     0.077 C 
ATOM      3  C1  PXY d   1      -0.748   0.423  -0.155  0.00  0.00    -0.082 A 
ATOM      4  C2  PXY d   1       0.183   1.301  -0.494  0.00  0.00     0.003 A 
ATOM      5  C3  PXY d   1       1.420   0.876  -0.904  0.00  0.00     0.003 A 
ATOM      6  C4  PXY d   1       1.725  -0.459  -0.918  0.00  0.00    -0.082 A 
ATOM      7  C5  PXY d   1       0.785  -1.360  -0.563  0.00  0.00     0.003 A 
ATOM      8  C6  PXY d   1      -0.478  -0.910  -0.189  0.00  0.00     0.003 A 
ENDROOT
TORSDOF 0
ENDMDL
