MODEL 1
REMARK minimizedAffinity -5.20547581
REMARK minimizedRMSD -1
REMARK  0 active torsions:
REMARK  status: ('A' for Active; 'I' for Inactive)
ROOT
ATOM      1  C4' PXY d   1      -1.736   0.263   1.065  0.00  0.00     0.077 C 
ATOM      2  C1' PXY d   1       3.245  -0.950  -1.606  0.00  0.00     0.077 C 
ATOM      3  C1  PXY d   1       1.935  -0.644  -0.908  0.00  0.00    -0.082 A 
ATOM      4  C2  PXY d   1       1.523   0.609  -0.810  0.00  0.00     0.003 A 
ATOM      5  C3  PXY d   1       0.356   0.907  -0.154  0.00  0.00     0.003 A 
ATOM      6  C4  PXY d   1      -0.424  -0.094   0.360  0.00  0.00    -0.082 A 
ATOM      7  C5  PXY d   1      -0.016  -1.376   0.254  0.00  0.00     0.003 A 
ATOM      8  C6  PXY d   1       1.192  -1.654  -0.379  0.00  0.00     0.003 A 
ENDROOT
TORSDOF 0
ENDMDL
