MODEL 1
REMARK minimizedAffinity -1.70919716
REMARK minimizedRMSD -1
REMARK  0 active torsions:
REMARK  status: ('A' for Active; 'I' for Inactive)
ROOT
ATOM      1  C4' PXY d   1       3.066  -0.488  -1.724  0.00  0.00     0.077 C 
ATOM      2  C1' PXY d   1      -1.854   0.233   1.224  0.00  0.00     0.077 C 
ATOM      3  C1  PXY d   1      -0.561   0.033   0.457  0.00  0.00    -0.082 A 
ATOM      4  C2  PXY d   1       0.034   1.073  -0.104  0.00  0.00     0.003 A 
ATOM      5  C3  PXY d   1       1.187   0.905  -0.828  0.00  0.00     0.003 A 
ATOM      6  C4  PXY d   1       1.765  -0.331  -0.933  0.00  0.00    -0.082 A 
ATOM      7  C5  PXY d   1       1.170  -1.396  -0.354  0.00  0.00     0.003 A 
ATOM      8  C6  PXY d   1      -0.022  -1.211   0.342  0.00  0.00     0.003 A 
ENDROOT
TORSDOF 0
ENDMDL
