MODEL 1
REMARK minimizedAffinity -4.54219341
REMARK minimizedRMSD -1
REMARK  0 active torsions:
REMARK  status: ('A' for Active; 'I' for Inactive)
ROOT
ATOM      1  C4' PXY d   1       1.504  -2.774   0.005  0.00  0.00     0.077 C 
ATOM      2  C1' PXY d   1       1.272   2.418  -2.525  0.00  0.00     0.077 C 
ATOM      3  C1  PXY d   1       1.328   1.062  -1.851  0.00  0.00    -0.082 A 
ATOM      4  C2  PXY d   1       2.237   0.179  -2.231  0.00  0.00     0.003 A 
ATOM      5  C3  PXY d   1       2.280  -1.065  -1.654  0.00  0.00     0.003 A 
ATOM      6  C4  PXY d   1       1.418  -1.388  -0.641  0.00  0.00    -0.082 A 
ATOM      7  C5  PXY d   1       0.494  -0.489  -0.240  0.00  0.00     0.003 A 
ATOM      8  C6  PXY d   1       0.440   0.752  -0.867  0.00  0.00     0.003 A 
ENDROOT
TORSDOF 0
ENDMDL
