MODEL 1
REMARK minimizedAffinity -4.40980387
REMARK minimizedRMSD -1
REMARK  0 active torsions:
REMARK  status: ('A' for Active; 'I' for Inactive)
ROOT
ATOM      1  C4' PXY d   1      -2.019   0.713   1.632  0.00  0.00     0.077 C 
ATOM      2  C1' PXY d   1       2.232  -1.265  -1.749  0.00  0.00     0.077 C 
ATOM      3  C1  PXY d   1       1.109  -0.756  -0.866  0.00  0.00    -0.082 A 
ATOM      4  C2  PXY d   1       1.052   0.529  -0.556  0.00  0.00     0.003 A 
ATOM      5  C3  PXY d   1       0.063   1.000   0.268  0.00  0.00     0.003 A 
ATOM      6  C4  PXY d   1      -0.910   0.157   0.736  0.00  0.00    -0.082 A 
ATOM      7  C5  PXY d   1      -0.864  -1.153   0.415  0.00  0.00     0.003 A 
ATOM      8  C6  PXY d   1       0.172  -1.619  -0.389  0.00  0.00     0.003 A 
ENDROOT
TORSDOF 0
ENDMDL
