MODEL 1
REMARK minimizedAffinity -2.69471765
REMARK minimizedRMSD -1
REMARK  0 active torsions:
REMARK  status: ('A' for Active; 'I' for Inactive)
ROOT
ATOM      1  C   UNL d   1      -1.853  -3.258   0.457  0.00  0.00    -0.002 A 
ATOM      2  C1  UNL d   1      -0.693  -3.144   1.209  0.00  0.00     0.010 A 
ATOM      3  C2  UNL d   1       0.158  -2.050   1.040  0.00  0.00     0.041 A 
ATOM      4  C3  UNL d   1      -0.181  -1.062   0.096  0.00  0.00    -0.075 A 
ATOM      5  S   UNL d   1       0.709   0.366  -0.280  0.00  0.00     0.015 SA
ATOM      6  C4  UNL d   1      -0.431   0.859  -1.447  0.00  0.00     0.022 A 
ATOM      7  C5  UNL d   1      -1.472  -0.032  -1.560  0.00  0.00     0.026 A 
ATOM      8  C6  UNL d   1      -1.345  -1.154  -0.672  0.00  0.00    -0.082 A 
ATOM      9  C7  UNL d   1      -2.187  -2.275  -0.479  0.00  0.00     0.045 A 
ENDROOT
TORSDOF 0
ENDMDL
