MODEL 1
REMARK minimizedAffinity -3.04296827
REMARK minimizedRMSD -1
REMARK  0 active torsions:
REMARK  status: ('A' for Active; 'I' for Inactive)
ROOT
ATOM      1  C   UNL d   1      -0.081  -0.216  -0.878  0.00  0.00    -0.002 A 
ATOM      2  C1  UNL d   1      -0.981   0.688  -0.332  0.00  0.00     0.010 A 
ATOM      3  C2  UNL d   1      -0.527   1.824   0.340  0.00  0.00     0.041 A 
ATOM      4  C3  UNL d   1       0.861   2.039   0.454  0.00  0.00    -0.075 A 
ATOM      5  S   UNL d   1       1.647   3.361   1.233  0.00  0.00     0.015 SA
ATOM      6  C4  UNL d   1       3.196   2.757   0.859  0.00  0.00     0.022 A 
ATOM      7  C5  UNL d   1       3.134   1.576   0.158  0.00  0.00     0.026 A 
ATOM      8  C6  UNL d   1       1.787   1.143  -0.088  0.00  0.00    -0.082 A 
ATOM      9  C7  UNL d   1       1.294   0.000  -0.762  0.00  0.00     0.045 A 
ENDROOT
TORSDOF 0
ENDMDL
