MODEL 1
REMARK minimizedAffinity 0.958045125
REMARK minimizedRMSD -1
REMARK  0 active torsions:
REMARK  status: ('A' for Active; 'I' for Inactive)
ROOT
ATOM      1  C   UNL d   1      -1.796   0.149  -1.860  0.00  0.00    -0.002 A 
ATOM      2  C1  UNL d   1      -2.711  -0.587  -1.120  0.00  0.00     0.010 A 
ATOM      3  C2  UNL d   1      -2.289  -1.356  -0.034  0.00  0.00     0.041 A 
ATOM      4  C3  UNL d   1      -0.921  -1.373   0.300  0.00  0.00    -0.075 A 
ATOM      5  S   UNL d   1      -0.176  -2.241   1.590  0.00  0.00     0.015 SA
ATOM      6  C4  UNL d   1       1.374  -1.655   1.188  0.00  0.00     0.022 A 
ATOM      7  C5  UNL d   1       1.342  -0.816   0.100  0.00  0.00     0.026 A 
ATOM      8  C6  UNL d   1       0.019  -0.639  -0.430  0.00  0.00    -0.082 A 
ATOM      9  C7  UNL d   1      -0.440   0.131  -1.526  0.00  0.00     0.045 A 
ENDROOT
TORSDOF 0
ENDMDL
