MODEL 1
REMARK minimizedAffinity -1.93860292
REMARK minimizedRMSD -1
REMARK  0 active torsions:
REMARK  status: ('A' for Active; 'I' for Inactive)
ROOT
ATOM      1  C   UNL d   1      -1.218  -0.357  -1.107  0.00  0.00    -0.002 A 
ATOM      2  C1  UNL d   1      -1.723   0.933  -1.033  0.00  0.00     0.010 A 
ATOM      3  C2  UNL d   1      -0.954   1.968  -0.499  0.00  0.00     0.041 A 
ATOM      4  C3  UNL d   1       0.347   1.682  -0.038  0.00  0.00    -0.075 A 
ATOM      5  S   UNL d   1       1.471   2.791   0.654  0.00  0.00     0.015 SA
ATOM      6  C4  UNL d   1       2.650   1.579   0.866  0.00  0.00     0.022 A 
ATOM      7  C5  UNL d   1       2.213   0.352   0.426  0.00  0.00     0.026 A 
ATOM      8  C6  UNL d   1       0.879   0.391  -0.103  0.00  0.00    -0.082 A 
ATOM      9  C7  UNL d   1       0.073  -0.637  -0.649  0.00  0.00     0.045 A 
ENDROOT
TORSDOF 0
ENDMDL
