MODEL 1
REMARK minimizedAffinity -1.91784465
REMARK minimizedRMSD -1
REMARK  0 active torsions:
REMARK  status: ('A' for Active; 'I' for Inactive)
ROOT
ATOM      1  C   UNL d   1      -1.710   0.811  -0.902  0.00  0.00    -0.002 A 
ATOM      2  C1  UNL d   1      -1.133  -0.353  -1.391  0.00  0.00     0.010 A 
ATOM      3  C2  UNL d   1       0.148  -0.734  -0.987  0.00  0.00     0.041 A 
ATOM      4  C3  UNL d   1       0.845   0.080  -0.074  0.00  0.00    -0.075 A 
ATOM      5  S   UNL d   1       2.425  -0.188   0.562  0.00  0.00     0.015 SA
ATOM      6  C4  UNL d   1       2.371   1.235   1.499  0.00  0.00     0.022 A 
ATOM      7  C5  UNL d   1       1.184   1.910   1.342  0.00  0.00     0.026 A 
ATOM      8  C6  UNL d   1       0.285   1.256   0.434  0.00  0.00    -0.082 A 
ATOM      9  C7  UNL d   1      -1.015   1.616   0.004  0.00  0.00     0.045 A 
ENDROOT
TORSDOF 0
ENDMDL
