MODEL 1
REMARK minimizedAffinity -1.87368608
REMARK minimizedRMSD -1
REMARK  0 active torsions:
REMARK  status: ('A' for Active; 'I' for Inactive)
ROOT
ATOM      1  C   UNL d   1      -1.187  -3.604   1.550  0.00  0.00    -0.002 A 
ATOM      2  C1  UNL d   1      -0.163  -2.718   1.854  0.00  0.00     0.010 A 
ATOM      3  C2  UNL d   1       0.005  -1.546   1.113  0.00  0.00     0.041 A 
ATOM      4  C3  UNL d   1      -0.884  -1.277   0.054  0.00  0.00    -0.075 A 
ATOM      5  S   UNL d   1      -0.872   0.096  -0.989  0.00  0.00     0.015 SA
ATOM      6  C4  UNL d   1      -2.226  -0.461  -1.861  0.00  0.00     0.022 A 
ATOM      7  C5  UNL d   1      -2.689  -1.664  -1.382  0.00  0.00     0.026 A 
ATOM      8  C6  UNL d   1      -1.923  -2.153  -0.270  0.00  0.00    -0.082 A 
ATOM      9  C7  UNL d   1      -2.067  -3.333   0.499  0.00  0.00     0.045 A 
ENDROOT
TORSDOF 0
ENDMDL
