MODEL 1
REMARK minimizedAffinity 0.611384153
REMARK minimizedRMSD -1
REMARK  0 active torsions:
REMARK  status: ('A' for Active; 'I' for Inactive)
ROOT
ATOM      1  C   UNL d   1      -2.173  -3.213   0.748  0.00  0.00    -0.002 A 
ATOM      2  C1  UNL d   1      -1.124  -3.013   1.634  0.00  0.00     0.010 A 
ATOM      3  C2  UNL d   1      -0.292  -1.899   1.508  0.00  0.00     0.041 A 
ATOM      4  C3  UNL d   1      -0.535  -0.979   0.469  0.00  0.00    -0.075 A 
ATOM      5  S   UNL d   1       0.352   0.457   0.122  0.00  0.00     0.015 SA
ATOM      6  C4  UNL d   1      -0.641   0.839  -1.209  0.00  0.00     0.022 A 
ATOM      7  C5  UNL d   1      -1.630  -0.096  -1.399  0.00  0.00     0.026 A 
ATOM      8  C6  UNL d   1      -1.586  -1.159  -0.435  0.00  0.00    -0.082 A 
ATOM      9  C7  UNL d   1      -2.412  -2.299  -0.282  0.00  0.00     0.045 A 
ENDROOT
TORSDOF 0
ENDMDL
