MODEL 1
REMARK minimizedAffinity -4.10218334
REMARK minimizedRMSD -1
REMARK  0 active torsions:
REMARK  status: ('A' for Active; 'I' for Inactive)
ROOT
ATOM      1  C   UNL d   1       2.194   3.474   1.110  0.00  0.00    -0.002 A 
ATOM      2  C1  UNL d   1       2.840   2.274   1.375  0.00  0.00     0.010 A 
ATOM      3  C2  UNL d   1       2.265   1.059   0.997  0.00  0.00     0.041 A 
ATOM      4  C3  UNL d   1       1.018   1.070   0.341  0.00  0.00    -0.075 A 
ATOM      5  S   UNL d   1       0.124  -0.295  -0.215  0.00  0.00     0.015 SA
ATOM      6  C4  UNL d   1      -1.135   0.682  -0.819  0.00  0.00     0.022 A 
ATOM      7  C5  UNL d   1      -0.896   2.019  -0.609  0.00  0.00     0.026 A 
ATOM      8  C6  UNL d   1       0.349   2.265   0.062  0.00  0.00    -0.082 A 
ATOM      9  C7  UNL d   1       0.958   3.480   0.459  0.00  0.00     0.045 A 
ENDROOT
TORSDOF 0
ENDMDL
