MODEL 1
REMARK minimizedAffinity 0.474466622
REMARK minimizedRMSD -1
REMARK  0 active torsions:
REMARK  status: ('A' for Active; 'I' for Inactive)
ROOT
ATOM      1  C   UNL d   1       0.203  -0.502  -0.889  0.00  0.00    -0.002 A 
ATOM      2  C1  UNL d   1      -0.831   0.396  -0.662  0.00  0.00     0.010 A 
ATOM      3  C2  UNL d   1      -0.588   1.610  -0.017  0.00  0.00     0.041 A 
ATOM      4  C3  UNL d   1       0.724   1.910   0.399  0.00  0.00    -0.075 A 
ATOM      5  S   UNL d   1       1.258   3.336   1.207  0.00  0.00     0.015 SA
ATOM      6  C4  UNL d   1       2.870   2.788   1.270  0.00  0.00     0.022 A 
ATOM      7  C5  UNL d   1       3.016   1.548   0.693  0.00  0.00     0.026 A 
ATOM      8  C6  UNL d   1       1.782   1.022   0.181  0.00  0.00    -0.082 A 
ATOM      9  C7  UNL d   1       1.503  -0.201  -0.475  0.00  0.00     0.045 A 
ENDROOT
TORSDOF 0
ENDMDL
