MODEL 1
REMARK minimizedAffinity 1.04974425
REMARK minimizedRMSD -1
REMARK  0 active torsions:
REMARK  status: ('A' for Active; 'I' for Inactive)
ROOT
ATOM      1  C   UNL d   1      -2.711  -3.723   0.581  0.00  0.00    -0.002 A 
ATOM      2  C1  UNL d   1      -1.736  -3.508   1.544  0.00  0.00     0.010 A 
ATOM      3  C2  UNL d   1      -0.872  -2.415   1.447  0.00  0.00     0.041 A 
ATOM      4  C3  UNL d   1      -1.008  -1.533   0.357  0.00  0.00    -0.075 A 
ATOM      5  S   UNL d   1      -0.063  -0.128   0.033  0.00  0.00     0.015 SA
ATOM      6  C4  UNL d   1      -0.932   0.220  -1.391  0.00  0.00     0.022 A 
ATOM      7  C5  UNL d   1      -1.923  -0.703  -1.628  0.00  0.00     0.026 A 
ATOM      8  C6  UNL d   1      -1.983  -1.729  -0.625  0.00  0.00    -0.082 A 
ATOM      9  C7  UNL d   1      -2.843  -2.846  -0.499  0.00  0.00     0.045 A 
ENDROOT
TORSDOF 0
ENDMDL
