MODEL 1
REMARK minimizedAffinity -4.71103525
REMARK minimizedRMSD -1
REMARK  1 active torsions:
REMARK  status: ('A' for Active; 'I' for Inactive)
REMARK    1  A    between atoms: C3_4  and  O_7 
ROOT
ATOM      1  C   UNL d   1      -0.550   0.380   2.205  0.00  0.00    -0.033 A 
ATOM      2  C1  UNL d   1      -1.751  -0.269   2.500  0.00  0.00     0.039 A 
ATOM      3  C2  UNL d   1      -1.746  -1.437   3.264  0.00  0.00    -0.080 A 
ATOM      4  C3  UNL d   1      -0.536  -1.945   3.728  0.00  0.00     0.150 A 
ATOM      5  C4  UNL d   1       0.664  -1.302   3.442  0.00  0.00    -0.007 A 
ATOM      6  C5  UNL d   1       0.657  -0.136   2.677  0.00  0.00     0.039 A 
ENDROOT
BRANCH   4   7
ATOM      7  O   UNL d   1      -0.481  -3.085   4.474  0.00  0.00    -0.526 OA
ATOM      8  H5  UNL d   1      -1.382  -3.435   4.568  0.00  0.00     0.418 HD
ENDBRANCH   4   7
TORSDOF 1
ENDMDL
