MODEL 1
REMARK minimizedAffinity -0.491955847
REMARK minimizedRMSD -1
REMARK  1 active torsions:
REMARK  status: ('A' for Active; 'I' for Inactive)
REMARK    1  A    between atoms: C3_4  and  O_7 
ROOT
ATOM      1  C   UNL d   1      -0.315   0.610   0.785  0.00  0.00    -0.033 A 
ATOM      2  C1  UNL d   1       1.029   0.234   0.741  0.00  0.00     0.039 A 
ATOM      3  C2  UNL d   1       1.561  -0.578   1.745  0.00  0.00    -0.080 A 
ATOM      4  C3  UNL d   1       0.740  -1.007   2.784  0.00  0.00     0.150 A 
ATOM      5  C4  UNL d   1      -0.600  -0.639   2.832  0.00  0.00    -0.007 A 
ATOM      6  C5  UNL d   1      -1.130   0.172   1.829  0.00  0.00     0.039 A 
ENDROOT
BRANCH   4   7
ATOM      7  O   UNL d   1       1.216  -1.796   3.789  0.00  0.00    -0.526 OA
ATOM      8  H5  UNL d   1       2.165  -1.945   3.640  0.00  0.00     0.418 HD
ENDBRANCH   4   7
TORSDOF 1
ENDMDL
