MODEL 1
REMARK minimizedAffinity -0.71533227
REMARK minimizedRMSD -1
REMARK  1 active torsions:
REMARK  status: ('A' for Active; 'I' for Inactive)
REMARK    1  A    between atoms: C3_4  and  O_7 
ROOT
ATOM      1  C   UNL d   1      -4.162   0.294  -3.947  0.00  0.00    -0.033 A 
ATOM      2  C1  UNL d   1      -3.193   0.630  -3.000  0.00  0.00     0.039 A 
ATOM      3  C2  UNL d   1      -1.865   0.811  -3.392  0.00  0.00    -0.080 A 
ATOM      4  C3  UNL d   1      -1.520   0.654  -4.731  0.00  0.00     0.150 A 
ATOM      5  C4  UNL d   1      -2.481   0.323  -5.681  0.00  0.00    -0.007 A 
ATOM      6  C5  UNL d   1      -3.806   0.142  -5.288  0.00  0.00     0.039 A 
ENDROOT
BRANCH   4   7
ATOM      7  O   UNL d   1      -0.236   0.816  -5.160  0.00  0.00    -0.526 OA
ATOM      8  H5  UNL d   1       0.323   1.014  -4.390  0.00  0.00     0.418 HD
ENDBRANCH   4   7
TORSDOF 1
ENDMDL
