MODEL 1
REMARK minimizedAffinity 18.309721
REMARK minimizedRMSD -1
REMARK  0 active torsions:
REMARK  status: ('A' for Active; 'I' for Inactive)
ROOT
ATOM      1  C   UNL d   1      -3.704   4.115  -2.938  0.00  0.00    -0.002 A 
ATOM      2  C1  UNL d   1      -3.582   3.820  -1.587  0.00  0.00     0.010 A 
ATOM      3  C2  UNL d   1      -3.098   2.578  -1.172  0.00  0.00     0.041 A 
ATOM      4  C3  UNL d   1      -2.732   1.629  -2.147  0.00  0.00    -0.075 A 
ATOM      5  S   UNL d   1      -2.113   0.044  -1.873  0.00  0.00     0.015 SA
ATOM      6  C4  UNL d   1      -1.994  -0.279  -3.542  0.00  0.00     0.022 A 
ATOM      7  C5  UNL d   1      -2.412   0.786  -4.304  0.00  0.00     0.026 A 
ATOM      8  C6  UNL d   1      -2.844   1.903  -3.513  0.00  0.00    -0.082 A 
ATOM      9  C7  UNL d   1      -3.340   3.171  -3.902  0.00  0.00     0.045 A 
ENDROOT
TORSDOF 0
ENDMDL
