MODEL 1
REMARK minimizedAffinity 13.7729807
REMARK minimizedRMSD -1
REMARK  0 active torsions:
REMARK  status: ('A' for Active; 'I' for Inactive)
ROOT
ATOM      1  C   UNL d   1      -2.308   0.324  -3.193  0.00  0.00    -0.002 A 
ATOM      2  C1  UNL d   1      -2.537  -1.037  -3.339  0.00  0.00     0.010 A 
ATOM      3  C2  UNL d   1      -2.537  -1.880  -2.226  0.00  0.00     0.041 A 
ATOM      4  C3  UNL d   1      -2.304  -1.327  -0.952  0.00  0.00    -0.075 A 
ATOM      5  S   UNL d   1      -2.259  -2.167   0.553  0.00  0.00     0.015 SA
ATOM      6  C4  UNL d   1      -1.936  -0.739   1.426  0.00  0.00     0.022 A 
ATOM      7  C5  UNL d   1      -1.860   0.361   0.604  0.00  0.00     0.026 A 
ATOM      8  C6  UNL d   1      -2.072   0.040  -0.779  0.00  0.00    -0.082 A 
ATOM      9  C7  UNL d   1      -2.076   0.869  -1.927  0.00  0.00     0.045 A 
ENDROOT
TORSDOF 0
ENDMDL
