MODEL 1
REMARK minimizedAffinity 15.3177071
REMARK minimizedRMSD -1
REMARK  0 active torsions:
REMARK  status: ('A' for Active; 'I' for Inactive)
ROOT
ATOM      1  C   UNL d   1       2.249  -1.590   5.747  0.00  0.00    -0.002 A 
ATOM      2  C1  UNL d   1       2.167  -0.320   5.193  0.00  0.00     0.010 A 
ATOM      3  C2  UNL d   1       1.475  -0.109   3.999  0.00  0.00     0.041 A 
ATOM      4  C3  UNL d   1       0.858  -1.206   3.366  0.00  0.00    -0.075 A 
ATOM      5  S   UNL d   1      -0.045  -1.185   1.897  0.00  0.00     0.015 SA
ATOM      6  C4  UNL d   1      -0.345  -2.861   1.971  0.00  0.00     0.022 A 
ATOM      7  C5  UNL d   1       0.223  -3.438   3.082  0.00  0.00     0.026 A 
ATOM      8  C6  UNL d   1       0.925  -2.494   3.905  0.00  0.00    -0.082 A 
ATOM      9  C7  UNL d   1       1.635  -2.676   5.116  0.00  0.00     0.045 A 
ENDROOT
TORSDOF 0
ENDMDL
