MODEL 1
REMARK minimizedAffinity 15.1992388
REMARK minimizedRMSD -1
REMARK  0 active torsions:
REMARK  status: ('A' for Active; 'I' for Inactive)
ROOT
ATOM      1  C   UNL d   1      -2.584   0.813  -3.126  0.00  0.00    -0.002 A 
ATOM      2  C1  UNL d   1      -2.359  -0.547  -3.290  0.00  0.00     0.010 A 
ATOM      3  C2  UNL d   1      -1.991  -1.342  -2.202  0.00  0.00     0.041 A 
ATOM      4  C3  UNL d   1      -1.853  -0.741  -0.935  0.00  0.00    -0.075 A 
ATOM      5  S   UNL d   1      -1.412  -1.517   0.540  0.00  0.00     0.015 SA
ATOM      6  C4  UNL d   1      -1.513  -0.062   1.422  0.00  0.00     0.022 A 
ATOM      7  C5  UNL d   1      -1.872   1.000   0.626  0.00  0.00     0.026 A 
ATOM      8  C6  UNL d   1      -2.075   0.626  -0.746  0.00  0.00    -0.082 A 
ATOM      9  C7  UNL d   1      -2.446   1.405  -1.868  0.00  0.00     0.045 A 
ENDROOT
TORSDOF 0
ENDMDL
