MODEL 1
REMARK minimizedAffinity 8.60340786
REMARK minimizedRMSD -1
REMARK  0 active torsions:
REMARK  status: ('A' for Active; 'I' for Inactive)
ROOT
ATOM      1  C   UNL d   1      -1.656  -0.442  -2.292  0.00  0.00    -0.002 A 
ATOM      2  C1  UNL d   1      -1.896  -0.520  -3.657  0.00  0.00     0.010 A 
ATOM      3  C2  UNL d   1      -2.479   0.551  -4.338  0.00  0.00     0.041 A 
ATOM      4  C3  UNL d   1      -2.818   1.713  -3.617  0.00  0.00    -0.075 A 
ATOM      5  S   UNL d   1      -3.540   3.149  -4.241  0.00  0.00     0.015 SA
ATOM      6  C4  UNL d   1      -3.546   3.900  -2.711  0.00  0.00     0.022 A 
ATOM      7  C5  UNL d   1      -3.014   3.089  -1.737  0.00  0.00     0.026 A 
ATOM      8  C6  UNL d   1      -2.585   1.816  -2.243  0.00  0.00    -0.082 A 
ATOM      9  C7  UNL d   1      -1.994   0.712  -1.581  0.00  0.00     0.045 A 
ENDROOT
TORSDOF 0
ENDMDL
