MODEL 1
REMARK minimizedAffinity 4.25167894
REMARK minimizedRMSD -1
REMARK  2 active torsions:
REMARK  status: ('A' for Active; 'I' for Inactive)
REMARK    1  A    between atoms: C1_2  and  C2_3 
REMARK    2  A    between atoms: C2_3  and  C3_4 
ROOT
ATOM      1  C3  UNL d   1       0.608   0.320   1.535  0.00  0.00    -0.075 A 
ATOM      2  C4  UNL d   1       0.386   1.662   1.873  0.00  0.00     0.002 A 
ATOM      3  C5  UNL d   1      -0.858   2.253   1.647  0.00  0.00     0.002 A 
ATOM      4  C6  UNL d   1      -1.889   1.514   1.071  0.00  0.00    -0.004 A 
ATOM      5  C7  UNL d   1      -1.674   0.184   0.716  0.00  0.00     0.002 A 
ATOM      6  C8  UNL d   1      -0.432  -0.411   0.945  0.00  0.00     0.002 A 
ENDROOT
BRANCH   1   7
ATOM      7  C2  UNL d   1       1.942  -0.334   1.805  0.00  0.00     0.056 C 
BRANCH   7   8
ATOM      8  C1  UNL d   1       2.170  -0.705   3.274  0.00  0.00     0.007 C 
ATOM      9  C   UNL d   1       0.924  -1.258   3.954  0.00  0.00     0.009 C 
ENDBRANCH   7   8
ENDBRANCH   1   7
TORSDOF 2
ENDMDL
