MODEL 1
REMARK minimizedAffinity -2.96071005
REMARK minimizedRMSD -1
REMARK  2 active torsions:
REMARK  status: ('A' for Active; 'I' for Inactive)
REMARK    1  A    between atoms: C1_2  and  C2_3 
REMARK    2  A    between atoms: C2_3  and  C3_4 
ROOT
ATOM      1  C3  UNL d   1      -2.861   1.304   3.017  0.00  0.00    -0.075 A 
ATOM      2  C4  UNL d   1      -2.166   0.136   2.671  0.00  0.00     0.002 A 
ATOM      3  C5  UNL d   1      -0.985   0.208   1.931  0.00  0.00     0.002 A 
ATOM      4  C6  UNL d   1      -0.491   1.444   1.520  0.00  0.00    -0.004 A 
ATOM      5  C7  UNL d   1      -1.182   2.610   1.844  0.00  0.00     0.002 A 
ATOM      6  C8  UNL d   1      -2.362   2.541   2.588  0.00  0.00     0.002 A 
ENDROOT
BRANCH   1   7
ATOM      7  C2  UNL d   1      -4.124   1.235   3.842  0.00  0.00     0.056 C 
BRANCH   7   8
ATOM      8  C1  UNL d   1      -4.260   2.365   4.869  0.00  0.00     0.007 C 
ATOM      9  C   UNL d   1      -5.225   2.034   6.000  0.00  0.00     0.009 C 
ENDBRANCH   7   8
ENDBRANCH   1   7
TORSDOF 2
ENDMDL
