MODEL 1
REMARK minimizedAffinity -0.190001249
REMARK minimizedRMSD -1
REMARK  2 active torsions:
REMARK  status: ('A' for Active; 'I' for Inactive)
REMARK    1  A    between atoms: C1_2  and  C2_3 
REMARK    2  A    between atoms: C2_3  and  C3_4 
ROOT
ATOM      1  C3  UNL d   1      -1.347   2.362   2.487  0.00  0.00    -0.075 A 
ATOM      2  C4  UNL d   1      -0.325   2.951   1.729  0.00  0.00     0.002 A 
ATOM      3  C5  UNL d   1       0.613   2.158   1.068  0.00  0.00     0.002 A 
ATOM      4  C6  UNL d   1       0.548   0.770   1.163  0.00  0.00    -0.004 A 
ATOM      5  C7  UNL d   1      -0.453   0.174   1.927  0.00  0.00     0.002 A 
ATOM      6  C8  UNL d   1      -1.396   0.965   2.586  0.00  0.00     0.002 A 
ENDROOT
BRANCH   1   7
ATOM      7  C2  UNL d   1      -2.383   3.213   3.181  0.00  0.00     0.056 C 
BRANCH   7   8
ATOM      8  C1  UNL d   1      -3.625   2.438   3.635  0.00  0.00     0.007 C 
ATOM      9  C   UNL d   1      -4.372   3.116   4.776  0.00  0.00     0.009 C 
ENDBRANCH   7   8
ENDBRANCH   1   7
TORSDOF 2
ENDMDL
