MODEL 1
REMARK minimizedAffinity -5.71739626
REMARK minimizedRMSD -1
REMARK  2 active torsions:
REMARK  status: ('A' for Active; 'I' for Inactive)
REMARK    1  A    between atoms: C1_2  and  C2_3 
REMARK    2  A    between atoms: C2_3  and  C3_4 
ROOT
ATOM      1  C3  UNL d   1      -2.426   0.921   2.591  0.00  0.00    -0.075 A 
ATOM      2  C4  UNL d   1      -1.987  -0.287   2.030  0.00  0.00     0.002 A 
ATOM      3  C5  UNL d   1      -0.797  -0.339   1.303  0.00  0.00     0.002 A 
ATOM      4  C6  UNL d   1      -0.038   0.815   1.119  0.00  0.00    -0.004 A 
ATOM      5  C7  UNL d   1      -0.474   2.024   1.658  0.00  0.00     0.002 A 
ATOM      6  C8  UNL d   1      -1.661   2.078   2.390  0.00  0.00     0.002 A 
ENDROOT
BRANCH   1   7
ATOM      7  C2  UNL d   1      -3.697   0.978   3.404  0.00  0.00     0.056 C 
BRANCH   7   8
ATOM      8  C1  UNL d   1      -3.876   2.280   4.192  0.00  0.00     0.007 C 
ATOM      9  C   UNL d   1      -4.685   2.102   5.470  0.00  0.00     0.009 C 
ENDBRANCH   7   8
ENDBRANCH   1   7
TORSDOF 2
ENDMDL
