MODEL 1
REMARK minimizedAffinity -1.31444132
REMARK minimizedRMSD -1
REMARK  2 active torsions:
REMARK  status: ('A' for Active; 'I' for Inactive)
REMARK    1  A    between atoms: C1_2  and  C2_3 
REMARK    2  A    between atoms: C2_3  and  C3_4 
ROOT
ATOM      1  C3  UNL d   1      -1.348   0.338   2.127  0.00  0.00    -0.075 A 
ATOM      2  C4  UNL d   1      -0.324  -0.230   2.899  0.00  0.00     0.002 A 
ATOM      3  C5  UNL d   1       0.965   0.304   2.870  0.00  0.00     0.002 A 
ATOM      4  C6  UNL d   1       1.248   1.404   2.063  0.00  0.00    -0.004 A 
ATOM      5  C7  UNL d   1       0.242   1.966   1.280  0.00  0.00     0.002 A 
ATOM      6  C8  UNL d   1      -1.049   1.437   1.310  0.00  0.00     0.002 A 
ENDROOT
BRANCH   1   7
ATOM      7  C2  UNL d   1      -2.751  -0.217   2.177  0.00  0.00     0.056 C 
BRANCH   7   8
ATOM      8  C1  UNL d   1      -3.479   0.043   3.500  0.00  0.00     0.007 C 
ATOM      9  C   UNL d   1      -4.391   1.262   3.455  0.00  0.00     0.009 C 
ENDBRANCH   7   8
ENDBRANCH   1   7
TORSDOF 2
ENDMDL
