MODEL 1
REMARK minimizedAffinity 0.869322658
REMARK minimizedRMSD -1
REMARK  2 active torsions:
REMARK  status: ('A' for Active; 'I' for Inactive)
REMARK    1  A    between atoms: C1_2  and  C2_3 
REMARK    2  A    between atoms: C2_3  and  C3_4 
ROOT
ATOM      1  C3  UNL d   1       0.733   0.796   1.633  0.00  0.00    -0.075 A 
ATOM      2  C4  UNL d   1       1.004   1.850   0.749  0.00  0.00     0.002 A 
ATOM      3  C5  UNL d   1       0.059   2.854   0.532  0.00  0.00     0.002 A 
ATOM      4  C6  UNL d   1      -1.169   2.811   1.189  0.00  0.00    -0.004 A 
ATOM      5  C7  UNL d   1      -1.455   1.760   2.057  0.00  0.00     0.002 A 
ATOM      6  C8  UNL d   1      -0.510   0.757   2.279  0.00  0.00     0.002 A 
ENDROOT
BRANCH   1   7
ATOM      7  C2  UNL d   1       1.763  -0.277   1.894  0.00  0.00     0.056 C 
BRANCH   7   8
ATOM      8  C1  UNL d   1       2.673  -0.573   0.697  0.00  0.00     0.007 C 
ATOM      9  C   UNL d   1       4.117  -0.847   1.094  0.00  0.00     0.009 C 
ENDBRANCH   7   8
ENDBRANCH   1   7
TORSDOF 2
ENDMDL
