MODEL 1
REMARK minimizedAffinity 0.824335754
REMARK minimizedRMSD -1
REMARK  2 active torsions:
REMARK  status: ('A' for Active; 'I' for Inactive)
REMARK    1  A    between atoms: C1_2  and  C2_3 
REMARK    2  A    between atoms: C2_3  and  C3_4 
ROOT
ATOM      1  C3  UNL d   1      -0.323   0.154   2.314  0.00  0.00    -0.075 A 
ATOM      2  C4  UNL d   1      -1.662  -0.202   2.098  0.00  0.00     0.002 A 
ATOM      3  C5  UNL d   1      -2.245  -1.240   2.826  0.00  0.00     0.002 A 
ATOM      4  C6  UNL d   1      -1.496  -1.940   3.769  0.00  0.00    -0.004 A 
ATOM      5  C7  UNL d   1      -0.160  -1.605   3.980  0.00  0.00     0.002 A 
ATOM      6  C8  UNL d   1       0.424  -0.565   3.256  0.00  0.00     0.002 A 
ENDROOT
BRANCH   1   7
ATOM      7  C2  UNL d   1       0.306   1.296   1.551  0.00  0.00     0.056 C 
BRANCH   7   8
ATOM      8  C1  UNL d   1       1.080   0.860   0.303  0.00  0.00     0.007 C 
ATOM      9  C   UNL d   1       2.234  -0.084   0.612  0.00  0.00     0.009 C 
ENDBRANCH   7   8
ENDBRANCH   1   7
TORSDOF 2
ENDMDL
