MODEL 1
REMARK minimizedAffinity -2.12396836
REMARK minimizedRMSD -1
REMARK  2 active torsions:
REMARK  status: ('A' for Active; 'I' for Inactive)
REMARK    1  A    between atoms: C1_2  and  C2_3 
REMARK    2  A    between atoms: C2_3  and  C3_4 
ROOT
ATOM      1  C3  UNL d   1      -3.567   1.244   3.877  0.00  0.00    -0.075 A 
ATOM      2  C4  UNL d   1      -2.517   2.148   3.664  0.00  0.00     0.002 A 
ATOM      3  C5  UNL d   1      -1.365   1.748   2.986  0.00  0.00     0.002 A 
ATOM      4  C6  UNL d   1      -1.244   0.440   2.523  0.00  0.00    -0.004 A 
ATOM      5  C7  UNL d   1      -2.274  -0.472   2.745  0.00  0.00     0.002 A 
ATOM      6  C8  UNL d   1      -3.430  -0.073   3.419  0.00  0.00     0.002 A 
ENDROOT
BRANCH   1   7
ATOM      7  C2  UNL d   1      -4.829   1.678   4.584  0.00  0.00     0.056 C 
BRANCH   7   8
ATOM      8  C1  UNL d   1      -4.581   2.502   5.852  0.00  0.00     0.007 C 
ATOM      9  C   UNL d   1      -5.518   3.696   5.984  0.00  0.00     0.009 C 
ENDBRANCH   7   8
ENDBRANCH   1   7
TORSDOF 2
ENDMDL
