MODEL 1
REMARK minimizedAffinity -2.77653933
REMARK minimizedRMSD -1
REMARK  2 active torsions:
REMARK  status: ('A' for Active; 'I' for Inactive)
REMARK    1  A    between atoms: C1_2  and  C2_3 
REMARK    2  A    between atoms: C2_3  and  C3_4 
ROOT
ATOM      1  C3  UNL d   1      -2.242   1.274   2.695  0.00  0.00    -0.075 A 
ATOM      2  C4  UNL d   1      -1.768   2.575   2.478  0.00  0.00     0.002 A 
ATOM      3  C5  UNL d   1      -0.660   2.798   1.660  0.00  0.00     0.002 A 
ATOM      4  C6  UNL d   1      -0.008   1.725   1.057  0.00  0.00    -0.004 A 
ATOM      5  C7  UNL d   1      -0.461   0.426   1.279  0.00  0.00     0.002 A 
ATOM      6  C8  UNL d   1      -1.571   0.200   2.094  0.00  0.00     0.002 A 
ENDROOT
BRANCH   1   7
ATOM      7  C2  UNL d   1      -3.458   1.028   3.556  0.00  0.00     0.056 C 
BRANCH   7   8
ATOM      8  C1  UNL d   1      -3.924   2.258   4.343  0.00  0.00     0.007 C 
ATOM      9  C   UNL d   1      -4.503   1.913   5.708  0.00  0.00     0.009 C 
ENDBRANCH   7   8
ENDBRANCH   1   7
TORSDOF 2
ENDMDL
