MODEL 1
REMARK minimizedAffinity -1.38815987
REMARK minimizedRMSD -1
REMARK  2 active torsions:
REMARK  status: ('A' for Active; 'I' for Inactive)
REMARK    1  A    between atoms: C1_2  and  C2_3 
REMARK    2  A    between atoms: C2_3  and  C3_4 
ROOT
ATOM      1  C3  UNL d   1      -1.724   1.374   2.499  0.00  0.00    -0.075 A 
ATOM      2  C4  UNL d   1      -1.728   2.607   1.831  0.00  0.00     0.002 A 
ATOM      3  C5  UNL d   1      -0.696   2.941   0.954  0.00  0.00     0.002 A 
ATOM      4  C6  UNL d   1       0.357   2.054   0.742  0.00  0.00    -0.004 A 
ATOM      5  C7  UNL d   1       0.379   0.833   1.413  0.00  0.00     0.002 A 
ATOM      6  C8  UNL d   1      -0.654   0.494   2.288  0.00  0.00     0.002 A 
ENDROOT
BRANCH   1   7
ATOM      7  C2  UNL d   1      -2.853   0.995   3.427  0.00  0.00     0.056 C 
BRANCH   7   8
ATOM      8  C1  UNL d   1      -3.826   2.140   3.727  0.00  0.00     0.007 C 
ATOM      9  C   UNL d   1      -4.368   2.109   5.150  0.00  0.00     0.009 C 
ENDBRANCH   7   8
ENDBRANCH   1   7
TORSDOF 2
ENDMDL
