MODEL 1
REMARK minimizedAffinity -1.24813509
REMARK minimizedRMSD -1
REMARK  2 active torsions:
REMARK  status: ('A' for Active; 'I' for Inactive)
REMARK    1  A    between atoms: C1_2  and  C2_3 
REMARK    2  A    between atoms: C2_3  and  C3_4 
ROOT
ATOM      1  C3  UNL d   1      -2.276   0.969   2.796  0.00  0.00    -0.075 A 
ATOM      2  C4  UNL d   1      -1.767  -0.178   2.171  0.00  0.00     0.002 A 
ATOM      3  C5  UNL d   1      -0.571  -0.124   1.455  0.00  0.00     0.002 A 
ATOM      4  C6  UNL d   1       0.124   1.078   1.345  0.00  0.00    -0.004 A 
ATOM      5  C7  UNL d   1      -0.381   2.229   1.947  0.00  0.00     0.002 A 
ATOM      6  C8  UNL d   1      -1.575   2.176   2.669  0.00  0.00     0.002 A 
ENDROOT
BRANCH   1   7
ATOM      7  C2  UNL d   1      -3.555   0.910   3.597  0.00  0.00     0.056 C 
BRANCH   7   8
ATOM      8  C1  UNL d   1      -4.040   2.275   4.099  0.00  0.00     0.007 C 
ATOM      9  C   UNL d   1      -4.556   2.239   5.531  0.00  0.00     0.009 C 
ENDBRANCH   7   8
ENDBRANCH   1   7
TORSDOF 2
ENDMDL
