MODEL 1
REMARK minimizedAffinity -3.59927559
REMARK minimizedRMSD -1
REMARK  2 active torsions:
REMARK  status: ('A' for Active; 'I' for Inactive)
REMARK    1  A    between atoms: C1_2  and  C2_3 
REMARK    2  A    between atoms: C2_3  and  C3_4 
ROOT
ATOM      1  C3  UNL d   1      -1.423   1.464   2.273  0.00  0.00    -0.075 A 
ATOM      2  C4  UNL d   1      -0.139   1.935   1.965  0.00  0.00     0.002 A 
ATOM      3  C5  UNL d   1       0.793   1.101   1.346  0.00  0.00     0.002 A 
ATOM      4  C6  UNL d   1       0.457  -0.215   1.038  0.00  0.00    -0.004 A 
ATOM      5  C7  UNL d   1      -0.811  -0.699   1.354  0.00  0.00     0.002 A 
ATOM      6  C8  UNL d   1      -1.747   0.135   1.969  0.00  0.00     0.002 A 
ENDROOT
BRANCH   1   7
ATOM      7  C2  UNL d   1      -2.446   2.371   2.915  0.00  0.00     0.056 C 
BRANCH   7   8
ATOM      8  C1  UNL d   1      -3.619   1.628   3.562  0.00  0.00     0.007 C 
ATOM      9  C   UNL d   1      -4.374   2.470   4.581  0.00  0.00     0.009 C 
ENDBRANCH   7   8
ENDBRANCH   1   7
TORSDOF 2
ENDMDL
