MODEL 1
REMARK minimizedAffinity 1.41525722
REMARK minimizedRMSD -1
REMARK  2 active torsions:
REMARK  status: ('A' for Active; 'I' for Inactive)
REMARK    1  A    between atoms: C1_2  and  C2_3 
REMARK    2  A    between atoms: C2_3  and  C3_4 
ROOT
ATOM      1  C3  UNL d   1      -3.641   1.586   3.851  0.00  0.00    -0.075 A 
ATOM      2  C4  UNL d   1      -3.357   0.277   3.437  0.00  0.00     0.002 A 
ATOM      3  C5  UNL d   1      -2.245   0.013   2.636  0.00  0.00     0.002 A 
ATOM      4  C6  UNL d   1      -1.412   1.053   2.231  0.00  0.00    -0.004 A 
ATOM      5  C7  UNL d   1      -1.694   2.360   2.623  0.00  0.00     0.002 A 
ATOM      6  C8  UNL d   1      -2.803   2.627   3.428  0.00  0.00     0.002 A 
ENDROOT
BRANCH   1   7
ATOM      7  C2  UNL d   1      -4.826   1.875   4.742  0.00  0.00     0.056 C 
BRANCH   7   8
ATOM      8  C1  UNL d   1      -4.490   2.729   5.969  0.00  0.00     0.007 C 
ATOM      9  C   UNL d   1      -5.237   4.056   6.000  0.00  0.00     0.009 C 
ENDBRANCH   7   8
ENDBRANCH   1   7
TORSDOF 2
ENDMDL
