MODEL 1
REMARK minimizedAffinity 1.57768059
REMARK minimizedRMSD -1
REMARK  2 active torsions:
REMARK  status: ('A' for Active; 'I' for Inactive)
REMARK    1  A    between atoms: C1_2  and  C2_3 
REMARK    2  A    between atoms: C2_3  and  C3_4 
ROOT
ATOM      1  C3  UNL d   1      -3.119  -3.898  -1.683  0.00  0.00    -0.075 A 
ATOM      2  C4  UNL d   1      -3.499  -2.899  -0.775  0.00  0.00     0.002 A 
ATOM      3  C5  UNL d   1      -3.537  -1.561  -1.169  0.00  0.00     0.002 A 
ATOM      4  C6  UNL d   1      -3.186  -1.205  -2.469  0.00  0.00    -0.004 A 
ATOM      5  C7  UNL d   1      -2.790  -2.187  -3.375  0.00  0.00     0.002 A 
ATOM      6  C8  UNL d   1      -2.756  -3.527  -2.984  0.00  0.00     0.002 A 
ENDROOT
BRANCH   1   7
ATOM      7  C2  UNL d   1      -3.105  -5.351  -1.271  0.00  0.00     0.056 C 
BRANCH   7   8
ATOM      8  C1  UNL d   1      -1.822  -5.783  -0.552  0.00  0.00     0.007 C 
ATOM      9  C   UNL d   1      -0.823  -4.648  -0.373  0.00  0.00     0.009 C 
ENDBRANCH   7   8
ENDBRANCH   1   7
TORSDOF 2
ENDMDL
