MODEL 1
REMARK minimizedAffinity -4.74375725
REMARK minimizedRMSD -1
REMARK  0 active torsions:
REMARK  status: ('A' for Active; 'I' for Inactive)
ROOT
ATOM      1  C1  BNZ d   1      -0.100  -1.226   0.374  0.00  0.00     0.000 A 
ATOM      2  C2  BNZ d   1      -0.697  -0.362   1.253  0.00  0.00     0.000 A 
ATOM      3  C3  BNZ d   1      -0.220   0.908   1.419  0.00  0.00     0.000 A 
ATOM      4  C4  BNZ d   1       0.875   1.300   0.736  0.00  0.00     0.000 A 
ATOM      5  C5  BNZ d   1       1.493   0.438  -0.147  0.00  0.00     0.000 A 
ATOM      6  C6  BNZ d   1       0.988  -0.827  -0.341  0.00  0.00     0.000 A 
ENDROOT
TORSDOF 0
ENDMDL
