MODEL 1
REMARK minimizedAffinity -3.36971021
REMARK minimizedRMSD -1
REMARK  0 active torsions:
REMARK  status: ('A' for Active; 'I' for Inactive)
ROOT
ATOM      1  C1  BNZ d   1       2.062   0.253  -0.615  0.00  0.00     0.000 A 
ATOM      2  C2  BNZ d   1       1.306  -0.873  -0.805  0.00  0.00     0.000 A 
ATOM      3  C3  BNZ d   1      -0.022  -0.887  -0.479  0.00  0.00     0.000 A 
ATOM      4  C4  BNZ d   1      -0.581   0.209   0.073  0.00  0.00     0.000 A 
ATOM      5  C5  BNZ d   1       0.171   1.349   0.279  0.00  0.00     0.000 A 
ATOM      6  C6  BNZ d   1       1.498   1.372  -0.086  0.00  0.00     0.000 A 
ENDROOT
TORSDOF 0
ENDMDL
