MODEL 1
REMARK minimizedAffinity -2.04154015
REMARK minimizedRMSD -1
REMARK  0 active torsions:
REMARK  status: ('A' for Active; 'I' for Inactive)
ROOT
ATOM      1  C1  BNZ d   1       1.250   0.417  -0.185  0.00  0.00     0.000 A 
ATOM      2  C2  BNZ d   1       1.361   1.420   0.742  0.00  0.00     0.000 A 
ATOM      3  C3  BNZ d   1       0.296   1.769   1.525  0.00  0.00     0.000 A 
ATOM      4  C4  BNZ d   1      -0.886   1.144   1.354  0.00  0.00     0.000 A 
ATOM      5  C5  BNZ d   1      -1.016   0.138   0.417  0.00  0.00     0.000 A 
ATOM      6  C6  BNZ d   1       0.068  -0.237  -0.342  0.00  0.00     0.000 A 
ENDROOT
TORSDOF 0
ENDMDL
