MODEL 1
REMARK minimizedAffinity -2.7043786
REMARK minimizedRMSD -1
REMARK  0 active torsions:
REMARK  status: ('A' for Active; 'I' for Inactive)
ROOT
ATOM      1  C1  BNZ d   1       1.433   0.631   0.015  0.00  0.00     0.000 A 
ATOM      2  C2  BNZ d   1       1.443   1.548   1.032  0.00  0.00     0.000 A 
ATOM      3  C3  BNZ d   1       0.284   1.910   1.659  0.00  0.00     0.000 A 
ATOM      4  C4  BNZ d   1      -0.887   1.387   1.243  0.00  0.00     0.000 A 
ATOM      5  C5  BNZ d   1      -0.914   0.468   0.212  0.00  0.00     0.000 A 
ATOM      6  C6  BNZ d   1       0.259   0.076  -0.391  0.00  0.00     0.000 A 
ENDROOT
TORSDOF 0
ENDMDL
