MODEL 1
REMARK minimizedAffinity -4.33443928
REMARK minimizedRMSD -1
REMARK  0 active torsions:
REMARK  status: ('A' for Active; 'I' for Inactive)
ROOT
ATOM      1  C1  BNZ d   1       1.159   1.507  -0.029  0.00  0.00     0.000 A 
ATOM      2  C2  BNZ d   1       0.685   2.103   1.109  0.00  0.00     0.000 A 
ATOM      3  C3  BNZ d   1      -0.308   1.518   1.844  0.00  0.00     0.000 A 
ATOM      4  C4  BNZ d   1      -0.853   0.360   1.420  0.00  0.00     0.000 A 
ATOM      5  C5  BNZ d   1      -0.392  -0.249   0.269  0.00  0.00     0.000 A 
ATOM      6  C6  BNZ d   1       0.634   0.323  -0.447  0.00  0.00     0.000 A 
ENDROOT
TORSDOF 0
ENDMDL
