MODEL 1
REMARK minimizedAffinity -3.85327053
REMARK minimizedRMSD -1
REMARK  0 active torsions:
REMARK  status: ('A' for Active; 'I' for Inactive)
ROOT
ATOM      1  C1  BNZ d   1      -0.621   0.172   1.716  0.00  0.00     0.000 A 
ATOM      2  C2  BNZ d   1       0.136   1.106   2.371  0.00  0.00     0.000 A 
ATOM      3  C3  BNZ d   1       1.048   1.867   1.695  0.00  0.00     0.000 A 
ATOM      4  C4  BNZ d   1       1.230   1.666   0.374  0.00  0.00     0.000 A 
ATOM      5  C5  BNZ d   1       0.481   0.722  -0.299  0.00  0.00     0.000 A 
ATOM      6  C6  BNZ d   1      -0.463  -0.016   0.377  0.00  0.00     0.000 A 
ENDROOT
TORSDOF 0
ENDMDL
