MODEL 1
REMARK minimizedAffinity -4.68019056
REMARK minimizedRMSD -1
REMARK  0 active torsions:
REMARK  status: ('A' for Active; 'I' for Inactive)
ROOT
ATOM      1  C1  BNZ d   1      -0.696  -0.178   0.412  0.00  0.00     0.000 A 
ATOM      2  C2  BNZ d   1      -1.105   0.711   1.370  0.00  0.00     0.000 A 
ATOM      3  C3  BNZ d   1      -0.335   1.792   1.696  0.00  0.00     0.000 A 
ATOM      4  C4  BNZ d   1       0.860   1.961   1.093  0.00  0.00     0.000 A 
ATOM      5  C5  BNZ d   1       1.291   1.069   0.132  0.00  0.00     0.000 A 
ATOM      6  C6  BNZ d   1       0.495   0.003  -0.221  0.00  0.00     0.000 A 
ENDROOT
TORSDOF 0
ENDMDL
