MODEL 1
REMARK minimizedAffinity -4.13165808
REMARK minimizedRMSD -1
REMARK  0 active torsions:
REMARK  status: ('A' for Active; 'I' for Inactive)
ROOT
ATOM      1  C1  BNZ d   1       0.915   2.257  -0.429  0.00  0.00     0.000 A 
ATOM      2  C2  BNZ d   1       0.400   0.998  -0.587  0.00  0.00     0.000 A 
ATOM      3  C3  BNZ d   1      -0.158   0.333   0.469  0.00  0.00     0.000 A 
ATOM      4  C4  BNZ d   1      -0.163   0.911   1.688  0.00  0.00     0.000 A 
ATOM      5  C5  BNZ d   1       0.361   2.176   1.865  0.00  0.00     0.000 A 
ATOM      6  C6  BNZ d   1       0.886   2.858   0.791  0.00  0.00     0.000 A 
ENDROOT
TORSDOF 0
ENDMDL
