MODEL 1
REMARK minimizedAffinity -4.67244148
REMARK minimizedRMSD -1
REMARK  0 active torsions:
REMARK  status: ('A' for Active; 'I' for Inactive)
ROOT
ATOM      1  C1  BNZ d   1      -0.878   0.020   1.134  0.00  0.00     0.000 A 
ATOM      2  C2  BNZ d   1      -0.574  -0.899   0.165  0.00  0.00     0.000 A 
ATOM      3  C3  BNZ d   1       0.546  -0.759  -0.606  0.00  0.00     0.000 A 
ATOM      4  C4  BNZ d   1       1.337   0.320  -0.436  0.00  0.00     0.000 A 
ATOM      5  C5  BNZ d   1       1.040   1.260   0.531  0.00  0.00     0.000 A 
ATOM      6  C6  BNZ d   1      -0.067   1.095   1.332  0.00  0.00     0.000 A 
ENDROOT
TORSDOF 0
ENDMDL
