MODEL 1
REMARK minimizedAffinity -4.03533363
REMARK minimizedRMSD -1
REMARK  0 active torsions:
REMARK  status: ('A' for Active; 'I' for Inactive)
ROOT
ATOM      1  C1  BNZ d   1       1.585   1.949   0.077  0.00  0.00     0.000 A 
ATOM      2  C2  BNZ d   1       0.941   0.803  -0.309  0.00  0.00     0.000 A 
ATOM      3  C3  BNZ d   1      -0.011   0.232   0.488  0.00  0.00     0.000 A 
ATOM      4  C4  BNZ d   1      -0.290   0.784   1.687  0.00  0.00     0.000 A 
ATOM      5  C5  BNZ d   1       0.356   1.934   2.095  0.00  0.00     0.000 A 
ATOM      6  C6  BNZ d   1       1.287   2.527   1.272  0.00  0.00     0.000 A 
ENDROOT
TORSDOF 0
ENDMDL
