MODEL 1
REMARK minimizedAffinity -4.87689161
REMARK minimizedRMSD -1
REMARK  0 active torsions:
REMARK  status: ('A' for Active; 'I' for Inactive)
ROOT
ATOM      1  C1  BNZ d   1      -1.136   0.831   1.713  0.00  0.00     0.000 A 
ATOM      2  C2  BNZ d   1      -0.707   0.327   0.515  0.00  0.00     0.000 A 
ATOM      3  C3  BNZ d   1       0.323   0.918  -0.164  0.00  0.00     0.000 A 
ATOM      4  C4  BNZ d   1       0.894   2.032   0.337  0.00  0.00     0.000 A 
ATOM      5  C5  BNZ d   1       0.465   2.558   1.540  0.00  0.00     0.000 A 
ATOM      6  C6  BNZ d   1      -0.545   1.938   2.239  0.00  0.00     0.000 A 
ENDROOT
TORSDOF 0
ENDMDL
