MODEL 1
REMARK minimizedAffinity -3.0504415
REMARK minimizedRMSD -1
REMARK  0 active torsions:
REMARK  status: ('A' for Active; 'I' for Inactive)
ROOT
ATOM      1  C1  BNZ d   1       1.471   1.098  -0.105  0.00  0.00     0.000 A 
ATOM      2  C2  BNZ d   1       0.120   0.964   0.071  0.00  0.00     0.000 A 
ATOM      3  C3  BNZ d   1      -0.488  -0.251  -0.077  0.00  0.00     0.000 A 
ATOM      4  C4  BNZ d   1       0.248  -1.321  -0.438  0.00  0.00     0.000 A 
ATOM      5  C5  BNZ d   1       1.610  -1.201  -0.628  0.00  0.00     0.000 A 
ATOM      6  C6  BNZ d   1       2.225   0.016  -0.441  0.00  0.00     0.000 A 
ENDROOT
TORSDOF 0
ENDMDL
