MODEL 1
REMARK minimizedAffinity -4.44468069
REMARK minimizedRMSD -1
REMARK  0 active torsions:
REMARK  status: ('A' for Active; 'I' for Inactive)
ROOT
ATOM      1  C1  BNZ d   1       0.895   0.585  -0.302  0.00  0.00     0.000 A 
ATOM      2  C2  BNZ d   1       1.358   1.830   0.032  0.00  0.00     0.000 A 
ATOM      3  C3  BNZ d   1       0.728   2.577   0.987  0.00  0.00     0.000 A 
ATOM      4  C4  BNZ d   1      -0.386   2.098   1.577  0.00  0.00     0.000 A 
ATOM      5  C5  BNZ d   1      -0.871   0.848   1.243  0.00  0.00     0.000 A 
ATOM      6  C6  BNZ d   1      -0.211   0.082   0.310  0.00  0.00     0.000 A 
ENDROOT
TORSDOF 0
ENDMDL
