MODEL 1
REMARK minimizedAffinity -4.12751579
REMARK minimizedRMSD -1
REMARK  0 active torsions:
REMARK  status: ('A' for Active; 'I' for Inactive)
ROOT
ATOM      1  C1  BNZ d   1       0.277   2.260   0.938  0.00  0.00     0.000 A 
ATOM      2  C2  BNZ d   1      -0.821   1.487   0.671  0.00  0.00     0.000 A 
ATOM      3  C3  BNZ d   1      -0.681   0.197   0.241  0.00  0.00     0.000 A 
ATOM      4  C4  BNZ d   1       0.555  -0.304   0.039  0.00  0.00     0.000 A 
ATOM      5  C5  BNZ d   1       1.672   0.466   0.295  0.00  0.00     0.000 A 
ATOM      6  C6  BNZ d   1       1.527   1.751   0.765  0.00  0.00     0.000 A 
ENDROOT
TORSDOF 0
ENDMDL
