MODEL 1
REMARK minimizedAffinity -4.20138931
REMARK minimizedRMSD -1
REMARK  0 active torsions:
REMARK  status: ('A' for Active; 'I' for Inactive)
ROOT
ATOM      1  C1  BNZ d   1       0.020   1.879   1.879  0.00  0.00     0.000 A 
ATOM      2  C2  BNZ d   1      -0.813   0.873   1.468  0.00  0.00     0.000 A 
ATOM      3  C3  BNZ d   1      -0.531   0.144   0.347  0.00  0.00     0.000 A 
ATOM      4  C4  BNZ d   1       0.561   0.447  -0.384  0.00  0.00     0.000 A 
ATOM      5  C5  BNZ d   1       1.406   1.465   0.012  0.00  0.00     0.000 A 
ATOM      6  C6  BNZ d   1       1.140   2.171   1.162  0.00  0.00     0.000 A 
ENDROOT
TORSDOF 0
ENDMDL
