MODEL 1
REMARK minimizedAffinity -5.29927778
REMARK minimizedRMSD -1
REMARK  0 active torsions:
REMARK  status: ('A' for Active; 'I' for Inactive)
ROOT
ATOM      1  C1  BNZ d   1       1.267   2.137   1.133  0.00  0.00     0.000 A 
ATOM      2  C2  BNZ d   1       0.055   1.881   1.716  0.00  0.00     0.000 A 
ATOM      3  C3  BNZ d   1      -0.708   0.822   1.309  0.00  0.00     0.000 A 
ATOM      4  C4  BNZ d   1      -0.276   0.046   0.294  0.00  0.00     0.000 A 
ATOM      5  C5  BNZ d   1       0.939   0.297  -0.311  0.00  0.00     0.000 A 
ATOM      6  C6  BNZ d   1       1.722   1.341   0.128  0.00  0.00     0.000 A 
ENDROOT
TORSDOF 0
ENDMDL
