MODEL 1
REMARK minimizedAffinity -5.52623463
REMARK minimizedRMSD -1
REMARK  0 active torsions:
REMARK  status: ('A' for Active; 'I' for Inactive)
ROOT
ATOM      1  C1  BNZ d   1       2.224   2.941   1.468  0.00  0.00     0.000 A 
ATOM      2  C2  BNZ d   1       3.023   2.139   0.697  0.00  0.00     0.000 A 
ATOM      3  C3  BNZ d   1       2.489   1.113  -0.032  0.00  0.00     0.000 A 
ATOM      4  C4  BNZ d   1       1.165   0.867   0.041  0.00  0.00     0.000 A 
ATOM      5  C5  BNZ d   1       0.348   1.661   0.820  0.00  0.00     0.000 A 
ATOM      6  C6  BNZ d   1       0.883   2.716   1.523  0.00  0.00     0.000 A 
ENDROOT
TORSDOF 0
ENDMDL
