MODEL 1
REMARK minimizedAffinity 5.01087999
REMARK minimizedRMSD -1
REMARK  0 active torsions:
REMARK  status: ('A' for Active; 'I' for Inactive)
ROOT
ATOM      1  C   UNL d   1      -1.611  -0.453  -5.774  0.00  0.00     0.023 A 
ATOM      2  C1  UNL d   1      -0.952  -1.673  -5.934  0.00  0.00     0.003 A 
ATOM      3  C2  UNL d   1      -1.685  -2.860  -5.999  0.00  0.00     0.048 A 
ATOM      4  C3  UNL d   1      -3.076  -2.820  -5.904  0.00  0.00     0.023 A 
ATOM      5  C4  UNL d   1      -3.739  -1.602  -5.745  0.00  0.00     0.048 A 
ATOM      6  C5  UNL d   1      -3.002  -0.418  -5.680  0.00  0.00     0.003 A 
ATOM      7  I   UNL d   1      -4.168  -4.586  -6.000  0.00  0.00    -0.146 I 
ENDROOT
TORSDOF 0
ENDMDL
