MODEL 1
REMARK minimizedAffinity 4.6349864
REMARK minimizedRMSD -1
REMARK  0 active torsions:
REMARK  status: ('A' for Active; 'I' for Inactive)
ROOT
ATOM      1  C   UNL d   1      -5.851   2.384   5.921  0.00  0.00     0.023 A 
ATOM      2  C1  UNL d   1      -5.801   3.385   4.950  0.00  0.00     0.003 A 
ATOM      3  C2  UNL d   1      -5.086   3.178   3.769  0.00  0.00     0.048 A 
ATOM      4  C3  UNL d   1      -4.425   1.968   3.563  0.00  0.00     0.023 A 
ATOM      5  C4  UNL d   1      -4.473   0.963   4.531  0.00  0.00     0.048 A 
ATOM      6  C5  UNL d   1      -5.188   1.175   5.711  0.00  0.00     0.003 A 
ATOM      7  I   UNL d   1      -3.361   1.658   1.805  0.00  0.00    -0.146 I 
ENDROOT
TORSDOF 0
ENDMDL
