MODEL 1
REMARK minimizedAffinity 6.09592438
REMARK minimizedRMSD -1
REMARK  0 active torsions:
REMARK  status: ('A' for Active; 'I' for Inactive)
ROOT
ATOM      1  C   UNL d   1      -4.518  -3.506  -5.620  0.00  0.00     0.023 A 
ATOM      2  C1  UNL d   1      -3.236  -3.901  -6.000  0.00  0.00     0.003 A 
ATOM      3  C2  UNL d   1      -2.190  -2.976  -5.999  0.00  0.00     0.048 A 
ATOM      4  C3  UNL d   1      -2.432  -1.658  -5.615  0.00  0.00     0.023 A 
ATOM      5  C4  UNL d   1      -3.714  -1.258  -5.233  0.00  0.00     0.048 A 
ATOM      6  C5  UNL d   1      -4.757  -2.186  -5.236  0.00  0.00     0.003 A 
ATOM      7  I   UNL d   1      -0.877  -0.280  -5.613  0.00  0.00    -0.146 I 
ENDROOT
TORSDOF 0
ENDMDL
