MODEL 1
REMARK minimizedAffinity 12.0354252
REMARK minimizedRMSD -1
REMARK  0 active torsions:
REMARK  status: ('A' for Active; 'I' for Inactive)
ROOT
ATOM      1  C   UNL d   1      -3.132  -2.065  -5.999  0.00  0.00     0.023 A 
ATOM      2  C1  UNL d   1      -2.925  -0.740  -5.613  0.00  0.00     0.003 A 
ATOM      3  C2  UNL d   1      -1.653  -0.315  -5.226  0.00  0.00     0.048 A 
ATOM      4  C3  UNL d   1      -0.591  -1.219  -5.229  0.00  0.00     0.023 A 
ATOM      5  C4  UNL d   1      -0.792  -2.545  -5.615  0.00  0.00     0.048 A 
ATOM      6  C5  UNL d   1      -2.067  -2.966  -6.000  0.00  0.00     0.003 A 
ATOM      7  I   UNL d   1       1.304  -0.587  -4.654  0.00  0.00    -0.146 I 
ENDROOT
TORSDOF 0
ENDMDL
