MODEL 1
REMARK minimizedAffinity 1.61896431
REMARK minimizedRMSD -1
REMARK  0 active torsions:
REMARK  status: ('A' for Active; 'I' for Inactive)
ROOT
ATOM      1  C   UNL d   1      -3.576   0.654   1.463  0.00  0.00     0.023 A 
ATOM      2  C1  UNL d   1      -4.072   0.007   2.596  0.00  0.00     0.003 A 
ATOM      3  C2  UNL d   1      -4.749   0.735   3.577  0.00  0.00     0.048 A 
ATOM      4  C3  UNL d   1      -4.927   2.109   3.419  0.00  0.00     0.023 A 
ATOM      5  C4  UNL d   1      -4.433   2.760   2.287  0.00  0.00     0.048 A 
ATOM      6  C5  UNL d   1      -3.757   2.029   1.309  0.00  0.00     0.003 A 
ATOM      7  I   UNL d   1      -5.934   3.194   4.877  0.00  0.00    -0.146 I 
ENDROOT
TORSDOF 0
ENDMDL
