MODEL 1
REMARK minimizedAffinity 6.55277634
REMARK minimizedRMSD -1
REMARK  0 active torsions:
REMARK  status: ('A' for Active; 'I' for Inactive)
ROOT
ATOM      1  C   UNL d   1      -2.993  -2.134  -6.000  0.00  0.00     0.023 A 
ATOM      2  C1  UNL d   1      -2.962  -0.854  -5.446  0.00  0.00     0.003 A 
ATOM      3  C2  UNL d   1      -1.779  -0.362  -4.889  0.00  0.00     0.048 A 
ATOM      4  C3  UNL d   1      -0.632  -1.154  -4.891  0.00  0.00     0.023 A 
ATOM      5  C4  UNL d   1      -0.659  -2.435  -5.446  0.00  0.00     0.048 A 
ATOM      6  C5  UNL d   1      -1.844  -2.923  -6.000  0.00  0.00     0.003 A 
ATOM      7  I   UNL d   1       1.129  -0.424  -4.064  0.00  0.00    -0.146 I 
ENDROOT
TORSDOF 0
ENDMDL
