MODEL 1
REMARK minimizedAffinity 1.84003973
REMARK minimizedRMSD -1
REMARK  0 active torsions:
REMARK  status: ('A' for Active; 'I' for Inactive)
ROOT
ATOM      1  C   UNL d   1      -5.641  -2.358  -5.989  0.00  0.00     0.023 A 
ATOM      2  C1  UNL d   1      -4.629  -3.318  -5.986  0.00  0.00     0.003 A 
ATOM      3  C2  UNL d   1      -3.290  -2.921  -5.989  0.00  0.00     0.048 A 
ATOM      4  C3  UNL d   1      -2.971  -1.564  -5.994  0.00  0.00     0.023 A 
ATOM      5  C4  UNL d   1      -3.981  -0.600  -5.997  0.00  0.00     0.048 A 
ATOM      6  C5  UNL d   1      -5.318  -1.002  -5.995  0.00  0.00     0.003 A 
ATOM      7  I   UNL d   1      -0.978  -0.971  -5.999  0.00  0.00    -0.146 I 
ENDROOT
TORSDOF 0
ENDMDL
