MODEL 1
REMARK minimizedAffinity 3.61028314
REMARK minimizedRMSD -1
REMARK  0 active torsions:
REMARK  status: ('A' for Active; 'I' for Inactive)
ROOT
ATOM      1  C   UNL d   1      -5.464  -2.911  -5.984  0.00  0.00     0.023 A 
ATOM      2  C1  UNL d   1      -4.291  -3.666  -6.000  0.00  0.00     0.003 A 
ATOM      3  C2  UNL d   1      -3.049  -3.028  -5.998  0.00  0.00     0.048 A 
ATOM      4  C3  UNL d   1      -2.987  -1.635  -5.979  0.00  0.00     0.023 A 
ATOM      5  C4  UNL d   1      -4.158  -0.876  -5.962  0.00  0.00     0.048 A 
ATOM      6  C5  UNL d   1      -5.398  -1.518  -5.965  0.00  0.00     0.003 A 
ATOM      7  I   UNL d   1      -1.139  -0.684  -5.975  0.00  0.00    -0.146 I 
ENDROOT
TORSDOF 0
ENDMDL
