MODEL 1
REMARK minimizedAffinity 3.00329828
REMARK minimizedRMSD -1
REMARK  0 active torsions:
REMARK  status: ('A' for Active; 'I' for Inactive)
ROOT
ATOM      1  C   UNL d   1      -5.700   1.213   5.737  0.00  0.00     0.023 A 
ATOM      2  C1  UNL d   1      -5.699   2.155   4.708  0.00  0.00     0.003 A 
ATOM      3  C2  UNL d   1      -5.083   1.859   3.490  0.00  0.00     0.048 A 
ATOM      4  C3  UNL d   1      -4.470   0.620   3.308  0.00  0.00     0.023 A 
ATOM      5  C4  UNL d   1      -4.469  -0.325   4.334  0.00  0.00     0.048 A 
ATOM      6  C5  UNL d   1      -5.085  -0.025   5.551  0.00  0.00     0.003 A 
ATOM      7  I   UNL d   1      -3.552   0.179   1.496  0.00  0.00    -0.146 I 
ENDROOT
TORSDOF 0
ENDMDL
