MODEL 1
REMARK minimizedAffinity 4.49410963
REMARK minimizedRMSD -1
REMARK  0 active torsions:
REMARK  status: ('A' for Active; 'I' for Inactive)
ROOT
ATOM      1  C   UNL d   1      -5.597  -2.655  -5.999  0.00  0.00     0.023 A 
ATOM      2  C1  UNL d   1      -5.420  -1.271  -6.000  0.00  0.00     0.003 A 
ATOM      3  C2  UNL d   1      -4.132  -0.731  -5.999  0.00  0.00     0.048 A 
ATOM      4  C3  UNL d   1      -3.026  -1.580  -5.999  0.00  0.00     0.023 A 
ATOM      5  C4  UNL d   1      -3.198  -2.965  -5.999  0.00  0.00     0.048 A 
ATOM      6  C5  UNL d   1      -4.488  -3.501  -5.999  0.00  0.00     0.003 A 
ATOM      7  I   UNL d   1      -1.109  -0.778  -5.999  0.00  0.00    -0.146 I 
ENDROOT
TORSDOF 0
ENDMDL
