MODEL 1
REMARK minimizedAffinity -0.737060785
REMARK minimizedRMSD -1
REMARK  0 active torsions:
REMARK  status: ('A' for Active; 'I' for Inactive)
ROOT
ATOM      1  C   UNL d   1      -1.490  -1.251  -5.986  0.00  0.00     0.023 A 
ATOM      2  C1  UNL d   1      -1.682  -2.633  -5.997  0.00  0.00     0.003 A 
ATOM      3  C2  UNL d   1      -2.976  -3.159  -6.000  0.00  0.00     0.048 A 
ATOM      4  C3  UNL d   1      -4.073  -2.298  -5.994  0.00  0.00     0.023 A 
ATOM      5  C4  UNL d   1      -3.885  -0.915  -5.984  0.00  0.00     0.048 A 
ATOM      6  C5  UNL d   1      -2.590  -0.394  -5.980  0.00  0.00     0.003 A 
ATOM      7  I   UNL d   1      -5.999  -3.079  -5.999  0.00  0.00    -0.146 I 
ENDROOT
TORSDOF 0
ENDMDL
