MODEL 1
REMARK minimizedAffinity 5.08749104
REMARK minimizedRMSD -1
REMARK  0 active torsions:
REMARK  status: ('A' for Active; 'I' for Inactive)
ROOT
ATOM      1  C   UNL d   1      -3.890  -4.123  -5.939  0.00  0.00     0.023 A 
ATOM      2  C1  UNL d   1      -2.496  -4.162  -5.980  0.00  0.00     0.003 A 
ATOM      3  C2  UNL d   1      -1.763  -2.973  -5.998  0.00  0.00     0.048 A 
ATOM      4  C3  UNL d   1      -2.430  -1.749  -5.973  0.00  0.00     0.023 A 
ATOM      5  C4  UNL d   1      -3.825  -1.705  -5.931  0.00  0.00     0.048 A 
ATOM      6  C5  UNL d   1      -4.553  -2.896  -5.915  0.00  0.00     0.003 A 
ATOM      7  I   UNL d   1      -1.342   0.021  -5.998  0.00  0.00    -0.146 I 
ENDROOT
TORSDOF 0
ENDMDL
