MODEL 1
REMARK minimizedAffinity 7.20458269
REMARK minimizedRMSD -1
REMARK  0 active torsions:
REMARK  status: ('A' for Active; 'I' for Inactive)
ROOT
ATOM      1  C   UNL d   1      -5.627  -2.195  -6.000  0.00  0.00     0.023 A 
ATOM      2  C1  UNL d   1      -4.797  -3.317  -5.998  0.00  0.00     0.003 A 
ATOM      3  C2  UNL d   1      -3.410  -3.160  -5.997  0.00  0.00     0.048 A 
ATOM      4  C3  UNL d   1      -2.859  -1.879  -5.997  0.00  0.00     0.023 A 
ATOM      5  C4  UNL d   1      -3.685  -0.754  -5.998  0.00  0.00     0.048 A 
ATOM      6  C5  UNL d   1      -5.072  -0.916  -6.000  0.00  0.00     0.003 A 
ATOM      7  I   UNL d   1      -0.794  -1.643  -5.996  0.00  0.00    -0.146 I 
ENDROOT
TORSDOF 0
ENDMDL
