MODEL 1
REMARK minimizedAffinity 10.4714651
REMARK minimizedRMSD -1
REMARK  0 active torsions:
REMARK  status: ('A' for Active; 'I' for Inactive)
ROOT
ATOM      1  C   UNL d   1       1.498   0.564  -1.900  0.00  0.00     0.023 A 
ATOM      2  C1  UNL d   1       0.971  -0.011  -3.057  0.00  0.00     0.003 A 
ATOM      3  C2  UNL d   1       1.721  -0.026  -4.235  0.00  0.00     0.048 A 
ATOM      4  C3  UNL d   1       2.997   0.535  -4.248  0.00  0.00     0.023 A 
ATOM      5  C4  UNL d   1       3.529   1.110  -3.093  0.00  0.00     0.048 A 
ATOM      6  C5  UNL d   1       2.775   1.123  -1.918  0.00  0.00     0.003 A 
ATOM      7  I   UNL d   1       4.116   0.514  -6.000  0.00  0.00    -0.146 I 
ENDROOT
TORSDOF 0
ENDMDL
