MODEL 1
REMARK minimizedAffinity 0.610087276
REMARK minimizedRMSD -1
REMARK  0 active torsions:
REMARK  status: ('A' for Active; 'I' for Inactive)
ROOT
ATOM      1  C   UNL d   1      -5.979  -3.046  -5.985  0.00  0.00     0.023 A 
ATOM      2  C1  UNL d   1      -4.837  -3.848  -6.000  0.00  0.00     0.003 A 
ATOM      3  C2  UNL d   1      -3.570  -3.260  -6.000  0.00  0.00     0.048 A 
ATOM      4  C3  UNL d   1      -3.452  -1.871  -5.984  0.00  0.00     0.023 A 
ATOM      5  C4  UNL d   1      -4.592  -1.065  -5.969  0.00  0.00     0.048 A 
ATOM      6  C5  UNL d   1      -5.857  -1.657  -5.970  0.00  0.00     0.003 A 
ATOM      7  I   UNL d   1      -1.568  -0.994  -5.984  0.00  0.00    -0.146 I 
ENDROOT
TORSDOF 0
ENDMDL
