MODEL 1
REMARK minimizedAffinity 10.3340969
REMARK minimizedRMSD -1
REMARK  0 active torsions:
REMARK  status: ('A' for Active; 'I' for Inactive)
ROOT
ATOM      1  C   UNL d   1      -2.429   1.604   1.423  0.00  0.00     0.023 A 
ATOM      2  C1  UNL d   1      -3.707   1.678   0.869  0.00  0.00     0.003 A 
ATOM      3  C2  UNL d   1      -4.465   0.517   0.702  0.00  0.00     0.048 A 
ATOM      4  C3  UNL d   1      -3.939  -0.714   1.092  0.00  0.00     0.023 A 
ATOM      5  C4  UNL d   1      -2.662  -0.793   1.648  0.00  0.00     0.048 A 
ATOM      6  C5  UNL d   1      -1.907   0.370   1.813  0.00  0.00     0.003 A 
ATOM      7  I   UNL d   1      -5.066  -2.443   0.845  0.00  0.00    -0.146 I 
ENDROOT
TORSDOF 0
ENDMDL
