MODEL 1
REMARK minimizedAffinity 1.89961195
REMARK minimizedRMSD -1
REMARK  0 active torsions:
REMARK  status: ('A' for Active; 'I' for Inactive)
ROOT
ATOM      1  C   UNL d   1       5.379  -1.256   3.200  0.00  0.00     0.023 A 
ATOM      2  C1  UNL d   1       5.364  -2.528   2.626  0.00  0.00     0.003 A 
ATOM      3  C2  UNL d   1       5.542  -3.659   3.425  0.00  0.00     0.048 A 
ATOM      4  C3  UNL d   1       5.734  -3.512   4.798  0.00  0.00     0.023 A 
ATOM      5  C4  UNL d   1       5.749  -2.242   5.378  0.00  0.00     0.048 A 
ATOM      6  C5  UNL d   1       5.572  -1.114   4.575  0.00  0.00     0.003 A 
ATOM      7  I   UNL d   1       5.999  -5.194   5.990  0.00  0.00    -0.146 I 
ENDROOT
TORSDOF 0
ENDMDL
