MODEL 1
REMARK minimizedAffinity 2.40082288
REMARK minimizedRMSD -1
REMARK  0 active torsions:
REMARK  status: ('A' for Active; 'I' for Inactive)
ROOT
ATOM      1  C   UNL d   1      -3.121  -1.692  -5.996  0.00  0.00     0.023 A 
ATOM      2  C1  UNL d   1      -1.997  -2.517  -5.945  0.00  0.00     0.003 A 
ATOM      3  C2  UNL d   1      -0.813  -2.052  -5.368  0.00  0.00     0.048 A 
ATOM      4  C3  UNL d   1      -0.761  -0.761  -4.844  0.00  0.00     0.023 A 
ATOM      5  C4  UNL d   1      -1.883   0.068  -4.892  0.00  0.00     0.048 A 
ATOM      6  C5  UNL d   1      -3.064  -0.401  -5.471  0.00  0.00     0.003 A 
ATOM      7  I   UNL d   1       1.000  -0.066  -3.985  0.00  0.00    -0.146 I 
ENDROOT
TORSDOF 0
ENDMDL
