MODEL 1
REMARK minimizedAffinity 9.81534672
REMARK minimizedRMSD -1
REMARK  0 active torsions:
REMARK  status: ('A' for Active; 'I' for Inactive)
ROOT
ATOM      1  C   UNL d   1       5.220  -4.073  -2.278  0.00  0.00     0.020 A 
ATOM      2  C1  UNL d   1       4.916  -5.424  -2.117  0.00  0.00     0.020 A 
ATOM      3  C2  UNL d   1       4.943  -5.999  -0.844  0.00  0.00     0.034 A 
ATOM      4  C3  UNL d   1       5.276  -5.222   0.272  0.00  0.00     0.017 A 
ATOM      5  C4  UNL d   1       5.581  -3.866   0.109  0.00  0.00     0.017 A 
ATOM      6  C5  UNL d   1       5.551  -3.296  -1.168  0.00  0.00     0.034 A 
ATOM      7 Cl   UNL d   1       6.000  -2.844   1.438  0.00  0.00    -0.070 Cl
ATOM      8 Cl1  UNL d   1       5.290  -5.999   1.816  0.00  0.00    -0.070 Cl
ENDROOT
TORSDOF 0
ENDMDL
