MODEL 1
REMARK minimizedAffinity -1.94719517
REMARK minimizedRMSD -1
REMARK  0 active torsions:
REMARK  status: ('A' for Active; 'I' for Inactive)
ROOT
ATOM      1  C   UNL d   1      -1.452   0.199   1.927  0.00  0.00     0.020 A 
ATOM      2  C1  UNL d   1      -1.654   1.561   1.707  0.00  0.00     0.020 A 
ATOM      3  C2  UNL d   1      -0.988   2.206   0.663  0.00  0.00     0.034 A 
ATOM      4  C3  UNL d   1      -0.117   1.489  -0.166  0.00  0.00     0.017 A 
ATOM      5  C4  UNL d   1       0.085   0.122   0.056  0.00  0.00     0.017 A 
ATOM      6  C5  UNL d   1      -0.584  -0.519   1.103  0.00  0.00     0.034 A 
ATOM      7 Cl   UNL d   1       1.144  -0.830  -0.924  0.00  0.00    -0.070 Cl
ATOM      8 Cl1  UNL d   1       0.672   2.350  -1.439  0.00  0.00    -0.070 Cl
ENDROOT
TORSDOF 0
ENDMDL
