MODEL 1
REMARK minimizedAffinity -3.90743089
REMARK minimizedRMSD -1
REMARK  0 active torsions:
REMARK  status: ('A' for Active; 'I' for Inactive)
ROOT
ATOM      1  C   UNL d   1      -1.396   3.566  -0.182  0.00  0.00     0.020 A 
ATOM      2  C1  UNL d   1      -1.069   2.610  -1.144  0.00  0.00     0.020 A 
ATOM      3  C2  UNL d   1      -0.662   1.334  -0.750  0.00  0.00     0.034 A 
ATOM      4  C3  UNL d   1      -0.581   1.009   0.609  0.00  0.00     0.017 A 
ATOM      5  C4  UNL d   1      -0.909   1.969   1.574  0.00  0.00     0.017 A 
ATOM      6  C5  UNL d   1      -1.316   3.245   1.173  0.00  0.00     0.034 A 
ATOM      7 Cl   UNL d   1      -0.834   1.643   3.269  0.00  0.00    -0.070 Cl
ATOM      8 Cl1  UNL d   1      -0.070  -0.588   1.025  0.00  0.00    -0.070 Cl
ENDROOT
TORSDOF 0
ENDMDL
