MODEL 1
REMARK minimizedAffinity -2.71789718
REMARK minimizedRMSD -1
REMARK  0 active torsions:
REMARK  status: ('A' for Active; 'I' for Inactive)
ROOT
ATOM      1  C   UNL d   1       0.919   0.381  -0.955  0.00  0.00     0.020 A 
ATOM      2  C1  UNL d   1       0.249   1.569  -1.242  0.00  0.00     0.020 A 
ATOM      3  C2  UNL d   1      -0.741   2.039  -0.376  0.00  0.00     0.034 A 
ATOM      4  C3  UNL d   1      -1.065   1.320   0.780  0.00  0.00     0.017 A 
ATOM      5  C4  UNL d   1      -0.392   0.127   1.067  0.00  0.00     0.017 A 
ATOM      6  C5  UNL d   1       0.599  -0.339   0.198  0.00  0.00     0.034 A 
ATOM      7 Cl   UNL d   1      -0.735  -0.815   2.475  0.00  0.00    -0.070 Cl
ATOM      8 Cl1  UNL d   1      -2.299   1.961   1.806  0.00  0.00    -0.070 Cl
ENDROOT
TORSDOF 0
ENDMDL
