MODEL 1
REMARK minimizedAffinity -1.08665228
REMARK minimizedRMSD -1
REMARK  0 active torsions:
REMARK  status: ('A' for Active; 'I' for Inactive)
ROOT
ATOM      1  C   UNL d   1       0.399  -0.581   0.969  0.00  0.00     0.020 A 
ATOM      2  C1  UNL d   1      -0.375  -0.296   2.094  0.00  0.00     0.020 A 
ATOM      3  C2  UNL d   1      -1.217   0.817   2.098  0.00  0.00     0.034 A 
ATOM      4  C3  UNL d   1      -1.288   1.651   0.976  0.00  0.00     0.017 A 
ATOM      5  C4  UNL d   1      -0.511   1.365  -0.152  0.00  0.00     0.017 A 
ATOM      6  C5  UNL d   1       0.331   0.248  -0.151  0.00  0.00     0.034 A 
ATOM      7 Cl   UNL d   1      -0.544   2.347  -1.574  0.00  0.00    -0.070 Cl
ATOM      8 Cl1  UNL d   1      -2.351   3.011   1.051  0.00  0.00    -0.070 Cl
ENDROOT
TORSDOF 0
ENDMDL
