MODEL 1
REMARK minimizedAffinity -2.3501904
REMARK minimizedRMSD -1
REMARK  0 active torsions:
REMARK  status: ('A' for Active; 'I' for Inactive)
ROOT
ATOM      1  C   UNL d   1       0.796  -0.805   0.729  0.00  0.00     0.020 A 
ATOM      2  C1  UNL d   1      -0.404  -0.458   1.349  0.00  0.00     0.020 A 
ATOM      3  C2  UNL d   1      -1.153   0.617   0.868  0.00  0.00     0.034 A 
ATOM      4  C3  UNL d   1      -0.704   1.350  -0.237  0.00  0.00     0.017 A 
ATOM      5  C4  UNL d   1       0.500   1.001  -0.859  0.00  0.00     0.017 A 
ATOM      6  C5  UNL d   1       1.247  -0.077  -0.373  0.00  0.00     0.034 A 
ATOM      7 Cl   UNL d   1       1.119   1.858  -2.227  0.00  0.00    -0.070 Cl
ATOM      8 Cl1  UNL d   1      -1.682   2.667  -0.779  0.00  0.00    -0.070 Cl
ENDROOT
TORSDOF 0
ENDMDL
