MODEL 1
REMARK minimizedAffinity -4.92267323
REMARK minimizedRMSD -1
REMARK  0 active torsions:
REMARK  status: ('A' for Active; 'I' for Inactive)
ROOT
ATOM      1  C   UNL d   1      -1.888   3.022  -0.044  0.00  0.00     0.020 A 
ATOM      2  C1  UNL d   1      -2.016   2.609   1.281  0.00  0.00     0.020 A 
ATOM      3  C2  UNL d   1      -1.335   1.475   1.728  0.00  0.00     0.034 A 
ATOM      4  C3  UNL d   1      -0.522   0.750   0.848  0.00  0.00     0.017 A 
ATOM      5  C4  UNL d   1      -0.395   1.166  -0.482  0.00  0.00     0.017 A 
ATOM      6  C5  UNL d   1      -1.079   2.302  -0.924  0.00  0.00     0.034 A 
ATOM      7 Cl   UNL d   1       0.589   0.323  -1.626  0.00  0.00    -0.070 Cl
ATOM      8 Cl1  UNL d   1       0.291  -0.642   1.468  0.00  0.00    -0.070 Cl
ENDROOT
TORSDOF 0
ENDMDL
