MODEL 1
REMARK minimizedAffinity -2.97905231
REMARK minimizedRMSD -1
REMARK  0 active torsions:
REMARK  status: ('A' for Active; 'I' for Inactive)
ROOT
ATOM      1  C   UNL d   1      -1.127   1.081   1.860  0.00  0.00     0.020 A 
ATOM      2  C1  UNL d   1      -0.847   2.390   1.469  0.00  0.00     0.020 A 
ATOM      3  C2  UNL d   1      -0.077   2.629   0.330  0.00  0.00     0.034 A 
ATOM      4  C3  UNL d   1       0.417   1.558  -0.423  0.00  0.00     0.017 A 
ATOM      5  C4  UNL d   1       0.136   0.244  -0.031  0.00  0.00     0.017 A 
ATOM      6  C5  UNL d   1      -0.636   0.011   1.111  0.00  0.00     0.034 A 
ATOM      7 Cl   UNL d   1       0.710  -1.129  -0.909  0.00  0.00    -0.070 Cl
ATOM      8 Cl1  UNL d   1       1.363   1.927  -1.821  0.00  0.00    -0.070 Cl
ENDROOT
TORSDOF 0
ENDMDL
