MODEL 1
REMARK minimizedAffinity -1.6360575
REMARK minimizedRMSD -1
REMARK  0 active torsions:
REMARK  status: ('A' for Active; 'I' for Inactive)
ROOT
ATOM      1  C   UNL d   1       0.495  -3.208  -2.784  0.00  0.00     0.020 A 
ATOM      2  C1  UNL d   1      -0.711  -3.206  -2.085  0.00  0.00     0.020 A 
ATOM      3  C2  UNL d   1      -0.925  -2.278  -1.063  0.00  0.00     0.034 A 
ATOM      4  C3  UNL d   1       0.069  -1.348  -0.738  0.00  0.00     0.017 A 
ATOM      5  C4  UNL d   1       1.280  -1.351  -1.440  0.00  0.00     0.017 A 
ATOM      6  C5  UNL d   1       1.489  -2.282  -2.462  0.00  0.00     0.034 A 
ATOM      7 Cl   UNL d   1       2.553  -0.234  -1.096  0.00  0.00    -0.070 Cl
ATOM      8 Cl1  UNL d   1      -0.264  -0.229   0.536  0.00  0.00    -0.070 Cl
ENDROOT
TORSDOF 0
ENDMDL
