MODEL 1
REMARK minimizedAffinity -4.68387651
REMARK minimizedRMSD -1
REMARK  0 active torsions:
REMARK  status: ('A' for Active; 'I' for Inactive)
ROOT
ATOM      1  C   UNL d   1      -1.251   2.895  -0.040  0.00  0.00     0.020 A 
ATOM      2  C1  UNL d   1      -1.680   2.727   1.276  0.00  0.00     0.020 A 
ATOM      3  C2  UNL d   1      -1.431   1.526   1.943  0.00  0.00     0.034 A 
ATOM      4  C3  UNL d   1      -0.751   0.489   1.296  0.00  0.00     0.017 A 
ATOM      5  C4  UNL d   1      -0.320   0.658  -0.025  0.00  0.00     0.017 A 
ATOM      6  C5  UNL d   1      -0.572   1.863  -0.689  0.00  0.00     0.034 A 
ATOM      7 Cl   UNL d   1       0.526  -0.576  -0.890  0.00  0.00    -0.070 Cl
ATOM      8 Cl1  UNL d   1      -0.477  -0.969   2.182  0.00  0.00    -0.070 Cl
ENDROOT
TORSDOF 0
ENDMDL
