MODEL 1
REMARK minimizedAffinity 6.89572382
REMARK minimizedRMSD -1
REMARK  0 active torsions:
REMARK  status: ('A' for Active; 'I' for Inactive)
ROOT
ATOM      1  C   UNL d   1       1.070  -0.657  -0.024  0.00  0.00     0.020 A 
ATOM      2  C1  UNL d   1       0.617   0.661  -0.084  0.00  0.00     0.020 A 
ATOM      3  C2  UNL d   1      -0.170   1.176   0.948  0.00  0.00     0.034 A 
ATOM      4  C3  UNL d   1      -0.506   0.373   2.044  0.00  0.00     0.017 A 
ATOM      5  C4  UNL d   1      -0.051  -0.949   2.103  0.00  0.00     0.017 A 
ATOM      6  C5  UNL d   1       0.737  -1.459   1.067  0.00  0.00     0.034 A 
ATOM      7 Cl   UNL d   1      -0.425  -2.000   3.424  0.00  0.00    -0.070 Cl
ATOM      8 Cl1  UNL d   1      -1.483   1.076   3.285  0.00  0.00    -0.070 Cl
ENDROOT
TORSDOF 0
ENDMDL
