MODEL 1
REMARK minimizedAffinity 2.1953876
REMARK minimizedRMSD -1
REMARK  0 active torsions:
REMARK  status: ('A' for Active; 'I' for Inactive)
ROOT
ATOM      1  C   UNL d   1      -0.923   0.239   2.936  0.00  0.00     0.020 A 
ATOM      2  C1  UNL d   1      -1.069  -0.683   1.900  0.00  0.00     0.020 A 
ATOM      3  C2  UNL d   1      -0.853  -0.287   0.578  0.00  0.00     0.034 A 
ATOM      4  C3  UNL d   1      -0.489   1.033   0.289  0.00  0.00     0.017 A 
ATOM      5  C4  UNL d   1      -0.343   1.957   1.330  0.00  0.00     0.017 A 
ATOM      6  C5  UNL d   1      -0.561   1.556   2.651  0.00  0.00     0.034 A 
ATOM      7 Cl   UNL d   1       0.103   3.604   1.051  0.00  0.00    -0.070 Cl
ATOM      8 Cl1  UNL d   1      -0.237   1.452  -1.368  0.00  0.00    -0.070 Cl
ENDROOT
TORSDOF 0
ENDMDL
