MODEL 1
REMARK minimizedAffinity 6.3226881
REMARK minimizedRMSD -1
REMARK  0 active torsions:
REMARK  status: ('A' for Active; 'I' for Inactive)
ROOT
ATOM      1  C   UNL d   1       0.241   0.181  -0.376  0.00  0.00     0.020 A 
ATOM      2  C1  UNL d   1      -0.263  -0.599   0.664  0.00  0.00     0.020 A 
ATOM      3  C2  UNL d   1      -0.608  -0.004   1.880  0.00  0.00     0.034 A 
ATOM      4  C3  UNL d   1      -0.448   1.375   2.059  0.00  0.00     0.017 A 
ATOM      5  C4  UNL d   1       0.058   2.158   1.014  0.00  0.00     0.017 A 
ATOM      6  C5  UNL d   1       0.401   1.557  -0.201  0.00  0.00     0.034 A 
ATOM      7 Cl   UNL d   1       0.283   3.865   1.160  0.00  0.00    -0.070 Cl
ATOM      8 Cl1  UNL d   1      -0.895   2.044   3.588  0.00  0.00    -0.070 Cl
ENDROOT
TORSDOF 0
ENDMDL
