MODEL 1
REMARK minimizedAffinity -2.35666943
REMARK minimizedRMSD -1
REMARK  0 active torsions:
REMARK  status: ('A' for Active; 'I' for Inactive)
ROOT
ATOM      1  C   UNL d   1      -1.943   1.946  -0.169  0.00  0.00     0.020 A 
ATOM      2  C1  UNL d   1      -1.848   2.169   1.204  0.00  0.00     0.020 A 
ATOM      3  C2  UNL d   1      -1.033   1.352   1.990  0.00  0.00     0.034 A 
ATOM      4  C3  UNL d   1      -0.311   0.306   1.403  0.00  0.00     0.017 A 
ATOM      5  C4  UNL d   1      -0.407   0.082   0.025  0.00  0.00     0.017 A 
ATOM      6  C5  UNL d   1      -1.224   0.904  -0.757  0.00  0.00     0.034 A 
ATOM      7 Cl   UNL d   1       0.455  -1.188  -0.770  0.00  0.00    -0.070 Cl
ATOM      8 Cl1  UNL d   1       0.677  -0.665   2.436  0.00  0.00    -0.070 Cl
ENDROOT
TORSDOF 0
ENDMDL
