MODEL 1
REMARK minimizedAffinity -4.47321749
REMARK minimizedRMSD -1
REMARK  0 active torsions:
REMARK  status: ('A' for Active; 'I' for Inactive)
ROOT
ATOM      1  C   UNL d   1      -1.505   1.421   1.865  0.00  0.00     0.020 A 
ATOM      2  C1  UNL d   1      -1.172   0.109   2.197  0.00  0.00     0.020 A 
ATOM      3  C2  UNL d   1      -0.247  -0.594   1.422  0.00  0.00     0.034 A 
ATOM      4  C3  UNL d   1       0.347   0.016   0.311  0.00  0.00     0.017 A 
ATOM      5  C4  UNL d   1       0.012   1.333  -0.021  0.00  0.00     0.017 A 
ATOM      6  C5  UNL d   1      -0.915   2.032   0.758  0.00  0.00     0.034 A 
ATOM      7 Cl   UNL d   1       0.704   2.152  -1.377  0.00  0.00    -0.070 Cl
ATOM      8 Cl1  UNL d   1       1.483  -0.912  -0.603  0.00  0.00    -0.070 Cl
ENDROOT
TORSDOF 0
ENDMDL
