MODEL 1
REMARK minimizedAffinity -3.82636905
REMARK minimizedRMSD -1
REMARK  0 active torsions:
REMARK  status: ('A' for Active; 'I' for Inactive)
ROOT
ATOM      1  C   UNL d   1      -0.205   0.053   2.142  0.00  0.00     0.020 A 
ATOM      2  C1  UNL d   1       0.489  -0.272   0.977  0.00  0.00     0.020 A 
ATOM      3  C2  UNL d   1       0.310   0.491  -0.179  0.00  0.00     0.034 A 
ATOM      4  C3  UNL d   1      -0.567   1.582  -0.172  0.00  0.00     0.017 A 
ATOM      5  C4  UNL d   1      -1.264   1.907   0.997  0.00  0.00     0.017 A 
ATOM      6  C5  UNL d   1      -1.080   1.140   2.152  0.00  0.00     0.034 A 
ATOM      7 Cl   UNL d   1      -2.362   3.239   1.082  0.00  0.00    -0.070 Cl
ATOM      8 Cl1  UNL d   1      -0.740   2.482  -1.637  0.00  0.00    -0.070 Cl
ENDROOT
TORSDOF 0
ENDMDL
