MODEL 1
REMARK minimizedAffinity -3.3921032
REMARK minimizedRMSD -1
REMARK  0 active torsions:
REMARK  status: ('A' for Active; 'I' for Inactive)
ROOT
ATOM      1  C   UNL d   1       1.139   0.621  -0.781  0.00  0.00     0.020 A 
ATOM      2  C1  UNL d   1       0.346   1.655  -1.277  0.00  0.00     0.020 A 
ATOM      3  C2  UNL d   1      -0.820   2.025  -0.604  0.00  0.00     0.034 A 
ATOM      4  C3  UNL d   1      -1.197   1.360   0.569  0.00  0.00     0.017 A 
ATOM      5  C4  UNL d   1      -0.401   0.322   1.066  0.00  0.00     0.017 A 
ATOM      6  C5  UNL d   1       0.766  -0.044   0.388  0.00  0.00     0.034 A 
ATOM      7 Cl   UNL d   1      -0.801  -0.544   2.507  0.00  0.00    -0.070 Cl
ATOM      8 Cl1  UNL d   1      -2.652   1.871   1.350  0.00  0.00    -0.070 Cl
ENDROOT
TORSDOF 0
ENDMDL
