MODEL 1
REMARK minimizedAffinity 13.1883621
REMARK minimizedRMSD -1
REMARK  0 active torsions:
REMARK  status: ('A' for Active; 'I' for Inactive)
ROOT
ATOM      1  C   UNL d   1      -1.718  -2.385  -0.945  0.00  0.00     0.023 A 
ATOM      2  C1  UNL d   1      -1.706  -2.262  -2.335  0.00  0.00     0.003 A 
ATOM      3  C2  UNL d   1      -0.556  -2.589  -3.056  0.00  0.00     0.048 A 
ATOM      4  C3  UNL d   1       0.579  -3.039  -2.381  0.00  0.00     0.023 A 
ATOM      5  C4  UNL d   1       0.571  -3.164  -0.991  0.00  0.00     0.048 A 
ATOM      6  C5  UNL d   1      -0.581  -2.835  -0.274  0.00  0.00     0.003 A 
ATOM      7  I   UNL d   1       2.292  -3.527  -3.452  0.00  0.00    -0.146 I 
ENDROOT
TORSDOF 0
ENDMDL
