MODEL 1
REMARK minimizedAffinity 15.2037678
REMARK minimizedRMSD -1
REMARK  0 active torsions:
REMARK  status: ('A' for Active; 'I' for Inactive)
ROOT
ATOM      1  C   UNL d   1      -0.638  -3.502  -1.170  0.00  0.00     0.023 A 
ATOM      2  C1  UNL d   1      -1.025  -3.419   0.168  0.00  0.00     0.003 A 
ATOM      3  C2  UNL d   1      -1.407  -2.191   0.711  0.00  0.00     0.048 A 
ATOM      4  C3  UNL d   1      -1.401  -1.049  -0.090  0.00  0.00     0.023 A 
ATOM      5  C4  UNL d   1      -1.015  -1.127  -1.429  0.00  0.00     0.048 A 
ATOM      6  C5  UNL d   1      -0.634  -2.358  -1.967  0.00  0.00     0.003 A 
ATOM      7  I   UNL d   1      -1.969   0.780   0.716  0.00  0.00    -0.146 I 
ENDROOT
TORSDOF 0
ENDMDL
