MODEL 1
REMARK minimizedAffinity 8.64749241
REMARK minimizedRMSD -1
REMARK  0 active torsions:
REMARK  status: ('A' for Active; 'I' for Inactive)
ROOT
ATOM      1  C   UNL d   1      -1.439  -2.138   0.370  0.00  0.00     0.023 A 
ATOM      2  C1  UNL d   1      -1.550  -1.502  -0.866  0.00  0.00     0.003 A 
ATOM      3  C2  UNL d   1      -0.547  -1.656  -1.825  0.00  0.00     0.048 A 
ATOM      4  C3  UNL d   1       0.565  -2.448  -1.542  0.00  0.00     0.023 A 
ATOM      5  C4  UNL d   1       0.680  -3.088  -0.306  0.00  0.00     0.048 A 
ATOM      6  C5  UNL d   1      -0.325  -2.930   0.650  0.00  0.00     0.003 A 
ATOM      7  I   UNL d   1       2.059  -2.679  -2.968  0.00  0.00    -0.146 I 
ENDROOT
TORSDOF 0
ENDMDL
