MODEL 1
REMARK minimizedAffinity 7.42490053
REMARK minimizedRMSD -1
REMARK  0 active torsions:
REMARK  status: ('A' for Active; 'I' for Inactive)
ROOT
ATOM      1  C   UNL d   1      -1.214  -1.923  -4.741  0.00  0.00     0.023 A 
ATOM      2  C1  UNL d   1      -2.270  -1.955  -3.829  0.00  0.00     0.003 A 
ATOM      3  C2  UNL d   1      -3.291  -2.897  -3.974  0.00  0.00     0.048 A 
ATOM      4  C3  UNL d   1      -3.249  -3.804  -5.032  0.00  0.00     0.023 A 
ATOM      5  C4  UNL d   1      -2.195  -3.777  -5.946  0.00  0.00     0.048 A 
ATOM      6  C5  UNL d   1      -1.177  -2.833  -5.798  0.00  0.00     0.003 A 
ATOM      7  I   UNL d   1      -4.767  -5.207  -5.250  0.00  0.00    -0.146 I 
ENDROOT
TORSDOF 0
ENDMDL
