MODEL 1
REMARK minimizedAffinity 14.7986927
REMARK minimizedRMSD -1
REMARK  0 active torsions:
REMARK  status: ('A' for Active; 'I' for Inactive)
ROOT
ATOM      1  C   UNL d   1       2.886  -1.989   3.479  0.00  0.00     0.023 A 
ATOM      2  C1  UNL d   1       3.332  -1.635   4.753  0.00  0.00     0.003 A 
ATOM      3  C2  UNL d   1       4.148  -2.508   5.476  0.00  0.00     0.048 A 
ATOM      4  C3  UNL d   1       4.514  -3.733   4.918  0.00  0.00     0.023 A 
ATOM      5  C4  UNL d   1       4.071  -4.090   3.644  0.00  0.00     0.048 A 
ATOM      6  C5  UNL d   1       3.255  -3.215   2.925  0.00  0.00     0.003 A 
ATOM      7  I   UNL d   1       5.729  -5.034   5.992  0.00  0.00    -0.146 I 
ENDROOT
TORSDOF 0
ENDMDL
