MODEL 1
REMARK minimizedAffinity 8.59128571
REMARK minimizedRMSD -1
REMARK  0 active torsions:
REMARK  status: ('A' for Active; 'I' for Inactive)
ROOT
ATOM      1  C   UNL d   1       5.905   6.000  -2.777  0.00  0.00     0.023 A 
ATOM      2  C1  UNL d   1       5.976   5.903  -4.167  0.00  0.00     0.003 A 
ATOM      3  C2  UNL d   1       5.996   4.649  -4.781  0.00  0.00     0.048 A 
ATOM      4  C3  UNL d   1       5.945   3.495  -3.999  0.00  0.00     0.023 A 
ATOM      5  C4  UNL d   1       5.873   3.587  -2.608  0.00  0.00     0.048 A 
ATOM      6  C5  UNL d   1       5.854   4.843  -1.999  0.00  0.00     0.003 A 
ATOM      7  I   UNL d   1       5.974   1.628  -4.910  0.00  0.00    -0.146 I 
ENDROOT
TORSDOF 0
ENDMDL
