MODEL 1
REMARK minimizedAffinity 16.5634861
REMARK minimizedRMSD -1
REMARK  0 active torsions:
REMARK  status: ('A' for Active; 'I' for Inactive)
ROOT
ATOM      1  C   UNL d   1      -2.287  -2.623  -4.613  0.00  0.00     0.023 A 
ATOM      2  C1  UNL d   1      -3.296  -2.821  -3.671  0.00  0.00     0.003 A 
ATOM      3  C2  UNL d   1      -4.278  -3.789  -3.890  0.00  0.00     0.048 A 
ATOM      4  C3  UNL d   1      -4.244  -4.557  -5.054  0.00  0.00     0.023 A 
ATOM      5  C4  UNL d   1      -3.236  -4.362  -6.000  0.00  0.00     0.048 A 
ATOM      6  C5  UNL d   1      -2.257  -3.392  -5.776  0.00  0.00     0.003 A 
ATOM      7  I   UNL d   1      -5.704  -5.999  -5.383  0.00  0.00    -0.146 I 
ENDROOT
TORSDOF 0
ENDMDL
