MODEL 1
REMARK minimizedAffinity 14.2913065
REMARK minimizedRMSD -1
REMARK  0 active torsions:
REMARK  status: ('A' for Active; 'I' for Inactive)
ROOT
ATOM      1  C   UNL d   1       6.000   5.473  -1.162  0.00  0.00     0.023 A 
ATOM      2  C1  UNL d   1       5.908   4.833   0.074  0.00  0.00     0.003 A 
ATOM      3  C2  UNL d   1       4.672   4.721   0.713  0.00  0.00     0.048 A 
ATOM      4  C3  UNL d   1       3.531   5.249   0.110  0.00  0.00     0.023 A 
ATOM      5  C4  UNL d   1       3.618   5.889  -1.127  0.00  0.00     0.048 A 
ATOM      6  C5  UNL d   1       4.856   6.000  -1.762  0.00  0.00     0.003 A 
ATOM      7  I   UNL d   1       1.689   5.082   1.060  0.00  0.00    -0.146 I 
ENDROOT
TORSDOF 0
ENDMDL
