MODEL 1
REMARK minimizedAffinity 8.93012619
REMARK minimizedRMSD -1
REMARK  0 active torsions:
REMARK  status: ('A' for Active; 'I' for Inactive)
ROOT
ATOM      1  C   UNL d   1       5.823  -5.313   5.997  0.00  0.00     0.023 A 
ATOM      2  C1  UNL d   1       4.894  -5.897   5.136  0.00  0.00     0.003 A 
ATOM      3  C2  UNL d   1       4.138  -5.097   4.277  0.00  0.00     0.048 A 
ATOM      4  C3  UNL d   1       4.318  -3.714   4.282  0.00  0.00     0.023 A 
ATOM      5  C4  UNL d   1       5.247  -3.126   5.141  0.00  0.00     0.048 A 
ATOM      6  C5  UNL d   1       6.000  -3.929   6.000  0.00  0.00     0.003 A 
ATOM      7  I   UNL d   1       3.195  -2.521   3.003  0.00  0.00    -0.146 I 
ENDROOT
TORSDOF 0
ENDMDL
