MODEL 1
REMARK minimizedAffinity 12.1538105
REMARK minimizedRMSD -1
REMARK  0 active torsions:
REMARK  status: ('A' for Active; 'I' for Inactive)
ROOT
ATOM      1  C   UNL d   1      -0.313  -2.770   0.197  0.00  0.00     0.023 A 
ATOM      2  C1  UNL d   1       0.297  -3.571  -0.768  0.00  0.00     0.003 A 
ATOM      3  C2  UNL d   1      -0.172  -3.563  -2.083  0.00  0.00     0.048 A 
ATOM      4  C3  UNL d   1      -1.252  -2.750  -2.427  0.00  0.00     0.023 A 
ATOM      5  C4  UNL d   1      -1.865  -1.946  -1.465  0.00  0.00     0.048 A 
ATOM      6  C5  UNL d   1      -1.393  -1.958  -0.151  0.00  0.00     0.003 A 
ATOM      7  I   UNL d   1      -1.952  -2.736  -4.384  0.00  0.00    -0.146 I 
ENDROOT
TORSDOF 0
ENDMDL
