MODEL 1
REMARK minimizedAffinity -1.86797047
REMARK minimizedRMSD -1
REMARK  0 active torsions:
REMARK  status: ('A' for Active; 'I' for Inactive)
ROOT
ATOM      1  C   UNL d   1       5.993   4.160  -5.965  0.00  0.00     0.023 A 
ATOM      2  C1  UNL d   1       5.988   3.219  -4.935  0.00  0.00     0.003 A 
ATOM      3  C2  UNL d   1       5.990   3.639  -3.604  0.00  0.00     0.048 A 
ATOM      4  C3  UNL d   1       5.995   5.002  -3.309  0.00  0.00     0.023 A 
ATOM      5  C4  UNL d   1       5.999   5.947  -4.336  0.00  0.00     0.048 A 
ATOM      6  C5  UNL d   1       5.998   5.522  -5.666  0.00  0.00     0.003 A 
ATOM      7  I   UNL d   1       5.998   5.631  -1.328  0.00  0.00    -0.146 I 
ENDROOT
TORSDOF 0
ENDMDL
