MODEL 1
REMARK minimizedAffinity 13.9911213
REMARK minimizedRMSD -1
REMARK  0 active torsions:
REMARK  status: ('A' for Active; 'I' for Inactive)
ROOT
ATOM      1  C   UNL d   1       1.413   4.126  -1.223  0.00  0.00     0.023 A 
ATOM      2  C1  UNL d   1       2.431   3.754  -0.345  0.00  0.00     0.003 A 
ATOM      3  C2  UNL d   1       3.748   4.146  -0.595  0.00  0.00     0.048 A 
ATOM      4  C3  UNL d   1       4.039   4.911  -1.724  0.00  0.00     0.023 A 
ATOM      5  C4  UNL d   1       3.024   5.287  -2.604  0.00  0.00     0.048 A 
ATOM      6  C5  UNL d   1       1.709   4.892  -2.351  0.00  0.00     0.003 A 
ATOM      7  I   UNL d   1       5.998   5.496  -2.097  0.00  0.00    -0.146 I 
ENDROOT
TORSDOF 0
ENDMDL
