MODEL 1
REMARK minimizedAffinity 11.2293463
REMARK minimizedRMSD -1
REMARK  0 active torsions:
REMARK  status: ('A' for Active; 'I' for Inactive)
ROOT
ATOM      1  C   UNL d   1       4.202   5.718  -0.909  0.00  0.00     0.023 A 
ATOM      2  C1  UNL d   1       5.480   5.996  -1.396  0.00  0.00     0.003 A 
ATOM      3  C2  UNL d   1       5.997   5.259  -2.463  0.00  0.00     0.048 A 
ATOM      4  C3  UNL d   1       5.232   4.247  -3.040  0.00  0.00     0.023 A 
ATOM      5  C4  UNL d   1       3.953   3.966  -2.558  0.00  0.00     0.048 A 
ATOM      6  C5  UNL d   1       3.440   4.704  -1.490  0.00  0.00     0.003 A 
ATOM      7  I   UNL d   1       6.000   3.149  -4.630  0.00  0.00    -0.146 I 
ENDROOT
TORSDOF 0
ENDMDL
