MODEL 1
REMARK minimizedAffinity 14.8115311
REMARK minimizedRMSD -1
REMARK  0 active torsions:
REMARK  status: ('A' for Active; 'I' for Inactive)
ROOT
ATOM      1  C   UNL d   1       4.940   4.766  -0.590  0.00  0.00     0.023 A 
ATOM      2  C1  UNL d   1       5.627   5.817  -1.197  0.00  0.00     0.003 A 
ATOM      3  C2  UNL d   1       5.926   5.764  -2.560  0.00  0.00     0.048 A 
ATOM      4  C3  UNL d   1       5.533   4.656  -3.311  0.00  0.00     0.023 A 
ATOM      5  C4  UNL d   1       4.844   3.602  -2.708  0.00  0.00     0.048 A 
ATOM      6  C5  UNL d   1       4.549   3.660  -1.345  0.00  0.00     0.003 A 
ATOM      7  I   UNL d   1       5.976   4.573  -5.340  0.00  0.00    -0.146 I 
ENDROOT
TORSDOF 0
ENDMDL
