MODEL 1
REMARK minimizedAffinity -0.185840413
REMARK minimizedRMSD -1
REMARK  1 active torsions:
REMARK  status: ('A' for Active; 'I' for Inactive)
REMARK    1  A    between atoms: C1_2  and  C2_3 
ROOT
ATOM      1  C2  UNL d   1       3.061  -3.126  -1.715  0.00  0.00    -0.076 A 
ATOM      2  C3  UNL d   1       3.149  -3.476  -0.357  0.00  0.00     0.004 A 
ATOM      3  C4  UNL d   1       3.975  -4.518   0.063  0.00  0.00    -0.003 A 
ATOM      4  C5  UNL d   1       4.727  -5.225  -0.868  0.00  0.00     0.000 A 
ATOM      5  C6  UNL d   1       4.665  -4.880  -2.218  0.00  0.00     0.000 A 
ATOM      6  C7  UNL d   1       3.850  -3.822  -2.656  0.00  0.00    -0.073 A 
ATOM      7  C8  UNL d   1       3.817  -3.496  -4.124  0.00  0.00     0.078 C 
ENDROOT
BRANCH   1   8
ATOM      8  C1  UNL d   1       2.128  -2.005  -2.115  0.00  0.00     0.053 C 
ATOM      9  C   UNL d   1       2.344  -0.745  -1.291  0.00  0.00     0.018 C 
ENDBRANCH   1   8
TORSDOF 1
ENDMDL
