MODEL 1
REMARK minimizedAffinity 12.3718281
REMARK minimizedRMSD -1
REMARK  1 active torsions:
REMARK  status: ('A' for Active; 'I' for Inactive)
REMARK    1  A    between atoms: C1_2  and  C2_3 
ROOT
ATOM      1  C2  UNL d   1       2.668  -3.781  -1.142  0.00  0.00    -0.076 A 
ATOM      2  C3  UNL d   1       1.762  -3.548  -2.192  0.00  0.00     0.004 A 
ATOM      3  C4  UNL d   1       1.940  -4.146  -3.438  0.00  0.00    -0.003 A 
ATOM      4  C5  UNL d   1       3.025  -4.988  -3.655  0.00  0.00     0.000 A 
ATOM      5  C6  UNL d   1       3.924  -5.244  -2.620  0.00  0.00     0.000 A 
ATOM      6  C7  UNL d   1       3.751  -4.662  -1.352  0.00  0.00    -0.073 A 
ATOM      7  C8  UNL d   1       4.754  -4.968  -0.274  0.00  0.00     0.078 C 
ENDROOT
BRANCH   1   8
ATOM      8  C1  UNL d   1       2.440  -3.083   0.180  0.00  0.00     0.053 C 
ATOM      9  C   UNL d   1       2.671  -1.582   0.094  0.00  0.00     0.018 C 
ENDBRANCH   1   8
TORSDOF 1
ENDMDL
