MODEL 1
REMARK minimizedAffinity 6.25370884
REMARK minimizedRMSD -1
REMARK  1 active torsions:
REMARK  status: ('A' for Active; 'I' for Inactive)
REMARK    1  A    between atoms: C1_2  and  C2_3 
ROOT
ATOM      1  C2  UNL d   1       3.938  -3.874  -2.076  0.00  0.00    -0.076 A 
ATOM      2  C3  UNL d   1       2.625  -3.373  -2.102  0.00  0.00     0.004 A 
ATOM      3  C4  UNL d   1       1.987  -3.093  -3.309  0.00  0.00    -0.003 A 
ATOM      4  C5  UNL d   1       2.651  -3.312  -4.511  0.00  0.00     0.000 A 
ATOM      5  C6  UNL d   1       3.948  -3.825  -4.505  0.00  0.00     0.000 A 
ATOM      6  C7  UNL d   1       4.599  -4.128  -3.297  0.00  0.00    -0.073 A 
ATOM      7  C8  UNL d   1       6.000  -4.674  -3.349  0.00  0.00     0.078 C 
ENDROOT
BRANCH   1   8
ATOM      8  C1  UNL d   1       4.588  -4.133  -0.736  0.00  0.00     0.053 C 
ATOM      9  C   UNL d   1       3.896  -3.395   0.399  0.00  0.00     0.018 C 
ENDBRANCH   1   8
TORSDOF 1
ENDMDL
