MODEL 1
REMARK minimizedAffinity 1.27150619
REMARK minimizedRMSD -1
REMARK  1 active torsions:
REMARK  status: ('A' for Active; 'I' for Inactive)
REMARK    1  A    between atoms: C1_2  and  C2_3 
ROOT
ATOM      1  C2  UNL d   1       2.864  -3.189  -1.349  0.00  0.00    -0.076 A 
ATOM      2  C3  UNL d   1       2.312  -2.942  -2.619  0.00  0.00     0.004 A 
ATOM      3  C4  UNL d   1       2.716  -3.678  -3.732  0.00  0.00    -0.003 A 
ATOM      4  C5  UNL d   1       3.678  -4.673  -3.593  0.00  0.00     0.000 A 
ATOM      5  C6  UNL d   1       4.223  -4.942  -2.338  0.00  0.00     0.000 A 
ATOM      6  C7  UNL d   1       3.815  -4.221  -1.203  0.00  0.00    -0.073 A 
ATOM      7  C8  UNL d   1       4.440  -4.550   0.125  0.00  0.00     0.078 C 
ENDROOT
BRANCH   1   8
ATOM      8  C1  UNL d   1       2.406  -2.340  -0.184  0.00  0.00     0.053 C 
ATOM      9  C   UNL d   1       2.654  -0.857  -0.411  0.00  0.00     0.018 C 
ENDBRANCH   1   8
TORSDOF 1
ENDMDL
