MODEL 1
REMARK minimizedAffinity -3.20745492
REMARK minimizedRMSD -1
REMARK  1 active torsions:
REMARK  status: ('A' for Active; 'I' for Inactive)
REMARK    1  A    between atoms: C1_2  and  C2_3 
ROOT
ATOM      1  C2  UNL d   1       3.264  -3.429  -2.418  0.00  0.00    -0.076 A 
ATOM      2  C3  UNL d   1       2.715  -2.398  -3.200  0.00  0.00     0.004 A 
ATOM      3  C4  UNL d   1       2.300  -1.201  -2.619  0.00  0.00    -0.003 A 
ATOM      4  C5  UNL d   1       2.427  -1.015  -1.247  0.00  0.00     0.000 A 
ATOM      5  C6  UNL d   1       2.986  -2.020  -0.458  0.00  0.00     0.000 A 
ATOM      6  C7  UNL d   1       3.425  -3.227  -1.030  0.00  0.00    -0.073 A 
ATOM      7  C8  UNL d   1       4.014  -4.279  -0.132  0.00  0.00     0.078 C 
ENDROOT
BRANCH   1   8
ATOM      8  C1  UNL d   1       3.672  -4.716  -3.099  0.00  0.00     0.053 C 
ATOM      9  C   UNL d   1       5.139  -4.722  -3.502  0.00  0.00     0.018 C 
ENDBRANCH   1   8
TORSDOF 1
ENDMDL
