MODEL 1
REMARK minimizedAffinity -2.09168935
REMARK minimizedRMSD -1
REMARK  1 active torsions:
REMARK  status: ('A' for Active; 'I' for Inactive)
REMARK    1  A    between atoms: C1_2  and  C2_3 
ROOT
ATOM      1  C2  UNL d   1       3.254  -3.407  -2.452  0.00  0.00    -0.076 A 
ATOM      2  C3  UNL d   1       2.885  -3.137  -1.122  0.00  0.00     0.004 A 
ATOM      3  C4  UNL d   1       3.459  -3.837  -0.063  0.00  0.00    -0.003 A 
ATOM      4  C5  UNL d   1       4.411  -4.818  -0.315  0.00  0.00     0.000 A 
ATOM      5  C6  UNL d   1       4.802  -5.087  -1.627  0.00  0.00     0.000 A 
ATOM      6  C7  UNL d   1       4.245  -4.378  -2.705  0.00  0.00    -0.073 A 
ATOM      7  C8  UNL d   1       4.699  -4.713  -4.100  0.00  0.00     0.078 C 
ENDROOT
BRANCH   1   8
ATOM      8  C1  UNL d   1       2.578  -2.634  -3.562  0.00  0.00     0.053 C 
ATOM      9  C   UNL d   1       2.091  -1.266  -3.107  0.00  0.00     0.018 C 
ENDBRANCH   1   8
TORSDOF 1
ENDMDL
