MODEL 1
REMARK minimizedAffinity -1.04829717
REMARK minimizedRMSD -1
REMARK  1 active torsions:
REMARK  status: ('A' for Active; 'I' for Inactive)
REMARK    1  A    between atoms: C1_2  and  C2_3 
ROOT
ATOM      1  C2  UNL d   1       2.950  -3.135  -1.708  0.00  0.00    -0.076 A 
ATOM      2  C3  UNL d   1       2.441  -2.818  -2.979  0.00  0.00     0.004 A 
ATOM      3  C4  UNL d   1       2.920  -3.455  -4.123  0.00  0.00    -0.003 A 
ATOM      4  C5  UNL d   1       3.915  -4.420  -4.014  0.00  0.00     0.000 A 
ATOM      5  C6  UNL d   1       4.419  -4.759  -2.758  0.00  0.00     0.000 A 
ATOM      6  C7  UNL d   1       3.936  -4.138  -1.594  0.00  0.00    -0.073 A 
ATOM      7  C8  UNL d   1       4.520  -4.539  -0.267  0.00  0.00     0.078 C 
ENDROOT
BRANCH   1   8
ATOM      8  C1  UNL d   1       2.411  -2.392  -0.506  0.00  0.00     0.053 C 
ATOM      9  C   UNL d   1       2.215  -0.908  -0.779  0.00  0.00     0.018 C 
ENDBRANCH   1   8
TORSDOF 1
ENDMDL
