MODEL 1
REMARK minimizedAffinity 3.06547689
REMARK minimizedRMSD -1
REMARK  1 active torsions:
REMARK  status: ('A' for Active; 'I' for Inactive)
REMARK    1  A    between atoms: C1_2  and  C2_3 
ROOT
ATOM      1  C2  UNL d   1       3.048  -2.137  -1.695  0.00  0.00    -0.076 A 
ATOM      2  C3  UNL d   1       2.184  -3.077  -2.283  0.00  0.00     0.004 A 
ATOM      3  C4  UNL d   1       2.281  -4.433  -1.974  0.00  0.00    -0.003 A 
ATOM      4  C5  UNL d   1       3.245  -4.871  -1.072  0.00  0.00     0.000 A 
ATOM      5  C6  UNL d   1       4.099  -3.950  -0.466  0.00  0.00     0.000 A 
ATOM      6  C7  UNL d   1       4.003  -2.578  -0.754  0.00  0.00    -0.073 A 
ATOM      7  C8  UNL d   1       4.954  -1.630  -0.076  0.00  0.00     0.078 C 
ENDROOT
BRANCH   1   8
ATOM      8  C1  UNL d   1       2.914  -0.684  -2.089  0.00  0.00     0.053 C 
ATOM      9  C   UNL d   1       1.828   0.035  -1.302  0.00  0.00     0.018 C 
ENDBRANCH   1   8
TORSDOF 1
ENDMDL
