MODEL 1
REMARK minimizedAffinity 1.82009804
REMARK minimizedRMSD -1
REMARK  1 active torsions:
REMARK  status: ('A' for Active; 'I' for Inactive)
REMARK    1  A    between atoms: C1_2  and  C2_3 
ROOT
ATOM      1  C2  UNL d   1      -1.452  -0.683   4.287  0.00  0.00    -0.076 A 
ATOM      2  C3  UNL d   1      -2.549  -0.019   3.711  0.00  0.00     0.004 A 
ATOM      3  C4  UNL d   1      -2.968   1.222   4.190  0.00  0.00    -0.003 A 
ATOM      4  C5  UNL d   1      -2.296   1.818   5.251  0.00  0.00     0.000 A 
ATOM      5  C6  UNL d   1      -1.195   1.181   5.823  0.00  0.00     0.000 A 
ATOM      6  C7  UNL d   1      -0.750  -0.062   5.342  0.00  0.00    -0.073 A 
ATOM      7  C8  UNL d   1       0.439  -0.706   6.000  0.00  0.00     0.078 C 
ENDROOT
BRANCH   1   8
ATOM      8  C1  UNL d   1      -1.061  -2.039   3.744  0.00  0.00     0.053 C 
ATOM      9  C   UNL d   1      -2.266  -2.880   3.353  0.00  0.00     0.018 C 
ENDBRANCH   1   8
TORSDOF 1
ENDMDL
