MODEL 1
REMARK minimizedAffinity 8.84542561
REMARK minimizedRMSD -1
REMARK  1 active torsions:
REMARK  status: ('A' for Active; 'I' for Inactive)
REMARK    1  A    between atoms: C1_2  and  C2_3 
ROOT
ATOM      1  C2  UNL d   1      -2.406  -4.257  -4.065  0.00  0.00    -0.076 A 
ATOM      2  C3  UNL d   1      -1.891  -5.511  -3.693  0.00  0.00     0.004 A 
ATOM      3  C4  UNL d   1      -1.545  -5.781  -2.370  0.00  0.00    -0.003 A 
ATOM      4  C5  UNL d   1      -1.710  -4.801  -1.397  0.00  0.00     0.000 A 
ATOM      5  C6  UNL d   1      -2.236  -3.557  -1.745  0.00  0.00     0.000 A 
ATOM      6  C7  UNL d   1      -2.605  -3.275  -3.072  0.00  0.00    -0.073 A 
ATOM      7  C8  UNL d   1      -3.162  -1.915  -3.392  0.00  0.00     0.078 C 
ENDROOT
BRANCH   1   8
ATOM      8  C1  UNL d   1      -2.738  -4.013  -5.520  0.00  0.00     0.053 C 
ATOM      9  C   UNL d   1      -3.917  -4.848  -5.997  0.00  0.00     0.018 C 
ENDBRANCH   1   8
TORSDOF 1
ENDMDL
