MODEL 1
REMARK minimizedAffinity 8.91828632
REMARK minimizedRMSD -1
REMARK  1 active torsions:
REMARK  status: ('A' for Active; 'I' for Inactive)
REMARK    1  A    between atoms: C1_2  and  C2_3 
ROOT
ATOM      1  C2  UNL d   1       1.726   3.894  -1.013  0.00  0.00    -0.076 A 
ATOM      2  C3  UNL d   1       1.273   3.285   0.170  0.00  0.00     0.004 A 
ATOM      3  C4  UNL d   1       1.137   4.017   1.348  0.00  0.00    -0.003 A 
ATOM      4  C5  UNL d   1       1.451   5.372   1.362  0.00  0.00     0.000 A 
ATOM      5  C6  UNL d   1       1.885   5.997   0.194  0.00  0.00     0.000 A 
ATOM      6  C7  UNL d   1       2.012   5.276  -1.006  0.00  0.00    -0.073 A 
ATOM      7  C8  UNL d   1       2.490   6.000  -2.235  0.00  0.00     0.078 C 
ENDROOT
BRANCH   1   8
ATOM      8  C1  UNL d   1       1.880   3.043  -2.253  0.00  0.00     0.053 C 
ATOM      9  C   UNL d   1       0.565   2.847  -2.991  0.00  0.00     0.018 C 
ENDBRANCH   1   8
TORSDOF 1
ENDMDL
