MODEL 1
REMARK minimizedAffinity 0.463476419
REMARK minimizedRMSD -1
REMARK  1 active torsions:
REMARK  status: ('A' for Active; 'I' for Inactive)
REMARK    1  A    between atoms: C1_2  and  C2_3 
ROOT
ATOM      1  C2  UNL d   1      -3.591  -0.974   2.847  0.00  0.00    -0.076 A 
ATOM      2  C3  UNL d   1      -4.251   0.236   2.573  0.00  0.00     0.004 A 
ATOM      3  C4  UNL d   1      -3.630   1.461   2.810  0.00  0.00    -0.003 A 
ATOM      4  C5  UNL d   1      -2.339   1.496   3.324  0.00  0.00     0.000 A 
ATOM      5  C6  UNL d   1      -1.662   0.305   3.585  0.00  0.00     0.000 A 
ATOM      6  C7  UNL d   1      -2.268  -0.939   3.337  0.00  0.00    -0.073 A 
ATOM      7  C8  UNL d   1      -1.494  -2.192   3.643  0.00  0.00     0.078 C 
ENDROOT
BRANCH   1   8
ATOM      8  C1  UNL d   1      -4.324  -2.273   2.595  0.00  0.00     0.053 C 
ATOM      9  C   UNL d   1      -5.796  -2.192   2.969  0.00  0.00     0.018 C 
ENDBRANCH   1   8
TORSDOF 1
ENDMDL
