MODEL 1
REMARK minimizedAffinity 5.18362999
REMARK minimizedRMSD -1
REMARK  1 active torsions:
REMARK  status: ('A' for Active; 'I' for Inactive)
REMARK    1  A    between atoms: C1_2  and  C2_3 
ROOT
ATOM      1  C2  UNL d   1       1.967   2.288   0.272  0.00  0.00    -0.076 A 
ATOM      2  C3  UNL d   1       1.744   2.187  -1.112  0.00  0.00     0.004 A 
ATOM      3  C4  UNL d   1       2.035   1.010  -1.801  0.00  0.00    -0.003 A 
ATOM      4  C5  UNL d   1       2.552  -0.084  -1.116  0.00  0.00     0.000 A 
ATOM      5  C6  UNL d   1       2.763  -0.007   0.260  0.00  0.00     0.000 A 
ATOM      6  C7  UNL d   1       2.460   1.167   0.972  0.00  0.00    -0.073 A 
ATOM      7  C8  UNL d   1       2.713   1.197   2.455  0.00  0.00     0.078 C 
ENDROOT
BRANCH   1   8
ATOM      8  C1  UNL d   1       1.659   3.599   0.961  0.00  0.00     0.053 C 
ATOM      9  C   UNL d   1       2.289   4.790   0.256  0.00  0.00     0.018 C 
ENDBRANCH   1   8
TORSDOF 1
ENDMDL
