MODEL 1
REMARK minimizedAffinity 10.0428848
REMARK minimizedRMSD -1
REMARK  2 active torsions:
REMARK  status: ('A' for Active; 'I' for Inactive)
REMARK    1  A    between atoms: C2'_3  and  C1'_4 
REMARK    2  A    between atoms: C1'_4  and  C1_5 
ROOT
ATOM      1  C1  I4B d   1      -1.374   4.972  -4.712  0.00  0.00    -0.075 A 
ATOM      2  C2  I4B d   1      -1.993   5.617  -3.670  0.00  0.00     0.003 A 
ATOM      3  C3  I4B d   1      -3.352   6.000  -3.775  0.00  0.00     0.002 A 
ATOM      4  C4  I4B d   1      -4.035   5.766  -4.950  0.00  0.00    -0.004 A 
ATOM      5  C5  I4B d   1      -3.413   5.092  -5.997  0.00  0.00     0.002 A 
ATOM      6  C6  I4B d   1      -2.078   4.682  -5.873  0.00  0.00     0.003 A 
ENDROOT
BRANCH   1   7
ATOM      7  C1' I4B d   1       0.071   4.612  -4.580  0.00  0.00     0.060 C 
BRANCH   7   8
ATOM      8  C2' I4B d   1       0.353   4.340  -3.116  0.00  0.00    -0.013 C 
ATOM      9  C4' I4B d   1       1.534   3.421  -2.949  0.00  0.00     0.013 C 
ATOM     10  C3' I4B d   1       0.590   5.656  -2.438  0.00  0.00     0.013 C 
ENDBRANCH   7   8
ENDBRANCH   1   7
TORSDOF 2
ENDMDL
