MODEL 1
REMARK minimizedAffinity 26.4722481
REMARK minimizedRMSD -1
REMARK  2 active torsions:
REMARK  status: ('A' for Active; 'I' for Inactive)
REMARK    1  A    between atoms: C2'_3  and  C1'_4 
REMARK    2  A    between atoms: C1'_4  and  C1_5 
ROOT
ATOM      1  C1  I4B d   1      -1.698  -4.659  -3.194  0.00  0.00    -0.075 A 
ATOM      2  C2  I4B d   1      -2.773  -5.285  -3.774  0.00  0.00     0.003 A 
ATOM      3  C3  I4B d   1      -2.616  -5.990  -4.992  0.00  0.00     0.002 A 
ATOM      4  C4  I4B d   1      -1.386  -5.999  -5.618  0.00  0.00    -0.004 A 
ATOM      5  C5  I4B d   1      -0.292  -5.383  -5.017  0.00  0.00     0.002 A 
ATOM      6  C6  I4B d   1      -0.446  -4.718  -3.792  0.00  0.00     0.003 A 
ENDROOT
BRANCH   1   7
ATOM      7  C1' I4B d   1      -1.907  -3.896  -1.924  0.00  0.00     0.060 C 
BRANCH   7   8
ATOM      8  C2' I4B d   1      -2.290  -2.476  -2.290  0.00  0.00    -0.013 C 
ATOM      9  C4' I4B d   1      -2.379  -1.603  -1.066  0.00  0.00     0.013 C 
ATOM     10  C3' I4B d   1      -1.267  -1.955  -3.254  0.00  0.00     0.013 C 
ENDBRANCH   7   8
ENDBRANCH   1   7
TORSDOF 2
ENDMDL
