MODEL 1
REMARK minimizedAffinity 15.1408787
REMARK minimizedRMSD -1
REMARK  2 active torsions:
REMARK  status: ('A' for Active; 'I' for Inactive)
REMARK    1  A    between atoms: C2'_3  and  C1'_4 
REMARK    2  A    between atoms: C1'_4  and  C1_5 
ROOT
ATOM      1  C1  I4B d   1      -4.569  -1.128   0.003  0.00  0.00    -0.075 A 
ATOM      2  C2  I4B d   1      -3.477  -1.016  -0.821  0.00  0.00     0.003 A 
ATOM      3  C3  I4B d   1      -2.500  -2.041  -0.853  0.00  0.00     0.002 A 
ATOM      4  C4  I4B d   1      -2.629  -3.128  -0.013  0.00  0.00    -0.004 A 
ATOM      5  C5  I4B d   1      -3.749  -3.251   0.805  0.00  0.00     0.002 A 
ATOM      6  C6  I4B d   1      -4.731  -2.250   0.804  0.00  0.00     0.003 A 
ENDROOT
BRANCH   1   7
ATOM      7  C1' I4B d   1      -5.564  -0.011   0.035  0.00  0.00     0.060 C 
BRANCH   7   8
ATOM      8  C2' I4B d   1      -5.309   0.877  -1.165  0.00  0.00    -0.013 C 
ATOM      9  C4' I4B d   1      -6.000   0.346  -2.394  0.00  0.00     0.013 C 
ATOM     10  C3' I4B d   1      -5.786   2.258  -0.829  0.00  0.00     0.013 C 
ENDBRANCH   7   8
ENDBRANCH   1   7
TORSDOF 2
ENDMDL
