MODEL 1
REMARK minimizedAffinity 20.6341114
REMARK minimizedRMSD -1
REMARK  2 active torsions:
REMARK  status: ('A' for Active; 'I' for Inactive)
REMARK    1  A    between atoms: C2'_3  and  C1'_4 
REMARK    2  A    between atoms: C1'_4  and  C1_5 
ROOT
ATOM      1  C1  I4B d   1      -1.347  -4.455  -2.747  0.00  0.00    -0.075 A 
ATOM      2  C2  I4B d   1      -0.307  -4.823  -3.565  0.00  0.00     0.003 A 
ATOM      3  C3  I4B d   1      -0.554  -5.586  -4.732  0.00  0.00     0.002 A 
ATOM      4  C4  I4B d   1      -1.840  -6.000  -5.014  0.00  0.00    -0.004 A 
ATOM      5  C5  I4B d   1      -2.895  -5.606  -4.196  0.00  0.00     0.002 A 
ATOM      6  C6  I4B d   1      -2.649  -4.818  -3.062  0.00  0.00     0.003 A 
ENDROOT
BRANCH   1   7
ATOM      7  C1' I4B d   1      -1.046  -3.676  -1.506  0.00  0.00     0.060 C 
BRANCH   7   8
ATOM      8  C2' I4B d   1      -0.716  -4.663  -0.405  0.00  0.00    -0.013 C 
ATOM      9  C4' I4B d   1       0.736  -4.578  -0.013  0.00  0.00     0.013 C 
ATOM     10  C3' I4B d   1      -1.610  -4.370   0.763  0.00  0.00     0.013 C 
ENDBRANCH   7   8
ENDBRANCH   1   7
TORSDOF 2
ENDMDL
