MODEL 1
REMARK minimizedAffinity 15.5385618
REMARK minimizedRMSD -1
REMARK  2 active torsions:
REMARK  status: ('A' for Active; 'I' for Inactive)
REMARK    1  A    between atoms: C2'_3  and  C1'_4 
REMARK    2  A    between atoms: C1'_4  and  C1_5 
ROOT
ATOM      1  C1  I4B d   1       1.949  -0.110   1.662  0.00  0.00    -0.075 A 
ATOM      2  C2  I4B d   1       2.854  -0.777   2.449  0.00  0.00     0.003 A 
ATOM      3  C3  I4B d   1       2.462  -1.940   3.156  0.00  0.00     0.002 A 
ATOM      4  C4  I4B d   1       1.152  -2.369   3.087  0.00  0.00    -0.004 A 
ATOM      5  C5  I4B d   1       0.242  -1.704   2.270  0.00  0.00     0.002 A 
ATOM      6  C6  I4B d   1       0.645  -0.575   1.543  0.00  0.00     0.003 A 
ENDROOT
BRANCH   1   7
ATOM      7  C1' I4B d   1       2.387   1.134   0.955  0.00  0.00     0.060 C 
BRANCH   7   8
ATOM      8  C2' I4B d   1       3.329   0.729  -0.161  0.00  0.00    -0.013 C 
ATOM      9  C4' I4B d   1       2.684   0.908  -1.510  0.00  0.00     0.013 C 
ATOM     10  C3' I4B d   1       4.572   1.559  -0.041  0.00  0.00     0.013 C 
ENDBRANCH   7   8
ENDBRANCH   1   7
TORSDOF 2
ENDMDL
