MODEL 1
REMARK minimizedAffinity 17.4205246
REMARK minimizedRMSD -1
REMARK  2 active torsions:
REMARK  status: ('A' for Active; 'I' for Inactive)
REMARK    1  A    between atoms: C2'_3  and  C1'_4 
REMARK    2  A    between atoms: C1'_4  and  C1_5 
ROOT
ATOM      1  C1  I4B d   1      -0.635  -1.780   2.123  0.00  0.00    -0.075 A 
ATOM      2  C2  I4B d   1      -0.772  -0.741   3.009  0.00  0.00     0.003 A 
ATOM      3  C3  I4B d   1       0.198  -0.533   4.020  0.00  0.00     0.002 A 
ATOM      4  C4  I4B d   1       1.255  -1.413   4.138  0.00  0.00    -0.004 A 
ATOM      5  C5  I4B d   1       1.405  -2.452   3.225  0.00  0.00     0.002 A 
ATOM      6  C6  I4B d   1       0.461  -2.630   2.203  0.00  0.00     0.003 A 
ENDROOT
BRANCH   1   7
ATOM      7  C1' I4B d   1      -1.695  -1.990   1.088  0.00  0.00     0.060 C 
BRANCH   7   8
ATOM      8  C2' I4B d   1      -2.227  -3.400   1.244  0.00  0.00    -0.013 C 
ATOM      9  C4' I4B d   1      -3.726  -3.405   1.383  0.00  0.00     0.013 C 
ATOM     10  C3' I4B d   1      -1.791  -4.194   0.049  0.00  0.00     0.013 C 
ENDBRANCH   7   8
ENDBRANCH   1   7
TORSDOF 2
ENDMDL
