MODEL 1
REMARK minimizedAffinity 12.5558548
REMARK minimizedRMSD -1
REMARK  2 active torsions:
REMARK  status: ('A' for Active; 'I' for Inactive)
REMARK    1  A    between atoms: C2'_3  and  C1'_4 
REMARK    2  A    between atoms: C1'_4  and  C1_5 
ROOT
ATOM      1  C1  I4B d   1      -1.482  -0.080   2.876  0.00  0.00    -0.075 A 
ATOM      2  C2  I4B d   1      -2.289   1.027   2.780  0.00  0.00     0.003 A 
ATOM      3  C3  I4B d   1      -2.588   1.794   3.932  0.00  0.00     0.002 A 
ATOM      4  C4  I4B d   1      -2.104   1.392   5.160  0.00  0.00    -0.004 A 
ATOM      5  C5  I4B d   1      -1.267   0.283   5.253  0.00  0.00     0.002 A 
ATOM      6  C6  I4B d   1      -0.944  -0.451   4.102  0.00  0.00     0.003 A 
ENDROOT
BRANCH   1   7
ATOM      7  C1' I4B d   1      -1.214  -0.885   1.645  0.00  0.00     0.060 C 
BRANCH   7   8
ATOM      8  C2' I4B d   1      -1.680  -2.304   1.904  0.00  0.00    -0.013 C 
ATOM      9  C4' I4B d   1      -3.181  -2.374   2.008  0.00  0.00     0.013 C 
ATOM     10  C3' I4B d   1      -1.174  -3.169   0.789  0.00  0.00     0.013 C 
ENDBRANCH   7   8
ENDBRANCH   1   7
TORSDOF 2
ENDMDL
