MODEL 1
REMARK minimizedAffinity 12.2330894
REMARK minimizedRMSD -1
REMARK  2 active torsions:
REMARK  status: ('A' for Active; 'I' for Inactive)
REMARK    1  A    between atoms: C2'_3  and  C1'_4 
REMARK    2  A    between atoms: C1'_4  and  C1_5 
ROOT
ATOM      1  C1  I4B d   1       3.632   1.446  -0.971  0.00  0.00    -0.075 A 
ATOM      2  C2  I4B d   1       2.798   0.804  -0.090  0.00  0.00     0.003 A 
ATOM      3  C3  I4B d   1       3.017   0.910   1.305  0.00  0.00     0.002 A 
ATOM      4  C4  I4B d   1       4.103   1.623   1.770  0.00  0.00    -0.004 A 
ATOM      5  C5  I4B d   1       4.934   2.293   0.877  0.00  0.00     0.002 A 
ATOM      6  C6  I4B d   1       4.690   2.215  -0.502  0.00  0.00     0.003 A 
ENDROOT
BRANCH   1   7
ATOM      7  C1' I4B d   1       3.391   1.286  -2.438  0.00  0.00     0.060 C 
BRANCH   7   8
ATOM      8  C2' I4B d   1       3.266   2.668  -3.045  0.00  0.00    -0.013 C 
ATOM      9  C4' I4B d   1       4.139   2.809  -4.264  0.00  0.00     0.013 C 
ATOM     10  C3' I4B d   1       1.823   2.897  -3.383  0.00  0.00     0.013 C 
ENDBRANCH   7   8
ENDBRANCH   1   7
TORSDOF 2
ENDMDL
