MODEL 1
REMARK minimizedAffinity 20.9500427
REMARK minimizedRMSD -1
REMARK  2 active torsions:
REMARK  status: ('A' for Active; 'I' for Inactive)
REMARK    1  A    between atoms: C2'_3  and  C1'_4 
REMARK    2  A    between atoms: C1'_4  and  C1_5 
ROOT
ATOM      1  C1  I4B d   1      -4.589  -0.374   0.363  0.00  0.00    -0.075 A 
ATOM      2  C2  I4B d   1      -5.262   0.758   0.753  0.00  0.00     0.003 A 
ATOM      3  C3  I4B d   1      -5.999   1.510  -0.193  0.00  0.00     0.002 A 
ATOM      4  C4  I4B d   1      -5.996   1.127  -1.519  0.00  0.00    -0.004 A 
ATOM      5  C5  I4B d   1      -5.332  -0.033  -1.908  0.00  0.00     0.002 A 
ATOM      6  C6  I4B d   1      -4.635  -0.795  -0.960  0.00  0.00     0.003 A 
ENDROOT
BRANCH   1   7
ATOM      7  C1' I4B d   1      -3.794  -1.126   1.381  0.00  0.00     0.060 C 
BRANCH   7   8
ATOM      8  C2' I4B d   1      -2.326  -0.967   1.038  0.00  0.00    -0.013 C 
ATOM      9  C4' I4B d   1      -1.552  -0.406   2.202  0.00  0.00     0.013 C 
ATOM     10  C3' I4B d   1      -1.797  -2.310   0.633  0.00  0.00     0.013 C 
ENDBRANCH   7   8
ENDBRANCH   1   7
TORSDOF 2
ENDMDL
