MODEL 1
REMARK minimizedAffinity 16.5502167
REMARK minimizedRMSD -1
REMARK  2 active torsions:
REMARK  status: ('A' for Active; 'I' for Inactive)
REMARK    1  A    between atoms: C2'_3  and  C1'_4 
REMARK    2  A    between atoms: C1'_4  and  C1_5 
ROOT
ATOM      1  C1  I4B d   1       4.375   3.856  -3.879  0.00  0.00    -0.075 A 
ATOM      2  C2  I4B d   1       5.071   4.544  -4.841  0.00  0.00     0.003 A 
ATOM      3  C3  I4B d   1       5.918   5.618  -4.475  0.00  0.00     0.002 A 
ATOM      4  C4  I4B d   1       6.000   6.000  -3.152  0.00  0.00    -0.004 A 
ATOM      5  C5  I4B d   1       5.311   5.286  -2.175  0.00  0.00     0.002 A 
ATOM      6  C6  I4B d   1       4.503   4.199  -2.539  0.00  0.00     0.003 A 
ENDROOT
BRANCH   1   7
ATOM      7  C1' I4B d   1       3.464   2.748  -4.303  0.00  0.00     0.060 C 
BRANCH   7   8
ATOM      8  C2' I4B d   1       2.306   2.695  -3.327  0.00  0.00    -0.013 C 
ATOM      9  C4' I4B d   1       2.629   1.821  -2.144  0.00  0.00     0.013 C 
ATOM     10  C3' I4B d   1       2.001   4.099  -2.895  0.00  0.00     0.013 C 
ENDBRANCH   7   8
ENDBRANCH   1   7
TORSDOF 2
ENDMDL
