MODEL 1
REMARK minimizedAffinity 13.3176212
REMARK minimizedRMSD -1
REMARK  2 active torsions:
REMARK  status: ('A' for Active; 'I' for Inactive)
REMARK    1  A    between atoms: C2'_3  and  C1'_4 
REMARK    2  A    between atoms: C1'_4  and  C1_5 
ROOT
ATOM      1  C1  I4B d   1       3.414   3.462  -3.537  0.00  0.00    -0.075 A 
ATOM      2  C2  I4B d   1       3.976   4.248  -2.562  0.00  0.00     0.003 A 
ATOM      3  C3  I4B d   1       5.277   4.779  -2.736  0.00  0.00     0.002 A 
ATOM      4  C4  I4B d   1       5.996   4.459  -3.870  0.00  0.00    -0.004 A 
ATOM      5  C5  I4B d   1       5.416   3.680  -4.868  0.00  0.00     0.002 A 
ATOM      6  C6  I4B d   1       4.113   3.188  -4.706  0.00  0.00     0.003 A 
ENDROOT
BRANCH   1   7
ATOM      7  C1' I4B d   1       2.051   2.890  -3.306  0.00  0.00     0.060 C 
BRANCH   7   8
ATOM      8  C2' I4B d   1       1.084   4.044  -3.136  0.00  0.00    -0.013 C 
ATOM      9  C4' I4B d   1       1.796   5.288  -2.673  0.00  0.00     0.013 C 
ATOM     10  C3' I4B d   1       0.398   4.271  -4.450  0.00  0.00     0.013 C 
ENDBRANCH   7   8
ENDBRANCH   1   7
TORSDOF 2
ENDMDL
