MODEL 1
REMARK minimizedAffinity 24.6941757
REMARK minimizedRMSD -1
REMARK  0 active torsions:
REMARK  status: ('A' for Active; 'I' for Inactive)
ROOT
ATOM      1  C   UNL d   1      -3.253   2.314   1.401  0.00  0.00     0.124 A 
ATOM      2  C1  UNL d   1      -3.514   1.853   0.118  0.00  0.00     0.062 A 
ATOM      3  C2  UNL d   1      -2.464   1.546  -0.743  0.00  0.00     0.162 A 
ATOM      4  C3  UNL d   1      -1.143   1.698  -0.323  0.00  0.00    -0.034 A 
ATOM      5  C4  UNL d   1      -0.888   2.162   0.968  0.00  0.00     0.162 A 
ATOM      6  C5  UNL d   1      -1.940   2.468   1.825  0.00  0.00     0.062 A 
ATOM      7  F   UNL d   1      -1.686   2.913   3.064  0.00  0.00    -0.097 F 
ATOM      8  F1  UNL d   1       0.371   2.320   1.404  0.00  0.00    -0.096 F 
ATOM      9  I   UNL d   1       0.430   1.240  -1.608  0.00  0.00    -0.060 I 
ATOM     10  F2  UNL d   1      -2.746   1.103  -1.977  0.00  0.00    -0.096 F 
ATOM     11  F3  UNL d   1      -4.781   1.704  -0.294  0.00  0.00    -0.097 F 
ATOM     12  F4  UNL d   1      -4.265   2.609   2.227  0.00  0.00    -0.092 F 
ENDROOT
TORSDOF 0
ENDMDL
