MODEL 1
REMARK minimizedAffinity 16.1004581
REMARK minimizedRMSD -1
REMARK  0 active torsions:
REMARK  status: ('A' for Active; 'I' for Inactive)
ROOT
ATOM      1  C   UNL d   1      -0.918   2.073   1.843  0.00  0.00     0.124 A 
ATOM      2  C1  UNL d   1      -1.678   2.328   0.710  0.00  0.00     0.062 A 
ATOM      3  C2  UNL d   1      -1.420   1.644  -0.474  0.00  0.00     0.162 A 
ATOM      4  C3  UNL d   1      -0.398   0.697  -0.532  0.00  0.00    -0.034 A 
ATOM      5  C4  UNL d   1       0.363   0.447   0.611  0.00  0.00     0.162 A 
ATOM      6  C5  UNL d   1       0.101   1.133   1.793  0.00  0.00     0.062 A 
ATOM      7  F   UNL d   1       0.837   0.885   2.886  0.00  0.00    -0.097 F 
ATOM      8  F1  UNL d   1       1.354  -0.458   0.591  0.00  0.00    -0.096 F 
ATOM      9  I   UNL d   1      -0.009  -0.328  -2.301  0.00  0.00    -0.060 I 
ATOM     10  F2  UNL d   1      -2.171   1.911  -1.554  0.00  0.00    -0.096 F 
ATOM     11  F3  UNL d   1      -2.663   3.237   0.756  0.00  0.00    -0.097 F 
ATOM     12  F4  UNL d   1      -1.167   2.734   2.981  0.00  0.00    -0.092 F 
ENDROOT
TORSDOF 0
ENDMDL
