MODEL 1
REMARK minimizedAffinity 18.1209927
REMARK minimizedRMSD -1
REMARK  0 active torsions:
REMARK  status: ('A' for Active; 'I' for Inactive)
ROOT
ATOM      1  C   UNL d   1      -0.009   0.498   1.520  0.00  0.00     0.124 A 
ATOM      2  C1  UNL d   1      -1.011   1.458   1.555  0.00  0.00     0.062 A 
ATOM      3  C2  UNL d   1      -1.217   2.295   0.462  0.00  0.00     0.162 A 
ATOM      4  C3  UNL d   1      -0.419   2.175  -0.676  0.00  0.00    -0.034 A 
ATOM      5  C4  UNL d   1       0.588   1.208  -0.703  0.00  0.00     0.162 A 
ATOM      6  C5  UNL d   1       0.789   0.374   0.392  0.00  0.00     0.062 A 
ATOM      7  F   UNL d   1       1.758  -0.553   0.357  0.00  0.00    -0.097 F 
ATOM      8  F1  UNL d   1       1.373   1.066  -1.781  0.00  0.00    -0.096 F 
ATOM      9  I   UNL d   1      -0.723   3.424  -2.313  0.00  0.00    -0.060 I 
ATOM     10  F2  UNL d   1      -2.192   3.213   0.523  0.00  0.00    -0.096 F 
ATOM     11  F3  UNL d   1      -1.783   1.581   2.644  0.00  0.00    -0.097 F 
ATOM     12  F4  UNL d   1       0.188  -0.305   2.574  0.00  0.00    -0.092 F 
ENDROOT
TORSDOF 0
ENDMDL
