MODEL 1
REMARK minimizedAffinity 17.9456234
REMARK minimizedRMSD -1
REMARK  0 active torsions:
REMARK  status: ('A' for Active; 'I' for Inactive)
ROOT
ATOM      1  C   UNL d   1      -1.858   1.551   2.087  0.00  0.00     0.124 A 
ATOM      2  C1  UNL d   1      -2.342   2.351   1.061  0.00  0.00     0.062 A 
ATOM      3  C2  UNL d   1      -1.651   2.437  -0.144  0.00  0.00     0.162 A 
ATOM      4  C3  UNL d   1      -0.469   1.720  -0.331  0.00  0.00    -0.034 A 
ATOM      5  C4  UNL d   1       0.012   0.918   0.705  0.00  0.00     0.162 A 
ATOM      6  C5  UNL d   1      -0.682   0.836   1.908  0.00  0.00     0.062 A 
ATOM      7  F   UNL d   1      -0.213   0.062   2.898  0.00  0.00    -0.097 F 
ATOM      8  F1  UNL d   1       1.145   0.216   0.559  0.00  0.00    -0.096 F 
ATOM      9  I   UNL d   1       0.566   1.847  -2.132  0.00  0.00    -0.060 I 
ATOM     10  F2  UNL d   1      -2.142   3.218  -1.118  0.00  0.00    -0.096 F 
ATOM     11  F3  UNL d   1      -3.477   3.043   1.232  0.00  0.00    -0.097 F 
ATOM     12  F4  UNL d   1      -2.523   1.470   3.246  0.00  0.00    -0.092 F 
ENDROOT
TORSDOF 0
ENDMDL
