MODEL 1
REMARK minimizedAffinity 12.2872486
REMARK minimizedRMSD -1
REMARK  0 active torsions:
REMARK  status: ('A' for Active; 'I' for Inactive)
ROOT
ATOM      1  C   UNL d   1       0.937   1.594  -1.234  0.00  0.00     0.124 A 
ATOM      2  C1  UNL d   1      -0.090   2.519  -1.108  0.00  0.00     0.062 A 
ATOM      3  C2  UNL d   1      -0.882   2.534   0.036  0.00  0.00     0.162 A 
ATOM      4  C3  UNL d   1      -0.649   1.622   1.066  0.00  0.00    -0.034 A 
ATOM      5  C4  UNL d   1       0.385   0.695   0.932  0.00  0.00     0.162 A 
ATOM      6  C5  UNL d   1       1.174   0.683  -0.214  0.00  0.00     0.062 A 
ATOM      7  F   UNL d   1       2.166  -0.211  -0.333  0.00  0.00    -0.097 F 
ATOM      8  F1  UNL d   1       0.637  -0.196   1.902  0.00  0.00    -0.096 F 
ATOM      9  I   UNL d   1      -1.831   1.642   2.779  0.00  0.00    -0.060 I 
ATOM     10  F2  UNL d   1      -1.868   3.439   0.130  0.00  0.00    -0.096 F 
ATOM     11  F3  UNL d   1      -0.322   3.399  -2.093  0.00  0.00    -0.097 F 
ATOM     12  F4  UNL d   1       1.697   1.581  -2.337  0.00  0.00    -0.092 F 
ENDROOT
TORSDOF 0
ENDMDL
