MODEL 1
REMARK minimizedAffinity 19.7554626
REMARK minimizedRMSD -1
REMARK  0 active torsions:
REMARK  status: ('A' for Active; 'I' for Inactive)
ROOT
ATOM      1  C   UNL d   1      -0.544  -0.262  -2.341  0.00  0.00     0.124 A 
ATOM      2  C1  UNL d   1       0.182   0.680  -1.625  0.00  0.00     0.062 A 
ATOM      3  C2  UNL d   1      -0.456   1.501  -0.700  0.00  0.00     0.162 A 
ATOM      4  C3  UNL d   1      -1.829   1.384  -0.485  0.00  0.00    -0.034 A 
ATOM      5  C4  UNL d   1      -2.554   0.435  -1.209  0.00  0.00     0.162 A 
ATOM      6  C5  UNL d   1      -1.911  -0.383  -2.132  0.00  0.00     0.062 A 
ATOM      7  F   UNL d   1      -2.614  -1.292  -2.823  0.00  0.00    -0.097 F 
ATOM      8  F1  UNL d   1      -3.875   0.296  -1.027  0.00  0.00    -0.096 F 
ATOM      9  I   UNL d   1      -2.788   2.610   0.897  0.00  0.00    -0.060 I 
ATOM     10  F2  UNL d   1       0.271   2.402  -0.023  0.00  0.00    -0.096 F 
ATOM     11  F3  UNL d   1       1.502   0.799  -1.825  0.00  0.00    -0.097 F 
ATOM     12  F4  UNL d   1       0.072  -1.050  -3.230  0.00  0.00    -0.092 F 
ENDROOT
TORSDOF 0
ENDMDL
