MODEL 1
REMARK minimizedAffinity 14.3711662
REMARK minimizedRMSD -1
REMARK  0 active torsions:
REMARK  status: ('A' for Active; 'I' for Inactive)
ROOT
ATOM      1  C   UNL d   1       3.728  -4.668  -2.835  0.00  0.00     0.124 A 
ATOM      2  C1  UNL d   1       3.550  -4.980  -1.494  0.00  0.00     0.062 A 
ATOM      3  C2  UNL d   1       4.197  -4.237  -0.511  0.00  0.00     0.162 A 
ATOM      4  C3  UNL d   1       5.029  -3.175  -0.865  0.00  0.00    -0.034 A 
ATOM      5  C4  UNL d   1       5.204  -2.868  -2.215  0.00  0.00     0.162 A 
ATOM      6  C5  UNL d   1       4.555  -3.613  -3.194  0.00  0.00     0.062 A 
ATOM      7  F   UNL d   1       4.729  -3.311  -4.489  0.00  0.00    -0.097 F 
ATOM      8  F1  UNL d   1       5.997  -1.853  -2.590  0.00  0.00    -0.096 F 
ATOM      9  I   UNL d   1       5.999  -2.062   0.602  0.00  0.00    -0.060 I 
ATOM     10  F2  UNL d   1       4.007  -4.561   0.777  0.00  0.00    -0.096 F 
ATOM     11  F3  UNL d   1       2.753  -6.000  -1.145  0.00  0.00    -0.097 F 
ATOM     12  F4  UNL d   1       3.105  -5.385  -3.779  0.00  0.00    -0.092 F 
ENDROOT
TORSDOF 0
ENDMDL
