MODEL 1
REMARK minimizedAffinity 7.7550931
REMARK minimizedRMSD -1
REMARK  0 active torsions:
REMARK  status: ('A' for Active; 'I' for Inactive)
ROOT
ATOM      1  C   UNL d   1      -1.516   1.380   2.138  0.00  0.00     0.124 A 
ATOM      2  C1  UNL d   1      -0.480   0.478   1.939  0.00  0.00     0.062 A 
ATOM      3  C2  UNL d   1       0.099   0.344   0.681  0.00  0.00     0.162 A 
ATOM      4  C3  UNL d   1      -0.356   1.114  -0.389  0.00  0.00    -0.034 A 
ATOM      5  C4  UNL d   1      -1.399   2.019  -0.182  0.00  0.00     0.162 A 
ATOM      6  C5  UNL d   1      -1.975   2.149   1.078  0.00  0.00     0.062 A 
ATOM      7  F   UNL d   1      -2.976   3.021   1.268  0.00  0.00    -0.097 F 
ATOM      8  F1  UNL d   1      -1.861   2.775  -1.188  0.00  0.00    -0.096 F 
ATOM      9  I   UNL d   1       0.508   0.917  -2.273  0.00  0.00    -0.060 I 
ATOM     10  F2  UNL d   1       1.099  -0.535   0.517  0.00  0.00    -0.096 F 
ATOM     11  F3  UNL d   1      -0.036  -0.267   2.961  0.00  0.00    -0.097 F 
ATOM     12  F4  UNL d   1      -2.073   1.506   3.350  0.00  0.00    -0.092 F 
ENDROOT
TORSDOF 0
ENDMDL
