MODEL 1
REMARK minimizedAffinity 14.542304
REMARK minimizedRMSD -1
REMARK  0 active torsions:
REMARK  status: ('A' for Active; 'I' for Inactive)
ROOT
ATOM      1  C   UNL d   1      -0.272  -0.042  -4.049  0.00  0.00     0.124 A 
ATOM      2  C1  UNL d   1      -1.332  -0.277  -3.184  0.00  0.00     0.062 A 
ATOM      3  C2  UNL d   1      -1.366   0.338  -1.936  0.00  0.00     0.162 A 
ATOM      4  C3  UNL d   1      -0.337   1.194  -1.545  0.00  0.00    -0.034 A 
ATOM      5  C4  UNL d   1       0.726   1.425  -2.419  0.00  0.00     0.162 A 
ATOM      6  C5  UNL d   1       0.756   0.809  -3.666  0.00  0.00     0.062 A 
ATOM      7  F   UNL d   1       1.781   1.037  -4.500  0.00  0.00    -0.097 F 
ATOM      8  F1  UNL d   1       1.732   2.243  -2.075  0.00  0.00    -0.096 F 
ATOM      9  I   UNL d   1      -0.384   2.115   0.321  0.00  0.00    -0.060 I 
ATOM     10  F2  UNL d   1      -2.403   0.093  -1.121  0.00  0.00    -0.096 F 
ATOM     11  F3  UNL d   1      -2.325  -1.098  -3.552  0.00  0.00    -0.097 F 
ATOM     12  F4  UNL d   1      -0.241  -0.635  -5.249  0.00  0.00    -0.092 F 
ENDROOT
TORSDOF 0
ENDMDL
