MODEL 1
REMARK minimizedAffinity 23.402626
REMARK minimizedRMSD -1
REMARK  0 active torsions:
REMARK  status: ('A' for Active; 'I' for Inactive)
ROOT
ATOM      1  C   UNL d   1      -1.057   1.486  -2.284  0.00  0.00     0.124 A 
ATOM      2  C1  UNL d   1       0.169   1.470  -1.633  0.00  0.00     0.062 A 
ATOM      3  C2  UNL d   1       0.775   0.258  -1.313  0.00  0.00     0.162 A 
ATOM      4  C3  UNL d   1       0.157  -0.947  -1.645  0.00  0.00    -0.034 A 
ATOM      5  C4  UNL d   1      -1.076  -0.923  -2.298  0.00  0.00     0.162 A 
ATOM      6  C5  UNL d   1      -1.678   0.290  -2.616  0.00  0.00     0.062 A 
ATOM      7  F   UNL d   1      -2.862   0.304  -3.245  0.00  0.00    -0.097 F 
ATOM      8  F1  UNL d   1      -1.698  -2.064  -2.632  0.00  0.00    -0.096 F 
ATOM      9  I   UNL d   1       1.061  -2.761  -1.168  0.00  0.00    -0.060 I 
ATOM     10  F2  UNL d   1       1.960   0.272  -0.684  0.00  0.00    -0.096 F 
ATOM     11  F3  UNL d   1       0.771   2.624  -1.310  0.00  0.00    -0.097 F 
ATOM     12  F4  UNL d   1      -1.639   2.653  -2.590  0.00  0.00    -0.092 F 
ENDROOT
TORSDOF 0
ENDMDL
