MODEL 1
REMARK minimizedAffinity 14.025094
REMARK minimizedRMSD -1
REMARK  0 active torsions:
REMARK  status: ('A' for Active; 'I' for Inactive)
ROOT
ATOM      1  C   UNL d   1      -0.356   2.703   2.565  0.00  0.00     0.124 A 
ATOM      2  C1  UNL d   1       0.446   1.915   3.379  0.00  0.00     0.062 A 
ATOM      3  C2  UNL d   1       0.093   0.595   3.643  0.00  0.00     0.162 A 
ATOM      4  C3  UNL d   1      -1.068   0.053   3.092  0.00  0.00    -0.034 A 
ATOM      5  C4  UNL d   1      -1.871   0.851   2.275  0.00  0.00     0.162 A 
ATOM      6  C5  UNL d   1      -1.514   2.170   2.014  0.00  0.00     0.062 A 
ATOM      7  F   UNL d   1      -2.290   2.930   1.228  0.00  0.00    -0.097 F 
ATOM      8  F1  UNL d   1      -2.994   0.362   1.729  0.00  0.00    -0.096 F 
ATOM      9  I   UNL d   1      -1.599  -1.921   3.484  0.00  0.00    -0.060 I 
ATOM     10  F2  UNL d   1       0.887  -0.143   4.433  0.00  0.00    -0.096 F 
ATOM     11  F3  UNL d   1       1.564   2.427   3.913  0.00  0.00    -0.097 F 
ATOM     12  F4  UNL d   1      -0.015   3.973   2.314  0.00  0.00    -0.092 F 
ENDROOT
TORSDOF 0
ENDMDL
