MODEL 1
REMARK minimizedAffinity 20.529377
REMARK minimizedRMSD -1
REMARK  0 active torsions:
REMARK  status: ('A' for Active; 'I' for Inactive)
ROOT
ATOM      1  C   UNL d   1       0.006   0.745  -4.145  0.00  0.00     0.124 A 
ATOM      2  C1  UNL d   1       0.878   1.431  -3.310  0.00  0.00     0.062 A 
ATOM      3  C2  UNL d   1       0.501   1.741  -2.007  0.00  0.00     0.162 A 
ATOM      4  C3  UNL d   1      -0.754   1.364  -1.529  0.00  0.00    -0.034 A 
ATOM      5  C4  UNL d   1      -1.626   0.675  -2.374  0.00  0.00     0.162 A 
ATOM      6  C5  UNL d   1      -1.244   0.368  -3.676  0.00  0.00     0.062 A 
ATOM      7  F   UNL d   1      -2.088  -0.295  -4.481  0.00  0.00    -0.097 F 
ATOM      8  F1  UNL d   1      -2.840   0.297  -1.947  0.00  0.00    -0.096 F 
ATOM      9  I   UNL d   1      -1.322   1.825   0.420  0.00  0.00    -0.060 I 
ATOM     10  F2  UNL d   1       1.363   2.405  -1.223  0.00  0.00    -0.096 F 
ATOM     11  F3  UNL d   1       2.086   1.798  -3.761  0.00  0.00    -0.097 F 
ATOM     12  F4  UNL d   1       0.371   0.449  -5.399  0.00  0.00    -0.092 F 
ENDROOT
TORSDOF 0
ENDMDL
