MODEL 1
REMARK minimizedAffinity 16.3482361
REMARK minimizedRMSD -1
REMARK  0 active torsions:
REMARK  status: ('A' for Active; 'I' for Inactive)
ROOT
ATOM      1  C   UNL d   1      -0.892   1.478   2.172  0.00  0.00     0.124 A 
ATOM      2  C1  UNL d   1      -1.512   2.061   1.076  0.00  0.00     0.062 A 
ATOM      3  C2  UNL d   1      -0.963   1.921  -0.196  0.00  0.00     0.162 A 
ATOM      4  C3  UNL d   1       0.214   1.194  -0.378  0.00  0.00    -0.034 A 
ATOM      5  C4  UNL d   1       0.832   0.612   0.730  0.00  0.00     0.162 A 
ATOM      6  C5  UNL d   1       0.279   0.754   1.998  0.00  0.00     0.062 A 
ATOM      7  F   UNL d   1       0.880   0.191   3.056  0.00  0.00    -0.097 F 
ATOM      8  F1  UNL d   1       1.964  -0.094   0.590  0.00  0.00    -0.096 F 
ATOM      9  I   UNL d   1       1.038   0.982  -2.277  0.00  0.00    -0.060 I 
ATOM     10  F2  UNL d   1      -1.583   2.495  -1.237  0.00  0.00    -0.096 F 
ATOM     11  F3  UNL d   1      -2.643   2.762   1.241  0.00  0.00    -0.097 F 
ATOM     12  F4  UNL d   1      -1.422   1.616   3.394  0.00  0.00    -0.092 F 
ENDROOT
TORSDOF 0
ENDMDL
