MODEL 1
REMARK minimizedAffinity -0.777751684
REMARK minimizedRMSD -1
REMARK  0 active torsions:
REMARK  status: ('A' for Active; 'I' for Inactive)
ROOT
ATOM      1  C   UNL d   1      -0.561   1.357   1.520  0.00  0.00     0.124 A 
ATOM      2  C1  UNL d   1      -1.098   1.922   0.371  0.00  0.00     0.062 A 
ATOM      3  C2  UNL d   1      -0.815   1.374  -0.877  0.00  0.00     0.162 A 
ATOM      4  C3  UNL d   1       0.009   0.254  -0.983  0.00  0.00    -0.034 A 
ATOM      5  C4  UNL d   1       0.546  -0.308   0.177  0.00  0.00     0.162 A 
ATOM      6  C5  UNL d   1       0.260   0.243   1.422  0.00  0.00     0.062 A 
ATOM      7  F   UNL d   1       0.780  -0.304   2.530  0.00  0.00    -0.097 F 
ATOM      8  F1  UNL d   1       1.343  -1.386   0.111  0.00  0.00    -0.096 F 
ATOM      9  I   UNL d   1       0.435  -0.569  -2.846  0.00  0.00    -0.060 I 
ATOM     10  F2  UNL d   1      -1.348   1.940  -1.970  0.00  0.00    -0.096 F 
ATOM     11  F3  UNL d   1      -1.891   2.999   0.463  0.00  0.00    -0.097 F 
ATOM     12  F4  UNL d   1      -0.834   1.887   2.719  0.00  0.00    -0.092 F 
ENDROOT
TORSDOF 0
ENDMDL
