MODEL 1
REMARK minimizedAffinity 12.0686827
REMARK minimizedRMSD -1
REMARK  0 active torsions:
REMARK  status: ('A' for Active; 'I' for Inactive)
ROOT
ATOM      1  C   UNL d   1       3.785  -1.887   0.361  0.00  0.00     0.124 A 
ATOM      2  C1  UNL d   1       4.907  -1.898  -0.457  0.00  0.00     0.062 A 
ATOM      3  C2  UNL d   1       4.902  -2.626  -1.643  0.00  0.00     0.162 A 
ATOM      4  C3  UNL d   1       3.770  -3.349  -2.020  0.00  0.00    -0.034 A 
ATOM      5  C4  UNL d   1       2.646  -3.335  -1.192  0.00  0.00     0.162 A 
ATOM      6  C5  UNL d   1       2.656  -2.605  -0.007  0.00  0.00     0.062 A 
ATOM      7  F   UNL d   1       1.572  -2.596   0.781  0.00  0.00    -0.097 F 
ATOM      8  F1  UNL d   1       1.541  -4.019  -1.524  0.00  0.00    -0.096 F 
ATOM      9  I   UNL d   1       3.758  -4.439  -3.793  0.00  0.00    -0.060 I 
ATOM     10  F2  UNL d   1       5.999  -2.618  -2.414  0.00  0.00    -0.096 F 
ATOM     11  F3  UNL d   1       5.999  -1.205  -0.103  0.00  0.00    -0.097 F 
ATOM     12  F4  UNL d   1       3.794  -1.187   1.502  0.00  0.00    -0.092 F 
ENDROOT
TORSDOF 0
ENDMDL
