MODEL 1
REMARK minimizedAffinity 12.7660027
REMARK minimizedRMSD -1
REMARK  0 active torsions:
REMARK  status: ('A' for Active; 'I' for Inactive)
ROOT
ATOM      1  C   UNL d   1       3.944  -1.810  -0.787  0.00  0.00     0.124 A 
ATOM      2  C1  UNL d   1       4.738  -2.610  -1.597  0.00  0.00     0.062 A 
ATOM      3  C2  UNL d   1       4.229  -3.791  -2.129  0.00  0.00     0.162 A 
ATOM      4  C3  UNL d   1       2.918  -4.179  -1.855  0.00  0.00    -0.034 A 
ATOM      5  C4  UNL d   1       2.125  -3.370  -1.038  0.00  0.00     0.162 A 
ATOM      6  C5  UNL d   1       2.639  -2.190  -0.509  0.00  0.00     0.062 A 
ATOM      7  F   UNL d   1       1.870  -1.419   0.273  0.00  0.00    -0.097 F 
ATOM      8  F1  UNL d   1       0.860  -3.713  -0.754  0.00  0.00    -0.096 F 
ATOM      9  I   UNL d   1       2.153  -5.944  -2.649  0.00  0.00    -0.060 I 
ATOM     10  F2  UNL d   1       5.019  -4.544  -2.909  0.00  0.00    -0.096 F 
ATOM     11  F3  UNL d   1       6.000  -2.245  -1.867  0.00  0.00    -0.097 F 
ATOM     12  F4  UNL d   1       4.437  -0.675  -0.275  0.00  0.00    -0.092 F 
ENDROOT
TORSDOF 0
ENDMDL
