MODEL 1
REMARK minimizedAffinity 22.6933823
REMARK minimizedRMSD -1
REMARK  0 active torsions:
REMARK  status: ('A' for Active; 'I' for Inactive)
ROOT
ATOM      1  C   UNL d   1       0.521   2.759   2.193  0.00  0.00     0.124 A 
ATOM      2  C1  UNL d   1      -0.618   2.081   1.780  0.00  0.00     0.062 A 
ATOM      3  C2  UNL d   1      -1.112   2.263   0.492  0.00  0.00     0.162 A 
ATOM      4  C3  UNL d   1      -0.468   3.125  -0.394  0.00  0.00    -0.034 A 
ATOM      5  C4  UNL d   1       0.677   3.804   0.028  0.00  0.00     0.162 A 
ATOM      6  C5  UNL d   1       1.167   3.619   1.317  0.00  0.00     0.062 A 
ATOM      7  F   UNL d   1       2.268   4.275   1.713  0.00  0.00    -0.097 F 
ATOM      8  F1  UNL d   1       1.321   4.641  -0.798  0.00  0.00    -0.096 F 
ATOM      9  I   UNL d   1      -1.204   3.400  -2.321  0.00  0.00    -0.060 I 
ATOM     10  F2  UNL d   1      -2.215   1.595   0.121  0.00  0.00    -0.096 F 
ATOM     11  F3  UNL d   1      -1.244   1.249   2.625  0.00  0.00    -0.097 F 
ATOM     12  F4  UNL d   1       0.995   2.583   3.433  0.00  0.00    -0.092 F 
ENDROOT
TORSDOF 0
ENDMDL
