MODEL 1
REMARK minimizedAffinity -5.03266239
REMARK minimizedRMSD -1
REMARK  0 active torsions:
REMARK  status: ('A' for Active; 'I' for Inactive)
ROOT
ATOM      1  O1  BZF d   1       0.823  -4.314   2.109  0.00  0.00    -0.204 OA
ATOM      2  C2  BZF d   1       1.820  -5.065   1.517  0.00  0.00     0.174 A 
ATOM      3  C3  BZF d   1       2.435  -4.363   0.544  0.00  0.00    -0.012 A 
ATOM      4  C3A BZF d   1       1.844  -3.061   0.589  0.00  0.00    -0.107 A 
ATOM      5  C4  BZF d   1       2.047  -1.912  -0.122  0.00  0.00     0.055 A 
ATOM      6  C5  BZF d   1       1.252  -0.837   0.120  0.00  0.00    -0.016 A 
ATOM      7  C6  BZF d   1       0.243  -0.876   1.060  0.00  0.00     0.022 A 
ATOM      8  C7  BZF d   1       0.007  -1.991   1.794  0.00  0.00     0.029 A 
ATOM      9  C7A BZF d   1       0.830  -3.069   1.575  0.00  0.00     0.058 A 
ENDROOT
TORSDOF 0
ENDMDL
