MODEL 1
REMARK minimizedAffinity 9.365242
REMARK minimizedRMSD -1
REMARK  0 active torsions:
REMARK  status: ('A' for Active; 'I' for Inactive)
ROOT
ATOM      1  O1  BZF d   1       0.969  -3.213   0.036  0.00  0.00    -0.204 OA
ATOM      2  C2  BZF d   1       2.257  -2.993  -0.414  0.00  0.00     0.174 A 
ATOM      3  C3  BZF d   1       2.686  -1.766  -0.055  0.00  0.00    -0.012 A 
ATOM      4  C3A BZF d   1       1.633  -1.218   0.743  0.00  0.00    -0.107 A 
ATOM      5  C4  BZF d   1       1.474  -0.032   1.402  0.00  0.00     0.055 A 
ATOM      6  C5  BZF d   1       0.296   0.223   2.029  0.00  0.00    -0.016 A 
ATOM      7  C6  BZF d   1      -0.745  -0.683   2.013  0.00  0.00     0.022 A 
ATOM      8  C7  BZF d   1      -0.633  -1.874   1.378  0.00  0.00     0.029 A 
ATOM      9  C7A BZF d   1       0.568  -2.148   0.771  0.00  0.00     0.058 A 
ENDROOT
TORSDOF 0
ENDMDL
