MODEL 1
REMARK minimizedAffinity 3.27231717
REMARK minimizedRMSD -1
REMARK  0 active torsions:
REMARK  status: ('A' for Active; 'I' for Inactive)
ROOT
ATOM      1  O1  BZF d   1       0.929  -5.158   1.304  0.00  0.00    -0.204 OA
ATOM      2  C2  BZF d   1       2.099  -4.873   0.627  0.00  0.00     0.174 A 
ATOM      3  C3  BZF d   1       2.243  -3.543   0.459  0.00  0.00    -0.012 A 
ATOM      4  C3A BZF d   1       1.136  -2.955   1.149  0.00  0.00    -0.107 A 
ATOM      5  C4  BZF d   1       0.736  -1.665   1.355  0.00  0.00     0.055 A 
ATOM      6  C5  BZF d   1      -0.432  -1.433   2.010  0.00  0.00    -0.016 A 
ATOM      7  C6  BZF d   1      -1.226  -2.464   2.467  0.00  0.00     0.022 A 
ATOM      8  C7  BZF d   1      -0.869  -3.759   2.290  0.00  0.00     0.029 A 
ATOM      9  C7A BZF d   1       0.327  -3.997   1.658  0.00  0.00     0.058 A 
ENDROOT
TORSDOF 0
ENDMDL
