MODEL 1
REMARK minimizedAffinity 0.881188512
REMARK minimizedRMSD -1
REMARK  0 active torsions:
REMARK  status: ('A' for Active; 'I' for Inactive)
ROOT
ATOM      1  O1  BZF d   1      -0.168  -2.094   2.511  0.00  0.00    -0.204 OA
ATOM      2  C2  BZF d   1      -0.693  -0.883   2.102  0.00  0.00     0.174 A 
ATOM      3  C3  BZF d   1      -0.051  -0.430   1.006  0.00  0.00    -0.012 A 
ATOM      4  C3A BZF d   1       0.875  -1.463   0.658  0.00  0.00    -0.107 A 
ATOM      5  C4  BZF d   1       1.787  -1.607  -0.349  0.00  0.00     0.055 A 
ATOM      6  C5  BZF d   1       2.587  -2.705  -0.363  0.00  0.00    -0.016 A 
ATOM      7  C6  BZF d   1       2.507  -3.675   0.615  0.00  0.00     0.022 A 
ATOM      8  C7  BZF d   1       1.615  -3.579   1.630  0.00  0.00     0.029 A 
ATOM      9  C7A BZF d   1       0.782  -2.487   1.629  0.00  0.00     0.058 A 
ENDROOT
TORSDOF 0
ENDMDL
