MODEL 1
REMARK minimizedAffinity 3.65181923
REMARK minimizedRMSD -1
REMARK  0 active torsions:
REMARK  status: ('A' for Active; 'I' for Inactive)
ROOT
ATOM      1  O1  BZF d   1      -2.369  -0.350  -5.912  0.00  0.00    -0.204 OA
ATOM      2  C2  BZF d   1      -1.556  -1.459  -5.786  0.00  0.00     0.174 A 
ATOM      3  C3  BZF d   1      -2.294  -2.580  -5.651  0.00  0.00    -0.012 A 
ATOM      4  C3A BZF d   1      -3.653  -2.155  -5.789  0.00  0.00    -0.107 A 
ATOM      5  C4  BZF d   1      -4.849  -2.812  -5.765  0.00  0.00     0.055 A 
ATOM      6  C5  BZF d   1      -6.000  -2.094  -5.856  0.00  0.00    -0.016 A 
ATOM      7  C6  BZF d   1      -5.990  -0.719  -5.967  0.00  0.00     0.022 A 
ATOM      8  C7  BZF d   1      -4.828  -0.023  -6.000  0.00  0.00     0.029 A 
ATOM      9  C7A BZF d   1      -3.663  -0.749  -5.941  0.00  0.00     0.058 A 
ENDROOT
TORSDOF 0
ENDMDL
