MODEL 1
REMARK minimizedAffinity 7.82642984
REMARK minimizedRMSD -1
REMARK  0 active torsions:
REMARK  status: ('A' for Active; 'I' for Inactive)
ROOT
ATOM      1  O1  BZF d   1      -6.000   1.218   3.706  0.00  0.00    -0.204 OA
ATOM      2  C2  BZF d   1      -5.163   0.963   2.637  0.00  0.00     0.174 A 
ATOM      3  C3  BZF d   1      -4.160   1.864   2.589  0.00  0.00    -0.012 A 
ATOM      4  C3A BZF d   1      -4.332   2.680   3.752  0.00  0.00    -0.107 A 
ATOM      5  C4  BZF d   1      -3.640   3.739   4.266  0.00  0.00     0.055 A 
ATOM      6  C5  BZF d   1      -4.113   4.360   5.379  0.00  0.00    -0.016 A 
ATOM      7  C6  BZF d   1      -5.276   3.952   5.998  0.00  0.00     0.022 A 
ATOM      8  C7  BZF d   1      -5.994   2.904   5.528  0.00  0.00     0.029 A 
ATOM      9  C7A BZF d   1      -5.501   2.254   4.423  0.00  0.00     0.058 A 
ENDROOT
TORSDOF 0
ENDMDL
