MODEL 1
REMARK minimizedAffinity 6.90166712
REMARK minimizedRMSD -1
REMARK  0 active torsions:
REMARK  status: ('A' for Active; 'I' for Inactive)
ROOT
ATOM      1  O1  BZF d   1      -1.261   0.247   2.714  0.00  0.00    -0.204 OA
ATOM      2  C2  BZF d   1      -0.091   0.899   2.374  0.00  0.00     0.174 A 
ATOM      3  C3  BZF d   1       0.808   0.033   1.862  0.00  0.00    -0.012 A 
ATOM      4  C3A BZF d   1       0.126  -1.223   1.797  0.00  0.00    -0.107 A 
ATOM      5  C4  BZF d   1       0.487  -2.466   1.363  0.00  0.00     0.055 A 
ATOM      6  C5  BZF d   1      -0.389  -3.495   1.504  0.00  0.00    -0.016 A 
ATOM      7  C6  BZF d   1      -1.631  -3.318   2.078  0.00  0.00     0.022 A 
ATOM      8  C7  BZF d   1      -2.036  -2.103   2.519  0.00  0.00     0.029 A 
ATOM      9  C7A BZF d   1      -1.166  -1.054   2.348  0.00  0.00     0.058 A 
ENDROOT
TORSDOF 0
ENDMDL
