MODEL 1
REMARK minimizedAffinity 7.03440189
REMARK minimizedRMSD -1
REMARK  0 active torsions:
REMARK  status: ('A' for Active; 'I' for Inactive)
ROOT
ATOM      1  O1  BZF d   1      -0.310   0.048   1.493  0.00  0.00    -0.204 OA
ATOM      2  C2  BZF d   1      -1.479   0.766   1.659  0.00  0.00     0.174 A 
ATOM      3  C3  BZF d   1      -2.365   0.073   2.403  0.00  0.00    -0.012 A 
ATOM      4  C3A BZF d   1      -1.674  -1.116   2.799  0.00  0.00    -0.107 A 
ATOM      5  C4  BZF d   1      -2.022  -2.193   3.563  0.00  0.00     0.055 A 
ATOM      6  C5  BZF d   1      -1.143  -3.220   3.696  0.00  0.00    -0.016 A 
ATOM      7  C6  BZF d   1       0.090  -3.206   3.076  0.00  0.00     0.022 A 
ATOM      8  C7  BZF d   1       0.481  -2.157   2.312  0.00  0.00     0.029 A 
ATOM      9  C7A BZF d   1      -0.392  -1.103   2.203  0.00  0.00     0.058 A 
ENDROOT
TORSDOF 0
ENDMDL
