MODEL 1
REMARK minimizedAffinity -3.21228647
REMARK minimizedRMSD -1
REMARK  0 active torsions:
REMARK  status: ('A' for Active; 'I' for Inactive)
ROOT
ATOM      1  O1  BZF d   1       3.402  -2.886   0.954  0.00  0.00    -0.204 OA
ATOM      2  C2  BZF d   1       3.770  -3.733   1.981  0.00  0.00     0.174 A 
ATOM      3  C3  BZF d   1       2.954  -3.581   3.043  0.00  0.00    -0.012 A 
ATOM      4  C3A BZF d   1       1.961  -2.641   2.623  0.00  0.00    -0.107 A 
ATOM      5  C4  BZF d   1       0.866  -2.096   3.232  0.00  0.00     0.055 A 
ATOM      6  C5  BZF d   1       0.145  -1.152   2.572  0.00  0.00    -0.016 A 
ATOM      7  C6  BZF d   1       0.492  -0.725   1.307  0.00  0.00     0.022 A 
ATOM      8  C7  BZF d   1       1.567  -1.240   0.661  0.00  0.00     0.029 A 
ATOM      9  C7A BZF d   1       2.278  -2.218   1.312  0.00  0.00     0.058 A 
ENDROOT
TORSDOF 0
ENDMDL
