MODEL 1
REMARK minimizedAffinity 5.84819841
REMARK minimizedRMSD -1
REMARK  0 active torsions:
REMARK  status: ('A' for Active; 'I' for Inactive)
ROOT
ATOM      1  O1  BZF d   1       0.194  -0.441  -0.310  0.00  0.00    -0.204 OA
ATOM      2  C2  BZF d   1      -0.895   0.341   0.021  0.00  0.00     0.174 A 
ATOM      3  C3  BZF d   1      -1.420  -0.045   1.202  0.00  0.00    -0.012 A 
ATOM      4  C3A BZF d   1      -0.553  -1.078   1.680  0.00  0.00    -0.107 A 
ATOM      5  C4  BZF d   1      -0.539  -1.845   2.810  0.00  0.00     0.055 A 
ATOM      6  C5  BZF d   1       0.404  -2.814   2.938  0.00  0.00    -0.016 A 
ATOM      7  C6  BZF d   1       1.345  -3.047   1.956  0.00  0.00     0.022 A 
ATOM      8  C7  BZF d   1       1.374  -2.309   0.820  0.00  0.00     0.029 A 
ATOM      9  C7A BZF d   1       0.443  -1.307   0.702  0.00  0.00     0.058 A 
ENDROOT
TORSDOF 0
ENDMDL
