MODEL 1
REMARK minimizedAffinity 2.50382757
REMARK minimizedRMSD -1
REMARK  0 active torsions:
REMARK  status: ('A' for Active; 'I' for Inactive)
ROOT
ATOM      1  O1  BZF d   1      -0.966  -1.545   2.993  0.00  0.00    -0.204 OA
ATOM      2  C2  BZF d   1      -0.888  -2.889   3.302  0.00  0.00     0.174 A 
ATOM      3  C3  BZF d   1       0.159  -3.464   2.676  0.00  0.00    -0.012 A 
ATOM      4  C3A BZF d   1       0.828  -2.394   2.002  0.00  0.00    -0.107 A 
ATOM      5  C4  BZF d   1       1.947  -2.331   1.221  0.00  0.00     0.055 A 
ATOM      6  C5  BZF d   1       2.290  -1.144   0.655  0.00  0.00    -0.016 A 
ATOM      7  C6  BZF d   1       1.536  -0.004   0.844  0.00  0.00     0.022 A 
ATOM      8  C7  BZF d   1       0.421  -0.017   1.614  0.00  0.00     0.029 A 
ATOM      9  C7A BZF d   1       0.090  -1.207   2.214  0.00  0.00     0.058 A 
ENDROOT
TORSDOF 0
ENDMDL
