MODEL 1
REMARK minimizedAffinity -2.71526885
REMARK minimizedRMSD -1
REMARK  0 active torsions:
REMARK  status: ('A' for Active; 'I' for Inactive)
ROOT
ATOM      1  O1  BZF d   1       2.654  -2.347  -0.185  0.00  0.00    -0.204 OA
ATOM      2  C2  BZF d   1       1.631  -1.728   0.506  0.00  0.00     0.174 A 
ATOM      3  C3  BZF d   1       1.719  -1.989   1.826  0.00  0.00    -0.012 A 
ATOM      4  C3A BZF d   1       2.922  -2.748   1.980  0.00  0.00    -0.107 A 
ATOM      5  C4  BZF d   1       3.559  -3.289   3.061  0.00  0.00     0.055 A 
ATOM      6  C5  BZF d   1       4.677  -4.035   2.863  0.00  0.00    -0.016 A 
ATOM      7  C6  BZF d   1       5.183  -4.264   1.600  0.00  0.00     0.022 A 
ATOM      8  C7  BZF d   1       4.589  -3.744   0.498  0.00  0.00     0.029 A 
ATOM      9  C7A BZF d   1       3.477  -2.962   0.698  0.00  0.00     0.058 A 
ENDROOT
TORSDOF 0
ENDMDL
