MODEL 1
REMARK minimizedAffinity 6.277215
REMARK minimizedRMSD -1
REMARK  0 active torsions:
REMARK  status: ('A' for Active; 'I' for Inactive)
ROOT
ATOM      1  O1  BZF d   1      -5.275   0.421   2.476  0.00  0.00    -0.204 OA
ATOM      2  C2  BZF d   1      -5.998  -0.444   1.678  0.00  0.00     0.174 A 
ATOM      3  C3  BZF d   1      -5.193  -1.058   0.787  0.00  0.00    -0.012 A 
ATOM      4  C3A BZF d   1      -3.871  -0.615   1.107  0.00  0.00    -0.107 A 
ATOM      5  C4  BZF d   1      -2.638  -0.887   0.587  0.00  0.00     0.055 A 
ATOM      6  C5  BZF d   1      -1.554  -0.232   1.079  0.00  0.00    -0.016 A 
ATOM      7  C6  BZF d   1      -1.667   0.704   2.086  0.00  0.00     0.022 A 
ATOM      8  C7  BZF d   1      -2.868   1.004   2.637  0.00  0.00     0.029 A 
ATOM      9  C7A BZF d   1      -3.961   0.320   2.164  0.00  0.00     0.058 A 
ENDROOT
TORSDOF 0
ENDMDL
