MODEL 1
REMARK minimizedAffinity -0.784685075
REMARK minimizedRMSD -1
REMARK  0 active torsions:
REMARK  status: ('A' for Active; 'I' for Inactive)
ROOT
ATOM      1  O1  BZF d   1      -0.568  -0.520   1.764  0.00  0.00    -0.204 OA
ATOM      2  C2  BZF d   1      -1.899  -0.341   2.089  0.00  0.00     0.174 A 
ATOM      3  C3  BZF d   1      -2.632  -0.090   0.986  0.00  0.00    -0.012 A 
ATOM      4  C3A BZF d   1      -1.717  -0.204  -0.108  0.00  0.00    -0.107 A 
ATOM      5  C4  BZF d   1      -1.851  -0.079  -1.461  0.00  0.00     0.055 A 
ATOM      6  C5  BZF d   1      -0.747  -0.178  -2.247  0.00  0.00    -0.016 A 
ATOM      7  C6  BZF d   1       0.507  -0.396  -1.712  0.00  0.00     0.022 A 
ATOM      8  C7  BZF d   1       0.689  -0.531  -0.376  0.00  0.00     0.029 A 
ATOM      9  C7A BZF d   1      -0.430  -0.464   0.417  0.00  0.00     0.058 A 
ENDROOT
TORSDOF 0
ENDMDL
