MODEL 1
REMARK minimizedAffinity 0.89838177
REMARK minimizedRMSD -1
REMARK  0 active torsions:
REMARK  status: ('A' for Active; 'I' for Inactive)
ROOT
ATOM      1  O1  BZF d   1       1.877  -3.648   1.027  0.00  0.00    -0.204 OA
ATOM      2  C2  BZF d   1       2.431  -2.663   0.233  0.00  0.00     0.174 A 
ATOM      3  C3  BZF d   1       1.803  -1.485   0.424  0.00  0.00    -0.012 A 
ATOM      4  C3A BZF d   1       0.854  -1.730   1.466  0.00  0.00    -0.107 A 
ATOM      5  C4  BZF d   1      -0.059  -0.943   2.109  0.00  0.00     0.055 A 
ATOM      6  C5  BZF d   1      -0.885  -1.506   3.029  0.00  0.00    -0.016 A 
ATOM      7  C6  BZF d   1      -0.830  -2.852   3.327  0.00  0.00     0.022 A 
ATOM      8  C7  BZF d   1       0.062  -3.672   2.720  0.00  0.00     0.029 A 
ATOM      9  C7A BZF d   1       0.921  -3.099   1.813  0.00  0.00     0.058 A 
ENDROOT
TORSDOF 0
ENDMDL
