MODEL 1
REMARK minimizedAffinity -3.52285361
REMARK minimizedRMSD -1
REMARK  0 active torsions:
REMARK  status: ('A' for Active; 'I' for Inactive)
ROOT
ATOM      1  O1  BZF d   1       0.430   0.170  -0.450  0.00  0.00    -0.204 OA
ATOM      2  C2  BZF d   1      -0.593   0.932   0.081  0.00  0.00     0.174 A 
ATOM      3  C3  BZF d   1      -1.037   0.397   1.237  0.00  0.00    -0.012 A 
ATOM      4  C3A BZF d   1      -0.180  -0.721   1.489  0.00  0.00    -0.107 A 
ATOM      5  C4  BZF d   1      -0.108  -1.641   2.494  0.00  0.00     0.055 A 
ATOM      6  C5  BZF d   1       0.798  -2.649   2.404  0.00  0.00    -0.016 A 
ATOM      7  C6  BZF d   1       1.645  -2.770   1.321  0.00  0.00     0.022 A 
ATOM      8  C7  BZF d   1       1.615  -1.878   0.301  0.00  0.00     0.029 A 
ATOM      9  C7A BZF d   1       0.722  -0.839   0.406  0.00  0.00     0.058 A 
ENDROOT
TORSDOF 0
ENDMDL
