MODEL 1
REMARK minimizedAffinity 1.46599305
REMARK minimizedRMSD -1
REMARK  0 active torsions:
REMARK  status: ('A' for Active; 'I' for Inactive)
ROOT
ATOM      1  C4' PXY d   1       1.766   5.237   6.000  0.00  0.00     0.077 C 
ATOM      2  C1' PXY d   1       5.867   1.165   5.879  0.00  0.00     0.077 C 
ATOM      3  C1  PXY d   1       4.800   2.242   5.915  0.00  0.00    -0.082 A 
ATOM      4  C2  PXY d   1       3.526   1.896   5.998  0.00  0.00     0.003 A 
ATOM      5  C3  PXY d   1       2.546   2.856   6.000  0.00  0.00     0.003 A 
ATOM      6  C4  PXY d   1       2.877   4.184   5.970  0.00  0.00    -0.082 A 
ATOM      7  C5  PXY d   1       4.176   4.545   5.896  0.00  0.00     0.003 A 
ATOM      8  C6  PXY d   1       5.153   3.554   5.854  0.00  0.00     0.003 A 
ENDROOT
TORSDOF 0
ENDMDL
