MODEL 1
REMARK minimizedAffinity 3.50493693
REMARK minimizedRMSD -1
REMARK  0 active torsions:
REMARK  status: ('A' for Active; 'I' for Inactive)
ROOT
ATOM      1  C4' PXY d   1       5.895   5.990   5.992  0.00  0.00     0.077 C 
ATOM      2  C1' PXY d   1       3.254   0.954   4.957  0.00  0.00     0.077 C 
ATOM      3  C1  PXY d   1       3.935   2.281   5.228  0.00  0.00    -0.082 A 
ATOM      4  C2  PXY d   1       5.223   2.422   4.958  0.00  0.00     0.003 A 
ATOM      5  C3  PXY d   1       5.862   3.605   5.226  0.00  0.00     0.003 A 
ATOM      6  C4  PXY d   1       5.164   4.672   5.726  0.00  0.00    -0.082 A 
ATOM      7  C5  PXY d   1       3.848   4.539   5.993  0.00  0.00     0.003 A 
ATOM      8  C6  PXY d   1       3.226   3.317   5.753  0.00  0.00     0.003 A 
ENDROOT
TORSDOF 0
ENDMDL
