MODEL 1
REMARK minimizedAffinity -3.15311408
REMARK minimizedRMSD -1
REMARK  0 active torsions:
REMARK  status: ('A' for Active; 'I' for Inactive)
ROOT
ATOM      1  C4' PXY d   1       2.722   1.840   3.663  0.00  0.00     0.077 C 
ATOM      2  C1' PXY d   1       6.000   5.989   6.000  0.00  0.00     0.077 C 
ATOM      3  C1  PXY d   1       5.149   4.892   5.390  0.00  0.00    -0.082 A 
ATOM      4  C2  PXY d   1       4.246   5.198   4.473  0.00  0.00     0.003 A 
ATOM      5  C3  PXY d   1       3.446   4.223   3.934  0.00  0.00     0.003 A 
ATOM      6  C4  PXY d   1       3.610   2.914   4.299  0.00  0.00    -0.082 A 
ATOM      7  C5  PXY d   1       4.537   2.592   5.226  0.00  0.00     0.003 A 
ATOM      8  C6  PXY d   1       5.310   3.602   5.791  0.00  0.00     0.003 A 
ENDROOT
TORSDOF 0
ENDMDL
