MODEL 1
REMARK minimizedAffinity -2.03688622
REMARK minimizedRMSD -1
REMARK  0 active torsions:
REMARK  status: ('A' for Active; 'I' for Inactive)
ROOT
ATOM      1  C4' PXY d   1       2.587   1.126   5.213  0.00  0.00     0.077 C 
ATOM      2  C1' PXY d   1       5.696   5.999   5.273  0.00  0.00     0.077 C 
ATOM      3  C1  PXY d   1       4.876   4.725   5.268  0.00  0.00    -0.082 A 
ATOM      4  C2  PXY d   1       5.278   3.690   4.548  0.00  0.00     0.003 A 
ATOM      5  C3  PXY d   1       4.531   2.541   4.508  0.00  0.00     0.003 A 
ATOM      6  C4  PXY d   1       3.389   2.430   5.254  0.00  0.00    -0.082 A 
ATOM      7  C5  PXY d   1       2.977   3.478   6.000  0.00  0.00     0.003 A 
ATOM      8  C6  PXY d   1       3.728   4.650   5.995  0.00  0.00     0.003 A 
ENDROOT
TORSDOF 0
ENDMDL
