MODEL 1
REMARK minimizedAffinity -5.02436161
REMARK minimizedRMSD -1
REMARK  0 active torsions:
REMARK  status: ('A' for Active; 'I' for Inactive)
ROOT
ATOM      1  C4' PXY d   1       5.486   4.436   5.656  0.00  0.00     0.077 C 
ATOM      2  C1' PXY d   1       1.228   0.726   4.426  0.00  0.00     0.077 C 
ATOM      3  C1  PXY d   1       2.344   1.704   4.736  0.00  0.00    -0.082 A 
ATOM      4  C2  PXY d   1       3.221   1.416   5.684  0.00  0.00     0.003 A 
ATOM      5  C3  PXY d   1       4.218   2.303   6.000  0.00  0.00     0.003 A 
ATOM      6  C4  PXY d   1       4.349   3.474   5.302  0.00  0.00    -0.082 A 
ATOM      7  C5  PXY d   1       3.464   3.770   4.327  0.00  0.00     0.003 A 
ATOM      8  C6  PXY d   1       2.435   2.875   4.050  0.00  0.00     0.003 A 
ENDROOT
TORSDOF 0
ENDMDL
