MODEL 1
REMARK minimizedAffinity -5.12999773
REMARK minimizedRMSD -1
REMARK  0 active torsions:
REMARK  status: ('A' for Active; 'I' for Inactive)
ROOT
ATOM      1  C4' PXY d   1       0.406   5.254   3.890  0.00  0.00     0.077 C 
ATOM      2  C1' PXY d   1       5.440   2.937   5.533  0.00  0.00     0.077 C 
ATOM      3  C1  PXY d   1       4.123   3.556   5.107  0.00  0.00    -0.082 A 
ATOM      4  C2  PXY d   1       3.067   2.782   4.919  0.00  0.00     0.003 A 
ATOM      5  C3  PXY d   1       1.877   3.321   4.503  0.00  0.00     0.003 A 
ATOM      6  C4  PXY d   1       1.753   4.674   4.329  0.00  0.00    -0.082 A 
ATOM      7  C5  PXY d   1       2.823   5.471   4.529  0.00  0.00     0.003 A 
ATOM      8  C6  PXY d   1       4.033   4.899   4.911  0.00  0.00     0.003 A 
ENDROOT
TORSDOF 0
ENDMDL
