MODEL 1
REMARK minimizedAffinity -2.12661815
REMARK minimizedRMSD -1
REMARK  0 active torsions:
REMARK  status: ('A' for Active; 'I' for Inactive)
ROOT
ATOM      1  C4' PXY d   1       4.918   6.000   5.225  0.00  0.00     0.077 C 
ATOM      2  C1' PXY d   1       1.556   1.359   5.985  0.00  0.00     0.077 C 
ATOM      3  C1  PXY d   1       2.427   2.583   5.784  0.00  0.00    -0.082 A 
ATOM      4  C2  PXY d   1       3.687   2.435   5.406  0.00  0.00     0.003 A 
ATOM      5  C3  PXY d   1       4.497   3.530   5.250  0.00  0.00     0.003 A 
ATOM      6  C4  PXY d   1       3.999   4.792   5.431  0.00  0.00    -0.082 A 
ATOM      7  C5  PXY d   1       2.712   4.952   5.807  0.00  0.00     0.003 A 
ATOM      8  C6  PXY d   1       1.917   3.826   5.999  0.00  0.00     0.003 A 
ENDROOT
TORSDOF 0
ENDMDL
