MODEL 1
REMARK minimizedAffinity -4.81711769
REMARK minimizedRMSD -1
REMARK  0 active torsions:
REMARK  status: ('A' for Active; 'I' for Inactive)
ROOT
ATOM      1  C4' PXY d   1       0.750   4.875   2.257  0.00  0.00     0.077 C 
ATOM      2  C1' PXY d   1       5.255   4.929   5.879  0.00  0.00     0.077 C 
ATOM      3  C1  PXY d   1       4.079   4.905   4.923  0.00  0.00    -0.082 A 
ATOM      4  C2  PXY d   1       3.357   6.000   4.746  0.00  0.00     0.003 A 
ATOM      5  C3  PXY d   1       2.271   5.987   3.909  0.00  0.00     0.003 A 
ATOM      6  C4  PXY d   1       1.952   4.856   3.206  0.00  0.00    -0.082 A 
ATOM      7  C5  PXY d   1       2.690   3.738   3.373  0.00  0.00     0.003 A 
ATOM      8  C6  PXY d   1       3.763   3.760   4.258  0.00  0.00     0.003 A 
ENDROOT
TORSDOF 0
ENDMDL
