MODEL 1
REMARK minimizedAffinity -3.09230661
REMARK minimizedRMSD -1
REMARK  0 active torsions:
REMARK  status: ('A' for Active; 'I' for Inactive)
ROOT
ATOM      1  C4' PXY d   1       3.152   5.939   3.251  0.00  0.00     0.077 C 
ATOM      2  C1' PXY d   1       3.822   0.897   5.999  0.00  0.00     0.077 C 
ATOM      3  C1  PXY d   1       3.637   2.223   5.287  0.00  0.00    -0.082 A 
ATOM      4  C2  PXY d   1       3.970   2.332   4.011  0.00  0.00     0.003 A 
ATOM      5  C3  PXY d   1       3.839   3.532   3.360  0.00  0.00     0.003 A 
ATOM      6  C4  PXY d   1       3.313   4.617   4.008  0.00  0.00    -0.082 A 
ATOM      7  C5  PXY d   1       2.961   4.511   5.306  0.00  0.00     0.003 A 
ATOM      8  C6  PXY d   1       3.140   3.295   5.960  0.00  0.00     0.003 A 
ENDROOT
TORSDOF 0
ENDMDL
