MODEL 1
REMARK minimizedAffinity 2.90612245
REMARK minimizedRMSD -1
REMARK  0 active torsions:
REMARK  status: ('A' for Active; 'I' for Inactive)
ROOT
ATOM      1  C4' PXY d   1       3.016   0.996   6.000  0.00  0.00     0.077 C 
ATOM      2  C1' PXY d   1       4.758   5.786   3.273  0.00  0.00     0.077 C 
ATOM      3  C1  PXY d   1       4.295   4.526   3.977  0.00  0.00    -0.082 A 
ATOM      4  C2  PXY d   1       4.135   4.531   5.290  0.00  0.00     0.003 A 
ATOM      5  C3  PXY d   1       3.748   3.391   5.947  0.00  0.00     0.003 A 
ATOM      6  C4  PXY d   1       3.472   2.248   5.246  0.00  0.00    -0.082 A 
ATOM      7  C5  PXY d   1       3.623   2.237   3.905  0.00  0.00     0.003 A 
ATOM      8  C6  PXY d   1       4.056   3.393   3.262  0.00  0.00     0.003 A 
ENDROOT
TORSDOF 0
ENDMDL
