MODEL 1
REMARK minimizedAffinity 1.39160264
REMARK minimizedRMSD -1
REMARK  1 active torsions:
REMARK  status: ('A' for Active; 'I' for Inactive)
REMARK    1  A    between atoms: C1_2  and  C2_3 
ROOT
ATOM      1  C2  UNL d   1      -4.061   2.033  -4.451  0.00  0.00    -0.077 A 
ATOM      2  C3  UNL d   1      -4.357   0.828  -5.104  0.00  0.00     0.002 A 
ATOM      3  C4  UNL d   1      -4.059  -0.394  -4.499  0.00  0.00     0.002 A 
ATOM      4  C5  UNL d   1      -3.469  -0.424  -3.237  0.00  0.00    -0.004 A 
ATOM      5  C6  UNL d   1      -3.169   0.769  -2.581  0.00  0.00     0.002 A 
ATOM      6  C7  UNL d   1      -3.464   1.992  -3.185  0.00  0.00     0.002 A 
ENDROOT
BRANCH   1   7
ATOM      7  C1  UNL d   1      -4.426   3.352  -5.081  0.00  0.00     0.055 C 
ATOM      8  C   UNL d   1      -5.546   4.041  -4.314  0.00  0.00     0.019 C 
ENDBRANCH   1   7
TORSDOF 1
ENDMDL
