MODEL 1
REMARK minimizedAffinity 7.55373621
REMARK minimizedRMSD -1
REMARK  1 active torsions:
REMARK  status: ('A' for Active; 'I' for Inactive)
REMARK    1  A    between atoms: C1_2  and  C2_3 
ROOT
ATOM      1  C2  UNL d   1       0.473   0.029   1.261  0.00  0.00    -0.077 A 
ATOM      2  C3  UNL d   1       1.208  -0.841   0.443  0.00  0.00     0.002 A 
ATOM      3  C4  UNL d   1       2.299  -1.543   0.960  0.00  0.00     0.002 A 
ATOM      4  C5  UNL d   1       2.662  -1.385   2.296  0.00  0.00    -0.004 A 
ATOM      5  C6  UNL d   1       1.938  -0.521   3.117  0.00  0.00     0.002 A 
ATOM      6  C7  UNL d   1       0.849   0.183   2.602  0.00  0.00     0.002 A 
ENDROOT
BRANCH   1   7
ATOM      7  C1  UNL d   1      -0.733   0.750   0.719  0.00  0.00     0.055 C 
ATOM      8  C   UNL d   1      -0.629   0.949  -0.786  0.00  0.00     0.019 C 
ENDBRANCH   1   7
TORSDOF 1
ENDMDL
