MODEL 1
REMARK minimizedAffinity 0.379823267
REMARK minimizedRMSD -1
REMARK  1 active torsions:
REMARK  status: ('A' for Active; 'I' for Inactive)
REMARK    1  A    between atoms: C1_2  and  C2_3 
ROOT
ATOM      1  C2  UNL d   1       0.674   0.130   1.289  0.00  0.00    -0.077 A 
ATOM      2  C3  UNL d   1       0.913  -0.195  -0.053  0.00  0.00     0.002 A 
ATOM      3  C4  UNL d   1       0.384   0.594  -1.076  0.00  0.00     0.002 A 
ATOM      4  C5  UNL d   1      -0.384   1.715  -0.768  0.00  0.00    -0.004 A 
ATOM      5  C6  UNL d   1      -0.630   2.045   0.564  0.00  0.00     0.002 A 
ATOM      6  C7  UNL d   1      -0.103   1.257   1.588  0.00  0.00     0.002 A 
ENDROOT
BRANCH   1   7
ATOM      7  C1  UNL d   1       1.285  -0.691   2.395  0.00  0.00     0.055 C 
ATOM      8  C   UNL d   1       2.778  -0.888   2.177  0.00  0.00     0.019 C 
ENDBRANCH   1   7
TORSDOF 1
ENDMDL
