MODEL 1
REMARK minimizedAffinity 5.38621759
REMARK minimizedRMSD -1
REMARK  1 active torsions:
REMARK  status: ('A' for Active; 'I' for Inactive)
REMARK    1  A    between atoms: C1_2  and  C2_3 
ROOT
ATOM      1  C2  UNL d   1       0.347  -2.003   0.258  0.00  0.00    -0.077 A 
ATOM      2  C3  UNL d   1      -0.788  -1.181   0.258  0.00  0.00     0.002 A 
ATOM      3  C4  UNL d   1      -0.713   0.127   0.742  0.00  0.00     0.002 A 
ATOM      4  C5  UNL d   1       0.495   0.625   1.225  0.00  0.00    -0.004 A 
ATOM      5  C6  UNL d   1       1.630  -0.186   1.231  0.00  0.00     0.002 A 
ATOM      6  C7  UNL d   1       1.556  -1.494   0.749  0.00  0.00     0.002 A 
ENDROOT
BRANCH   1   7
ATOM      7  C1  UNL d   1       0.280  -3.397  -0.309  0.00  0.00     0.055 C 
ATOM      8  C   UNL d   1      -0.877  -3.542  -1.287  0.00  0.00     0.019 C 
ENDBRANCH   1   7
TORSDOF 1
ENDMDL
