MODEL 1
REMARK minimizedAffinity 8.94460106
REMARK minimizedRMSD -1
REMARK  1 active torsions:
REMARK  status: ('A' for Active; 'I' for Inactive)
REMARK    1  A    between atoms: C1_2  and  C2_3 
ROOT
ATOM      1  C2  UNL d   1      -0.109   1.206  -0.323  0.00  0.00    -0.077 A 
ATOM      2  C3  UNL d   1      -0.142   1.217   1.078  0.00  0.00     0.002 A 
ATOM      3  C4  UNL d   1       0.699   0.377   1.810  0.00  0.00     0.002 A 
ATOM      4  C5  UNL d   1       1.581  -0.477   1.151  0.00  0.00    -0.004 A 
ATOM      5  C6  UNL d   1       1.619  -0.496  -0.243  0.00  0.00     0.002 A 
ATOM      6  C7  UNL d   1       0.779   0.342  -0.977  0.00  0.00     0.002 A 
ENDROOT
BRANCH   1   7
ATOM      7  C1  UNL d   1      -0.980   2.147  -1.115  0.00  0.00     0.055 C 
ATOM      8  C   UNL d   1      -2.295   1.489  -1.503  0.00  0.00     0.019 C 
ENDBRANCH   1   7
TORSDOF 1
ENDMDL
