MODEL 1
REMARK minimizedAffinity 6.16675282
REMARK minimizedRMSD -1
REMARK  1 active torsions:
REMARK  status: ('A' for Active; 'I' for Inactive)
REMARK    1  A    between atoms: C1_2  and  C2_3 
ROOT
ATOM      1  C2  UNL d   1       0.609   1.075   1.594  0.00  0.00    -0.077 A 
ATOM      2  C3  UNL d   1       0.998   0.075   0.692  0.00  0.00     0.002 A 
ATOM      3  C4  UNL d   1       0.543   0.100  -0.628  0.00  0.00     0.002 A 
ATOM      4  C5  UNL d   1      -0.298   1.124  -1.058  0.00  0.00    -0.004 A 
ATOM      5  C6  UNL d   1      -0.692   2.121  -0.168  0.00  0.00     0.002 A 
ATOM      6  C7  UNL d   1      -0.240   2.098   1.152  0.00  0.00     0.002 A 
ENDROOT
BRANCH   1   7
ATOM      7  C1  UNL d   1       1.138   1.077   3.005  0.00  0.00     0.055 C 
ATOM      8  C   UNL d   1       1.997   2.304   3.272  0.00  0.00     0.019 C 
ENDBRANCH   1   7
TORSDOF 1
ENDMDL
