MODEL 1
REMARK minimizedAffinity 0.459718585
REMARK minimizedRMSD -1
REMARK  1 active torsions:
REMARK  status: ('A' for Active; 'I' for Inactive)
REMARK    1  A    between atoms: C1_2  and  C2_3 
ROOT
ATOM      1  C2  UNL d   1      -0.323   0.565  -0.811  0.00  0.00    -0.077 A 
ATOM      2  C3  UNL d   1       0.033  -0.239   0.281  0.00  0.00     0.002 A 
ATOM      3  C4  UNL d   1       0.447   0.343   1.481  0.00  0.00     0.002 A 
ATOM      4  C5  UNL d   1       0.505   1.730   1.601  0.00  0.00    -0.004 A 
ATOM      5  C6  UNL d   1       0.156   2.538   0.520  0.00  0.00     0.002 A 
ATOM      6  C7  UNL d   1      -0.257   1.958  -0.681  0.00  0.00     0.002 A 
ENDROOT
BRANCH   1   7
ATOM      7  C1  UNL d   1      -0.817  -0.059  -2.090  0.00  0.00     0.055 C 
ATOM      8  C   UNL d   1      -2.336  -0.033  -2.168  0.00  0.00     0.019 C 
ENDBRANCH   1   7
TORSDOF 1
ENDMDL
