MODEL 1
REMARK minimizedAffinity -5.84085608
REMARK minimizedRMSD -1
REMARK  1 active torsions:
REMARK  status: ('A' for Active; 'I' for Inactive)
REMARK    1  A    between atoms: C1_2  and  C2_3 
ROOT
ATOM      1  C2  UNL d   1       0.153  -0.201  -0.303  0.00  0.00    -0.077 A 
ATOM      2  C3  UNL d   1       1.434  -0.566   0.135  0.00  0.00     0.002 A 
ATOM      3  C4  UNL d   1       1.689  -0.749   1.495  0.00  0.00     0.002 A 
ATOM      4  C5  UNL d   1       0.669  -0.575   2.427  0.00  0.00    -0.004 A 
ATOM      5  C6  UNL d   1      -0.608  -0.210   2.002  0.00  0.00     0.002 A 
ATOM      6  C7  UNL d   1      -0.865  -0.025   0.643  0.00  0.00     0.002 A 
ENDROOT
BRANCH   1   7
ATOM      7  C1  UNL d   1      -0.138  -0.050  -1.774  0.00  0.00     0.055 C 
ATOM      8  C   UNL d   1      -1.041   1.145  -2.040  0.00  0.00     0.019 C 
ENDBRANCH   1   7
TORSDOF 1
ENDMDL
