MODEL 1
REMARK minimizedAffinity -5.0842514
REMARK minimizedRMSD -1
REMARK  1 active torsions:
REMARK  status: ('A' for Active; 'I' for Inactive)
REMARK    1  A    between atoms: C1_2  and  C2_3 
ROOT
ATOM      1  C2  UNL d   1       0.089  -0.004  -0.170  0.00  0.00    -0.077 A 
ATOM      2  C3  UNL d   1       1.237  -0.300   0.578  0.00  0.00     0.002 A 
ATOM      3  C4  UNL d   1       1.235  -0.146   1.966  0.00  0.00     0.002 A 
ATOM      4  C5  UNL d   1       0.086   0.299   2.618  0.00  0.00    -0.004 A 
ATOM      5  C6  UNL d   1      -1.060   0.597   1.883  0.00  0.00     0.002 A 
ATOM      6  C7  UNL d   1      -1.059   0.446   0.495  0.00  0.00     0.002 A 
ENDROOT
BRANCH   1   7
ATOM      7  C1  UNL d   1       0.074  -0.215  -1.661  0.00  0.00     0.055 C 
ATOM      8  C   UNL d   1      -0.311   1.060  -2.397  0.00  0.00     0.019 C 
ENDBRANCH   1   7
TORSDOF 1
ENDMDL
