MODEL 1
REMARK minimizedAffinity -4.21264982
REMARK minimizedRMSD -1
REMARK  1 active torsions:
REMARK  status: ('A' for Active; 'I' for Inactive)
REMARK    1  A    between atoms: C1_2  and  C2_3 
ROOT
ATOM      1  C2  UNL d   1       0.148  -0.531   1.181  0.00  0.00    -0.077 A 
ATOM      2  C3  UNL d   1      -1.042   0.043   0.713  0.00  0.00     0.002 A 
ATOM      3  C4  UNL d   1      -1.233   0.257  -0.653  0.00  0.00     0.002 A 
ATOM      4  C5  UNL d   1      -0.240  -0.104  -1.562  0.00  0.00    -0.004 A 
ATOM      5  C6  UNL d   1       0.948  -0.674  -1.106  0.00  0.00     0.002 A 
ATOM      6  C7  UNL d   1       1.141  -0.887   0.259  0.00  0.00     0.002 A 
ENDROOT
BRANCH   1   7
ATOM      7  C1  UNL d   1       0.336  -0.809   2.650  0.00  0.00     0.055 C 
ATOM      8  C   UNL d   1       1.619  -0.179   3.173  0.00  0.00     0.019 C 
ENDBRANCH   1   7
TORSDOF 1
ENDMDL
