MODEL 1
REMARK minimizedAffinity -4.77328825
REMARK minimizedRMSD -1
REMARK  1 active torsions:
REMARK  status: ('A' for Active; 'I' for Inactive)
REMARK    1  A    between atoms: C1_2  and  C2_3 
ROOT
ATOM      1  C2  UNL d   1       0.616  -0.438   0.110  0.00  0.00    -0.077 A 
ATOM      2  C3  UNL d   1       1.753  -1.238  -0.074  0.00  0.00     0.002 A 
ATOM      3  C4  UNL d   1       2.245  -2.019   0.973  0.00  0.00     0.002 A 
ATOM      4  C5  UNL d   1       1.604  -2.012   2.210  0.00  0.00    -0.004 A 
ATOM      5  C6  UNL d   1       0.474  -1.219   2.404  0.00  0.00     0.002 A 
ATOM      6  C7  UNL d   1      -0.019  -0.437   1.359  0.00  0.00     0.002 A 
ENDROOT
BRANCH   1   7
ATOM      7  C1  UNL d   1       0.055   0.367  -1.032  0.00  0.00     0.055 C 
ATOM      8  C   UNL d   1      -1.363  -0.068  -1.372  0.00  0.00     0.019 C 
ENDBRANCH   1   7
TORSDOF 1
ENDMDL
