MODEL 1
REMARK minimizedAffinity 0.374652058
REMARK minimizedRMSD -1
REMARK  1 active torsions:
REMARK  status: ('A' for Active; 'I' for Inactive)
REMARK    1  A    between atoms: C1_2  and  C2_3 
ROOT
ATOM      1  C2  UNL d   1       0.954  -0.604   1.116  0.00  0.00    -0.077 A 
ATOM      2  C3  UNL d   1      -0.167   0.179   0.809  0.00  0.00     0.002 A 
ATOM      3  C4  UNL d   1      -0.379   0.628  -0.496  0.00  0.00     0.002 A 
ATOM      4  C5  UNL d   1       0.522   0.296  -1.504  0.00  0.00    -0.004 A 
ATOM      5  C6  UNL d   1       1.642  -0.482  -1.209  0.00  0.00     0.002 A 
ATOM      6  C7  UNL d   1       1.856  -0.930   0.095  0.00  0.00     0.002 A 
ENDROOT
BRANCH   1   7
ATOM      7  C1  UNL d   1       1.159  -1.131   2.512  0.00  0.00     0.055 C 
ATOM      8  C   UNL d   1       0.286  -2.349   2.778  0.00  0.00     0.019 C 
ENDBRANCH   1   7
TORSDOF 1
ENDMDL
