MODEL 1
REMARK minimizedAffinity -1.97186863
REMARK minimizedRMSD -1
REMARK  1 active torsions:
REMARK  status: ('A' for Active; 'I' for Inactive)
REMARK    1  A    between atoms: C1_2  and  C2_3 
ROOT
ATOM      1  C2  UNL d   1      -0.182  -0.300  -0.183  0.00  0.00    -0.077 A 
ATOM      2  C3  UNL d   1       0.985  -0.639   0.515  0.00  0.00     0.002 A 
ATOM      3  C4  UNL d   1       0.953  -0.816   1.900  0.00  0.00     0.002 A 
ATOM      4  C5  UNL d   1      -0.244  -0.660   2.597  0.00  0.00    -0.004 A 
ATOM      5  C6  UNL d   1      -1.409  -0.320   1.911  0.00  0.00     0.002 A 
ATOM      6  C7  UNL d   1      -1.379  -0.142   0.527  0.00  0.00     0.002 A 
ENDROOT
BRANCH   1   7
ATOM      7  C1  UNL d   1      -0.160  -0.157  -1.683  0.00  0.00     0.055 C 
ATOM      8  C   UNL d   1      -0.866   1.115  -2.128  0.00  0.00     0.019 C 
ENDBRANCH   1   7
TORSDOF 1
ENDMDL
