MODEL 1
REMARK minimizedAffinity 13.6125336
REMARK minimizedRMSD -1
REMARK  2 active torsions:
REMARK  status: ('A' for Active; 'I' for Inactive)
REMARK    1  A    between atoms: C1_2  and  C2_3 
REMARK    2  A    between atoms: C2_3  and  C3_4 
ROOT
ATOM      1  C3  UNL d   1       3.591   3.025  -3.745  0.00  0.00    -0.075 A 
ATOM      2  C4  UNL d   1       2.424   3.746  -4.039  0.00  0.00     0.002 A 
ATOM      3  C5  UNL d   1       1.208   3.395  -3.452  0.00  0.00     0.002 A 
ATOM      4  C6  UNL d   1       1.141   2.315  -2.574  0.00  0.00    -0.004 A 
ATOM      5  C7  UNL d   1       2.291   1.582  -2.287  0.00  0.00     0.002 A 
ATOM      6  C8  UNL d   1       3.510   1.934  -2.870  0.00  0.00     0.002 A 
ENDROOT
BRANCH   1   7
ATOM      7  C2  UNL d   1       4.916   3.418  -4.354  0.00  0.00     0.056 C 
BRANCH   7   8
ATOM      8  C1  UNL d   1       5.715   4.421  -3.515  0.00  0.00     0.007 C 
ATOM      9  C   UNL d   1       5.999   5.725  -4.248  0.00  0.00     0.009 C 
ENDBRANCH   7   8
ENDBRANCH   1   7
TORSDOF 2
ENDMDL
