MODEL 1
REMARK minimizedAffinity 2.57628965
REMARK minimizedRMSD -1
REMARK  2 active torsions:
REMARK  status: ('A' for Active; 'I' for Inactive)
REMARK    1  A    between atoms: C1_2  and  C2_3 
REMARK    2  A    between atoms: C2_3  and  C3_4 
ROOT
ATOM      1  C3  UNL d   1      -3.961   4.970  -4.091  0.00  0.00    -0.075 A 
ATOM      2  C4  UNL d   1      -2.786   4.685  -3.381  0.00  0.00     0.002 A 
ATOM      3  C5  UNL d   1      -1.537   4.882  -3.970  0.00  0.00     0.002 A 
ATOM      4  C6  UNL d   1      -1.447   5.355  -5.277  0.00  0.00    -0.004 A 
ATOM      5  C7  UNL d   1      -2.608   5.626  -5.998  0.00  0.00     0.002 A 
ATOM      6  C8  UNL d   1      -3.859   5.434  -5.410  0.00  0.00     0.002 A 
ENDROOT
BRANCH   1   7
ATOM      7  C2  UNL d   1      -5.316   4.787  -3.449  0.00  0.00     0.056 C 
BRANCH   7   8
ATOM      8  C1  UNL d   1      -5.257   4.422  -1.963  0.00  0.00     0.007 C 
ATOM      9  C   UNL d   1      -6.000   3.135  -1.631  0.00  0.00     0.009 C 
ENDBRANCH   7   8
ENDBRANCH   1   7
TORSDOF 2
ENDMDL
