MODEL 1
REMARK minimizedAffinity 8.8196249
REMARK minimizedRMSD -1
REMARK  2 active torsions:
REMARK  status: ('A' for Active; 'I' for Inactive)
REMARK    1  A    between atoms: C1_2  and  C2_3 
REMARK    2  A    between atoms: C2_3  and  C3_4 
ROOT
ATOM      1  C3  UNL d   1      -3.715   0.028   2.516  0.00  0.00    -0.075 A 
ATOM      2  C4  UNL d   1      -2.969  -0.498   1.452  0.00  0.00     0.002 A 
ATOM      3  C5  UNL d   1      -1.665  -0.948   1.655  0.00  0.00     0.002 A 
ATOM      4  C6  UNL d   1      -1.086  -0.869   2.920  0.00  0.00    -0.004 A 
ATOM      5  C7  UNL d   1      -1.812  -0.332   3.981  0.00  0.00     0.002 A 
ATOM      6  C8  UNL d   1      -3.119   0.115   3.782  0.00  0.00     0.002 A 
ENDROOT
BRANCH   1   7
ATOM      7  C2  UNL d   1      -5.138   0.490   2.310  0.00  0.00     0.056 C 
BRANCH   7   8
ATOM      8  C1  UNL d   1      -5.398   1.111   0.933  0.00  0.00     0.007 C 
ATOM      9  C   UNL d   1      -5.174   2.617   0.902  0.00  0.00     0.009 C 
ENDBRANCH   7   8
ENDBRANCH   1   7
TORSDOF 2
ENDMDL
