MODEL 1
REMARK minimizedAffinity -1.55148804
REMARK minimizedRMSD -1
REMARK  2 active torsions:
REMARK  status: ('A' for Active; 'I' for Inactive)
REMARK    1  A    between atoms: C1_2  and  C2_3 
REMARK    2  A    between atoms: C2_3  and  C3_4 
ROOT
ATOM      1  C3  UNL d   1      -4.484   0.347   4.673  0.00  0.00    -0.075 A 
ATOM      2  C4  UNL d   1      -4.005   0.464   3.360  0.00  0.00     0.002 A 
ATOM      3  C5  UNL d   1      -4.123  -0.600   2.465  0.00  0.00     0.002 A 
ATOM      4  C6  UNL d   1      -4.711  -1.795   2.873  0.00  0.00    -0.004 A 
ATOM      5  C7  UNL d   1      -5.175  -1.929   4.180  0.00  0.00     0.002 A 
ATOM      6  C8  UNL d   1      -5.062  -0.864   5.076  0.00  0.00     0.002 A 
ENDROOT
BRANCH   1   7
ATOM      7  C2  UNL d   1      -4.386   1.504   5.637  0.00  0.00     0.056 C 
BRANCH   7   8
ATOM      8  C1  UNL d   1      -2.953   1.985   5.891  0.00  0.00     0.007 C 
ATOM      9  C   UNL d   1      -1.909   0.895   5.685  0.00  0.00     0.009 C 
ENDBRANCH   7   8
ENDBRANCH   1   7
TORSDOF 2
ENDMDL
