MODEL 1
REMARK minimizedAffinity 4.78645754
REMARK minimizedRMSD -1
REMARK  2 active torsions:
REMARK  status: ('A' for Active; 'I' for Inactive)
REMARK    1  A    between atoms: C1_2  and  C2_3 
REMARK    2  A    between atoms: C2_3  and  C3_4 
ROOT
ATOM      1  C3  UNL d   1      -1.344  -1.477   1.568  0.00  0.00    -0.075 A 
ATOM      2  C4  UNL d   1      -0.720  -0.500   2.358  0.00  0.00     0.002 A 
ATOM      3  C5  UNL d   1      -1.461   0.255   3.268  0.00  0.00     0.002 A 
ATOM      4  C6  UNL d   1      -2.834   0.051   3.392  0.00  0.00    -0.004 A 
ATOM      5  C7  UNL d   1      -3.467  -0.905   2.600  0.00  0.00     0.002 A 
ATOM      6  C8  UNL d   1      -2.727  -1.665   1.692  0.00  0.00     0.002 A 
ENDROOT
BRANCH   1   7
ATOM      7  C2  UNL d   1      -0.543  -2.317   0.603  0.00  0.00     0.056 C 
BRANCH   7   8
ATOM      8  C1  UNL d   1       0.791  -2.817   1.169  0.00  0.00     0.007 C 
ATOM      9  C   UNL d   1       1.666  -3.502   0.128  0.00  0.00     0.009 C 
ENDBRANCH   7   8
ENDBRANCH   1   7
TORSDOF 2
ENDMDL
