MODEL 1
REMARK minimizedAffinity 0.844134808
REMARK minimizedRMSD -1
REMARK  2 active torsions:
REMARK  status: ('A' for Active; 'I' for Inactive)
REMARK    1  A    between atoms: C1_2  and  C2_3 
REMARK    2  A    between atoms: C2_3  and  C3_4 
ROOT
ATOM      1  C3  UNL d   1      -3.747   5.237  -5.070  0.00  0.00    -0.075 A 
ATOM      2  C4  UNL d   1      -3.750   4.468  -3.898  0.00  0.00     0.002 A 
ATOM      3  C5  UNL d   1      -4.871   4.446  -3.068  0.00  0.00     0.002 A 
ATOM      4  C6  UNL d   1      -5.997   5.198  -3.394  0.00  0.00    -0.004 A 
ATOM      5  C7  UNL d   1      -5.999   5.979  -4.548  0.00  0.00     0.002 A 
ATOM      6  C8  UNL d   1      -4.880   6.000  -5.382  0.00  0.00     0.002 A 
ENDROOT
BRANCH   1   7
ATOM      7  C2  UNL d   1      -2.547   5.243  -5.988  0.00  0.00     0.056 C 
BRANCH   7   8
ATOM      8  C1  UNL d   1      -1.201   5.255  -5.255  0.00  0.00     0.007 C 
ATOM      9  C   UNL d   1      -0.278   4.119  -5.675  0.00  0.00     0.009 C 
ENDBRANCH   7   8
ENDBRANCH   1   7
TORSDOF 2
ENDMDL
