MODEL 1
REMARK minimizedAffinity 4.81361771
REMARK minimizedRMSD -1
REMARK  2 active torsions:
REMARK  status: ('A' for Active; 'I' for Inactive)
REMARK    1  A    between atoms: C1_2  and  C2_3 
REMARK    2  A    between atoms: C2_3  and  C3_4 
ROOT
ATOM      1  C3  UNL d   1      -3.808  -0.401   3.425  0.00  0.00    -0.075 A 
ATOM      2  C4  UNL d   1      -3.290   0.357   4.485  0.00  0.00     0.002 A 
ATOM      3  C5  UNL d   1      -1.946   0.729   4.500  0.00  0.00     0.002 A 
ATOM      4  C6  UNL d   1      -1.101   0.340   3.463  0.00  0.00    -0.004 A 
ATOM      5  C7  UNL d   1      -1.601  -0.427   2.412  0.00  0.00     0.002 A 
ATOM      6  C8  UNL d   1      -2.947  -0.796   2.393  0.00  0.00     0.002 A 
ENDROOT
BRANCH   1   7
ATOM      7  C2  UNL d   1      -5.269  -0.781   3.388  0.00  0.00     0.056 C 
BRANCH   7   8
ATOM      8  C1  UNL d   1      -5.992  -0.355   2.106  0.00  0.00     0.007 C 
ATOM      9  C   UNL d   1      -5.248   0.721   1.326  0.00  0.00     0.009 C 
ENDBRANCH   7   8
ENDBRANCH   1   7
TORSDOF 2
ENDMDL
