MODEL 1
REMARK minimizedAffinity 6.42880726
REMARK minimizedRMSD -1
REMARK  2 active torsions:
REMARK  status: ('A' for Active; 'I' for Inactive)
REMARK    1  A    between atoms: C1_2  and  C2_3 
REMARK    2  A    between atoms: C2_3  and  C3_4 
ROOT
ATOM      1  C3  UNL d   1      -3.980  -0.017   3.665  0.00  0.00    -0.075 A 
ATOM      2  C4  UNL d   1      -2.693   0.540   3.675  0.00  0.00     0.002 A 
ATOM      3  C5  UNL d   1      -2.180   1.116   4.837  0.00  0.00     0.002 A 
ATOM      4  C6  UNL d   1      -2.948   1.152   5.999  0.00  0.00    -0.004 A 
ATOM      5  C7  UNL d   1      -4.235   0.617   5.995  0.00  0.00     0.002 A 
ATOM      6  C8  UNL d   1      -4.749   0.036   4.835  0.00  0.00     0.002 A 
ENDROOT
BRANCH   1   7
ATOM      7  C2  UNL d   1      -4.530  -0.668   2.418  0.00  0.00     0.056 C 
BRANCH   7   8
ATOM      8  C1  UNL d   1      -3.790  -1.943   2.002  0.00  0.00     0.007 C 
ATOM      9  C   UNL d   1      -2.517  -1.669   1.213  0.00  0.00     0.009 C 
ENDBRANCH   7   8
ENDBRANCH   1   7
TORSDOF 2
ENDMDL
