MODEL 1
REMARK minimizedAffinity -2.44252062
REMARK minimizedRMSD -1
REMARK  2 active torsions:
REMARK  status: ('A' for Active; 'I' for Inactive)
REMARK    1  A    between atoms: C1_2  and  C2_3 
REMARK    2  A    between atoms: C2_3  and  C3_4 
ROOT
ATOM      1  C3  UNL d   1      -3.572  -0.001   4.141  0.00  0.00    -0.075 A 
ATOM      2  C4  UNL d   1      -4.636  -0.529   4.885  0.00  0.00     0.002 A 
ATOM      3  C5  UNL d   1      -5.228  -1.738   4.515  0.00  0.00     0.002 A 
ATOM      4  C6  UNL d   1      -4.771  -2.426   3.394  0.00  0.00    -0.004 A 
ATOM      5  C7  UNL d   1      -3.724  -1.902   2.638  0.00  0.00     0.002 A 
ATOM      6  C8  UNL d   1      -3.128  -0.696   3.008  0.00  0.00     0.002 A 
ENDROOT
BRANCH   1   7
ATOM      7  C2  UNL d   1      -2.908   1.291   4.553  0.00  0.00     0.056 C 
BRANCH   7   8
ATOM      8  C1  UNL d   1      -2.267   1.248   5.944  0.00  0.00     0.007 C 
ATOM      9  C   UNL d   1      -1.011   0.388   6.000  0.00  0.00     0.009 C 
ENDBRANCH   7   8
ENDBRANCH   1   7
TORSDOF 2
ENDMDL
