MODEL 1
REMARK minimizedAffinity 10.5789642
REMARK minimizedRMSD -1
REMARK  2 active torsions:
REMARK  status: ('A' for Active; 'I' for Inactive)
REMARK    1  A    between atoms: C1_2  and  C2_3 
REMARK    2  A    between atoms: C2_3  and  C3_4 
ROOT
ATOM      1  C3  UNL d   1      -2.255   0.378   3.590  0.00  0.00    -0.075 A 
ATOM      2  C4  UNL d   1      -3.444  -0.139   3.056  0.00  0.00     0.002 A 
ATOM      3  C5  UNL d   1      -3.410  -1.014   1.970  0.00  0.00     0.002 A 
ATOM      4  C6  UNL d   1      -2.191  -1.373   1.398  0.00  0.00    -0.004 A 
ATOM      5  C7  UNL d   1      -1.005  -0.852   1.911  0.00  0.00     0.002 A 
ATOM      6  C8  UNL d   1      -1.036   0.020   3.000  0.00  0.00     0.002 A 
ENDROOT
BRANCH   1   7
ATOM      7  C2  UNL d   1      -2.283   1.302   4.785  0.00  0.00     0.056 C 
BRANCH   7   8
ATOM      8  C1  UNL d   1      -3.020   0.729   6.000  0.00  0.00     0.007 C 
ATOM      9  C   UNL d   1      -4.513   1.027   5.993  0.00  0.00     0.009 C 
ENDBRANCH   7   8
ENDBRANCH   1   7
TORSDOF 2
ENDMDL
