MODEL 1
REMARK minimizedAffinity -0.502560258
REMARK minimizedRMSD -1
REMARK  2 active torsions:
REMARK  status: ('A' for Active; 'I' for Inactive)
REMARK    1  A    between atoms: C1_2  and  C2_3 
REMARK    2  A    between atoms: C2_3  and  C3_4 
ROOT
ATOM      1  C3  UNL d   1       3.895   2.405  -0.200  0.00  0.00    -0.075 A 
ATOM      2  C4  UNL d   1       3.516   2.271   1.144  0.00  0.00     0.002 A 
ATOM      3  C5  UNL d   1       4.311   2.802   2.161  0.00  0.00     0.002 A 
ATOM      4  C6  UNL d   1       5.497   3.462   1.849  0.00  0.00    -0.004 A 
ATOM      5  C7  UNL d   1       5.892   3.587   0.518  0.00  0.00     0.002 A 
ATOM      6  C8  UNL d   1       5.097   3.061  -0.501  0.00  0.00     0.002 A 
ENDROOT
BRANCH   1   7
ATOM      7  C2  UNL d   1       3.025   1.859  -1.306  0.00  0.00     0.056 C 
BRANCH   7   8
ATOM      8  C1  UNL d   1       3.171   2.601  -2.639  0.00  0.00     0.007 C 
ATOM      9  C   UNL d   1       1.845   2.816  -3.355  0.00  0.00     0.009 C 
ENDBRANCH   7   8
ENDBRANCH   1   7
TORSDOF 2
ENDMDL
