MODEL 1
REMARK minimizedAffinity 6.06486034
REMARK minimizedRMSD -1
REMARK  2 active torsions:
REMARK  status: ('A' for Active; 'I' for Inactive)
REMARK    1  A    between atoms: C1_2  and  C2_3 
REMARK    2  A    between atoms: C2_3  and  C3_4 
ROOT
ATOM      1  C3  UNL d   1      -1.898  -0.176   3.697  0.00  0.00    -0.075 A 
ATOM      2  C4  UNL d   1      -2.297  -1.497   3.447  0.00  0.00     0.002 A 
ATOM      3  C5  UNL d   1      -2.283  -2.008   2.149  0.00  0.00     0.002 A 
ATOM      4  C6  UNL d   1      -1.880  -1.204   1.085  0.00  0.00    -0.004 A 
ATOM      5  C7  UNL d   1      -1.497   0.115   1.320  0.00  0.00     0.002 A 
ATOM      6  C8  UNL d   1      -1.506   0.628   2.618  0.00  0.00     0.002 A 
ENDROOT
BRANCH   1   7
ATOM      7  C2  UNL d   1      -1.883   0.374   5.104  0.00  0.00     0.056 C 
BRANCH   7   8
ATOM      8  C1  UNL d   1      -3.011  -0.160   5.994  0.00  0.00     0.007 C 
ATOM      9  C   UNL d   1      -4.244   0.733   5.999  0.00  0.00     0.009 C 
ENDBRANCH   7   8
ENDBRANCH   1   7
TORSDOF 2
ENDMDL
