MODEL 1
REMARK minimizedAffinity 8.51927567
REMARK minimizedRMSD -1
REMARK  2 active torsions:
REMARK  status: ('A' for Active; 'I' for Inactive)
REMARK    1  A    between atoms: C1_2  and  C2_3 
REMARK    2  A    between atoms: C2_3  and  C3_4 
ROOT
ATOM      1  C3  UNL d   1      -1.627  -0.450   2.615  0.00  0.00    -0.075 A 
ATOM      2  C4  UNL d   1      -1.190   0.124   3.818  0.00  0.00     0.002 A 
ATOM      3  C5  UNL d   1      -2.112   0.549   4.775  0.00  0.00     0.002 A 
ATOM      4  C6  UNL d   1      -3.478   0.414   4.539  0.00  0.00    -0.004 A 
ATOM      5  C7  UNL d   1      -3.923  -0.139   3.340  0.00  0.00     0.002 A 
ATOM      6  C8  UNL d   1      -3.003  -0.569   2.382  0.00  0.00     0.002 A 
ENDROOT
BRANCH   1   7
ATOM      7  C2  UNL d   1      -0.634  -0.938   1.587  0.00  0.00     0.056 C 
BRANCH   7   8
ATOM      8  C1  UNL d   1       0.831  -0.742   1.992  0.00  0.00     0.007 C 
ATOM      9  C   UNL d   1       1.525   0.369   1.216  0.00  0.00     0.009 C 
ENDBRANCH   7   8
ENDBRANCH   1   7
TORSDOF 2
ENDMDL
