MODEL 1
REMARK minimizedAffinity 7.76959324
REMARK minimizedRMSD -1
REMARK  2 active torsions:
REMARK  status: ('A' for Active; 'I' for Inactive)
REMARK    1  A    between atoms: C1_2  and  C2_3 
REMARK    2  A    between atoms: C2_3  and  C3_4 
ROOT
ATOM      1  C3  UNL d   1      -3.378   5.317  -5.305  0.00  0.00    -0.075 A 
ATOM      2  C4  UNL d   1      -3.602   4.725  -4.054  0.00  0.00     0.002 A 
ATOM      3  C5  UNL d   1      -4.869   4.759  -3.470  0.00  0.00     0.002 A 
ATOM      4  C6  UNL d   1      -5.923   5.393  -4.124  0.00  0.00    -0.004 A 
ATOM      5  C7  UNL d   1      -5.709   5.998  -5.360  0.00  0.00     0.002 A 
ATOM      6  C8  UNL d   1      -4.443   5.962  -5.948  0.00  0.00     0.002 A 
ENDROOT
BRANCH   1   7
ATOM      7  C2  UNL d   1      -2.017   5.258  -5.956  0.00  0.00     0.056 C 
BRANCH   7   8
ATOM      8  C1  UNL d   1      -0.905   4.752  -5.030  0.00  0.00     0.007 C 
ATOM      9  C   UNL d   1       0.427   4.557  -5.743  0.00  0.00     0.009 C 
ENDBRANCH   7   8
ENDBRANCH   1   7
TORSDOF 2
ENDMDL
