MODEL 1
REMARK minimizedAffinity 8.40812969
REMARK minimizedRMSD -1
REMARK  2 active torsions:
REMARK  status: ('A' for Active; 'I' for Inactive)
REMARK    1  A    between atoms: C1_2  and  C2_3 
REMARK    2  A    between atoms: C2_3  and  C3_4 
ROOT
ATOM      1  C3  UNL d   1      -0.258  -0.606   1.969  0.00  0.00    -0.075 A 
ATOM      2  C4  UNL d   1      -0.926   0.218   2.887  0.00  0.00     0.002 A 
ATOM      3  C5  UNL d   1      -2.309   0.123   3.047  0.00  0.00     0.002 A 
ATOM      4  C6  UNL d   1      -3.041  -0.786   2.286  0.00  0.00    -0.004 A 
ATOM      5  C7  UNL d   1      -2.389  -1.597   1.360  0.00  0.00     0.002 A 
ATOM      6  C8  UNL d   1      -1.005  -1.508   1.201  0.00  0.00     0.002 A 
ENDROOT
BRANCH   1   7
ATOM      7  C2  UNL d   1       1.242  -0.529   1.813  0.00  0.00     0.056 C 
BRANCH   7   8
ATOM      8  C1  UNL d   1       1.727   0.706   1.046  0.00  0.00     0.007 C 
ATOM      9  C   UNL d   1       3.230   0.928   1.154  0.00  0.00     0.009 C 
ENDBRANCH   7   8
ENDBRANCH   1   7
TORSDOF 2
ENDMDL
