MODEL 1
REMARK minimizedAffinity 5.8015933
REMARK minimizedRMSD -1
REMARK  2 active torsions:
REMARK  status: ('A' for Active; 'I' for Inactive)
REMARK    1  A    between atoms: C1_2  and  C2_3 
REMARK    2  A    between atoms: C2_3  and  C3_4 
ROOT
ATOM      1  C3  UNL d   1      -3.680   0.172   3.705  0.00  0.00    -0.075 A 
ATOM      2  C4  UNL d   1      -4.885   0.841   3.445  0.00  0.00     0.002 A 
ATOM      3  C5  UNL d   1      -5.998   0.141   2.980  0.00  0.00     0.002 A 
ATOM      4  C6  UNL d   1      -5.919  -1.232   2.760  0.00  0.00    -0.004 A 
ATOM      5  C7  UNL d   1      -4.723  -1.905   2.999  0.00  0.00     0.002 A 
ATOM      6  C8  UNL d   1      -3.608  -1.207   3.468  0.00  0.00     0.002 A 
ENDROOT
BRANCH   1   7
ATOM      7  C2  UNL d   1      -2.480   0.919   4.236  0.00  0.00     0.056 C 
BRANCH   7   8
ATOM      8  C1  UNL d   1      -1.194   0.086   4.276  0.00  0.00     0.007 C 
ATOM      9  C   UNL d   1      -0.762  -0.284   5.688  0.00  0.00     0.009 C 
ENDBRANCH   7   8
ENDBRANCH   1   7
TORSDOF 2
ENDMDL
