MODEL 1
REMARK minimizedAffinity 8.59383297
REMARK minimizedRMSD -1
REMARK  2 active torsions:
REMARK  status: ('A' for Active; 'I' for Inactive)
REMARK    1  A    between atoms: C1_2  and  C2_3 
REMARK    2  A    between atoms: C2_3  and  C3_4 
ROOT
ATOM      1  C3  UNL d   1       1.828  -1.433  -3.293  0.00  0.00    -0.075 A 
ATOM      2  C4  UNL d   1       2.144  -0.675  -2.156  0.00  0.00     0.002 A 
ATOM      3  C5  UNL d   1       2.188  -1.274  -0.896  0.00  0.00     0.002 A 
ATOM      4  C6  UNL d   1       1.908  -2.631  -0.756  0.00  0.00    -0.004 A 
ATOM      5  C7  UNL d   1       1.576  -3.389  -1.877  0.00  0.00     0.002 A 
ATOM      6  C8  UNL d   1       1.536  -2.795  -3.139  0.00  0.00     0.002 A 
ENDROOT
BRANCH   1   7
ATOM      7  C2  UNL d   1       1.807  -0.798  -4.663  0.00  0.00     0.056 C 
BRANCH   7   8
ATOM      8  C1  UNL d   1       2.259  -1.733  -5.790  0.00  0.00     0.007 C 
ATOM      9  C   UNL d   1       3.768  -1.739  -5.997  0.00  0.00     0.009 C 
ENDBRANCH   7   8
ENDBRANCH   1   7
TORSDOF 2
ENDMDL
