MODEL 1
REMARK minimizedAffinity 13.8284836
REMARK minimizedRMSD -1
REMARK  2 active torsions:
REMARK  status: ('A' for Active; 'I' for Inactive)
REMARK    1  A    between atoms: C1_2  and  C2_3 
REMARK    2  A    between atoms: C2_3  and  C3_4 
ROOT
ATOM      1  C3  UNL d   1       2.857  -0.233  -0.814  0.00  0.00    -0.075 A 
ATOM      2  C4  UNL d   1       1.602  -0.721  -1.206  0.00  0.00     0.002 A 
ATOM      3  C5  UNL d   1       1.219  -2.025  -0.889  0.00  0.00     0.002 A 
ATOM      4  C6  UNL d   1       2.088  -2.859  -0.189  0.00  0.00    -0.004 A 
ATOM      5  C7  UNL d   1       3.344  -2.390   0.190  0.00  0.00     0.002 A 
ATOM      6  C8  UNL d   1       3.728  -1.084  -0.121  0.00  0.00     0.002 A 
ENDROOT
BRANCH   1   7
ATOM      7  C2  UNL d   1       3.265   1.187  -1.128  0.00  0.00     0.056 C 
BRANCH   7   8
ATOM      8  C1  UNL d   1       4.332   1.751  -0.184  0.00  0.00     0.007 C 
ATOM      9  C   UNL d   1       3.757   2.645   0.907  0.00  0.00     0.009 C 
ENDBRANCH   7   8
ENDBRANCH   1   7
TORSDOF 2
ENDMDL
