MODEL 1
REMARK minimizedAffinity 15.0113173
REMARK minimizedRMSD -1
REMARK  2 active torsions:
REMARK  status: ('A' for Active; 'I' for Inactive)
REMARK    1  A    between atoms: C1_2  and  C2_3 
REMARK    2  A    between atoms: C2_3  and  C3_4 
ROOT
ATOM      1  C3  UNL d   1      -0.072   1.690   3.730  0.00  0.00    -0.075 A 
ATOM      2  C4  UNL d   1      -0.306   2.018   5.073  0.00  0.00     0.002 A 
ATOM      3  C5  UNL d   1       0.741   2.017   5.995  0.00  0.00     0.002 A 
ATOM      4  C6  UNL d   1       2.030   1.679   5.590  0.00  0.00    -0.004 A 
ATOM      5  C7  UNL d   1       2.271   1.336   4.261  0.00  0.00     0.002 A 
ATOM      6  C8  UNL d   1       1.226   1.341   3.335  0.00  0.00     0.002 A 
ENDROOT
BRANCH   1   7
ATOM      7  C2  UNL d   1      -1.195   1.718   2.721  0.00  0.00     0.056 C 
BRANCH   7   8
ATOM      8  C1  UNL d   1      -2.355   0.773   3.052  0.00  0.00     0.007 C 
ATOM      9  C   UNL d   1      -3.526   1.474   3.728  0.00  0.00     0.009 C 
ENDBRANCH   7   8
ENDBRANCH   1   7
TORSDOF 2
ENDMDL
