MODEL 1
REMARK minimizedAffinity 23.0038567
REMARK minimizedRMSD -1
REMARK  2 active torsions:
REMARK  status: ('A' for Active; 'I' for Inactive)
REMARK    1  A    between atoms: C1_2  and  C2_3 
REMARK    2  A    between atoms: C2_3  and  C3_4 
ROOT
ATOM      1  C3  UNL d   1       2.669   0.073  -0.588  0.00  0.00    -0.075 A 
ATOM      2  C4  UNL d   1       2.047  -1.106  -0.152  0.00  0.00     0.002 A 
ATOM      3  C5  UNL d   1       1.030  -1.691  -0.907  0.00  0.00     0.002 A 
ATOM      4  C6  UNL d   1       0.616  -1.101  -2.099  0.00  0.00    -0.004 A 
ATOM      5  C7  UNL d   1       1.215   0.079  -2.533  0.00  0.00     0.002 A 
ATOM      6  C8  UNL d   1       2.236   0.664  -1.783  0.00  0.00     0.002 A 
ENDROOT
BRANCH   1   7
ATOM      7  C2  UNL d   1       3.791   0.695   0.209  0.00  0.00     0.056 C 
BRANCH   7   8
ATOM      8  C1  UNL d   1       3.371   1.925   1.021  0.00  0.00     0.007 C 
ATOM      9  C   UNL d   1       2.195   1.657   1.951  0.00  0.00     0.009 C 
ENDBRANCH   7   8
ENDBRANCH   1   7
TORSDOF 2
ENDMDL
