MODEL 1
REMARK minimizedAffinity 8.9463892
REMARK minimizedRMSD -1
REMARK  2 active torsions:
REMARK  status: ('A' for Active; 'I' for Inactive)
REMARK    1  A    between atoms: C1_2  and  C2_3 
REMARK    2  A    between atoms: C2_3  and  C3_4 
ROOT
ATOM      1  C3  UNL d   1      -2.330   1.866   4.883  0.00  0.00    -0.075 A 
ATOM      2  C4  UNL d   1      -3.139   1.572   3.776  0.00  0.00     0.002 A 
ATOM      3  C5  UNL d   1      -4.492   1.911   3.777  0.00  0.00     0.002 A 
ATOM      4  C6  UNL d   1      -5.056   2.536   4.887  0.00  0.00    -0.004 A 
ATOM      5  C7  UNL d   1      -4.266   2.817   6.000  0.00  0.00     0.002 A 
ATOM      6  C8  UNL d   1      -2.910   2.484   5.999  0.00  0.00     0.002 A 
ENDROOT
BRANCH   1   7
ATOM      7  C2  UNL d   1      -0.858   1.529   4.876  0.00  0.00     0.056 C 
BRANCH   7   8
ATOM      8  C1  UNL d   1      -0.218   1.561   3.485  0.00  0.00     0.007 C 
ATOM      9  C   UNL d   1       1.150   0.893   3.438  0.00  0.00     0.009 C 
ENDBRANCH   7   8
ENDBRANCH   1   7
TORSDOF 2
ENDMDL
