MODEL 1
REMARK minimizedAffinity 14.9838915
REMARK minimizedRMSD -1
REMARK  2 active torsions:
REMARK  status: ('A' for Active; 'I' for Inactive)
REMARK    1  A    between atoms: C1_2  and  C2_3 
REMARK    2  A    between atoms: C2_3  and  C3_4 
ROOT
ATOM      1  C3  UNL d   1       1.370  -1.162  -3.164  0.00  0.00    -0.075 A 
ATOM      2  C4  UNL d   1       2.002  -0.567  -2.063  0.00  0.00     0.002 A 
ATOM      3  C5  UNL d   1       1.851  -1.105  -0.784  0.00  0.00     0.002 A 
ATOM      4  C6  UNL d   1       1.061  -2.235  -0.589  0.00  0.00    -0.004 A 
ATOM      5  C7  UNL d   1       0.416  -2.825  -1.674  0.00  0.00     0.002 A 
ATOM      6  C8  UNL d   1       0.568  -2.292  -2.955  0.00  0.00     0.002 A 
ENDROOT
BRANCH   1   7
ATOM      7  C2  UNL d   1       1.553  -0.602  -4.555  0.00  0.00     0.056 C 
BRANCH   7   8
ATOM      8  C1  UNL d   1       1.639  -1.670  -5.651  0.00  0.00     0.007 C 
ATOM      9  C   UNL d   1       3.069  -2.062  -5.996  0.00  0.00     0.009 C 
ENDBRANCH   7   8
ENDBRANCH   1   7
TORSDOF 2
ENDMDL
