MODEL 1
REMARK minimizedAffinity 15.012187
REMARK minimizedRMSD -1
REMARK  2 active torsions:
REMARK  status: ('A' for Active; 'I' for Inactive)
REMARK    1  A    between atoms: C1_2  and  C2_3 
REMARK    2  A    between atoms: C2_3  and  C3_4 
ROOT
ATOM      1  C3  UNL d   1       0.710  -2.196  -1.516  0.00  0.00    -0.075 A 
ATOM      2  C4  UNL d   1       1.773  -2.347  -0.615  0.00  0.00     0.002 A 
ATOM      3  C5  UNL d   1       2.799  -1.402  -0.564  0.00  0.00     0.002 A 
ATOM      4  C6  UNL d   1       2.780  -0.303  -1.420  0.00  0.00    -0.004 A 
ATOM      5  C7  UNL d   1       1.737  -0.151  -2.331  0.00  0.00     0.002 A 
ATOM      6  C8  UNL d   1       0.707  -1.092  -2.380  0.00  0.00     0.002 A 
ENDROOT
BRANCH   1   7
ATOM      7  C2  UNL d   1      -0.418  -3.198  -1.555  0.00  0.00     0.056 C 
BRANCH   7   8
ATOM      8  C1  UNL d   1      -0.525  -3.966  -2.877  0.00  0.00     0.007 C 
ATOM      9  C   UNL d   1      -1.712  -4.919  -2.924  0.00  0.00     0.009 C 
ENDBRANCH   7   8
ENDBRANCH   1   7
TORSDOF 2
ENDMDL
