MODEL 1
REMARK minimizedAffinity -1.69285274
REMARK minimizedRMSD -1
REMARK  2 active torsions:
REMARK  status: ('A' for Active; 'I' for Inactive)
REMARK    1  A    between atoms: C1_2  and  C2_3 
REMARK    2  A    between atoms: C2_3  and  C3_4 
ROOT
ATOM      1  C3  UNL d   1      -2.928  -5.171  -5.339  0.00  0.00    -0.075 A 
ATOM      2  C4  UNL d   1      -2.983  -3.795  -5.075  0.00  0.00     0.002 A 
ATOM      3  C5  UNL d   1      -4.170  -3.084  -5.259  0.00  0.00     0.002 A 
ATOM      4  C6  UNL d   1      -5.311  -3.737  -5.718  0.00  0.00    -0.004 A 
ATOM      5  C7  UNL d   1      -5.264  -5.101  -6.000  0.00  0.00     0.002 A 
ATOM      6  C8  UNL d   1      -4.079  -5.815  -5.812  0.00  0.00     0.002 A 
ENDROOT
BRANCH   1   7
ATOM      7  C2  UNL d   1      -1.655  -5.951  -5.114  0.00  0.00     0.056 C 
BRANCH   7   8
ATOM      8  C1  UNL d   1      -1.204  -5.998  -3.650  0.00  0.00     0.007 C 
ATOM      9  C   UNL d   1      -2.144  -5.259  -2.708  0.00  0.00     0.009 C 
ENDBRANCH   7   8
ENDBRANCH   1   7
TORSDOF 2
ENDMDL
