MODEL 1
REMARK minimizedAffinity 7.76130676
REMARK minimizedRMSD -1
REMARK  2 active torsions:
REMARK  status: ('A' for Active; 'I' for Inactive)
REMARK    1  A    between atoms: C1_2  and  C2_3 
REMARK    2  A    between atoms: C2_3  and  C3_4 
ROOT
ATOM      1  C3  UNL d   1      -2.324  -3.989  -3.958  0.00  0.00    -0.075 A 
ATOM      2  C4  UNL d   1      -1.509  -4.121  -2.824  0.00  0.00     0.002 A 
ATOM      3  C5  UNL d   1      -0.535  -5.118  -2.764  0.00  0.00     0.002 A 
ATOM      4  C6  UNL d   1      -0.370  -6.000  -3.829  0.00  0.00    -0.004 A 
ATOM      5  C7  UNL d   1      -1.185  -5.888  -4.954  0.00  0.00     0.002 A 
ATOM      6  C8  UNL d   1      -2.158  -4.889  -5.019  0.00  0.00     0.002 A 
ENDROOT
BRANCH   1   7
ATOM      7  C2  UNL d   1      -3.360  -2.893  -4.042  0.00  0.00     0.056 C 
BRANCH   7   8
ATOM      8  C1  UNL d   1      -3.482  -2.255  -5.429  0.00  0.00     0.007 C 
ATOM      9  C   UNL d   1      -4.916  -2.195  -5.939  0.00  0.00     0.009 C 
ENDBRANCH   7   8
ENDBRANCH   1   7
TORSDOF 2
ENDMDL
