MODEL 1
REMARK minimizedAffinity 11.0566139
REMARK minimizedRMSD -1
REMARK  2 active torsions:
REMARK  status: ('A' for Active; 'I' for Inactive)
REMARK    1  A    between atoms: C1_2  and  C2_3 
REMARK    2  A    between atoms: C2_3  and  C3_4 
ROOT
ATOM      1  C3  UNL d   1       2.616  -1.853  -4.016  0.00  0.00    -0.075 A 
ATOM      2  C4  UNL d   1       2.647  -2.804  -2.986  0.00  0.00     0.002 A 
ATOM      3  C5  UNL d   1       2.292  -2.450  -1.684  0.00  0.00     0.002 A 
ATOM      4  C6  UNL d   1       1.913  -1.141  -1.394  0.00  0.00    -0.004 A 
ATOM      5  C7  UNL d   1       1.895  -0.184  -2.407  0.00  0.00     0.002 A 
ATOM      6  C8  UNL d   1       2.245  -0.537  -3.711  0.00  0.00     0.002 A 
ENDROOT
BRANCH   1   7
ATOM      7  C2  UNL d   1       2.970  -2.238  -5.433  0.00  0.00     0.056 C 
BRANCH   7   8
ATOM      8  C1  UNL d   1       4.192  -1.501  -5.992  0.00  0.00     0.007 C 
ATOM      9  C   UNL d   1       5.455  -2.353  -5.999  0.00  0.00     0.009 C 
ENDBRANCH   7   8
ENDBRANCH   1   7
TORSDOF 2
ENDMDL
