MODEL 1
REMARK minimizedAffinity -4.89657688
REMARK minimizedRMSD -1
REMARK  0 active torsions:
REMARK  status: ('A' for Active; 'I' for Inactive)
ROOT
ATOM      1  C   UNL d   1      -0.469   2.318   1.406  0.00  0.00     0.023 A 
ATOM      2  C1  UNL d   1      -0.226   1.072   1.983  0.00  0.00     0.003 A 
ATOM      3  C2  UNL d   1      -0.132  -0.065   1.178  0.00  0.00     0.048 A 
ATOM      4  C3  UNL d   1      -0.280   0.051  -0.203  0.00  0.00     0.023 A 
ATOM      5  C4  UNL d   1      -0.522   1.297  -0.786  0.00  0.00     0.048 A 
ATOM      6  C5  UNL d   1      -0.616   2.431   0.023  0.00  0.00     0.003 A 
ATOM      7  I   UNL d   1      -0.141  -1.640  -1.404  0.00  0.00    -0.146 I 
ENDROOT
TORSDOF 0
ENDMDL
