MODEL 1
REMARK minimizedAffinity -2.28727674
REMARK minimizedRMSD -1
REMARK  0 active torsions:
REMARK  status: ('A' for Active; 'I' for Inactive)
ROOT
ATOM      1  C   UNL d   1      -0.040   2.460   1.845  0.00  0.00     0.023 A 
ATOM      2  C1  UNL d   1      -0.336   2.579   0.487  0.00  0.00     0.003 A 
ATOM      3  C2  UNL d   1      -0.253   1.463  -0.348  0.00  0.00     0.048 A 
ATOM      4  C3  UNL d   1       0.124   0.229   0.183  0.00  0.00     0.023 A 
ATOM      5  C4  UNL d   1       0.419   0.105   1.541  0.00  0.00     0.048 A 
ATOM      6  C5  UNL d   1       0.336   1.224   2.372  0.00  0.00     0.003 A 
ATOM      7  I   UNL d   1       0.246  -1.434  -1.057  0.00  0.00    -0.146 I 
ENDROOT
TORSDOF 0
ENDMDL
