MODEL 1
REMARK minimizedAffinity -3.55065084
REMARK minimizedRMSD -1
REMARK  0 active torsions:
REMARK  status: ('A' for Active; 'I' for Inactive)
ROOT
ATOM      1  C   UNL d   1      -0.021   1.686   1.904  0.00  0.00     0.023 A 
ATOM      2  C1  UNL d   1      -0.823   1.688   0.763  0.00  0.00     0.003 A 
ATOM      3  C2  UNL d   1      -0.706   0.661  -0.176  0.00  0.00     0.048 A 
ATOM      4  C3  UNL d   1       0.215  -0.365   0.032  0.00  0.00     0.023 A 
ATOM      5  C4  UNL d   1       1.020  -0.371   1.173  0.00  0.00     0.048 A 
ATOM      6  C5  UNL d   1       0.899   0.658   2.109  0.00  0.00     0.003 A 
ATOM      7  I   UNL d   1       0.392  -1.894  -1.364  0.00  0.00    -0.146 I 
ENDROOT
TORSDOF 0
ENDMDL
