MODEL 1
REMARK minimizedAffinity -4.28523254
REMARK minimizedRMSD -1
REMARK  0 active torsions:
REMARK  status: ('A' for Active; 'I' for Inactive)
ROOT
ATOM      1  C   UNL d   1      -0.243   4.126   1.196  0.00  0.00     0.023 A 
ATOM      2  C1  UNL d   1       0.500   3.469   2.178  0.00  0.00     0.003 A 
ATOM      3  C2  UNL d   1       0.584   2.076   2.177  0.00  0.00     0.048 A 
ATOM      4  C3  UNL d   1      -0.075   1.344   1.189  0.00  0.00     0.023 A 
ATOM      5  C4  UNL d   1      -0.818   1.997   0.204  0.00  0.00     0.048 A 
ATOM      6  C5  UNL d   1      -0.901   3.390   0.210  0.00  0.00     0.003 A 
ATOM      7  I   UNL d   1       0.049  -0.730   1.185  0.00  0.00    -0.146 I 
ENDROOT
TORSDOF 0
ENDMDL
