MODEL 1
REMARK minimizedAffinity -4.76344824
REMARK minimizedRMSD -1
REMARK  0 active torsions:
REMARK  status: ('A' for Active; 'I' for Inactive)
ROOT
ATOM      1  C   UNL d   1      -0.817   3.298   1.325  0.00  0.00     0.023 A 
ATOM      2  C1  UNL d   1      -0.258   2.304   2.129  0.00  0.00     0.003 A 
ATOM      3  C2  UNL d   1       0.155   1.097   1.562  0.00  0.00     0.048 A 
ATOM      4  C3  UNL d   1       0.008   0.891   0.190  0.00  0.00     0.023 A 
ATOM      5  C4  UNL d   1      -0.550   1.883  -0.617  0.00  0.00     0.048 A 
ATOM      6  C5  UNL d   1      -0.962   3.088  -0.046  0.00  0.00     0.003 A 
ATOM      7  I   UNL d   1       0.623  -0.905  -0.656  0.00  0.00    -0.146 I 
ENDROOT
TORSDOF 0
ENDMDL
