MODEL 1
REMARK minimizedAffinity -2.75650716
REMARK minimizedRMSD -1
REMARK  0 active torsions:
REMARK  status: ('A' for Active; 'I' for Inactive)
ROOT
ATOM      1  C   UNL d   1      -0.083   1.537   2.139  0.00  0.00     0.023 A 
ATOM      2  C1  UNL d   1      -0.796   1.659   0.947  0.00  0.00     0.003 A 
ATOM      3  C2  UNL d   1      -0.775   0.623   0.010  0.00  0.00     0.048 A 
ATOM      4  C3  UNL d   1      -0.039  -0.532   0.273  0.00  0.00     0.023 A 
ATOM      5  C4  UNL d   1       0.676  -0.658   1.465  0.00  0.00     0.048 A 
ATOM      6  C5  UNL d   1       0.652   0.380   2.398  0.00  0.00     0.003 A 
ATOM      7  I   UNL d   1      -0.005  -2.074  -1.119  0.00  0.00    -0.146 I 
ENDROOT
TORSDOF 0
ENDMDL
