MODEL 1
REMARK minimizedAffinity -3.63442278
REMARK minimizedRMSD -1
REMARK  0 active torsions:
REMARK  status: ('A' for Active; 'I' for Inactive)
ROOT
ATOM      1  C   UNL d   1      -0.816   2.703   1.887  0.00  0.00     0.023 A 
ATOM      2  C1  UNL d   1      -1.511   2.469   0.700  0.00  0.00     0.003 A 
ATOM      3  C2  UNL d   1      -1.080   1.471  -0.177  0.00  0.00     0.048 A 
ATOM      4  C3  UNL d   1       0.046   0.712   0.139  0.00  0.00     0.023 A 
ATOM      5  C4  UNL d   1       0.743   0.942   1.326  0.00  0.00     0.048 A 
ATOM      6  C5  UNL d   1       0.309   1.941   2.200  0.00  0.00     0.003 A 
ATOM      7  I   UNL d   1       0.689  -0.774  -1.164  0.00  0.00    -0.146 I 
ENDROOT
TORSDOF 0
ENDMDL
