MODEL 1
REMARK minimizedAffinity 13.7725458
REMARK minimizedRMSD -1
REMARK  0 active torsions:
REMARK  status: ('A' for Active; 'I' for Inactive)
ROOT
ATOM      1  C   UNL d   1      -1.866  -2.231  -1.855  0.00  0.00     0.124 A 
ATOM      2  C1  UNL d   1      -1.391  -2.424  -0.566  0.00  0.00     0.062 A 
ATOM      3  C2  UNL d   1      -1.878  -3.471   0.211  0.00  0.00     0.162 A 
ATOM      4  C3  UNL d   1      -2.846  -4.335  -0.301  0.00  0.00    -0.034 A 
ATOM      5  C4  UNL d   1      -3.321  -4.134  -1.598  0.00  0.00     0.162 A 
ATOM      6  C5  UNL d   1      -2.831  -3.086  -2.370  0.00  0.00     0.062 A 
ATOM      7  F   UNL d   1      -3.292  -2.901  -3.616  0.00  0.00    -0.097 F 
ATOM      8  F1  UNL d   1      -4.252  -4.946  -2.121  0.00  0.00    -0.096 F 
ATOM      9  I   UNL d   1      -3.577  -5.903   0.857  0.00  0.00    -0.060 I 
ATOM     10  F2  UNL d   1      -1.400  -3.634   1.453  0.00  0.00    -0.096 F 
ATOM     11  F3  UNL d   1      -0.459  -1.599  -0.066  0.00  0.00    -0.097 F 
ATOM     12  F4  UNL d   1      -1.396  -1.222  -2.600  0.00  0.00    -0.092 F 
ENDROOT
TORSDOF 0
ENDMDL
