MODEL 1
REMARK minimizedAffinity 19.5582657
REMARK minimizedRMSD -1
REMARK  0 active torsions:
REMARK  status: ('A' for Active; 'I' for Inactive)
ROOT
ATOM      1  C   UNL d   1      -1.650  -3.497  -2.721  0.00  0.00     0.124 A 
ATOM      2  C1  UNL d   1      -0.397  -3.679  -2.153  0.00  0.00     0.062 A 
ATOM      3  C2  UNL d   1      -0.111  -3.143  -0.900  0.00  0.00     0.162 A 
ATOM      4  C3  UNL d   1      -1.082  -2.420  -0.207  0.00  0.00    -0.034 A 
ATOM      5  C4  UNL d   1      -2.339  -2.240  -0.785  0.00  0.00     0.162 A 
ATOM      6  C5  UNL d   1      -2.620  -2.778  -2.037  0.00  0.00     0.062 A 
ATOM      7  F   UNL d   1      -3.831  -2.601  -2.585  0.00  0.00    -0.097 F 
ATOM      8  F1  UNL d   1      -3.296  -1.550  -0.146  0.00  0.00    -0.096 F 
ATOM      9  I   UNL d   1      -0.659  -1.617   1.666  0.00  0.00    -0.060 I 
ATOM     10  F2  UNL d   1       1.108  -3.335  -0.375  0.00  0.00    -0.096 F 
ATOM     11  F3  UNL d   1       0.542  -4.373  -2.812  0.00  0.00    -0.097 F 
ATOM     12  F4  UNL d   1      -1.921  -4.013  -3.926  0.00  0.00    -0.092 F 
ENDROOT
TORSDOF 0
ENDMDL
