MODEL 1
REMARK minimizedAffinity 4.13597727
REMARK minimizedRMSD -1
REMARK  0 active torsions:
REMARK  status: ('A' for Active; 'I' for Inactive)
ROOT
ATOM      1  C   UNL d   1      -0.893  -3.365  -0.170  0.00  0.00     0.124 A 
ATOM      2  C1  UNL d   1       0.135  -3.538  -1.086  0.00  0.00     0.062 A 
ATOM      3  C2  UNL d   1      -0.102  -3.359  -2.446  0.00  0.00     0.162 A 
ATOM      4  C3  UNL d   1      -1.372  -3.002  -2.898  0.00  0.00    -0.034 A 
ATOM      5  C4  UNL d   1      -2.401  -2.830  -1.970  0.00  0.00     0.162 A 
ATOM      6  C5  UNL d   1      -2.160  -3.011  -0.612  0.00  0.00     0.062 A 
ATOM      7  F   UNL d   1      -3.154  -2.842   0.271  0.00  0.00    -0.097 F 
ATOM      8  F1  UNL d   1      -3.635  -2.487  -2.371  0.00  0.00    -0.096 F 
ATOM      9  I   UNL d   1      -1.730  -2.733  -4.930  0.00  0.00    -0.060 I 
ATOM     10  F2  UNL d   1       0.910  -3.534  -3.309  0.00  0.00    -0.096 F 
ATOM     11  F3  UNL d   1       1.359  -3.881  -0.661  0.00  0.00    -0.097 F 
ATOM     12  F4  UNL d   1      -0.663  -3.539   1.138  0.00  0.00    -0.092 F 
ENDROOT
TORSDOF 0
ENDMDL
