MODEL 1
REMARK minimizedAffinity 20.6347237
REMARK minimizedRMSD -1
REMARK  0 active torsions:
REMARK  status: ('A' for Active; 'I' for Inactive)
ROOT
ATOM      1  C   UNL d   1       4.524   0.651  -1.619  0.00  0.00     0.124 A 
ATOM      2  C1  UNL d   1       4.838   0.124  -0.374  0.00  0.00     0.062 A 
ATOM      3  C2  UNL d   1       3.955   0.273   0.692  0.00  0.00     0.162 A 
ATOM      4  C3  UNL d   1       2.749   0.951   0.517  0.00  0.00    -0.034 A 
ATOM      5  C4  UNL d   1       2.441   1.479  -0.739  0.00  0.00     0.162 A 
ATOM      6  C5  UNL d   1       3.327   1.327  -1.800  0.00  0.00     0.062 A 
ATOM      7  F   UNL d   1       3.022   1.837  -3.003  0.00  0.00    -0.097 F 
ATOM      8  F1  UNL d   1       1.290   2.136  -0.942  0.00  0.00    -0.096 F 
ATOM      9  I   UNL d   1       1.426   1.176   2.107  0.00  0.00    -0.060 I 
ATOM     10  F2  UNL d   1       4.284  -0.246   1.884  0.00  0.00    -0.096 F 
ATOM     11  F3  UNL d   1       5.995  -0.530  -0.196  0.00  0.00    -0.097 F 
ATOM     12  F4  UNL d   1       5.376   0.507  -2.643  0.00  0.00    -0.092 F 
ENDROOT
TORSDOF 0
ENDMDL
