MODEL 1
REMARK minimizedAffinity 8.27058697
REMARK minimizedRMSD -1
REMARK  0 active torsions:
REMARK  status: ('A' for Active; 'I' for Inactive)
ROOT
ATOM      1  C   UNL d   1      -1.678  -2.886  -0.060  0.00  0.00     0.124 A 
ATOM      2  C1  UNL d   1      -2.338  -2.586  -1.244  0.00  0.00     0.062 A 
ATOM      3  C2  UNL d   1      -3.422  -3.356  -1.655  0.00  0.00     0.162 A 
ATOM      4  C3  UNL d   1      -3.854  -4.434  -0.882  0.00  0.00    -0.034 A 
ATOM      5  C4  UNL d   1      -3.185  -4.730   0.307  0.00  0.00     0.162 A 
ATOM      6  C5  UNL d   1      -2.102  -3.957   0.714  0.00  0.00     0.062 A 
ATOM      7  F   UNL d   1      -1.466  -4.248   1.859  0.00  0.00    -0.097 F 
ATOM      8  F1  UNL d   1      -3.574  -5.758   1.075  0.00  0.00    -0.096 F 
ATOM      9  I   UNL d   1      -5.474  -5.588  -1.494  0.00  0.00    -0.060 I 
ATOM     10  F2  UNL d   1      -4.040  -3.044  -2.804  0.00  0.00    -0.096 F 
ATOM     11  F3  UNL d   1      -1.929  -1.553  -1.994  0.00  0.00    -0.097 F 
ATOM     12  F4  UNL d   1      -0.635  -2.144   0.334  0.00  0.00    -0.092 F 
ENDROOT
TORSDOF 0
ENDMDL
