MODEL 1
REMARK minimizedAffinity 9.37746334
REMARK minimizedRMSD -1
REMARK  0 active torsions:
REMARK  status: ('A' for Active; 'I' for Inactive)
ROOT
ATOM      1  C   UNL d   1      -1.137  -3.348  -3.365  0.00  0.00     0.124 A 
ATOM      2  C1  UNL d   1       0.034  -3.695  -2.706  0.00  0.00     0.062 A 
ATOM      3  C2  UNL d   1       0.083  -3.688  -1.315  0.00  0.00     0.162 A 
ATOM      4  C3  UNL d   1      -1.043  -3.333  -0.573  0.00  0.00    -0.034 A 
ATOM      5  C4  UNL d   1      -2.217  -2.984  -1.243  0.00  0.00     0.162 A 
ATOM      6  C5  UNL d   1      -2.261  -2.993  -2.633  0.00  0.00     0.062 A 
ATOM      7  F   UNL d   1      -3.394  -2.657  -3.268  0.00  0.00    -0.097 F 
ATOM      8  F1  UNL d   1      -3.319  -2.637  -0.560  0.00  0.00    -0.096 F 
ATOM      9  I   UNL d   1      -0.974  -3.321   1.507  0.00  0.00    -0.060 I 
ATOM     10  F2  UNL d   1       1.228  -4.028  -0.704  0.00  0.00    -0.096 F 
ATOM     11  F3  UNL d   1       1.122  -4.038  -3.411  0.00  0.00    -0.097 F 
ATOM     12  F4  UNL d   1      -1.181  -3.355  -4.703  0.00  0.00    -0.092 F 
ENDROOT
TORSDOF 0
ENDMDL
