MODEL 1
REMARK minimizedAffinity 15.1731625
REMARK minimizedRMSD -1
REMARK  0 active torsions:
REMARK  status: ('A' for Active; 'I' for Inactive)
ROOT
ATOM      1  C   UNL d   1       4.129   0.369  -1.182  0.00  0.00     0.124 A 
ATOM      2  C1  UNL d   1       2.873   0.939  -1.333  0.00  0.00     0.062 A 
ATOM      3  C2  UNL d   1       2.042   1.106  -0.229  0.00  0.00     0.162 A 
ATOM      4  C3  UNL d   1       2.466   0.702   1.037  0.00  0.00    -0.034 A 
ATOM      5  C4  UNL d   1       3.730   0.128   1.181  0.00  0.00     0.162 A 
ATOM      6  C5  UNL d   1       4.556  -0.036   0.074  0.00  0.00     0.062 A 
ATOM      7  F   UNL d   1       5.770  -0.588   0.222  0.00  0.00    -0.097 F 
ATOM      8  F1  UNL d   1       4.169  -0.272   2.384  0.00  0.00    -0.096 F 
ATOM      9  I   UNL d   1       1.227   0.949   2.691  0.00  0.00    -0.060 I 
ATOM     10  F2  UNL d   1       0.833   1.660  -0.404  0.00  0.00    -0.096 F 
ATOM     11  F3  UNL d   1       2.457   1.331  -2.547  0.00  0.00    -0.097 F 
ATOM     12  F4  UNL d   1       4.926   0.209  -2.247  0.00  0.00    -0.092 F 
ENDROOT
TORSDOF 0
ENDMDL
