MODEL 1
REMARK minimizedAffinity 11.4335165
REMARK minimizedRMSD -1
REMARK  0 active torsions:
REMARK  status: ('A' for Active; 'I' for Inactive)
ROOT
ATOM      1  C   UNL d   1      -1.516  -3.408  -3.662  0.00  0.00     0.124 A 
ATOM      2  C1  UNL d   1      -2.675  -3.044  -2.991  0.00  0.00     0.062 A 
ATOM      3  C2  UNL d   1      -2.645  -2.805  -1.621  0.00  0.00     0.162 A 
ATOM      4  C3  UNL d   1      -1.450  -2.927  -0.911  0.00  0.00    -0.034 A 
ATOM      5  C4  UNL d   1      -0.289  -3.295  -1.593  0.00  0.00     0.162 A 
ATOM      6  C5  UNL d   1      -0.324  -3.533  -2.963  0.00  0.00     0.062 A 
ATOM      7  F   UNL d   1       0.797  -3.884  -3.609  0.00  0.00    -0.097 F 
ATOM      8  F1  UNL d   1       0.877  -3.422  -0.941  0.00  0.00    -0.096 F 
ATOM      9  I   UNL d   1      -1.401  -2.570   1.139  0.00  0.00    -0.060 I 
ATOM     10  F2  UNL d   1      -3.780  -2.454  -0.998  0.00  0.00    -0.096 F 
ATOM     11  F3  UNL d   1      -3.829  -2.923  -3.665  0.00  0.00    -0.097 F 
ATOM     12  F4  UNL d   1      -1.549  -3.639  -4.981  0.00  0.00    -0.092 F 
ENDROOT
TORSDOF 0
ENDMDL
