MODEL 1
REMARK minimizedAffinity 19.8035431
REMARK minimizedRMSD -1
REMARK  0 active torsions:
REMARK  status: ('A' for Active; 'I' for Inactive)
ROOT
ATOM      1  C   UNL d   1       4.746   0.640   1.020  0.00  0.00     0.124 A 
ATOM      2  C1  UNL d   1       3.533   0.081   0.642  0.00  0.00     0.062 A 
ATOM      3  C2  UNL d   1       2.397   0.879   0.538  0.00  0.00     0.162 A 
ATOM      4  C3  UNL d   1       2.469   2.245   0.812  0.00  0.00    -0.034 A 
ATOM      5  C4  UNL d   1       3.692   2.799   1.193  0.00  0.00     0.162 A 
ATOM      6  C5  UNL d   1       4.824   1.997   1.296  0.00  0.00     0.062 A 
ATOM      7  F   UNL d   1       5.996   2.538   1.662  0.00  0.00    -0.097 F 
ATOM      8  F1  UNL d   1       3.797   4.109   1.465  0.00  0.00    -0.096 F 
ATOM      9  I   UNL d   1       0.773   3.442   0.658  0.00  0.00    -0.060 I 
ATOM     10  F2  UNL d   1       1.238   0.313   0.170  0.00  0.00    -0.096 F 
ATOM     11  F3  UNL d   1       3.454  -1.230   0.376  0.00  0.00    -0.097 F 
ATOM     12  F4  UNL d   1       5.837  -0.131   1.121  0.00  0.00    -0.092 F 
ENDROOT
TORSDOF 0
ENDMDL
