MODEL 1
REMARK minimizedAffinity 11.1564283
REMARK minimizedRMSD -1
REMARK  0 active torsions:
REMARK  status: ('A' for Active; 'I' for Inactive)
ROOT
ATOM      1  C   UNL d   1      -1.064  -3.107  -0.369  0.00  0.00     0.124 A 
ATOM      2  C1  UNL d   1      -2.205  -2.639  -1.007  0.00  0.00     0.062 A 
ATOM      3  C2  UNL d   1      -2.233  -2.520  -2.393  0.00  0.00     0.162 A 
ATOM      4  C3  UNL d   1      -1.116  -2.871  -3.153  0.00  0.00    -0.034 A 
ATOM      5  C4  UNL d   1       0.028  -3.340  -2.504  0.00  0.00     0.162 A 
ATOM      6  C5  UNL d   1       0.051  -3.457  -1.118  0.00  0.00     0.062 A 
ATOM      7  F   UNL d   1       1.154  -3.909  -0.504  0.00  0.00    -0.097 F 
ATOM      8  F1  UNL d   1       1.118  -3.686  -3.204  0.00  0.00    -0.096 F 
ATOM      9  I   UNL d   1      -1.155  -2.694  -5.226  0.00  0.00    -0.060 I 
ATOM     10  F2  UNL d   1      -3.348  -2.065  -2.982  0.00  0.00    -0.096 F 
ATOM     11  F3  UNL d   1      -3.282  -2.300  -0.285  0.00  0.00    -0.097 F 
ATOM     12  F4  UNL d   1      -1.039  -3.220   0.965  0.00  0.00    -0.092 F 
ENDROOT
TORSDOF 0
ENDMDL
