MODEL 1
REMARK minimizedAffinity 16.448061
REMARK minimizedRMSD -1
REMARK  0 active torsions:
REMARK  status: ('A' for Active; 'I' for Inactive)
ROOT
ATOM      1  C   UNL d   1      -2.845  -2.634  -2.294  0.00  0.00     0.124 A 
ATOM      2  C1  UNL d   1      -3.707  -3.698  -2.520  0.00  0.00     0.062 A 
ATOM      3  C2  UNL d   1      -3.922  -4.649  -1.527  0.00  0.00     0.162 A 
ATOM      4  C3  UNL d   1      -3.274  -4.539  -0.296  0.00  0.00    -0.034 A 
ATOM      5  C4  UNL d   1      -2.407  -3.467  -0.076  0.00  0.00     0.162 A 
ATOM      6  C5  UNL d   1      -2.196  -2.520  -1.073  0.00  0.00     0.062 A 
ATOM      7  F   UNL d   1      -1.362  -1.493  -0.852  0.00  0.00    -0.097 F 
ATOM      8  F1  UNL d   1      -1.768  -3.332   1.095  0.00  0.00    -0.096 F 
ATOM      9  I   UNL d   1      -3.592  -5.959   1.192  0.00  0.00    -0.060 I 
ATOM     10  F2  UNL d   1      -4.761  -5.666  -1.773  0.00  0.00    -0.096 F 
ATOM     11  F3  UNL d   1      -4.335  -3.811  -3.700  0.00  0.00    -0.097 F 
ATOM     12  F4  UNL d   1      -2.639  -1.722  -3.252  0.00  0.00    -0.092 F 
ENDROOT
TORSDOF 0
ENDMDL
