MODEL 1
REMARK minimizedAffinity 7.7733736
REMARK minimizedRMSD -1
REMARK  0 active torsions:
REMARK  status: ('A' for Active; 'I' for Inactive)
ROOT
ATOM      1  C   UNL d   1       3.929   0.522  -1.070  0.00  0.00     0.124 A 
ATOM      2  C1  UNL d   1       4.294  -0.265   0.014  0.00  0.00     0.062 A 
ATOM      3  C2  UNL d   1       3.514  -0.274   1.166  0.00  0.00     0.162 A 
ATOM      4  C3  UNL d   1       2.360   0.507   1.241  0.00  0.00    -0.034 A 
ATOM      5  C4  UNL d   1       2.001   1.297   0.148  0.00  0.00     0.162 A 
ATOM      6  C5  UNL d   1       2.784   1.302  -1.002  0.00  0.00     0.062 A 
ATOM      7  F   UNL d   1       2.430   2.063  -2.048  0.00  0.00    -0.097 F 
ATOM      8  F1  UNL d   1       0.898   2.059   0.186  0.00  0.00    -0.096 F 
ATOM      9  I   UNL d   1       1.191   0.497   2.963  0.00  0.00    -0.060 I 
ATOM     10  F2  UNL d   1       3.890  -1.044   2.198  0.00  0.00    -0.096 F 
ATOM     11  F3  UNL d   1       5.401  -1.019  -0.049  0.00  0.00    -0.097 F 
ATOM     12  F4  UNL d   1       4.682   0.529  -2.177  0.00  0.00    -0.092 F 
ENDROOT
TORSDOF 0
ENDMDL
