MODEL 1
REMARK minimizedAffinity 8.03981781
REMARK minimizedRMSD -1
REMARK  0 active torsions:
REMARK  status: ('A' for Active; 'I' for Inactive)
ROOT
ATOM      1  C   UNL d   1      -1.187  -2.523  -3.731  0.00  0.00     0.124 A 
ATOM      2  C1  UNL d   1      -1.922  -3.147  -4.729  0.00  0.00     0.062 A 
ATOM      3  C2  UNL d   1      -3.105  -3.810  -4.417  0.00  0.00     0.162 A 
ATOM      4  C3  UNL d   1      -3.561  -3.853  -3.100  0.00  0.00    -0.034 A 
ATOM      5  C4  UNL d   1      -2.816  -3.224  -2.101  0.00  0.00     0.162 A 
ATOM      6  C5  UNL d   1      -1.634  -2.562  -2.418  0.00  0.00     0.062 A 
ATOM      7  F   UNL d   1      -0.926  -1.960  -1.452  0.00  0.00    -0.097 F 
ATOM      8  F1  UNL d   1      -3.226  -3.246  -0.824  0.00  0.00    -0.096 F 
ATOM      9  I   UNL d   1      -5.330  -4.844  -2.629  0.00  0.00    -0.060 I 
ATOM     10  F2  UNL d   1      -3.795  -4.404  -5.402  0.00  0.00    -0.096 F 
ATOM     11  F3  UNL d   1      -1.491  -3.111  -5.999  0.00  0.00    -0.097 F 
ATOM     12  F4  UNL d   1      -0.048  -1.886  -4.034  0.00  0.00    -0.092 F 
ENDROOT
TORSDOF 0
ENDMDL
