MODEL 1
REMARK minimizedAffinity 13.2028933
REMARK minimizedRMSD -1
REMARK  0 active torsions:
REMARK  status: ('A' for Active; 'I' for Inactive)
ROOT
ATOM      1  C   UNL d   1       3.451   0.689   0.097  0.00  0.00     0.124 A 
ATOM      2  C1  UNL d   1       3.944  -0.064   1.154  0.00  0.00     0.062 A 
ATOM      3  C2  UNL d   1       3.359   0.032   2.413  0.00  0.00     0.162 A 
ATOM      4  C3  UNL d   1       2.274   0.883   2.623  0.00  0.00    -0.034 A 
ATOM      5  C4  UNL d   1       1.785   1.637   1.555  0.00  0.00     0.162 A 
ATOM      6  C5  UNL d   1       2.373   1.538   0.298  0.00  0.00     0.062 A 
ATOM      7  F   UNL d   1       1.895   2.266  -0.722  0.00  0.00    -0.097 F 
ATOM      8  F1  UNL d   1       0.743   2.465   1.721  0.00  0.00    -0.096 F 
ATOM      9  I   UNL d   1       1.397   1.028   4.504  0.00  0.00    -0.060 I 
ATOM     10  F2  UNL d   1       3.856  -0.707   3.417  0.00  0.00    -0.096 F 
ATOM     11  F3  UNL d   1       4.987  -0.885   0.962  0.00  0.00    -0.097 F 
ATOM     12  F4  UNL d   1       4.017   0.596  -1.114  0.00  0.00    -0.092 F 
ENDROOT
TORSDOF 0
ENDMDL
