MODEL 1
REMARK minimizedAffinity 12.0670795
REMARK minimizedRMSD -1
REMARK  0 active torsions:
REMARK  status: ('A' for Active; 'I' for Inactive)
ROOT
ATOM      1  C   UNL d   1       1.511   1.484   2.760  0.00  0.00     0.124 A 
ATOM      2  C1  UNL d   1       1.860   1.940   1.496  0.00  0.00     0.062 A 
ATOM      3  C2  UNL d   1       2.946   1.385   0.826  0.00  0.00     0.162 A 
ATOM      4  C3  UNL d   1       3.693   0.366   1.419  0.00  0.00    -0.034 A 
ATOM      5  C4  UNL d   1       3.337  -0.086   2.691  0.00  0.00     0.162 A 
ATOM      6  C5  UNL d   1       2.250   0.472   3.356  0.00  0.00     0.062 A 
ATOM      7  F   UNL d   1       1.915   0.031   4.577  0.00  0.00    -0.097 F 
ATOM      8  F1  UNL d   1       4.033  -1.063   3.291  0.00  0.00    -0.096 F 
ATOM      9  I   UNL d   1       5.318  -0.466   0.422  0.00  0.00    -0.060 I 
ATOM     10  F2  UNL d   1       3.260   1.844  -0.394  0.00  0.00    -0.096 F 
ATOM     11  F3  UNL d   1       1.148   2.918   0.918  0.00  0.00    -0.097 F 
ATOM     12  F4  UNL d   1       0.466   2.021   3.402  0.00  0.00    -0.092 F 
ENDROOT
TORSDOF 0
ENDMDL
