MODEL 1
REMARK minimizedAffinity 2.51809525
REMARK minimizedRMSD -1
REMARK  0 active torsions:
REMARK  status: ('A' for Active; 'I' for Inactive)
ROOT
ATOM      1  C   UNL d   1       4.782   0.527   0.353  0.00  0.00     0.124 A 
ATOM      2  C1  UNL d   1       3.645   1.291   0.130  0.00  0.00     0.062 A 
ATOM      3  C2  UNL d   1       2.620   1.311   1.072  0.00  0.00     0.162 A 
ATOM      4  C3  UNL d   1       2.727   0.566   2.246  0.00  0.00    -0.034 A 
ATOM      5  C4  UNL d   1       3.873  -0.201   2.462  0.00  0.00     0.162 A 
ATOM      6  C5  UNL d   1       4.895  -0.218   1.518  0.00  0.00     0.062 A 
ATOM      7  F   UNL d   1       5.993  -0.957   1.735  0.00  0.00    -0.097 F 
ATOM      8  F1  UNL d   1       4.009  -0.930   3.580  0.00  0.00    -0.096 F 
ATOM      9  I   UNL d   1       1.196   0.593   3.656  0.00  0.00    -0.060 I 
ATOM     10  F2  UNL d   1       1.532   2.059   0.830  0.00  0.00    -0.096 F 
ATOM     11  F3  UNL d   1       3.532   2.011  -0.995  0.00  0.00    -0.097 F 
ATOM     12  F4  UNL d   1       5.766   0.508  -0.555  0.00  0.00    -0.092 F 
ENDROOT
TORSDOF 0
ENDMDL
