MODEL 1
REMARK minimizedAffinity 6.19347572
REMARK minimizedRMSD -1
REMARK  0 active torsions:
REMARK  status: ('A' for Active; 'I' for Inactive)
ROOT
ATOM      1  C   UNL d   1      -2.689  -2.427  -0.058  0.00  0.00     0.124 A 
ATOM      2  C1  UNL d   1      -1.349  -2.225   0.239  0.00  0.00     0.062 A 
ATOM      3  C2  UNL d   1      -0.365  -2.614  -0.667  0.00  0.00     0.162 A 
ATOM      4  C3  UNL d   1      -0.719  -3.207  -1.878  0.00  0.00    -0.034 A 
ATOM      5  C4  UNL d   1      -2.070  -3.408  -2.169  0.00  0.00     0.162 A 
ATOM      6  C5  UNL d   1      -3.049  -3.018  -1.261  0.00  0.00     0.062 A 
ATOM      7  F   UNL d   1      -4.344  -3.214  -1.549  0.00  0.00    -0.097 F 
ATOM      8  F1  UNL d   1      -2.445  -3.976  -3.324  0.00  0.00    -0.096 F 
ATOM      9  I   UNL d   1       0.748  -3.790  -3.235  0.00  0.00    -0.060 I 
ATOM     10  F2  UNL d   1       0.922  -2.407  -0.354  0.00  0.00    -0.096 F 
ATOM     11  F3  UNL d   1      -0.999  -1.655   1.401  0.00  0.00    -0.097 F 
ATOM     12  F4  UNL d   1      -3.633  -2.053   0.816  0.00  0.00    -0.092 F 
ENDROOT
TORSDOF 0
ENDMDL
