MODEL 1
REMARK minimizedAffinity 5.78061628
REMARK minimizedRMSD -1
REMARK  0 active torsions:
REMARK  status: ('A' for Active; 'I' for Inactive)
ROOT
ATOM      1  C   UNL d   1       3.533   0.211   1.167  0.00  0.00     0.124 A 
ATOM      2  C1  UNL d   1       4.749   0.861   1.003  0.00  0.00     0.062 A 
ATOM      3  C2  UNL d   1       4.812   2.251   1.055  0.00  0.00     0.162 A 
ATOM      4  C3  UNL d   1       3.656   3.000   1.272  0.00  0.00    -0.034 A 
ATOM      5  C4  UNL d   1       2.437   2.340   1.435  0.00  0.00     0.162 A 
ATOM      6  C5  UNL d   1       2.379   0.951   1.383  0.00  0.00     0.062 A 
ATOM      7  F   UNL d   1       1.204   0.325   1.541  0.00  0.00    -0.097 F 
ATOM      8  F1  UNL d   1       1.306   3.030   1.645  0.00  0.00    -0.096 F 
ATOM      9  I   UNL d   1       3.746   5.078   1.349  0.00  0.00    -0.060 I 
ATOM     10  F2  UNL d   1       6.000   2.852   0.893  0.00  0.00    -0.096 F 
ATOM     11  F3  UNL d   1       5.865   0.149   0.794  0.00  0.00    -0.097 F 
ATOM     12  F4  UNL d   1       3.475  -1.126   1.116  0.00  0.00    -0.092 F 
ENDROOT
TORSDOF 0
ENDMDL
