MODEL 1
REMARK minimizedAffinity 6.90953636
REMARK minimizedRMSD -1
REMARK  0 active torsions:
REMARK  status: ('A' for Active; 'I' for Inactive)
ROOT
ATOM      1  C   UNL d   1       2.510   2.569   1.209  0.00  0.00     0.124 A 
ATOM      2  C1  UNL d   1       3.782   2.061   1.435  0.00  0.00     0.062 A 
ATOM      3  C2  UNL d   1       4.780   2.879   1.956  0.00  0.00     0.162 A 
ATOM      4  C3  UNL d   1       4.510   4.214   2.257  0.00  0.00    -0.034 A 
ATOM      5  C4  UNL d   1       3.229   4.718   2.027  0.00  0.00     0.162 A 
ATOM      6  C5  UNL d   1       2.235   3.897   1.505  0.00  0.00     0.062 A 
ATOM      7  F   UNL d   1       1.007   4.389   1.288  0.00  0.00    -0.097 F 
ATOM      8  F1  UNL d   1       2.935   5.997   2.305  0.00  0.00    -0.096 F 
ATOM      9  I   UNL d   1       6.000   5.440   3.037  0.00  0.00    -0.060 I 
ATOM     10  F2  UNL d   1       6.000   2.362   2.164  0.00  0.00    -0.096 F 
ATOM     11  F3  UNL d   1       4.051   0.779   1.149  0.00  0.00    -0.097 F 
ATOM     12  F4  UNL d   1       1.552   1.780   0.706  0.00  0.00    -0.092 F 
ENDROOT
TORSDOF 0
ENDMDL
