MODEL 1
REMARK minimizedAffinity 14.9991484
REMARK minimizedRMSD -1
REMARK  0 active torsions:
REMARK  status: ('A' for Active; 'I' for Inactive)
ROOT
ATOM      1  C   UNL d   1      -1.290  -3.741  -3.137  0.00  0.00     0.124 A 
ATOM      2  C1  UNL d   1      -0.151  -3.898  -2.359  0.00  0.00     0.062 A 
ATOM      3  C2  UNL d   1      -0.147  -3.477  -1.032  0.00  0.00     0.162 A 
ATOM      4  C3  UNL d   1      -1.286  -2.895  -0.474  0.00  0.00    -0.034 A 
ATOM      5  C4  UNL d   1      -2.426  -2.740  -1.264  0.00  0.00     0.162 A 
ATOM      6  C5  UNL d   1      -2.426  -3.162  -2.589  0.00  0.00     0.062 A 
ATOM      7  F   UNL d   1      -3.527  -3.010  -3.340  0.00  0.00    -0.097 F 
ATOM      8  F1  UNL d   1      -3.539  -2.185  -0.759  0.00  0.00    -0.096 F 
ATOM      9  I   UNL d   1      -1.283  -2.264   1.509  0.00  0.00    -0.060 I 
ATOM     10  F2  UNL d   1       0.967  -3.641  -0.303  0.00  0.00    -0.096 F 
ATOM     11  F3  UNL d   1       0.948  -4.455  -2.886  0.00  0.00    -0.097 F 
ATOM     12  F4  UNL d   1      -1.291  -4.146  -4.414  0.00  0.00    -0.092 F 
ENDROOT
TORSDOF 0
ENDMDL
