MODEL 1
REMARK minimizedAffinity 4.45443821
REMARK minimizedRMSD -1
REMARK  0 active torsions:
REMARK  status: ('A' for Active; 'I' for Inactive)
ROOT
ATOM      1  C1  DEN d   1       0.058   1.681   1.579  0.00  0.00     0.130 A 
ATOM      2  C2  DEN d   1      -0.860   0.722   2.188  0.00  0.00    -0.031 A 
ATOM      3  C3  DEN d   1      -0.076  -0.457   2.607  0.00  0.00     0.027 A 
ATOM      4  C4  DEN d   1       2.457  -0.887   2.378  0.00  0.00     0.027 A 
ATOM      5  C5  DEN d   1       3.646  -0.367   1.917  0.00  0.00    -0.003 A 
ATOM      6  C6  DEN d   1       3.717   0.846   1.286  0.00  0.00     0.001 A 
ATOM      7  C7  DEN d   1       2.584   1.602   1.138  0.00  0.00     0.017 A 
ATOM      8  C8  DEN d   1       1.380   1.082   1.594  0.00  0.00    -0.094 A 
ATOM      9  C9  DEN d   1       1.331  -0.142   2.241  0.00  0.00    -0.072 A 
ENDROOT
TORSDOF 0
ENDMDL
