MODEL 1
REMARK minimizedAffinity 18.6934776
REMARK minimizedRMSD -1
REMARK  0 active torsions:
REMARK  status: ('A' for Active; 'I' for Inactive)
ROOT
ATOM      1  C1  DEN d   1      -2.033   0.393   0.498  0.00  0.00     0.130 A 
ATOM      2  C2  DEN d   1      -2.818   1.470   1.094  0.00  0.00    -0.031 A 
ATOM      3  C3  DEN d   1      -2.013   2.081   2.171  0.00  0.00     0.027 A 
ATOM      4  C4  DEN d   1       0.362   1.468   2.967  0.00  0.00     0.027 A 
ATOM      5  C5  DEN d   1       1.426   0.615   2.774  0.00  0.00    -0.003 A 
ATOM      6  C6  DEN d   1       1.398  -0.386   1.839  0.00  0.00     0.001 A 
ATOM      7  C7  DEN d   1       0.301  -0.530   1.031  0.00  0.00     0.017 A 
ATOM      8  C8  DEN d   1      -0.778   0.322   1.225  0.00  0.00    -0.094 A 
ATOM      9  C9  DEN d   1      -0.726   1.335   2.167  0.00  0.00    -0.072 A 
ENDROOT
TORSDOF 0
ENDMDL
