MODEL 1
REMARK minimizedAffinity 7.62324667
REMARK minimizedRMSD -1
REMARK  0 active torsions:
REMARK  status: ('A' for Active; 'I' for Inactive)
ROOT
ATOM      1  C1  DEN d   1      -0.541   0.390   0.941  0.00  0.00     0.130 A 
ATOM      2  C2  DEN d   1      -1.920   0.135   0.532  0.00  0.00    -0.031 A 
ATOM      3  C3  DEN d   1      -2.814   0.715   1.554  0.00  0.00     0.027 A 
ATOM      4  C4  DEN d   1      -2.201   1.980   3.717  0.00  0.00     0.027 A 
ATOM      5  C5  DEN d   1      -1.159   2.432   4.496  0.00  0.00    -0.003 A 
ATOM      6  C6  DEN d   1       0.151   2.207   4.165  0.00  0.00     0.001 A 
ATOM      7  C7  DEN d   1       0.454   1.551   3.002  0.00  0.00     0.017 A 
ATOM      8  C8  DEN d   1      -0.591   1.085   2.214  0.00  0.00    -0.094 A 
ATOM      9  C9  DEN d   1      -1.909   1.333   2.560  0.00  0.00    -0.072 A 
ENDROOT
TORSDOF 0
ENDMDL
