MODEL 1
REMARK minimizedAffinity 6.95408297
REMARK minimizedRMSD -1
REMARK  0 active torsions:
REMARK  status: ('A' for Active; 'I' for Inactive)
ROOT
ATOM      1  C1  DEN d   1      -4.077   0.727   4.249  0.00  0.00     0.130 A 
ATOM      2  C2  DEN d   1      -5.343   0.455   3.574  0.00  0.00    -0.031 A 
ATOM      3  C3  DEN d   1      -5.062   0.257   2.138  0.00  0.00     0.027 A 
ATOM      4  C4  DEN d   1      -2.800   0.340   0.901  0.00  0.00     0.027 A 
ATOM      5  C5  DEN d   1      -1.447   0.548   1.049  0.00  0.00    -0.003 A 
ATOM      6  C6  DEN d   1      -0.884   0.862   2.258  0.00  0.00     0.001 A 
ATOM      7  C7  DEN d   1      -1.673   0.932   3.376  0.00  0.00     0.017 A 
ATOM      8  C8  DEN d   1      -3.039   0.730   3.234  0.00  0.00    -0.094 A 
ATOM      9  C9  DEN d   1      -3.587   0.402   2.005  0.00  0.00    -0.072 A 
ENDROOT
TORSDOF 0
ENDMDL
