MODEL 1
REMARK minimizedAffinity 6.86839771
REMARK minimizedRMSD -1
REMARK  0 active torsions:
REMARK  status: ('A' for Active; 'I' for Inactive)
ROOT
ATOM      1  C1  DEN d   1      -2.526  -0.354   0.414  0.00  0.00     0.130 A 
ATOM      2  C2  DEN d   1      -1.675   0.794   0.717  0.00  0.00    -0.031 A 
ATOM      3  C3  DEN d   1      -2.425   1.693   1.617  0.00  0.00     0.027 A 
ATOM      4  C4  DEN d   1      -4.807   1.419   2.569  0.00  0.00     0.027 A 
ATOM      5  C5  DEN d   1      -5.923   0.613   2.585  0.00  0.00    -0.003 A 
ATOM      6  C6  DEN d   1      -5.998  -0.545   1.858  0.00  0.00     0.001 A 
ATOM      7  C7  DEN d   1      -4.919  -0.954   1.119  0.00  0.00     0.017 A 
ATOM      8  C8  DEN d   1      -3.793  -0.142   1.092  0.00  0.00    -0.094 A 
ATOM      9  C9  DEN d   1      -3.732   1.019   1.843  0.00  0.00    -0.072 A 
ENDROOT
TORSDOF 0
ENDMDL
