MODEL 1
REMARK minimizedAffinity 5.778934
REMARK minimizedRMSD -1
REMARK  0 active torsions:
REMARK  status: ('A' for Active; 'I' for Inactive)
ROOT
ATOM      1  C1  DEN d   1      -4.210   1.399   2.070  0.00  0.00     0.130 A 
ATOM      2  C2  DEN d   1      -4.297   2.096   3.350  0.00  0.00    -0.031 A 
ATOM      3  C3  DEN d   1      -2.922   2.351   3.826  0.00  0.00     0.027 A 
ATOM      4  C4  DEN d   1      -0.679   1.743   2.707  0.00  0.00     0.027 A 
ATOM      5  C5  DEN d   1      -0.097   1.136   1.616  0.00  0.00    -0.003 A 
ATOM      6  C6  DEN d   1      -0.839   0.548   0.625  0.00  0.00     0.001 A 
ATOM      7  C7  DEN d   1      -2.207   0.595   0.683  0.00  0.00     0.017 A 
ATOM      8  C8  DEN d   1      -2.801   1.199   1.783  0.00  0.00    -0.094 A 
ATOM      9  C9  DEN d   1      -2.034   1.798   2.768  0.00  0.00    -0.072 A 
ENDROOT
TORSDOF 0
ENDMDL
