MODEL 1
REMARK minimizedAffinity 4.01742935
REMARK minimizedRMSD -1
REMARK  0 active torsions:
REMARK  status: ('A' for Active; 'I' for Inactive)
ROOT
ATOM      1  C1  DEN d   1       0.499   1.558   2.635  0.00  0.00     0.130 A 
ATOM      2  C2  DEN d   1      -0.000   2.693   3.407  0.00  0.00    -0.031 A 
ATOM      3  C3  DEN d   1      -1.424   2.886   3.066  0.00  0.00     0.027 A 
ATOM      4  C4  DEN d   1      -2.898   1.542   1.432  0.00  0.00     0.027 A 
ATOM      5  C5  DEN d   1      -2.915   0.495   0.537  0.00  0.00    -0.003 A 
ATOM      6  C6  DEN d   1      -1.796  -0.244   0.255  0.00  0.00     0.001 A 
ATOM      7  C7  DEN d   1      -0.623   0.026   0.909  0.00  0.00     0.017 A 
ATOM      8  C8  DEN d   1      -0.596   1.085   1.807  0.00  0.00    -0.094 A 
ATOM      9  C9  DEN d   1      -1.741   1.812   2.087  0.00  0.00    -0.072 A 
ENDROOT
TORSDOF 0
ENDMDL
