MODEL 1
REMARK minimizedAffinity 9.10876083
REMARK minimizedRMSD -1
REMARK  0 active torsions:
REMARK  status: ('A' for Active; 'I' for Inactive)
ROOT
ATOM      1  C1  DEN d   1       0.507  -0.207   0.964  0.00  0.00     0.130 A 
ATOM      2  C2  DEN d   1       1.480   0.214   1.968  0.00  0.00    -0.031 A 
ATOM      3  C3  DEN d   1       0.780   1.060   2.956  0.00  0.00     0.027 A 
ATOM      4  C4  DEN d   1      -1.704   1.751   3.030  0.00  0.00     0.027 A 
ATOM      5  C5  DEN d   1      -2.917   1.648   2.386  0.00  0.00    -0.003 A 
ATOM      6  C6  DEN d   1      -3.066   0.954   1.214  0.00  0.00     0.001 A 
ATOM      7  C7  DEN d   1      -1.992   0.297   0.674  0.00  0.00     0.017 A 
ATOM      8  C8  DEN d   1      -0.764   0.402   1.313  0.00  0.00    -0.094 A 
ATOM      9  C9  DEN d   1      -0.637   1.099   2.503  0.00  0.00    -0.072 A 
ENDROOT
TORSDOF 0
ENDMDL
