MODEL 1
REMARK minimizedAffinity -2.44082785
REMARK minimizedRMSD -1
REMARK  2 active torsions:
REMARK  status: ('A' for Active; 'I' for Inactive)
REMARK    1  A    between atoms: C2'_3  and  C1'_4 
REMARK    2  A    between atoms: C1'_4  and  C1_5 
ROOT
ATOM      1  C1  I4B d   1      -5.532  -1.867   4.177  0.00  0.00    -0.075 A 
ATOM      2  C2  I4B d   1      -6.000  -0.577   4.155  0.00  0.00     0.003 A 
ATOM      3  C3  I4B d   1      -5.825   0.225   3.001  0.00  0.00     0.002 A 
ATOM      4  C4  I4B d   1      -5.137  -0.283   1.918  0.00  0.00    -0.004 A 
ATOM      5  C5  I4B d   1      -4.683  -1.599   1.934  0.00  0.00     0.002 A 
ATOM      6  C6  I4B d   1      -4.892  -2.401   3.065  0.00  0.00     0.003 A 
ENDROOT
BRANCH   1   7
ATOM      7  C1' I4B d   1      -5.704  -2.676   5.424  0.00  0.00     0.060 C 
BRANCH   7   8
ATOM      8  C2' I4B d   1      -5.031  -4.016   5.209  0.00  0.00    -0.013 C 
ATOM      9  C4' I4B d   1      -3.752  -4.116   5.998  0.00  0.00     0.013 C 
ATOM     10  C3' I4B d   1      -5.998  -5.090   5.607  0.00  0.00     0.013 C 
ENDBRANCH   7   8
ENDBRANCH   1   7
TORSDOF 2
ENDMDL
