MODEL 1
REMARK minimizedAffinity 5.52970648
REMARK minimizedRMSD -1
REMARK  2 active torsions:
REMARK  status: ('A' for Active; 'I' for Inactive)
REMARK    1  A    between atoms: C2'_3  and  C1'_4 
REMARK    2  A    between atoms: C1'_4  and  C1_5 
ROOT
ATOM      1  C1  I4B d   1       1.391  -1.221   3.617  0.00  0.00    -0.075 A 
ATOM      2  C2  I4B d   1       1.459  -2.580   3.438  0.00  0.00     0.003 A 
ATOM      3  C3  I4B d   1       1.612  -3.439   4.553  0.00  0.00     0.002 A 
ATOM      4  C4  I4B d   1       1.742  -2.898   5.816  0.00  0.00    -0.004 A 
ATOM      5  C5  I4B d   1       1.650  -1.521   5.998  0.00  0.00     0.002 A 
ATOM      6  C6  I4B d   1       1.461  -0.678   4.893  0.00  0.00     0.003 A 
ENDROOT
BRANCH   1   7
ATOM      7  C1' I4B d   1       1.262  -0.341   2.414  0.00  0.00     0.060 C 
BRANCH   7   8
ATOM      8  C2' I4B d   1       0.416   0.855   2.799  0.00  0.00    -0.013 C 
ATOM      9  C4' I4B d   1       0.066   1.686   1.593  0.00  0.00     0.013 C 
ATOM     10  C3' I4B d   1      -0.818   0.348   3.483  0.00  0.00     0.013 C 
ENDBRANCH   7   8
ENDBRANCH   1   7
TORSDOF 2
ENDMDL
