MODEL 1
REMARK minimizedAffinity 10.9343834
REMARK minimizedRMSD -1
REMARK  2 active torsions:
REMARK  status: ('A' for Active; 'I' for Inactive)
REMARK    1  A    between atoms: C2'_3  and  C1'_4 
REMARK    2  A    between atoms: C1'_4  and  C1_5 
ROOT
ATOM      1  C1  I4B d   1      -1.733   1.934   1.352  0.00  0.00    -0.075 A 
ATOM      2  C2  I4B d   1      -1.722   2.580   0.141  0.00  0.00     0.003 A 
ATOM      3  C3  I4B d   1      -0.494   2.855  -0.509  0.00  0.00     0.002 A 
ATOM      4  C4  I4B d   1       0.692   2.515   0.108  0.00  0.00    -0.004 A 
ATOM      5  C5  I4B d   1       0.678   1.840   1.325  0.00  0.00     0.002 A 
ATOM      6  C6  I4B d   1      -0.542   1.536   1.946  0.00  0.00     0.003 A 
ENDROOT
BRANCH   1   7
ATOM      7  C1' I4B d   1      -3.046   1.688   2.026  0.00  0.00     0.060 C 
BRANCH   7   8
ATOM      8  C2' I4B d   1      -3.601   0.379   1.504  0.00  0.00    -0.013 C 
ATOM      9  C4' I4B d   1      -4.376  -0.349   2.571  0.00  0.00     0.013 C 
ATOM     10  C3' I4B d   1      -4.466   0.683   0.318  0.00  0.00     0.013 C 
ENDBRANCH   7   8
ENDBRANCH   1   7
TORSDOF 2
ENDMDL
