MODEL 1
REMARK minimizedAffinity 12.3695612
REMARK minimizedRMSD -1
REMARK  2 active torsions:
REMARK  status: ('A' for Active; 'I' for Inactive)
REMARK    1  A    between atoms: C2'_3  and  C1'_4 
REMARK    2  A    between atoms: C1'_4  and  C1_5 
ROOT
ATOM      1  C1  I4B d   1      -3.852   0.125   2.674  0.00  0.00    -0.075 A 
ATOM      2  C2  I4B d   1      -4.890   0.982   2.946  0.00  0.00     0.003 A 
ATOM      3  C3  I4B d   1      -5.972   0.556   3.754  0.00  0.00     0.002 A 
ATOM      4  C4  I4B d   1      -6.000  -0.740   4.225  0.00  0.00    -0.004 A 
ATOM      5  C5  I4B d   1      -4.936  -1.600   3.968  0.00  0.00     0.002 A 
ATOM      6  C6  I4B d   1      -3.849  -1.161   3.197  0.00  0.00     0.003 A 
ENDROOT
BRANCH   1   7
ATOM      7  C1' I4B d   1      -2.742   0.596   1.789  0.00  0.00     0.060 C 
BRANCH   7   8
ATOM      8  C2' I4B d   1      -1.862   1.527   2.599  0.00  0.00    -0.013 C 
ATOM      9  C4' I4B d   1      -1.467   0.899   3.910  0.00  0.00     0.013 C 
ATOM     10  C3' I4B d   1      -0.656   1.860   1.773  0.00  0.00     0.013 C 
ENDBRANCH   7   8
ENDBRANCH   1   7
TORSDOF 2
ENDMDL
