MODEL 1
REMARK minimizedAffinity 11.8965645
REMARK minimizedRMSD -1
REMARK  2 active torsions:
REMARK  status: ('A' for Active; 'I' for Inactive)
REMARK    1  A    between atoms: C2'_3  and  C1'_4 
REMARK    2  A    between atoms: C1'_4  and  C1_5 
ROOT
ATOM      1  C1  I4B d   1      -5.841  -0.122   1.784  0.00  0.00    -0.075 A 
ATOM      2  C2  I4B d   1      -5.971   0.753   2.833  0.00  0.00     0.003 A 
ATOM      3  C3  I4B d   1      -6.000   0.271   4.164  0.00  0.00     0.002 A 
ATOM      4  C4  I4B d   1      -5.948  -1.088   4.396  0.00  0.00    -0.004 A 
ATOM      5  C5  I4B d   1      -5.793  -1.972   3.332  0.00  0.00     0.002 A 
ATOM      6  C6  I4B d   1      -5.727  -1.486   2.019  0.00  0.00     0.003 A 
ENDROOT
BRANCH   1   7
ATOM      7  C1' I4B d   1      -5.847   0.419   0.389  0.00  0.00     0.060 C 
BRANCH   7   8
ATOM      8  C2' I4B d   1      -4.472   0.192  -0.205  0.00  0.00    -0.013 C 
ATOM      9  C4' I4B d   1      -4.499   0.317  -1.706  0.00  0.00     0.013 C 
ATOM     10  C3' I4B d   1      -3.533   1.190   0.405  0.00  0.00     0.013 C 
ENDBRANCH   7   8
ENDBRANCH   1   7
TORSDOF 2
ENDMDL
