MODEL 1
REMARK minimizedAffinity 11.3834553
REMARK minimizedRMSD -1
REMARK  2 active torsions:
REMARK  status: ('A' for Active; 'I' for Inactive)
REMARK    1  A    between atoms: C2'_3  and  C1'_4 
REMARK    2  A    between atoms: C1'_4  and  C1_5 
ROOT
ATOM      1  C1  I4B d   1      -5.878  -0.996   3.856  0.00  0.00    -0.075 A 
ATOM      2  C2  I4B d   1      -5.902  -2.212   3.219  0.00  0.00     0.003 A 
ATOM      3  C3  I4B d   1      -5.989  -3.409   3.971  0.00  0.00     0.002 A 
ATOM      4  C4  I4B d   1      -5.999  -3.346   5.349  0.00  0.00    -0.004 A 
ATOM      5  C5  I4B d   1      -5.998  -2.112   5.993  0.00  0.00     0.002 A 
ATOM      6  C6  I4B d   1      -5.949  -0.929   5.241  0.00  0.00     0.003 A 
ENDROOT
BRANCH   1   7
ATOM      7  C1' I4B d   1      -5.752   0.246   3.033  0.00  0.00     0.060 C 
BRANCH   7   8
ATOM      8  C2' I4B d   1      -4.279   0.490   2.777  0.00  0.00    -0.013 C 
ATOM      9  C4' I4B d   1      -3.430  -0.572   3.425  0.00  0.00     0.013 C 
ATOM     10  C3' I4B d   1      -4.066   0.522   1.293  0.00  0.00     0.013 C 
ENDBRANCH   7   8
ENDBRANCH   1   7
TORSDOF 2
ENDMDL
