MODEL 1
REMARK minimizedAffinity 14.1647472
REMARK minimizedRMSD -1
REMARK  2 active torsions:
REMARK  status: ('A' for Active; 'I' for Inactive)
REMARK    1  A    between atoms: C2'_3  and  C1'_4 
REMARK    2  A    between atoms: C1'_4  and  C1_5 
ROOT
ATOM      1  C1  I4B d   1      -2.495   1.292  -0.904  0.00  0.00    -0.075 A 
ATOM      2  C2  I4B d   1      -3.420   1.331  -1.916  0.00  0.00     0.003 A 
ATOM      3  C3  I4B d   1      -4.778   1.025  -1.653  0.00  0.00     0.002 A 
ATOM      4  C4  I4B d   1      -5.153   0.639  -0.383  0.00  0.00    -0.004 A 
ATOM      5  C5  I4B d   1      -4.218   0.623   0.648  0.00  0.00     0.002 A 
ATOM      6  C6  I4B d   1      -2.882   0.964   0.389  0.00  0.00     0.003 A 
ENDROOT
BRANCH   1   7
ATOM      7  C1' I4B d   1      -1.064   1.590  -1.224  0.00  0.00     0.060 C 
BRANCH   7   8
ATOM      8  C2' I4B d   1      -0.561   2.604  -0.217  0.00  0.00    -0.013 C 
ATOM      9  C4' I4B d   1       0.360   1.965   0.788  0.00  0.00     0.013 C 
ATOM     10  C3' I4B d   1       0.135   3.698  -0.970  0.00  0.00     0.013 C 
ENDBRANCH   7   8
ENDBRANCH   1   7
TORSDOF 2
ENDMDL
