MODEL 1
REMARK minimizedAffinity 5.36670732
REMARK minimizedRMSD -1
REMARK  2 active torsions:
REMARK  status: ('A' for Active; 'I' for Inactive)
REMARK    1  A    between atoms: C2'_3  and  C1'_4 
REMARK    2  A    between atoms: C1'_4  and  C1_5 
ROOT
ATOM      1  C1  I4B d   1       3.410  -4.957  -1.222  0.00  0.00    -0.075 A 
ATOM      2  C2  I4B d   1       2.130  -5.270  -1.604  0.00  0.00     0.003 A 
ATOM      3  C3  I4B d   1       1.027  -4.615  -1.005  0.00  0.00     0.002 A 
ATOM      4  C4  I4B d   1       1.247  -3.697   0.002  0.00  0.00    -0.004 A 
ATOM      5  C5  I4B d   1       2.547  -3.365   0.373  0.00  0.00     0.002 A 
ATOM      6  C6  I4B d   1       3.636  -3.990  -0.251  0.00  0.00     0.003 A 
ENDROOT
BRANCH   1   7
ATOM      7  C1' I4B d   1       4.550  -5.692  -1.853  0.00  0.00     0.060 C 
BRANCH   7   8
ATOM      8  C2' I4B d   1       5.827  -5.248  -1.169  0.00  0.00    -0.013 C 
ATOM      9  C4' I4B d   1       5.954  -3.748  -1.171  0.00  0.00     0.013 C 
ATOM     10  C3' I4B d   1       5.815  -5.789   0.230  0.00  0.00     0.013 C 
ENDBRANCH   7   8
ENDBRANCH   1   7
TORSDOF 2
ENDMDL
