MODEL 1
REMARK minimizedAffinity 12.548727
REMARK minimizedRMSD -1
REMARK  1 active torsions:
REMARK  status: ('A' for Active; 'I' for Inactive)
REMARK    1  A    between atoms: C1_2  and  C2_3 
ROOT
ATOM      1  C2  UNL d   1      -1.885   4.685  -3.021  0.00  0.00    -0.081 A 
ATOM      2  C3  UNL d   1      -2.783   3.742  -3.539  0.00  0.00     0.006 A 
ATOM      3  C4  UNL d   1      -2.313   2.559  -4.114  0.00  0.00     0.002 A 
ATOM      4  C5  UNL d   1      -0.941   2.294  -4.173  0.00  0.00    -0.080 A 
ATOM      5  C6  UNL d   1      -0.426   1.014  -4.760  0.00  0.00     0.076 C 
ATOM      6  C7  UNL d   1      -0.044   3.243  -3.672  0.00  0.00     0.002 A 
ATOM      7  C8  UNL d   1      -0.512   4.427  -3.098  0.00  0.00     0.006 A 
ENDROOT
BRANCH   1   8
ATOM      8  C1  UNL d   1      -2.391   5.932  -2.343  0.00  0.00     0.054 C 
ATOM      9  C   UNL d   1      -1.932   5.998  -0.893  0.00  0.00     0.018 C 
ENDBRANCH   1   8
TORSDOF 1
ENDMDL
