MODEL 1
REMARK minimizedAffinity 4.50655031
REMARK minimizedRMSD -1
REMARK  1 active torsions:
REMARK  status: ('A' for Active; 'I' for Inactive)
REMARK    1  A    between atoms: C1_2  and  C2_3 
ROOT
ATOM      1  C2  UNL d   1       1.266  -0.499   2.617  0.00  0.00    -0.081 A 
ATOM      2  C3  UNL d   1       0.346  -1.130   3.463  0.00  0.00     0.006 A 
ATOM      3  C4  UNL d   1      -0.918  -1.492   2.990  0.00  0.00     0.002 A 
ATOM      4  C5  UNL d   1      -1.279  -1.236   1.663  0.00  0.00    -0.080 A 
ATOM      5  C6  UNL d   1      -2.622  -1.646   1.135  0.00  0.00     0.076 C 
ATOM      6  C7  UNL d   1      -0.366  -0.589   0.823  0.00  0.00     0.002 A 
ATOM      7  C8  UNL d   1       0.897  -0.227   1.295  0.00  0.00     0.006 A 
ENDROOT
BRANCH   1   8
ATOM      8  C1  UNL d   1       2.653  -0.167   3.106  0.00  0.00     0.054 C 
ATOM      9  C   UNL d   1       3.713  -0.616   2.111  0.00  0.00     0.018 C 
ENDBRANCH   1   8
TORSDOF 1
ENDMDL
