MODEL 1
REMARK minimizedAffinity 6.06523037
REMARK minimizedRMSD -1
REMARK  1 active torsions:
REMARK  status: ('A' for Active; 'I' for Inactive)
REMARK    1  A    between atoms: C1_2  and  C2_3 
ROOT
ATOM      1  C2  UNL d   1      -1.123  -2.068   2.579  0.00  0.00    -0.081 A 
ATOM      2  C3  UNL d   1      -1.145  -2.448   1.232  0.00  0.00     0.006 A 
ATOM      3  C4  UNL d   1      -0.373  -1.764   0.290  0.00  0.00     0.002 A 
ATOM      4  C5  UNL d   1       0.439  -0.694   0.680  0.00  0.00    -0.080 A 
ATOM      5  C6  UNL d   1       1.295   0.030  -0.316  0.00  0.00     0.076 C 
ATOM      6  C7  UNL d   1       0.448  -0.303   2.023  0.00  0.00     0.002 A 
ATOM      7  C8  UNL d   1      -0.324  -0.986   2.966  0.00  0.00     0.006 A 
ENDROOT
BRANCH   1   8
ATOM      8  C1  UNL d   1      -1.904  -2.845   3.608  0.00  0.00     0.054 C 
ATOM      9  C   UNL d   1      -1.748  -2.238   4.995  0.00  0.00     0.018 C 
ENDBRANCH   1   8
TORSDOF 1
ENDMDL
