MODEL 1
REMARK minimizedAffinity 8.70799637
REMARK minimizedRMSD -1
REMARK  1 active torsions:
REMARK  status: ('A' for Active; 'I' for Inactive)
REMARK    1  A    between atoms: C1_2  and  C2_3 
ROOT
ATOM      1  C2  UNL d   1       0.756  -0.406   0.721  0.00  0.00    -0.081 A 
ATOM      2  C3  UNL d   1      -0.405  -1.187   0.772  0.00  0.00     0.006 A 
ATOM      3  C4  UNL d   1      -0.962  -1.549   2.001  0.00  0.00     0.002 A 
ATOM      4  C5  UNL d   1      -0.373  -1.128   3.199  0.00  0.00    -0.080 A 
ATOM      5  C6  UNL d   1      -0.978  -1.484   4.524  0.00  0.00     0.076 C 
ATOM      6  C7  UNL d   1       0.797  -0.362   3.148  0.00  0.00     0.002 A 
ATOM      7  C8  UNL d   1       1.354  -0.002   1.919  0.00  0.00     0.006 A 
ENDROOT
BRANCH   1   8
ATOM      8  C1  UNL d   1       1.322   0.039  -0.603  0.00  0.00     0.054 C 
ATOM      9  C   UNL d   1       1.747   1.500  -0.560  0.00  0.00     0.018 C 
ENDBRANCH   1   8
TORSDOF 1
ENDMDL
