MODEL 1
REMARK minimizedAffinity 5.3893466
REMARK minimizedRMSD -1
REMARK  1 active torsions:
REMARK  status: ('A' for Active; 'I' for Inactive)
REMARK    1  A    between atoms: C1_2  and  C2_3 
ROOT
ATOM      1  C2  UNL d   1       2.796  -0.855  -1.249  0.00  0.00    -0.081 A 
ATOM      2  C3  UNL d   1       2.200   0.302  -0.733  0.00  0.00     0.006 A 
ATOM      3  C4  UNL d   1       2.762   1.558  -0.978  0.00  0.00     0.002 A 
ATOM      4  C5  UNL d   1       3.923   1.678  -1.749  0.00  0.00    -0.080 A 
ATOM      5  C6  UNL d   1       4.518   3.022  -2.045  0.00  0.00     0.076 C 
ATOM      6  C7  UNL d   1       4.528   0.521  -2.250  0.00  0.00     0.002 A 
ATOM      7  C8  UNL d   1       3.968  -0.735  -2.005  0.00  0.00     0.006 A 
ENDROOT
BRANCH   1   8
ATOM      8  C1  UNL d   1       2.157  -2.204  -1.041  0.00  0.00     0.054 C 
ATOM      9  C   UNL d   1       0.855  -2.325  -1.818  0.00  0.00     0.018 C 
ENDBRANCH   1   8
TORSDOF 1
ENDMDL
