MODEL 1
REMARK minimizedAffinity 9.739501
REMARK minimizedRMSD -1
REMARK  1 active torsions:
REMARK  status: ('A' for Active; 'I' for Inactive)
REMARK    1  A    between atoms: C1_2  and  C2_3 
ROOT
ATOM      1  C2  UNL d   1       1.190  -0.622   0.509  0.00  0.00    -0.081 A 
ATOM      2  C3  UNL d   1       0.757   0.012   1.681  0.00  0.00     0.006 A 
ATOM      3  C4  UNL d   1      -0.324  -0.498   2.404  0.00  0.00     0.002 A 
ATOM      4  C5  UNL d   1      -0.985  -1.654   1.973  0.00  0.00    -0.080 A 
ATOM      5  C6  UNL d   1      -2.127  -2.229   2.756  0.00  0.00     0.076 C 
ATOM      6  C7  UNL d   1      -0.564  -2.277   0.793  0.00  0.00     0.002 A 
ATOM      7  C8  UNL d   1       0.517  -1.767   0.069  0.00  0.00     0.006 A 
ENDROOT
BRANCH   1   8
ATOM      8  C1  UNL d   1       2.395  -0.111  -0.237  0.00  0.00     0.054 C 
ATOM      9  C   UNL d   1       2.038   1.078  -1.118  0.00  0.00     0.018 C 
ENDBRANCH   1   8
TORSDOF 1
ENDMDL
