MODEL 1
REMARK minimizedAffinity 12.2454453
REMARK minimizedRMSD -1
REMARK  1 active torsions:
REMARK  status: ('A' for Active; 'I' for Inactive)
REMARK    1  A    between atoms: C1_2  and  C2_3 
ROOT
ATOM      1  C2  UNL d   1      -1.704  -1.639   1.266  0.00  0.00    -0.081 A 
ATOM      2  C3  UNL d   1      -1.421  -0.412   1.877  0.00  0.00     0.006 A 
ATOM      3  C4  UNL d   1      -0.248   0.281   1.567  0.00  0.00     0.002 A 
ATOM      4  C5  UNL d   1       0.657  -0.238   0.635  0.00  0.00    -0.080 A 
ATOM      5  C6  UNL d   1       1.905   0.509   0.270  0.00  0.00     0.076 C 
ATOM      6  C7  UNL d   1       0.383  -1.473   0.037  0.00  0.00     0.002 A 
ATOM      7  C8  UNL d   1      -0.789  -2.166   0.347  0.00  0.00     0.006 A 
ENDROOT
BRANCH   1   8
ATOM      8  C1  UNL d   1      -2.999  -2.357   1.550  0.00  0.00     0.054 C 
ATOM      9  C   UNL d   1      -3.853  -2.474   0.296  0.00  0.00     0.018 C 
ENDBRANCH   1   8
TORSDOF 1
ENDMDL
