MODEL 1
REMARK minimizedAffinity 8.29662037
REMARK minimizedRMSD -1
REMARK  1 active torsions:
REMARK  status: ('A' for Active; 'I' for Inactive)
REMARK    1  A    between atoms: C1_2  and  C2_3 
ROOT
ATOM      1  C2  UNL d   1      -0.859   4.530  -3.459  0.00  0.00    -0.081 A 
ATOM      2  C3  UNL d   1      -1.936   3.773  -3.934  0.00  0.00     0.006 A 
ATOM      3  C4  UNL d   1      -1.748   2.447  -4.333  0.00  0.00     0.002 A 
ATOM      4  C5  UNL d   1      -0.482   1.856  -4.257  0.00  0.00    -0.080 A 
ATOM      5  C6  UNL d   1      -0.273   0.424  -4.654  0.00  0.00     0.076 C 
ATOM      6  C7  UNL d   1       0.597   2.618  -3.799  0.00  0.00     0.002 A 
ATOM      7  C8  UNL d   1       0.410   3.943  -3.400  0.00  0.00     0.006 A 
ENDROOT
BRANCH   1   8
ATOM      8  C1  UNL d   1      -1.071   5.939  -2.967  0.00  0.00     0.054 C 
ATOM      9  C   UNL d   1      -1.094   5.997  -1.446  0.00  0.00     0.018 C 
ENDBRANCH   1   8
TORSDOF 1
ENDMDL
