MODEL 1
REMARK minimizedAffinity 4.01551199
REMARK minimizedRMSD -1
REMARK  1 active torsions:
REMARK  status: ('A' for Active; 'I' for Inactive)
REMARK    1  A    between atoms: C1_2  and  C2_3 
ROOT
ATOM      1  C2  UNL d   1      -2.704   3.128  -3.304  0.00  0.00    -0.081 A 
ATOM      2  C3  UNL d   1      -3.120   4.119  -2.407  0.00  0.00     0.006 A 
ATOM      3  C4  UNL d   1      -2.204   5.043  -1.896  0.00  0.00     0.002 A 
ATOM      4  C5  UNL d   1      -0.860   4.996  -2.281  0.00  0.00    -0.080 A 
ATOM      5  C6  UNL d   1       0.127   6.000  -1.764  0.00  0.00     0.076 C 
ATOM      6  C7  UNL d   1      -0.440   3.995  -3.164  0.00  0.00     0.002 A 
ATOM      7  C8  UNL d   1      -1.355   3.071  -3.674  0.00  0.00     0.006 A 
ENDROOT
BRANCH   1   8
ATOM      8  C1  UNL d   1      -3.701   2.172  -3.906  0.00  0.00     0.054 C 
ATOM      9  C   UNL d   1      -4.910   2.910  -4.463  0.00  0.00     0.018 C 
ENDBRANCH   1   8
TORSDOF 1
ENDMDL
