MODEL 1
REMARK minimizedAffinity 16.9843044
REMARK minimizedRMSD -1
REMARK  1 active torsions:
REMARK  status: ('A' for Active; 'I' for Inactive)
REMARK    1  A    between atoms: C1_2  and  C2_3 
ROOT
ATOM      1  C2  UNL d   1      -1.109   4.444  -3.472  0.00  0.00    -0.081 A 
ATOM      2  C3  UNL d   1      -2.121   3.640  -4.010  0.00  0.00     0.006 A 
ATOM      3  C4  UNL d   1      -1.804   2.451  -4.672  0.00  0.00     0.002 A 
ATOM      4  C5  UNL d   1      -0.472   2.043  -4.799  0.00  0.00    -0.080 A 
ATOM      5  C6  UNL d   1      -0.121   0.754  -5.480  0.00  0.00     0.076 C 
ATOM      6  C7  UNL d   1       0.540   2.855  -4.277  0.00  0.00     0.002 A 
ATOM      7  C8  UNL d   1       0.224   4.044  -3.616  0.00  0.00     0.006 A 
ENDROOT
BRANCH   1   8
ATOM      8  C1  UNL d   1      -1.452   5.694  -2.702  0.00  0.00     0.054 C 
ATOM      9  C   UNL d   1      -1.034   5.577  -1.243  0.00  0.00     0.018 C 
ENDBRANCH   1   8
TORSDOF 1
ENDMDL
