MODEL 1
REMARK minimizedAffinity 10.0241165
REMARK minimizedRMSD -1
REMARK  1 active torsions:
REMARK  status: ('A' for Active; 'I' for Inactive)
REMARK    1  A    between atoms: C1_2  and  C2_3 
ROOT
ATOM      1  C2  UNL d   1      -0.443   2.421  -4.431  0.00  0.00    -0.081 A 
ATOM      2  C3  UNL d   1       0.626   3.236  -4.038  0.00  0.00     0.006 A 
ATOM      3  C4  UNL d   1       0.396   4.389  -3.283  0.00  0.00     0.002 A 
ATOM      4  C5  UNL d   1      -0.903   4.741  -2.903  0.00  0.00    -0.080 A 
ATOM      5  C6  UNL d   1      -1.160   5.960  -2.067  0.00  0.00     0.076 C 
ATOM      6  C7  UNL d   1      -1.972   3.937  -3.311  0.00  0.00     0.002 A 
ATOM      7  C8  UNL d   1      -1.744   2.784  -4.066  0.00  0.00     0.006 A 
ENDROOT
BRANCH   1   8
ATOM      8  C1  UNL d   1      -0.193   1.142  -5.190  0.00  0.00     0.054 C 
ATOM      9  C   UNL d   1       0.454   0.089  -4.301  0.00  0.00     0.018 C 
ENDBRANCH   1   8
TORSDOF 1
ENDMDL
