MODEL 1
REMARK minimizedAffinity 16.4811554
REMARK minimizedRMSD -1
REMARK  1 active torsions:
REMARK  status: ('A' for Active; 'I' for Inactive)
REMARK    1  A    between atoms: C1_2  and  C2_3 
ROOT
ATOM      1  C2  UNL d   1       0.981  -0.396   0.816  0.00  0.00    -0.081 A 
ATOM      2  C3  UNL d   1       0.601  -1.659   0.344  0.00  0.00     0.006 A 
ATOM      3  C4  UNL d   1      -0.694  -2.136   0.563  0.00  0.00     0.002 A 
ATOM      4  C5  UNL d   1      -1.631  -1.357   1.250  0.00  0.00    -0.080 A 
ATOM      5  C6  UNL d   1      -3.032  -1.846   1.466  0.00  0.00     0.076 C 
ATOM      6  C7  UNL d   1      -1.246  -0.103   1.737  0.00  0.00     0.002 A 
ATOM      7  C8  UNL d   1       0.048   0.374   1.519  0.00  0.00     0.006 A 
ENDROOT
BRANCH   1   8
ATOM      8  C1  UNL d   1       2.356   0.148   0.525  0.00  0.00     0.054 C 
ATOM      9  C   UNL d   1       2.416   0.794  -0.852  0.00  0.00     0.018 C 
ENDBRANCH   1   8
TORSDOF 1
ENDMDL
