MODEL 1
REMARK minimizedAffinity 1.4635359
REMARK minimizedRMSD -1
REMARK  0 active torsions:
REMARK  status: ('A' for Active; 'I' for Inactive)
ROOT
ATOM      1  C2' OXE d   1      -4.853  -2.062   6.000  0.00  0.00     0.078 C 
ATOM      2  C1' OXE d   1      -3.667  -2.586   3.510  0.00  0.00     0.078 C 
ATOM      3  C1  OXE d   1      -4.476  -3.686   4.149  0.00  0.00    -0.078 A 
ATOM      4  C2  OXE d   1      -5.013  -3.437   5.389  0.00  0.00    -0.078 A 
ATOM      5  C3  OXE d   1      -5.814  -4.399   6.000  0.00  0.00     0.003 A 
ATOM      6  C4  OXE d   1      -5.949  -5.672   5.433  0.00  0.00    -0.002 A 
ATOM      7  C5  OXE d   1      -5.377  -5.960   4.189  0.00  0.00    -0.002 A 
ATOM      8  C6  OXE d   1      -4.675  -4.966   3.516  0.00  0.00     0.003 A 
ENDROOT
TORSDOF 0
ENDMDL
