MODEL 1
REMARK minimizedAffinity 13.2459517
REMARK minimizedRMSD -1
REMARK  0 active torsions:
REMARK  status: ('A' for Active; 'I' for Inactive)
ROOT
ATOM      1  C2' OXE d   1      -1.500   0.761   3.101  0.00  0.00     0.078 C 
ATOM      2  C1' OXE d   1      -1.748  -1.415   1.344  0.00  0.00     0.078 C 
ATOM      3  C1  OXE d   1      -0.579  -1.410   2.298  0.00  0.00    -0.078 A 
ATOM      4  C2  OXE d   1      -0.440  -0.319   3.121  0.00  0.00    -0.078 A 
ATOM      5  C3  OXE d   1       0.589  -0.289   4.058  0.00  0.00     0.003 A 
ATOM      6  C4  OXE d   1       1.571  -1.287   4.064  0.00  0.00    -0.002 A 
ATOM      7  C5  OXE d   1       1.470  -2.388   3.206  0.00  0.00    -0.002 A 
ATOM      8  C6  OXE d   1       0.380  -2.486   2.348  0.00  0.00     0.003 A 
ENDROOT
TORSDOF 0
ENDMDL
