MODEL 1
REMARK minimizedAffinity 11.0048428
REMARK minimizedRMSD -1
REMARK  0 active torsions:
REMARK  status: ('A' for Active; 'I' for Inactive)
ROOT
ATOM      1  C2' OXE d   1       4.232   2.414  -5.301  0.00  0.00     0.078 C 
ATOM      2  C1' OXE d   1       5.772   4.517  -4.260  0.00  0.00     0.078 C 
ATOM      3  C1  OXE d   1       4.403   4.287  -3.669  0.00  0.00    -0.078 A 
ATOM      4  C2  OXE d   1       3.639   3.286  -4.216  0.00  0.00    -0.078 A 
ATOM      5  C3  OXE d   1       2.390   2.996  -3.672  0.00  0.00     0.003 A 
ATOM      6  C4  OXE d   1       1.844   3.813  -2.675  0.00  0.00    -0.002 A 
ATOM      7  C5  OXE d   1       2.591   4.864  -2.131  0.00  0.00    -0.002 A 
ATOM      8  C6  OXE d   1       3.886   5.087  -2.586  0.00  0.00     0.003 A 
ENDROOT
TORSDOF 0
ENDMDL
