MODEL 1
REMARK minimizedAffinity 11.9475374
REMARK minimizedRMSD -1
REMARK  0 active torsions:
REMARK  status: ('A' for Active; 'I' for Inactive)
ROOT
ATOM      1  C2' OXE d   1       5.194   3.546   1.656  0.00  0.00     0.078 C 
ATOM      2  C1' OXE d   1       5.460   1.442   3.495  0.00  0.00     0.078 C 
ATOM      3  C1  OXE d   1       4.405   1.311   2.425  0.00  0.00    -0.078 A 
ATOM      4  C2  OXE d   1       4.251   2.366   1.558  0.00  0.00    -0.078 A 
ATOM      5  C3  OXE d   1       3.330   2.275   0.518  0.00  0.00     0.003 A 
ATOM      6  C4  OXE d   1       2.454   1.185   0.441  0.00  0.00    -0.002 A 
ATOM      7  C5  OXE d   1       2.568   0.118   1.338  0.00  0.00    -0.002 A 
ATOM      8  C6  OXE d   1       3.564   0.146   2.308  0.00  0.00     0.003 A 
ENDROOT
TORSDOF 0
ENDMDL
