MODEL 1
REMARK minimizedAffinity -0.924111485
REMARK minimizedRMSD -1
REMARK  0 active torsions:
REMARK  status: ('A' for Active; 'I' for Inactive)
ROOT
ATOM      1  C2' OXE d   1       3.892  -1.751  -0.381  0.00  0.00     0.078 C 
ATOM      2  C1' OXE d   1       2.068  -3.820   0.141  0.00  0.00     0.078 C 
ATOM      3  C1  OXE d   1       3.446  -4.201  -0.341  0.00  0.00    -0.078 A 
ATOM      4  C2  OXE d   1       4.316  -3.180  -0.638  0.00  0.00    -0.078 A 
ATOM      5  C3  OXE d   1       5.617  -3.478  -1.034  0.00  0.00     0.003 A 
ATOM      6  C4  OXE d   1       5.999  -4.802  -1.280  0.00  0.00    -0.002 A 
ATOM      7  C5  OXE d   1       5.114  -5.855  -1.022  0.00  0.00    -0.002 A 
ATOM      8  C6  OXE d   1       3.851  -5.574  -0.512  0.00  0.00     0.003 A 
ENDROOT
TORSDOF 0
ENDMDL
