MODEL 1
REMARK minimizedAffinity 7.84577465
REMARK minimizedRMSD -1
REMARK  0 active torsions:
REMARK  status: ('A' for Active; 'I' for Inactive)
ROOT
ATOM      1  C2' OXE d   1      -5.624   1.839   5.018  0.00  0.00     0.078 C 
ATOM      2  C1' OXE d   1      -5.352   0.669   2.481  0.00  0.00     0.078 C 
ATOM      3  C1  OXE d   1      -4.131   0.725   3.364  0.00  0.00    -0.078 A 
ATOM      4  C2  OXE d   1      -4.262   1.342   4.585  0.00  0.00    -0.078 A 
ATOM      5  C3  OXE d   1      -3.181   1.373   5.462  0.00  0.00     0.003 A 
ATOM      6  C4  OXE d   1      -1.922   0.919   5.050  0.00  0.00    -0.002 A 
ATOM      7  C5  OXE d   1      -1.757   0.323   3.795  0.00  0.00    -0.002 A 
ATOM      8  C6  OXE d   1      -2.858   0.181   2.959  0.00  0.00     0.003 A 
ENDROOT
TORSDOF 0
ENDMDL
