MODEL 1
REMARK minimizedAffinity 14.9313421
REMARK minimizedRMSD -1
REMARK  0 active torsions:
REMARK  status: ('A' for Active; 'I' for Inactive)
ROOT
ATOM      1  C2' OXE d   1       0.084  -1.179   2.589  0.00  0.00     0.078 C 
ATOM      2  C1' OXE d   1      -1.492   0.831   3.753  0.00  0.00     0.078 C 
ATOM      3  C1  OXE d   1      -2.043   0.116   2.545  0.00  0.00    -0.078 A 
ATOM      4  C2  OXE d   1      -1.246  -0.834   1.954  0.00  0.00    -0.078 A 
ATOM      5  C3  OXE d   1      -1.728  -1.561   0.869  0.00  0.00     0.003 A 
ATOM      6  C4  OXE d   1      -2.955  -1.228   0.282  0.00  0.00    -0.002 A 
ATOM      7  C5  OXE d   1      -3.766  -0.237   0.845  0.00  0.00    -0.002 A 
ATOM      8  C6  OXE d   1      -3.345   0.414   1.999  0.00  0.00     0.003 A 
ENDROOT
TORSDOF 0
ENDMDL
