MODEL 1
REMARK minimizedAffinity 15.0080462
REMARK minimizedRMSD -1
REMARK  0 active torsions:
REMARK  status: ('A' for Active; 'I' for Inactive)
ROOT
ATOM      1  C2' OXE d   1       3.888   5.507  -1.992  0.00  0.00     0.078 C 
ATOM      2  C1' OXE d   1       3.385   2.939  -3.009  0.00  0.00     0.078 C 
ATOM      3  C1  OXE d   1       2.202   3.768  -2.574  0.00  0.00    -0.078 A 
ATOM      4  C2  OXE d   1       2.461   5.005  -2.034  0.00  0.00    -0.078 A 
ATOM      5  C3  OXE d   1       1.403   5.832  -1.668  0.00  0.00     0.003 A 
ATOM      6  C4  OXE d   1       0.087   5.356  -1.701  0.00  0.00    -0.002 A 
ATOM      7  C5  OXE d   1      -0.196   4.084  -2.210  0.00  0.00    -0.002 A 
ATOM      8  C6  OXE d   1       0.844   3.295  -2.689  0.00  0.00     0.003 A 
ENDROOT
TORSDOF 0
ENDMDL
