MODEL 1
REMARK minimizedAffinity 15.4690399
REMARK minimizedRMSD -1
REMARK  0 active torsions:
REMARK  status: ('A' for Active; 'I' for Inactive)
ROOT
ATOM      1  C2' OXE d   1       0.328   2.862  -3.262  0.00  0.00     0.078 C 
ATOM      2  C1' OXE d   1       3.125   2.860  -3.497  0.00  0.00     0.078 C 
ATOM      3  C1  OXE d   1       2.520   2.186  -2.291  0.00  0.00    -0.078 A 
ATOM      4  C2  OXE d   1       1.153   2.233  -2.160  0.00  0.00    -0.078 A 
ATOM      5  C3  OXE d   1       0.539   1.580  -1.095  0.00  0.00     0.003 A 
ATOM      6  C4  OXE d   1       1.310   1.009  -0.075  0.00  0.00    -0.002 A 
ATOM      7  C5  OXE d   1       2.706   0.986  -0.168  0.00  0.00    -0.002 A 
ATOM      8  C6  OXE d   1       3.323   1.531  -1.288  0.00  0.00     0.003 A 
ENDROOT
TORSDOF 0
ENDMDL
