MODEL 1
REMARK minimizedAffinity 18.3975105
REMARK minimizedRMSD -1
REMARK  0 active torsions:
REMARK  status: ('A' for Active; 'I' for Inactive)
ROOT
ATOM      1  C2' OXE d   1      -4.946   0.362   0.526  0.00  0.00     0.078 C 
ATOM      2  C1' OXE d   1      -5.799   2.710  -0.753  0.00  0.00     0.078 C 
ATOM      3  C1  OXE d   1      -5.674   1.460  -1.588  0.00  0.00    -0.078 A 
ATOM      4  C2  OXE d   1      -5.211   0.327  -0.964  0.00  0.00    -0.078 A 
ATOM      5  C3  OXE d   1      -5.129  -0.867  -1.675  0.00  0.00     0.003 A 
ATOM      6  C4  OXE d   1      -5.366  -0.888  -3.054  0.00  0.00    -0.002 A 
ATOM      7  C5  OXE d   1      -5.800   0.264  -3.718  0.00  0.00    -0.002 A 
ATOM      8  C6  OXE d   1      -6.000   1.434  -2.993  0.00  0.00     0.003 A 
ENDROOT
TORSDOF 0
ENDMDL
