MODEL 1
REMARK minimizedAffinity 10.3782368
REMARK minimizedRMSD -1
REMARK  0 active torsions:
REMARK  status: ('A' for Active; 'I' for Inactive)
ROOT
ATOM      1  C2' OXE d   1      -0.954   4.870  -3.862  0.00  0.00     0.078 C 
ATOM      2  C1' OXE d   1       1.048   6.000  -2.251  0.00  0.00     0.078 C 
ATOM      3  C1  OXE d   1       1.026   4.499  -2.396  0.00  0.00    -0.078 A 
ATOM      4  C2  OXE d   1       0.015   3.951  -3.149  0.00  0.00    -0.078 A 
ATOM      5  C3  OXE d   1      -0.020   2.576  -3.360  0.00  0.00     0.003 A 
ATOM      6  C4  OXE d   1       0.873   1.733  -2.688  0.00  0.00    -0.002 A 
ATOM      7  C5  OXE d   1       1.887   2.267  -1.885  0.00  0.00    -0.002 A 
ATOM      8  C6  OXE d   1       2.003   3.647  -1.763  0.00  0.00     0.003 A 
ENDROOT
TORSDOF 0
ENDMDL
