MODEL 1
REMARK minimizedAffinity 14.6970816
REMARK minimizedRMSD -1
REMARK  0 active torsions:
REMARK  status: ('A' for Active; 'I' for Inactive)
ROOT
ATOM      1  C2' OXE d   1       1.051  -3.905   0.957  0.00  0.00     0.078 C 
ATOM      2  C1' OXE d   1      -1.657  -4.177   0.270  0.00  0.00     0.078 C 
ATOM      3  C1  OXE d   1      -1.241  -2.930   1.009  0.00  0.00    -0.078 A 
ATOM      4  C2  OXE d   1       0.078  -2.827   1.382  0.00  0.00    -0.078 A 
ATOM      5  C3  OXE d   1       0.526  -1.672   2.018  0.00  0.00     0.003 A 
ATOM      6  C4  OXE d   1      -0.383  -0.685   2.417  0.00  0.00    -0.002 A 
ATOM      7  C5  OXE d   1      -1.737  -0.789   2.082  0.00  0.00    -0.002 A 
ATOM      8  C6  OXE d   1      -2.174  -1.882   1.343  0.00  0.00     0.003 A 
ENDROOT
TORSDOF 0
ENDMDL
