MODEL 1
REMARK minimizedAffinity 12.6494589
REMARK minimizedRMSD -1
REMARK  0 active torsions:
REMARK  status: ('A' for Active; 'I' for Inactive)
ROOT
ATOM      1  C2' OXE d   1       3.747   3.000  -5.721  0.00  0.00     0.078 C 
ATOM      2  C1' OXE d   1       2.356   3.021  -3.283  0.00  0.00     0.078 C 
ATOM      3  C1  OXE d   1       3.623   3.835  -3.377  0.00  0.00    -0.078 A 
ATOM      4  C2  OXE d   1       4.322   3.781  -4.558  0.00  0.00    -0.078 A 
ATOM      5  C3  OXE d   1       5.468   4.556  -4.717  0.00  0.00     0.003 A 
ATOM      6  C4  OXE d   1       5.998   5.267  -3.634  0.00  0.00    -0.002 A 
ATOM      7  C5  OXE d   1       5.322   5.303  -2.409  0.00  0.00    -0.002 A 
ATOM      8  C6  OXE d   1       4.114   4.628  -2.277  0.00  0.00     0.003 A 
ENDROOT
TORSDOF 0
ENDMDL
