MODEL 1
REMARK minimizedAffinity 10.2704077
REMARK minimizedRMSD -1
REMARK  0 active torsions:
REMARK  status: ('A' for Active; 'I' for Inactive)
ROOT
ATOM      1  C2' OXE d   1      -3.407   1.712   4.637  0.00  0.00     0.078 C 
ATOM      2  C1' OXE d   1      -4.559   1.047   2.165  0.00  0.00     0.078 C 
ATOM      3  C1  OXE d   1      -3.268   0.367   2.544  0.00  0.00    -0.078 A 
ATOM      4  C2  OXE d   1      -2.687   0.733   3.735  0.00  0.00    -0.078 A 
ATOM      5  C3  OXE d   1      -1.523   0.097   4.159  0.00  0.00     0.003 A 
ATOM      6  C4  OXE d   1      -0.858  -0.799   3.314  0.00  0.00    -0.002 A 
ATOM      7  C5  OXE d   1      -1.412  -1.156   2.080  0.00  0.00    -0.002 A 
ATOM      8  C6  OXE d   1      -2.635  -0.615   1.700  0.00  0.00     0.003 A 
ENDROOT
TORSDOF 0
ENDMDL
