MODEL 1
REMARK minimizedAffinity 11.5677938
REMARK minimizedRMSD -1
REMARK  0 active torsions:
REMARK  status: ('A' for Active; 'I' for Inactive)
ROOT
ATOM      1  C2' OXE d   1       1.382   5.960  -1.905  0.00  0.00     0.078 C 
ATOM      2  C1' OXE d   1       4.000   4.948  -1.907  0.00  0.00     0.078 C 
ATOM      3  C1  OXE d   1       2.876   3.990  -2.210  0.00  0.00    -0.078 A 
ATOM      4  C2  OXE d   1       1.594   4.484  -2.161  0.00  0.00    -0.078 A 
ATOM      5  C3  OXE d   1       0.523   3.656  -2.486  0.00  0.00     0.003 A 
ATOM      6  C4  OXE d   1       0.728   2.289  -2.713  0.00  0.00    -0.002 A 
ATOM      7  C5  OXE d   1       2.021   1.757  -2.728  0.00  0.00    -0.002 A 
ATOM      8  C6  OXE d   1       3.107   2.601  -2.521  0.00  0.00     0.003 A 
ENDROOT
TORSDOF 0
ENDMDL
