MODEL 1
REMARK minimizedAffinity 9.22528744
REMARK minimizedRMSD -1
REMARK  0 active torsions:
REMARK  status: ('A' for Active; 'I' for Inactive)
ROOT
ATOM      1  C2' OXE d   1       3.340   2.278  -3.127  0.00  0.00     0.078 C 
ATOM      2  C1' OXE d   1       4.187   4.839  -2.352  0.00  0.00     0.078 C 
ATOM      3  C1  OXE d   1       2.703   4.593  -2.462  0.00  0.00    -0.078 A 
ATOM      4  C2  OXE d   1       2.299   3.350  -2.887  0.00  0.00    -0.078 A 
ATOM      5  C3  OXE d   1       0.941   3.052  -2.953  0.00  0.00     0.003 A 
ATOM      6  C4  OXE d   1      -0.016   4.052  -2.739  0.00  0.00    -0.002 A 
ATOM      7  C5  OXE d   1       0.376   5.336  -2.343  0.00  0.00    -0.002 A 
ATOM      8  C6  OXE d   1       1.727   5.610  -2.159  0.00  0.00     0.003 A 
ENDROOT
TORSDOF 0
ENDMDL
