MODEL 1
REMARK minimizedAffinity 4.62885427
REMARK minimizedRMSD -1
REMARK  0 active torsions:
REMARK  status: ('A' for Active; 'I' for Inactive)
ROOT
ATOM      1  C2' OXE d   1       2.431   1.025   1.066  0.00  0.00     0.078 C 
ATOM      2  C1' OXE d   1       3.527   1.130  -1.516  0.00  0.00     0.078 C 
ATOM      3  C1  OXE d   1       4.229   1.895  -0.423  0.00  0.00    -0.078 A 
ATOM      4  C2  OXE d   1       3.659   1.877   0.828  0.00  0.00    -0.078 A 
ATOM      5  C3  OXE d   1       4.296   2.521   1.885  0.00  0.00     0.003 A 
ATOM      6  C4  OXE d   1       5.426   3.314   1.654  0.00  0.00    -0.002 A 
ATOM      7  C5  OXE d   1       6.000   3.379   0.380  0.00  0.00    -0.002 A 
ATOM      8  C6  OXE d   1       5.439   2.643  -0.658  0.00  0.00     0.003 A 
ENDROOT
TORSDOF 0
ENDMDL
