MODEL 1
REMARK minimizedAffinity 10.595767
REMARK minimizedRMSD -1
REMARK  0 active torsions:
REMARK  status: ('A' for Active; 'I' for Inactive)
ROOT
ATOM      1  C2' OXE d   1      -5.206   0.831   1.299  0.00  0.00     0.078 C 
ATOM      2  C1' OXE d   1      -5.395   2.752  -0.739  0.00  0.00     0.078 C 
ATOM      3  C1  OXE d   1      -5.590   1.304  -1.116  0.00  0.00    -0.078 A 
ATOM      4  C2  OXE d   1      -5.450   0.367  -0.121  0.00  0.00    -0.078 A 
ATOM      5  C3  OXE d   1      -5.673  -0.977  -0.403  0.00  0.00     0.003 A 
ATOM      6  C4  OXE d   1      -5.888  -1.398  -1.721  0.00  0.00    -0.002 A 
ATOM      7  C5  OXE d   1      -5.996  -0.464  -2.757  0.00  0.00    -0.002 A 
ATOM      8  C6  OXE d   1      -5.892   0.892  -2.464  0.00  0.00     0.003 A 
ENDROOT
TORSDOF 0
ENDMDL
