MODEL 1
REMARK minimizedAffinity -3.63758469
REMARK minimizedRMSD -1
REMARK  1 active torsions:
REMARK  status: ('A' for Active; 'I' for Inactive)
REMARK    1  A    between atoms: C3_4  and  O_7 
ROOT
ATOM      1  C   UNL d   1      -5.080  -3.044  -1.526  0.00  0.00    -0.033 A 
ATOM      2  C1  UNL d   1      -4.491  -2.433  -2.635  0.00  0.00     0.039 A 
ATOM      3  C2  UNL d   1      -4.123  -3.199  -3.743  0.00  0.00    -0.080 A 
ATOM      4  C3  UNL d   1      -4.351  -4.573  -3.730  0.00  0.00     0.150 A 
ATOM      5  C4  UNL d   1      -4.942  -5.187  -2.630  0.00  0.00    -0.007 A 
ATOM      6  C5  UNL d   1      -5.307  -4.420  -1.524  0.00  0.00     0.039 A 
ENDROOT
BRANCH   4   7
ATOM      7  O   UNL d   1      -4.005  -5.363  -4.785  0.00  0.00    -0.526 OA
ATOM      8  H5  UNL d   1      -3.582  -4.806  -5.460  0.00  0.00     0.418 HD
ENDBRANCH   4   7
TORSDOF 1
ENDMDL
