MODEL 1
REMARK minimizedAffinity -2.91547942
REMARK minimizedRMSD -1
REMARK  1 active torsions:
REMARK  status: ('A' for Active; 'I' for Inactive)
REMARK    1  A    between atoms: C3_4  and  O_7 
ROOT
ATOM      1  C   UNL d   1      -4.823  -5.052  -5.898  0.00  0.00    -0.033 A 
ATOM      2  C1  UNL d   1      -5.709  -4.113  -5.367  0.00  0.00     0.039 A 
ATOM      3  C2  UNL d   1      -5.998  -4.117  -4.001  0.00  0.00    -0.080 A 
ATOM      4  C3  UNL d   1      -5.395  -5.063  -3.178  0.00  0.00     0.150 A 
ATOM      5  C4  UNL d   1      -4.508  -6.000  -3.699  0.00  0.00    -0.007 A 
ATOM      6  C5  UNL d   1      -4.221  -5.995  -5.064  0.00  0.00     0.039 A 
ENDROOT
BRANCH   4   7
ATOM      7  O   UNL d   1      -5.649  -5.110  -1.839  0.00  0.00    -0.526 OA
ATOM      8  H5  UNL d   1      -6.302  -4.422  -1.626  0.00  0.00     0.418 HD
ENDBRANCH   4   7
TORSDOF 1
ENDMDL
