MODEL 1
REMARK minimizedAffinity -1.95127547
REMARK minimizedRMSD -1
REMARK  1 active torsions:
REMARK  status: ('A' for Active; 'I' for Inactive)
REMARK    1  A    between atoms: C3_4  and  O_7 
ROOT
ATOM      1  C   UNL d   1      -4.225  -4.733  -5.998  0.00  0.00    -0.033 A 
ATOM      2  C1  UNL d   1      -5.249  -3.833  -5.700  0.00  0.00     0.039 A 
ATOM      3  C2  UNL d   1      -5.857  -3.856  -4.443  0.00  0.00    -0.080 A 
ATOM      4  C3  UNL d   1      -5.432  -4.783  -3.495  0.00  0.00     0.150 A 
ATOM      5  C4  UNL d   1      -4.409  -5.680  -3.785  0.00  0.00    -0.007 A 
ATOM      6  C5  UNL d   1      -3.804  -5.656  -5.040  0.00  0.00     0.039 A 
ENDROOT
BRANCH   4   7
ATOM      7  O   UNL d   1      -5.998  -4.847  -2.257  0.00  0.00    -0.526 OA
ATOM      8  H5  UNL d   1      -6.710  -4.187  -2.210  0.00  0.00     0.418 HD
ENDBRANCH   4   7
TORSDOF 1
ENDMDL
