MODEL 1
REMARK minimizedAffinity -2.64444613
REMARK minimizedRMSD -1
REMARK  1 active torsions:
REMARK  status: ('A' for Active; 'I' for Inactive)
REMARK    1  A    between atoms: C3_4  and  O_7 
ROOT
ATOM      1  C   UNL d   1      -5.112  -5.293  -6.000  0.00  0.00    -0.033 A 
ATOM      2  C1  UNL d   1      -4.411  -4.118  -5.722  0.00  0.00     0.039 A 
ATOM      3  C2  UNL d   1      -4.505  -3.528  -4.460  0.00  0.00    -0.080 A 
ATOM      4  C3  UNL d   1      -5.302  -4.123  -3.486  0.00  0.00     0.150 A 
ATOM      5  C4  UNL d   1      -6.000  -5.296  -3.754  0.00  0.00    -0.007 A 
ATOM      6  C5  UNL d   1      -5.905  -5.883  -5.015  0.00  0.00     0.039 A 
ENDROOT
BRANCH   4   7
ATOM      7  O   UNL d   1      -5.429  -3.582  -2.241  0.00  0.00    -0.526 OA
ATOM      8  H5  UNL d   1      -4.914  -2.759  -2.209  0.00  0.00     0.418 HD
ENDBRANCH   4   7
TORSDOF 1
ENDMDL
