MODEL 1
REMARK minimizedAffinity -1.09011805
REMARK minimizedRMSD -1
REMARK  1 active torsions:
REMARK  status: ('A' for Active; 'I' for Inactive)
REMARK    1  A    between atoms: C3_4  and  O_7 
ROOT
ATOM      1  C   UNL d   1      -4.939  -5.726  -6.000  0.00  0.00    -0.033 A 
ATOM      2  C1  UNL d   1      -5.968  -4.859  -5.629  0.00  0.00     0.039 A 
ATOM      3  C2  UNL d   1      -5.964  -4.267  -4.365  0.00  0.00    -0.080 A 
ATOM      4  C3  UNL d   1      -4.925  -4.549  -3.482  0.00  0.00     0.150 A 
ATOM      5  C4  UNL d   1      -3.894  -5.409  -3.846  0.00  0.00    -0.007 A 
ATOM      6  C5  UNL d   1      -3.900  -6.000  -5.109  0.00  0.00     0.039 A 
ENDROOT
BRANCH   4   7
ATOM      7  O   UNL d   1      -4.880  -3.999  -2.236  0.00  0.00    -0.526 OA
ATOM      8  H5  UNL d   1      -5.671  -3.449  -2.113  0.00  0.00     0.418 HD
ENDBRANCH   4   7
TORSDOF 1
ENDMDL
