MODEL 1
REMARK minimizedAffinity -0.0953604802
REMARK minimizedRMSD -1
REMARK  1 active torsions:
REMARK  status: ('A' for Active; 'I' for Inactive)
REMARK    1  A    between atoms: C3_4  and  O_7 
ROOT
ATOM      1  C   UNL d   1      -5.965  -4.092  -5.916  0.00  0.00    -0.033 A 
ATOM      2  C1  UNL d   1      -5.635  -5.446  -6.000  0.00  0.00     0.039 A 
ATOM      3  C2  UNL d   1      -4.718  -5.999  -5.104  0.00  0.00    -0.080 A 
ATOM      4  C3  UNL d   1      -4.141  -5.189  -4.129  0.00  0.00     0.150 A 
ATOM      5  C4  UNL d   1      -4.469  -3.840  -4.038  0.00  0.00    -0.007 A 
ATOM      6  C5  UNL d   1      -5.384  -3.289  -4.934  0.00  0.00     0.039 A 
ENDROOT
BRANCH   4   7
ATOM      7  O   UNL d   1      -3.238  -5.683  -3.236  0.00  0.00    -0.526 OA
ATOM      8  H5  UNL d   1      -3.087  -6.621  -3.437  0.00  0.00     0.418 HD
ENDBRANCH   4   7
TORSDOF 1
ENDMDL
