MODEL 1
REMARK minimizedAffinity 0.638785601
REMARK minimizedRMSD -1
REMARK  1 active torsions:
REMARK  status: ('A' for Active; 'I' for Inactive)
REMARK    1  A    between atoms: C3_4  and  O_7 
ROOT
ATOM      1  C   UNL d   1       4.265   4.860  -5.978  0.00  0.00    -0.033 A 
ATOM      2  C1  UNL d   1       5.417   5.647  -5.951  0.00  0.00     0.039 A 
ATOM      3  C2  UNL d   1       5.999   5.995  -4.730  0.00  0.00    -0.080 A 
ATOM      4  C3  UNL d   1       5.421   5.547  -3.545  0.00  0.00     0.150 A 
ATOM      5  C4  UNL d   1       4.275   4.759  -3.565  0.00  0.00    -0.007 A 
ATOM      6  C5  UNL d   1       3.694   4.414  -4.785  0.00  0.00     0.039 A 
ENDROOT
BRANCH   4   7
ATOM      7  O   UNL d   1       5.950   5.865  -2.330  0.00  0.00    -0.526 OA
ATOM      8  H5  UNL d   1       6.723   6.438  -2.470  0.00  0.00     0.418 HD
ENDBRANCH   4   7
TORSDOF 1
ENDMDL
