MODEL 1
REMARK minimizedAffinity 1.01311851
REMARK minimizedRMSD -1
REMARK  1 active torsions:
REMARK  status: ('A' for Active; 'I' for Inactive)
REMARK    1  A    between atoms: C3_4  and  O_7 
ROOT
ATOM      1  C   UNL d   1      -5.605  -5.052  -6.000  0.00  0.00    -0.033 A 
ATOM      2  C1  UNL d   1      -5.979  -3.765  -5.609  0.00  0.00     0.039 A 
ATOM      3  C2  UNL d   1      -6.000  -3.423  -4.255  0.00  0.00    -0.080 A 
ATOM      4  C3  UNL d   1      -5.645  -4.376  -3.304  0.00  0.00     0.150 A 
ATOM      5  C4  UNL d   1      -5.268  -5.659  -3.687  0.00  0.00    -0.007 A 
ATOM      6  C5  UNL d   1      -5.249  -5.998  -5.039  0.00  0.00     0.039 A 
ENDROOT
BRANCH   4   7
ATOM      7  O   UNL d   1      -5.654  -4.090  -1.971  0.00  0.00    -0.526 OA
ATOM      8  H5  UNL d   1      -5.963  -3.176  -1.854  0.00  0.00     0.418 HD
ENDBRANCH   4   7
TORSDOF 1
ENDMDL
