MODEL 1
REMARK minimizedAffinity 7.25769472
REMARK minimizedRMSD -1
REMARK  1 active torsions:
REMARK  status: ('A' for Active; 'I' for Inactive)
REMARK    1  A    between atoms: C3_4  and  O_7 
ROOT
ATOM      1  C   UNL d   1       5.800   1.007  -6.000  0.00  0.00    -0.033 A 
ATOM      2  C1  UNL d   1       4.830   1.900  -5.542  0.00  0.00     0.039 A 
ATOM      3  C2  UNL d   1       4.050   1.576  -4.429  0.00  0.00    -0.080 A 
ATOM      4  C3  UNL d   1       4.251   0.359  -3.785  0.00  0.00     0.150 A 
ATOM      5  C4  UNL d   1       5.219  -0.534  -4.234  0.00  0.00    -0.007 A 
ATOM      6  C5  UNL d   1       5.996  -0.210  -5.345  0.00  0.00     0.039 A 
ENDROOT
BRANCH   4   7
ATOM      7  O   UNL d   1       3.512  -0.003  -2.699  0.00  0.00    -0.526 OA
ATOM      8  H5  UNL d   1       2.863   0.699  -2.520  0.00  0.00     0.418 HD
ENDBRANCH   4   7
TORSDOF 1
ENDMDL
