MODEL 1
REMARK minimizedAffinity 3.50869942
REMARK minimizedRMSD -1
REMARK  0 active torsions:
REMARK  status: ('A' for Active; 'I' for Inactive)
ROOT
ATOM      1  C1  BNZ d   1      -3.996   5.252   3.783  0.00  0.00     0.000 A 
ATOM      2  C2  BNZ d   1      -5.160   4.532   3.784  0.00  0.00     0.000 A 
ATOM      3  C3  BNZ d   1      -6.000   4.559   4.863  0.00  0.00     0.000 A 
ATOM      4  C4  BNZ d   1      -5.655   5.274   5.953  0.00  0.00     0.000 A 
ATOM      5  C5  BNZ d   1      -4.480   5.999   5.971  0.00  0.00     0.000 A 
ATOM      6  C6  BNZ d   1      -3.656   6.000   4.869  0.00  0.00     0.000 A 
ENDROOT
TORSDOF 0
ENDMDL
