MODEL 1
REMARK minimizedAffinity 0.959685504
REMARK minimizedRMSD -1
REMARK  0 active torsions:
REMARK  status: ('A' for Active; 'I' for Inactive)
ROOT
ATOM      1  C1  BNZ d   1       3.803   1.499  -0.284  0.00  0.00     0.000 A 
ATOM      2  C2  BNZ d   1       3.905   0.435   0.572  0.00  0.00     0.000 A 
ATOM      3  C3  BNZ d   1       3.063  -0.636   0.460  0.00  0.00     0.000 A 
ATOM      4  C4  BNZ d   1       2.096  -0.625  -0.480  0.00  0.00     0.000 A 
ATOM      5  C5  BNZ d   1       1.975   0.445  -1.344  0.00  0.00     0.000 A 
ATOM      6  C6  BNZ d   1       2.848   1.504  -1.254  0.00  0.00     0.000 A 
ENDROOT
TORSDOF 0
ENDMDL
