MODEL 1
REMARK minimizedAffinity 2.49747109
REMARK minimizedRMSD -1
REMARK  0 active torsions:
REMARK  status: ('A' for Active; 'I' for Inactive)
ROOT
ATOM      1  C1  BNZ d   1      -4.639   0.884  -0.923  0.00  0.00     0.000 A 
ATOM      2  C2  BNZ d   1      -4.227   0.792  -2.226  0.00  0.00     0.000 A 
ATOM      3  C3  BNZ d   1      -2.968   0.359  -2.533  0.00  0.00     0.000 A 
ATOM      4  C4  BNZ d   1      -2.109   0.057  -1.538  0.00  0.00     0.000 A 
ATOM      5  C5  BNZ d   1      -2.506   0.153  -0.219  0.00  0.00     0.000 A 
ATOM      6  C6  BNZ d   1      -3.787   0.552   0.085  0.00  0.00     0.000 A 
ENDROOT
TORSDOF 0
ENDMDL
