MODEL 1
REMARK minimizedAffinity -0.193208188
REMARK minimizedRMSD -1
REMARK  0 active torsions:
REMARK  status: ('A' for Active; 'I' for Inactive)
ROOT
ATOM      1  C1  BNZ d   1      -5.053   4.353   3.626  0.00  0.00     0.000 A 
ATOM      2  C2  BNZ d   1      -5.995   4.097   4.586  0.00  0.00     0.000 A 
ATOM      3  C3  BNZ d   1      -5.998   4.789   5.765  0.00  0.00     0.000 A 
ATOM      4  C4  BNZ d   1      -5.037   5.706   5.998  0.00  0.00     0.000 A 
ATOM      5  C5  BNZ d   1      -4.075   5.968   5.044  0.00  0.00     0.000 A 
ATOM      6  C6  BNZ d   1      -4.097   5.297   3.843  0.00  0.00     0.000 A 
ENDROOT
TORSDOF 0
ENDMDL
