MODEL 1
REMARK minimizedAffinity 6.85386515
REMARK minimizedRMSD -1
REMARK  0 active torsions:
REMARK  status: ('A' for Active; 'I' for Inactive)
ROOT
ATOM      1  C1  BNZ d   1       3.748  -0.366   1.173  0.00  0.00     0.000 A 
ATOM      2  C2  BNZ d   1       3.812   0.777   0.422  0.00  0.00     0.000 A 
ATOM      3  C3  BNZ d   1       3.069   0.907  -0.718  0.00  0.00     0.000 A 
ATOM      4  C4  BNZ d   1       2.295  -0.119  -1.126  0.00  0.00     0.000 A 
ATOM      5  C5  BNZ d   1       2.227  -1.281  -0.385  0.00  0.00     0.000 A 
ATOM      6  C6  BNZ d   1       2.947  -1.394   0.783  0.00  0.00     0.000 A 
ENDROOT
TORSDOF 0
ENDMDL
