MODEL 1
REMARK minimizedAffinity 5.07179689
REMARK minimizedRMSD -1
REMARK  0 active torsions:
REMARK  status: ('A' for Active; 'I' for Inactive)
ROOT
ATOM      1  C1  BNZ d   1       1.744  -0.759  -0.703  0.00  0.00     0.000 A 
ATOM      2  C2  BNZ d   1       1.783   0.544  -1.123  0.00  0.00     0.000 A 
ATOM      3  C3  BNZ d   1       2.838   1.352  -0.802  0.00  0.00     0.000 A 
ATOM      4  C4  BNZ d   1       3.831   0.869  -0.028  0.00  0.00     0.000 A 
ATOM      5  C5  BNZ d   1       3.802  -0.439   0.412  0.00  0.00     0.000 A 
ATOM      6  C6  BNZ d   1       2.758  -1.261   0.054  0.00  0.00     0.000 A 
ENDROOT
TORSDOF 0
ENDMDL
