MODEL 1
REMARK minimizedAffinity 6.61655426
REMARK minimizedRMSD -1
REMARK  0 active torsions:
REMARK  status: ('A' for Active; 'I' for Inactive)
ROOT
ATOM      1  C1  BNZ d   1      -4.913   3.031  -0.594  0.00  0.00     0.000 A 
ATOM      2  C2  BNZ d   1      -5.128   2.273   0.526  0.00  0.00     0.000 A 
ATOM      3  C3  BNZ d   1      -5.544   0.975   0.424  0.00  0.00     0.000 A 
ATOM      4  C4  BNZ d   1      -5.783   0.449  -0.795  0.00  0.00     0.000 A 
ATOM      5  C5  BNZ d   1      -5.580   1.203  -1.933  0.00  0.00     0.000 A 
ATOM      6  C6  BNZ d   1      -5.123   2.497  -1.828  0.00  0.00     0.000 A 
ENDROOT
TORSDOF 0
ENDMDL
