MODEL 1
REMARK minimizedAffinity 3.98140955
REMARK minimizedRMSD -1
REMARK  0 active torsions:
REMARK  status: ('A' for Active; 'I' for Inactive)
ROOT
ATOM      1  C1  BNZ d   1       2.076  -0.922  -0.121  0.00  0.00     0.000 A 
ATOM      2  C2  BNZ d   1       2.946  -0.506   0.851  0.00  0.00     0.000 A 
ATOM      3  C3  BNZ d   1       3.567   0.709   0.762  0.00  0.00     0.000 A 
ATOM      4  C4  BNZ d   1       3.348   1.487  -0.318  0.00  0.00     0.000 A 
ATOM      5  C5  BNZ d   1       2.481   1.077  -1.311  0.00  0.00     0.000 A 
ATOM      6  C6  BNZ d   1       1.828  -0.128  -1.198  0.00  0.00     0.000 A 
ENDROOT
TORSDOF 0
ENDMDL
