MODEL 1
REMARK minimizedAffinity 14.9368982
REMARK minimizedRMSD -1
REMARK  0 active torsions:
REMARK  status: ('A' for Active; 'I' for Inactive)
ROOT
ATOM      1  C1  BNZ d   1      -6.000   4.177   4.636  0.00  0.00     0.000 A 
ATOM      2  C2  BNZ d   1      -5.004   4.355   3.714  0.00  0.00     0.000 A 
ATOM      3  C3  BNZ d   1      -3.994   5.249   3.938  0.00  0.00     0.000 A 
ATOM      4  C4  BNZ d   1      -4.003   5.991   5.064  0.00  0.00     0.000 A 
ATOM      5  C5  BNZ d   1      -5.006   5.829   5.999  0.00  0.00     0.000 A 
ATOM      6  C6  BNZ d   1      -5.999   4.901   5.788  0.00  0.00     0.000 A 
ENDROOT
TORSDOF 0
ENDMDL
