MODEL 1
REMARK minimizedAffinity 2.38156819
REMARK minimizedRMSD -1
REMARK  0 active torsions:
REMARK  status: ('A' for Active; 'I' for Inactive)
ROOT
ATOM      1  C1  BNZ d   1      -3.853   5.999   4.947  0.00  0.00     0.000 A 
ATOM      2  C2  BNZ d   1      -3.874   5.305   3.767  0.00  0.00     0.000 A 
ATOM      3  C3  BNZ d   1      -4.956   4.546   3.420  0.00  0.00     0.000 A 
ATOM      4  C4  BNZ d   1      -5.999   4.450   4.269  0.00  0.00     0.000 A 
ATOM      5  C5  BNZ d   1      -5.990   5.136   5.467  0.00  0.00     0.000 A 
ATOM      6  C6  BNZ d   1      -4.915   5.930   5.796  0.00  0.00     0.000 A 
ENDROOT
TORSDOF 0
ENDMDL
