MODEL 1
REMARK minimizedAffinity -1.33756065
REMARK minimizedRMSD -1
REMARK  0 active torsions:
REMARK  status: ('A' for Active; 'I' for Inactive)
ROOT
ATOM      1  C1  BNZ d   1      -3.844   5.996   4.926  0.00  0.00     0.000 A 
ATOM      2  C2  BNZ d   1      -3.869   5.214   3.802  0.00  0.00     0.000 A 
ATOM      3  C3  BNZ d   1      -4.957   4.438   3.513  0.00  0.00     0.000 A 
ATOM      4  C4  BNZ d   1      -6.000   4.414   4.368  0.00  0.00     0.000 A 
ATOM      5  C5  BNZ d   1      -5.985   5.190   5.510  0.00  0.00     0.000 A 
ATOM      6  C6  BNZ d   1      -4.905   5.999   5.777  0.00  0.00     0.000 A 
ENDROOT
TORSDOF 0
ENDMDL
