MODEL 1
REMARK minimizedAffinity -3.73767376
REMARK minimizedRMSD -1
REMARK  1 active torsions:
REMARK  status: ('A' for Active; 'I' for Inactive)
REMARK    1  A    between atoms: C1_2  and  C2_3 
ROOT
ATOM      1  C2  UNL d   1       1.265  -0.850   1.003  0.00  0.00    -0.076 A 
ATOM      2  C3  UNL d   1       0.553  -1.718   0.158  0.00  0.00     0.004 A 
ATOM      3  C4  UNL d   1      -0.395  -1.229  -0.739  0.00  0.00    -0.003 A 
ATOM      4  C5  UNL d   1      -0.644   0.137  -0.807  0.00  0.00     0.000 A 
ATOM      5  C6  UNL d   1       0.066   1.015   0.012  0.00  0.00     0.000 A 
ATOM      6  C7  UNL d   1       1.036   0.539   0.910  0.00  0.00    -0.073 A 
ATOM      7  C8  UNL d   1       1.768   1.530   1.774  0.00  0.00     0.078 C 
ENDROOT
BRANCH   1   8
ATOM      8  C1  UNL d   1       2.261  -1.441   1.976  0.00  0.00     0.053 C 
ATOM      9  C   UNL d   1       3.576  -1.814   1.309  0.00  0.00     0.018 C 
ENDBRANCH   1   8
TORSDOF 1
ENDMDL
