MODEL 1
REMARK minimizedAffinity -3.15292501
REMARK minimizedRMSD -1
REMARK  1 active torsions:
REMARK  status: ('A' for Active; 'I' for Inactive)
REMARK    1  A    between atoms: C1_2  and  C2_3 
ROOT
ATOM      1  C2  UNL d   1       1.229  -1.115  -0.391  0.00  0.00    -0.076 A 
ATOM      2  C3  UNL d   1       1.434   0.220  -0.000  0.00  0.00     0.004 A 
ATOM      3  C4  UNL d   1       0.375   1.125   0.042  0.00  0.00    -0.003 A 
ATOM      4  C5  UNL d   1      -0.906   0.711  -0.304  0.00  0.00     0.000 A 
ATOM      5  C6  UNL d   1      -1.131  -0.614  -0.677  0.00  0.00     0.000 A 
ATOM      6  C7  UNL d   1      -0.077  -1.544  -0.710  0.00  0.00    -0.073 A 
ATOM      7  C8  UNL d   1      -0.375  -2.959  -1.125  0.00  0.00     0.078 C 
ENDROOT
BRANCH   1   8
ATOM      8  C1  UNL d   1       2.420  -2.045  -0.444  0.00  0.00     0.053 C 
ATOM      9  C   UNL d   1       3.346  -1.875   0.750  0.00  0.00     0.018 C 
ENDBRANCH   1   8
TORSDOF 1
ENDMDL
