MODEL 1
REMARK minimizedAffinity -3.19304633
REMARK minimizedRMSD -1
REMARK  1 active torsions:
REMARK  status: ('A' for Active; 'I' for Inactive)
REMARK    1  A    between atoms: C1_2  and  C2_3 
ROOT
ATOM      1  C2  UNL d   1       0.106   0.378   0.044  0.00  0.00    -0.076 A 
ATOM      2  C3  UNL d   1       0.980   0.846   1.040  0.00  0.00     0.004 A 
ATOM      3  C4  UNL d   1       2.007   0.041   1.531  0.00  0.00    -0.003 A 
ATOM      4  C5  UNL d   1       2.176  -1.246   1.032  0.00  0.00     0.000 A 
ATOM      5  C6  UNL d   1       1.329  -1.721   0.032  0.00  0.00     0.000 A 
ATOM      6  C7  UNL d   1       0.299  -0.916  -0.485  0.00  0.00    -0.073 A 
ATOM      7  C8  UNL d   1      -0.589  -1.482  -1.560  0.00  0.00     0.078 C 
ENDROOT
BRANCH   1   8
ATOM      8  C1  UNL d   1      -1.006   1.286  -0.429  0.00  0.00     0.053 C 
ATOM      9  C   UNL d   1      -2.257   1.172   0.428  0.00  0.00     0.018 C 
ENDBRANCH   1   8
TORSDOF 1
ENDMDL
