MODEL 1
REMARK minimizedAffinity -5.83829117
REMARK minimizedRMSD -1
REMARK  1 active torsions:
REMARK  status: ('A' for Active; 'I' for Inactive)
REMARK    1  A    between atoms: C1_2  and  C2_3 
ROOT
ATOM      1  C2  UNL d   1       0.600   0.207  -0.064  0.00  0.00    -0.076 A 
ATOM      2  C3  UNL d   1       1.631   1.107   0.257  0.00  0.00     0.004 A 
ATOM      3  C4  UNL d   1       2.893   0.649   0.630  0.00  0.00    -0.003 A 
ATOM      4  C5  UNL d   1       3.146  -0.717   0.687  0.00  0.00     0.000 A 
ATOM      5  C6  UNL d   1       2.140  -1.624   0.355  0.00  0.00     0.000 A 
ATOM      6  C7  UNL d   1       0.867  -1.179  -0.039  0.00  0.00    -0.073 A 
ATOM      7  C8  UNL d   1      -0.182  -2.201  -0.380  0.00  0.00     0.078 C 
ENDROOT
BRANCH   1   8
ATOM      8  C1  UNL d   1      -0.757   0.762  -0.435  0.00  0.00     0.053 C 
ATOM      9  C   UNL d   1      -1.726   0.763   0.737  0.00  0.00     0.018 C 
ENDBRANCH   1   8
TORSDOF 1
ENDMDL
