MODEL 1
REMARK minimizedAffinity -4.10307407
REMARK minimizedRMSD -1
REMARK  1 active torsions:
REMARK  status: ('A' for Active; 'I' for Inactive)
REMARK    1  A    between atoms: C1_2  and  C2_3 
ROOT
ATOM      1  C2  UNL d   1      -0.063   0.073  -0.109  0.00  0.00    -0.076 A 
ATOM      2  C3  UNL d   1      -0.452  -1.237  -0.437  0.00  0.00     0.004 A 
ATOM      3  C4  UNL d   1       0.460  -2.290  -0.388  0.00  0.00    -0.003 A 
ATOM      4  C5  UNL d   1       1.776  -2.049  -0.008  0.00  0.00     0.000 A 
ATOM      5  C6  UNL d   1       2.175  -0.758   0.339  0.00  0.00     0.000 A 
ATOM      6  C7  UNL d   1       1.263   0.311   0.309  0.00  0.00    -0.073 A 
ATOM      7  C8  UNL d   1       1.749   1.684   0.687  0.00  0.00     0.078 C 
ENDROOT
BRANCH   1   8
ATOM      8  C1  UNL d   1      -1.090   1.179  -0.208  0.00  0.00     0.053 C 
ATOM      9  C   UNL d   1      -2.468   0.739   0.261  0.00  0.00     0.018 C 
ENDBRANCH   1   8
TORSDOF 1
ENDMDL
