MODEL 1
REMARK minimizedAffinity -2.34428239
REMARK minimizedRMSD -1
REMARK  1 active torsions:
REMARK  status: ('A' for Active; 'I' for Inactive)
REMARK    1  A    between atoms: C1_2  and  C2_3 
ROOT
ATOM      1  C2  UNL d   1       0.006   0.136  -0.213  0.00  0.00    -0.076 A 
ATOM      2  C3  UNL d   1      -0.248  -1.173  -0.659  0.00  0.00     0.004 A 
ATOM      3  C4  UNL d   1       0.715  -2.173  -0.533  0.00  0.00    -0.003 A 
ATOM      4  C5  UNL d   1       1.947  -1.881   0.042  0.00  0.00     0.000 A 
ATOM      5  C6  UNL d   1       2.209  -0.593   0.506  0.00  0.00     0.000 A 
ATOM      6  C7  UNL d   1       1.244   0.423   0.401  0.00  0.00    -0.073 A 
ATOM      7  C8  UNL d   1       1.583   1.797   0.913  0.00  0.00     0.078 C 
ENDROOT
BRANCH   1   8
ATOM      8  C1  UNL d   1      -1.066   1.186  -0.400  0.00  0.00     0.053 C 
ATOM      9  C   UNL d   1      -2.399   0.772   0.204  0.00  0.00     0.018 C 
ENDBRANCH   1   8
TORSDOF 1
ENDMDL
