MODEL 1
REMARK minimizedAffinity -5.26265526
REMARK minimizedRMSD -1
REMARK  1 active torsions:
REMARK  status: ('A' for Active; 'I' for Inactive)
REMARK    1  A    between atoms: C1_2  and  C2_3 
ROOT
ATOM      1  C2  UNL d   1       0.530  -0.839  -0.793  0.00  0.00    -0.076 A 
ATOM      2  C3  UNL d   1       0.706   0.424  -1.384  0.00  0.00     0.004 A 
ATOM      3  C4  UNL d   1       1.440   0.569  -2.560  0.00  0.00    -0.003 A 
ATOM      4  C5  UNL d   1       2.010  -0.546  -3.164  0.00  0.00     0.000 A 
ATOM      5  C6  UNL d   1       1.831  -1.809  -2.601  0.00  0.00     0.000 A 
ATOM      6  C7  UNL d   1       1.080  -1.975  -1.425  0.00  0.00    -0.073 A 
ATOM      7  C8  UNL d   1       0.924  -3.360  -0.858  0.00  0.00     0.078 C 
ENDROOT
BRANCH   1   8
ATOM      8  C1  UNL d   1      -0.253  -0.932   0.497  0.00  0.00     0.053 C 
ATOM      9  C   UNL d   1      -0.505   0.430   1.125  0.00  0.00     0.018 C 
ENDBRANCH   1   8
TORSDOF 1
ENDMDL
