MODEL 1
REMARK minimizedAffinity -1.66836035
REMARK minimizedRMSD -1
REMARK  1 active torsions:
REMARK  status: ('A' for Active; 'I' for Inactive)
REMARK    1  A    between atoms: C1_2  and  C2_3 
ROOT
ATOM      1  C2  UNL d   1       0.143  -0.582  -1.147  0.00  0.00    -0.076 A 
ATOM      2  C3  UNL d   1      -0.116   0.582  -0.403  0.00  0.00     0.004 A 
ATOM      3  C4  UNL d   1      -0.445   0.510   0.949  0.00  0.00    -0.003 A 
ATOM      4  C5  UNL d   1      -0.520  -0.727   1.580  0.00  0.00     0.000 A 
ATOM      5  C6  UNL d   1      -0.249  -1.891   0.861  0.00  0.00     0.000 A 
ATOM      6  C7  UNL d   1       0.101  -1.835  -0.499  0.00  0.00    -0.073 A 
ATOM      7  C8  UNL d   1       0.377  -3.122  -1.227  0.00  0.00     0.078 C 
ENDROOT
BRANCH   1   8
ATOM      8  C1  UNL d   1       0.468  -0.445  -2.618  0.00  0.00     0.053 C 
ATOM      9  C   UNL d   1       1.937  -0.133  -2.863  0.00  0.00     0.018 C 
ENDBRANCH   1   8
TORSDOF 1
ENDMDL
