MODEL 1
REMARK minimizedAffinity -5.02954674
REMARK minimizedRMSD -1
REMARK  1 active torsions:
REMARK  status: ('A' for Active; 'I' for Inactive)
REMARK    1  A    between atoms: C1_2  and  C2_3 
ROOT
ATOM      1  C2  UNL d   1       0.427  -0.403  -0.699  0.00  0.00    -0.076 A 
ATOM      2  C3  UNL d   1       0.004  -1.740  -0.599  0.00  0.00     0.004 A 
ATOM      3  C4  UNL d   1       0.630  -2.748  -1.330  0.00  0.00    -0.003 A 
ATOM      4  C5  UNL d   1       1.691  -2.435  -2.173  0.00  0.00     0.000 A 
ATOM      5  C6  UNL d   1       2.136  -1.117  -2.271  0.00  0.00     0.000 A 
ATOM      6  C7  UNL d   1       1.526  -0.092  -1.529  0.00  0.00    -0.073 A 
ATOM      7  C8  UNL d   1       2.043   1.313  -1.678  0.00  0.00     0.078 C 
ENDROOT
BRANCH   1   8
ATOM      8  C1  UNL d   1      -0.308   0.651   0.097  0.00  0.00     0.053 C 
ATOM      9  C   UNL d   1      -1.076   0.064   1.271  0.00  0.00     0.018 C 
ENDBRANCH   1   8
TORSDOF 1
ENDMDL
