MODEL 1
REMARK minimizedAffinity -4.46468019
REMARK minimizedRMSD -1
REMARK  1 active torsions:
REMARK  status: ('A' for Active; 'I' for Inactive)
REMARK    1  A    between atoms: C1_2  and  C2_3 
ROOT
ATOM      1  C2  UNL d   1       0.294  -0.388  -0.425  0.00  0.00    -0.076 A 
ATOM      2  C3  UNL d   1       0.424  -1.737  -0.800  0.00  0.00     0.004 A 
ATOM      3  C4  UNL d   1       1.261  -2.113  -1.849  0.00  0.00    -0.003 A 
ATOM      4  C5  UNL d   1       1.983  -1.146  -2.541  0.00  0.00     0.000 A 
ATOM      5  C6  UNL d   1       1.880   0.194  -2.171  0.00  0.00     0.000 A 
ATOM      6  C7  UNL d   1       1.053   0.588  -1.105  0.00  0.00    -0.073 A 
ATOM      7  C8  UNL d   1       0.976   2.049  -0.753  0.00  0.00     0.078 C 
ENDROOT
BRANCH   1   8
ATOM      8  C1  UNL d   1      -0.649  -0.037   0.703  0.00  0.00     0.053 C 
ATOM      9  C   UNL d   1      -0.823  -1.179   1.693  0.00  0.00     0.018 C 
ENDBRANCH   1   8
TORSDOF 1
ENDMDL
