MODEL 1
REMARK minimizedAffinity 0.169917122
REMARK minimizedRMSD -1
REMARK  1 active torsions:
REMARK  status: ('A' for Active; 'I' for Inactive)
REMARK    1  A    between atoms: C1_2  and  C2_3 
ROOT
ATOM      1  C2  UNL d   1       0.976  -0.123  -1.137  0.00  0.00    -0.076 A 
ATOM      2  C3  UNL d   1       0.675   1.037  -0.402  0.00  0.00     0.004 A 
ATOM      3  C4  UNL d   1      -0.279   1.015   0.614  0.00  0.00    -0.003 A 
ATOM      4  C5  UNL d   1      -0.947  -0.168   0.912  0.00  0.00     0.000 A 
ATOM      5  C6  UNL d   1      -0.647  -1.332   0.206  0.00  0.00     0.000 A 
ATOM      6  C7  UNL d   1       0.323  -1.331  -0.811  0.00  0.00    -0.073 A 
ATOM      7  C8  UNL d   1       0.602  -2.614  -1.544  0.00  0.00     0.078 C 
ENDROOT
BRANCH   1   8
ATOM      8  C1  UNL d   1       2.000  -0.033  -2.246  0.00  0.00     0.053 C 
ATOM      9  C   UNL d   1       3.359   0.434  -1.747  0.00  0.00     0.018 C 
ENDBRANCH   1   8
TORSDOF 1
ENDMDL
