MODEL 1
REMARK minimizedAffinity -3.5766623
REMARK minimizedRMSD -1
REMARK  1 active torsions:
REMARK  status: ('A' for Active; 'I' for Inactive)
REMARK    1  A    between atoms: C1_2  and  C2_3 
ROOT
ATOM      1  C2  UNL d   1       0.840   0.417  -0.818  0.00  0.00    -0.076 A 
ATOM      2  C3  UNL d   1       0.495  -0.945  -0.835  0.00  0.00     0.004 A 
ATOM      3  C4  UNL d   1      -0.134  -1.540   0.258  0.00  0.00    -0.003 A 
ATOM      4  C5  UNL d   1      -0.428  -0.781   1.385  0.00  0.00     0.000 A 
ATOM      5  C6  UNL d   1      -0.108   0.576   1.412  0.00  0.00     0.000 A 
ATOM      6  C7  UNL d   1       0.511   1.195   0.312  0.00  0.00    -0.073 A 
ATOM      7  C8  UNL d   1       0.839   2.660   0.398  0.00  0.00     0.078 C 
ENDROOT
BRANCH   1   8
ATOM      8  C1  UNL d   1       1.545   1.000  -2.022  0.00  0.00     0.053 C 
ATOM      9  C   UNL d   1       2.504   0.014  -2.671  0.00  0.00     0.018 C 
ENDBRANCH   1   8
TORSDOF 1
ENDMDL
