MODEL 1
REMARK minimizedAffinity -3.68946743
REMARK minimizedRMSD -1
REMARK  1 active torsions:
REMARK  status: ('A' for Active; 'I' for Inactive)
REMARK    1  A    between atoms: C1_2  and  C2_3 
ROOT
ATOM      1  C2  UNL d   1       0.285  -0.734  -0.496  0.00  0.00    -0.076 A 
ATOM      2  C3  UNL d   1      -0.034   0.329   0.366  0.00  0.00     0.004 A 
ATOM      3  C4  UNL d   1      -0.318   0.101   1.712  0.00  0.00    -0.003 A 
ATOM      4  C5  UNL d   1      -0.287  -1.194   2.217  0.00  0.00     0.000 A 
ATOM      5  C6  UNL d   1       0.045  -2.258   1.380  0.00  0.00     0.000 A 
ATOM      6  C7  UNL d   1       0.350  -2.044   0.025  0.00  0.00    -0.073 A 
ATOM      7  C8  UNL d   1       0.695  -3.230  -0.834  0.00  0.00     0.078 C 
ENDROOT
BRANCH   1   8
ATOM      8  C1  UNL d   1       0.557  -0.429  -1.952  0.00  0.00     0.053 C 
ATOM      9  C   UNL d   1       1.647   0.616  -2.134  0.00  0.00     0.018 C 
ENDBRANCH   1   8
TORSDOF 1
ENDMDL
