MODEL 1
REMARK minimizedAffinity -1.208197
REMARK minimizedRMSD -1
REMARK  1 active torsions:
REMARK  status: ('A' for Active; 'I' for Inactive)
REMARK    1  A    between atoms: C1_2  and  C2_3 
ROOT
ATOM      1  C2  UNL d   1       1.193   0.459  -0.540  0.00  0.00    -0.076 A 
ATOM      2  C3  UNL d   1       0.536  -0.780  -0.631  0.00  0.00     0.004 A 
ATOM      3  C4  UNL d   1      -0.465  -1.129   0.274  0.00  0.00    -0.003 A 
ATOM      4  C5  UNL d   1      -0.827  -0.243   1.283  0.00  0.00     0.000 A 
ATOM      5  C6  UNL d   1      -0.198   0.998   1.376  0.00  0.00     0.000 A 
ATOM      6  C7  UNL d   1       0.802   1.372   0.463  0.00  0.00    -0.073 A 
ATOM      7  C8  UNL d   1       1.451   2.720   0.614  0.00  0.00     0.078 C 
ENDROOT
BRANCH   1   8
ATOM      8  C1  UNL d   1       2.291   0.771  -1.533  0.00  0.00     0.053 C 
ATOM      9  C   UNL d   1       2.616  -0.411  -2.433  0.00  0.00     0.018 C 
ENDBRANCH   1   8
TORSDOF 1
ENDMDL
