MODEL 1
REMARK minimizedAffinity -2.10866189
REMARK minimizedRMSD -1
REMARK  1 active torsions:
REMARK  status: ('A' for Active; 'I' for Inactive)
REMARK    1  A    between atoms: C1_2  and  C2_3 
ROOT
ATOM      1  C2  UNL d   1      -1.758   1.076   2.787  0.00  0.00    -0.076 A 
ATOM      2  C3  UNL d   1      -1.289   1.938   3.794  0.00  0.00     0.004 A 
ATOM      3  C4  UNL d   1      -2.109   2.931   4.327  0.00  0.00    -0.003 A 
ATOM      4  C5  UNL d   1      -3.411   3.079   3.862  0.00  0.00     0.000 A 
ATOM      5  C6  UNL d   1      -3.898   2.222   2.875  0.00  0.00     0.000 A 
ATOM      6  C7  UNL d   1      -3.090   1.205   2.339  0.00  0.00    -0.073 A 
ATOM      7  C8  UNL d   1      -3.665   0.313   1.273  0.00  0.00     0.078 C 
ENDROOT
BRANCH   1   8
ATOM      8  C1  UNL d   1      -0.815   0.035   2.228  0.00  0.00     0.053 C 
ATOM      9  C   UNL d   1      -0.034   0.542   1.025  0.00  0.00     0.018 C 
ENDBRANCH   1   8
TORSDOF 1
ENDMDL
