MODEL 1
REMARK minimizedAffinity 0.329845846
REMARK minimizedRMSD -1
REMARK  1 active torsions:
REMARK  status: ('A' for Active; 'I' for Inactive)
REMARK    1  A    between atoms: C1_2  and  C2_3 
ROOT
ATOM      1  C2  UNL d   1       1.892  -0.143  -0.699  0.00  0.00    -0.076 A 
ATOM      2  C3  UNL d   1       2.502   0.378  -1.854  0.00  0.00     0.004 A 
ATOM      3  C4  UNL d   1       2.365   1.723  -2.192  0.00  0.00    -0.003 A 
ATOM      4  C5  UNL d   1       1.617   2.570  -1.381  0.00  0.00     0.000 A 
ATOM      5  C6  UNL d   1       1.021   2.073  -0.222  0.00  0.00     0.000 A 
ATOM      6  C7  UNL d   1       1.162   0.723   0.142  0.00  0.00    -0.073 A 
ATOM      7  C8  UNL d   1       0.491   0.240   1.399  0.00  0.00     0.078 C 
ENDROOT
BRANCH   1   8
ATOM      8  C1  UNL d   1       2.053  -1.616  -0.398  0.00  0.00     0.053 C 
ATOM      9  C   UNL d   1       3.077  -2.287  -1.300  0.00  0.00     0.018 C 
ENDBRANCH   1   8
TORSDOF 1
ENDMDL
