MODEL 1
REMARK minimizedAffinity -3.46730447
REMARK minimizedRMSD -1
REMARK  1 active torsions:
REMARK  status: ('A' for Active; 'I' for Inactive)
REMARK    1  A    between atoms: C1_2  and  C2_3 
ROOT
ATOM      1  C2  UNL d   1       0.514  -0.848  -0.800  0.00  0.00    -0.076 A 
ATOM      2  C3  UNL d   1       0.807   0.459  -1.225  0.00  0.00     0.004 A 
ATOM      3  C4  UNL d   1       1.697   0.690  -2.272  0.00  0.00    -0.003 A 
ATOM      4  C5  UNL d   1       2.308  -0.382  -2.912  0.00  0.00     0.000 A 
ATOM      5  C6  UNL d   1       2.016  -1.687  -2.516  0.00  0.00     0.000 A 
ATOM      6  C7  UNL d   1       1.108  -1.938  -1.473  0.00  0.00    -0.073 A 
ATOM      7  C8  UNL d   1       0.834  -3.364  -1.082  0.00  0.00     0.078 C 
ENDROOT
BRANCH   1   8
ATOM      8  C1  UNL d   1      -0.439  -1.037   0.359  0.00  0.00     0.053 C 
ATOM      9  C   UNL d   1      -0.906   0.284   0.949  0.00  0.00     0.018 C 
ENDBRANCH   1   8
TORSDOF 1
ENDMDL
