MODEL 1
REMARK minimizedAffinity -5.65955353
REMARK minimizedRMSD -1
REMARK  1 active torsions:
REMARK  status: ('A' for Active; 'I' for Inactive)
REMARK    1  A    between atoms: C1_2  and  C2_3 
ROOT
ATOM      1  C2  UNL d   1       0.683  -0.441  -1.065  0.00  0.00    -0.076 A 
ATOM      2  C3  UNL d   1       0.322   0.645  -0.249  0.00  0.00     0.004 A 
ATOM      3  C4  UNL d   1      -0.183   0.441   1.034  0.00  0.00    -0.003 A 
ATOM      4  C5  UNL d   1      -0.334  -0.852   1.522  0.00  0.00     0.000 A 
ATOM      5  C6  UNL d   1       0.036  -1.941   0.733  0.00  0.00     0.000 A 
ATOM      6  C7  UNL d   1       0.562  -1.752  -0.557  0.00  0.00    -0.073 A 
ATOM      7  C8  UNL d   1       0.938  -2.962  -1.367  0.00  0.00     0.078 C 
ENDROOT
BRANCH   1   8
ATOM      8  C1  UNL d   1       1.200  -0.160  -2.458  0.00  0.00     0.053 C 
ATOM      9  C   UNL d   1       2.669   0.235  -2.467  0.00  0.00     0.018 C 
ENDBRANCH   1   8
TORSDOF 1
ENDMDL
