MODEL 1
REMARK minimizedAffinity -4.42094564
REMARK minimizedRMSD -1
REMARK  1 active torsions:
REMARK  status: ('A' for Active; 'I' for Inactive)
REMARK    1  A    between atoms: C1_2  and  C2_3 
ROOT
ATOM      1  C2  UNL d   1       1.075  -0.120  -0.846  0.00  0.00    -0.076 A 
ATOM      2  C3  UNL d   1       0.919   1.074  -0.120  0.00  0.00     0.004 A 
ATOM      3  C4  UNL d   1       0.109   1.123   1.014  0.00  0.00    -0.003 A 
ATOM      4  C5  UNL d   1      -0.558  -0.020   1.440  0.00  0.00     0.000 A 
ATOM      5  C6  UNL d   1      -0.401  -1.217   0.742  0.00  0.00     0.000 A 
ATOM      6  C7  UNL d   1       0.425  -1.288  -0.393  0.00  0.00    -0.073 A 
ATOM      7  C8  UNL d   1       0.553  -2.603  -1.112  0.00  0.00     0.078 C 
ENDROOT
BRANCH   1   8
ATOM      8  C1  UNL d   1       1.944  -0.107  -2.083  0.00  0.00     0.053 C 
ATOM      9  C   UNL d   1       1.132  -0.164  -3.367  0.00  0.00     0.018 C 
ENDBRANCH   1   8
TORSDOF 1
ENDMDL
