MODEL 1
REMARK minimizedAffinity 5.576262
REMARK minimizedRMSD -1
REMARK  2 active torsions:
REMARK  status: ('A' for Active; 'I' for Inactive)
REMARK    1  A    between atoms: C2'_3  and  C1'_4 
REMARK    2  A    between atoms: C1'_4  and  C1_5 
ROOT
ATOM      1  C1  I4B d   1       3.834   1.765  -0.386  0.00  0.00    -0.075 A 
ATOM      2  C2  I4B d   1       3.851   1.758  -1.759  0.00  0.00     0.003 A 
ATOM      3  C3  I4B d   1       4.960   2.289  -2.461  0.00  0.00     0.002 A 
ATOM      4  C4  I4B d   1       6.000   2.860  -1.756  0.00  0.00    -0.004 A 
ATOM      5  C5  I4B d   1       5.991   2.846  -0.364  0.00  0.00     0.002 A 
ATOM      6  C6  I4B d   1       4.907   2.284   0.326  0.00  0.00     0.003 A 
ENDROOT
BRANCH   1   7
ATOM      7  C1' I4B d   1       2.632   1.226   0.323  0.00  0.00     0.060 C 
BRANCH   7   8
ATOM      8  C2' I4B d   1       2.717  -0.287   0.300  0.00  0.00    -0.013 C 
ATOM      9  C4' I4B d   1       2.701  -0.854   1.695  0.00  0.00     0.013 C 
ATOM     10  C3' I4B d   1       1.564  -0.804  -0.507  0.00  0.00     0.013 C 
ENDBRANCH   7   8
ENDBRANCH   1   7
TORSDOF 2
ENDMDL
