MODEL 1
REMARK minimizedAffinity 18.4682617
REMARK minimizedRMSD -1
REMARK  2 active torsions:
REMARK  status: ('A' for Active; 'I' for Inactive)
REMARK    1  A    between atoms: C2'_3  and  C1'_4 
REMARK    2  A    between atoms: C1'_4  and  C1_5 
ROOT
ATOM      1  C1  I4B d   1       5.958   3.393  -1.878  0.00  0.00    -0.075 A 
ATOM      2  C2  I4B d   1       6.000   4.454  -1.008  0.00  0.00     0.003 A 
ATOM      3  C3  I4B d   1       5.993   5.781  -1.501  0.00  0.00     0.002 A 
ATOM      4  C4  I4B d   1       5.994   6.000  -2.864  0.00  0.00    -0.004 A 
ATOM      5  C5  I4B d   1       5.928   4.924  -3.744  0.00  0.00     0.002 A 
ATOM      6  C6  I4B d   1       5.897   3.612  -3.248  0.00  0.00     0.003 A 
ENDROOT
BRANCH   1   7
ATOM      7  C1' I4B d   1       6.000   2.005  -1.324  0.00  0.00     0.060 C 
BRANCH   7   8
ATOM      8  C2' I4B d   1       4.968   1.912  -0.218  0.00  0.00    -0.013 C 
ATOM      9  C4' I4B d   1       5.317   2.821   0.931  0.00  0.00     0.013 C 
ATOM     10  C3' I4B d   1       3.632   2.264  -0.801  0.00  0.00     0.013 C 
ENDBRANCH   7   8
ENDBRANCH   1   7
TORSDOF 2
ENDMDL
