MODEL 1
REMARK minimizedAffinity 5.85095263
REMARK minimizedRMSD -1
REMARK  2 active torsions:
REMARK  status: ('A' for Active; 'I' for Inactive)
REMARK    1  A    between atoms: C2'_3  and  C1'_4 
REMARK    2  A    between atoms: C1'_4  and  C1_5 
ROOT
ATOM      1  C1  I4B d   1       1.936   2.800   1.701  0.00  0.00    -0.075 A 
ATOM      2  C2  I4B d   1       2.679   1.745   1.233  0.00  0.00     0.003 A 
ATOM      3  C3  I4B d   1       2.349   1.132  -0.000  0.00  0.00     0.002 A 
ATOM      4  C4  I4B d   1       1.245   1.569  -0.703  0.00  0.00    -0.004 A 
ATOM      5  C5  I4B d   1       0.507   2.654  -0.239  0.00  0.00     0.002 A 
ATOM      6  C6  I4B d   1       0.861   3.281   0.964  0.00  0.00     0.003 A 
ENDROOT
BRANCH   1   7
ATOM      7  C1' I4B d   1       2.292   3.403   3.022  0.00  0.00     0.060 C 
BRANCH   7   8
ATOM      8  C2' I4B d   1       1.203   3.037   4.011  0.00  0.00    -0.013 C 
ATOM      9  C4' I4B d   1       0.337   1.925   3.481  0.00  0.00     0.013 C 
ATOM     10  C3' I4B d   1       1.861   2.644   5.300  0.00  0.00     0.013 C 
ENDBRANCH   7   8
ENDBRANCH   1   7
TORSDOF 2
ENDMDL
