MODEL 1
REMARK minimizedAffinity 12.2715397
REMARK minimizedRMSD -1
REMARK  2 active torsions:
REMARK  status: ('A' for Active; 'I' for Inactive)
REMARK    1  A    between atoms: C2'_3  and  C1'_4 
REMARK    2  A    between atoms: C1'_4  and  C1_5 
ROOT
ATOM      1  C1  I4B d   1      -1.296  -2.082  -3.381  0.00  0.00    -0.075 A 
ATOM      2  C2  I4B d   1      -1.793  -3.361  -3.356  0.00  0.00     0.003 A 
ATOM      3  C3  I4B d   1      -2.954  -3.689  -4.097  0.00  0.00     0.002 A 
ATOM      4  C4  I4B d   1      -3.611  -2.702  -4.803  0.00  0.00    -0.004 A 
ATOM      5  C5  I4B d   1      -3.093  -1.411  -4.845  0.00  0.00     0.002 A 
ATOM      6  C6  I4B d   1      -1.921  -1.101  -4.139  0.00  0.00     0.003 A 
ENDROOT
BRANCH   1   7
ATOM      7  C1' I4B d   1      -0.086  -1.763  -2.560  0.00  0.00     0.060 C 
BRANCH   7   8
ATOM      8  C2' I4B d   1      -0.549  -1.064  -1.298  0.00  0.00    -0.013 C 
ATOM      9  C4' I4B d   1      -1.569   0.000  -1.607  0.00  0.00     0.013 C 
ATOM     10  C3' I4B d   1      -1.113  -2.102  -0.374  0.00  0.00     0.013 C 
ENDBRANCH   7   8
ENDBRANCH   1   7
TORSDOF 2
ENDMDL
