MODEL 1
REMARK minimizedAffinity 6.36605692
REMARK minimizedRMSD -1
REMARK  2 active torsions:
REMARK  status: ('A' for Active; 'I' for Inactive)
REMARK    1  A    between atoms: C2'_3  and  C1'_4 
REMARK    2  A    between atoms: C1'_4  and  C1_5 
ROOT
ATOM      1  C1  I4B d   1       3.286  -0.217   1.646  0.00  0.00    -0.075 A 
ATOM      2  C2  I4B d   1       2.576  -0.660   0.558  0.00  0.00     0.003 A 
ATOM      3  C3  I4B d   1       2.502   0.130  -0.615  0.00  0.00     0.002 A 
ATOM      4  C4  I4B d   1       3.106   1.370  -0.638  0.00  0.00    -0.004 A 
ATOM      5  C5  I4B d   1       3.845   1.808   0.457  0.00  0.00     0.002 A 
ATOM      6  C6  I4B d   1       3.946   1.005   1.602  0.00  0.00     0.003 A 
ENDROOT
BRANCH   1   7
ATOM      7  C1' I4B d   1       3.316  -1.062   2.880  0.00  0.00     0.060 C 
BRANCH   7   8
ATOM      8  C2' I4B d   1       4.117  -0.322   3.932  0.00  0.00    -0.013 C 
ATOM      9  C4' I4B d   1       3.254   0.055   5.108  0.00  0.00     0.013 C 
ATOM     10  C3' I4B d   1       5.252  -1.206   4.355  0.00  0.00     0.013 C 
ENDBRANCH   7   8
ENDBRANCH   1   7
TORSDOF 2
ENDMDL
