MODEL 1
REMARK minimizedAffinity 9.11956882
REMARK minimizedRMSD -1
REMARK  2 active torsions:
REMARK  status: ('A' for Active; 'I' for Inactive)
REMARK    1  A    between atoms: C2'_3  and  C1'_4 
REMARK    2  A    between atoms: C1'_4  and  C1_5 
ROOT
ATOM      1  C1  I4B d   1       4.427   2.052   0.622  0.00  0.00    -0.075 A 
ATOM      2  C2  I4B d   1       3.424   1.150   0.875  0.00  0.00     0.003 A 
ATOM      3  C3  I4B d   1       2.757   0.506  -0.195  0.00  0.00     0.002 A 
ATOM      4  C4  I4B d   1       3.089   0.829  -1.495  0.00  0.00    -0.004 A 
ATOM      5  C5  I4B d   1       4.122   1.726  -1.750  0.00  0.00     0.002 A 
ATOM      6  C6  I4B d   1       4.804   2.333  -0.685  0.00  0.00     0.003 A 
ENDROOT
BRANCH   1   7
ATOM      7  C1' I4B d   1       5.087   2.738   1.776  0.00  0.00     0.060 C 
BRANCH   7   8
ATOM      8  C2' I4B d   1       4.265   3.963   2.123  0.00  0.00    -0.013 C 
ATOM      9  C4' I4B d   1       2.976   3.580   2.800  0.00  0.00     0.013 C 
ATOM     10  C3' I4B d   1       5.098   4.845   3.004  0.00  0.00     0.013 C 
ENDBRANCH   7   8
ENDBRANCH   1   7
TORSDOF 2
ENDMDL
