MODEL 1
REMARK minimizedAffinity 4.17662573
REMARK minimizedRMSD -1
REMARK  2 active torsions:
REMARK  status: ('A' for Active; 'I' for Inactive)
REMARK    1  A    between atoms: C2'_3  and  C1'_4 
REMARK    2  A    between atoms: C1'_4  and  C1_5 
ROOT
ATOM      1  C1  I4B d   1       5.251   2.354  -0.647  0.00  0.00    -0.075 A 
ATOM      2  C2  I4B d   1       5.643   3.658  -0.828  0.00  0.00     0.003 A 
ATOM      3  C3  I4B d   1       6.000   4.123  -2.117  0.00  0.00     0.002 A 
ATOM      4  C4  I4B d   1       5.999   3.244  -3.181  0.00  0.00    -0.004 A 
ATOM      5  C5  I4B d   1       5.580   1.929  -3.000  0.00  0.00     0.002 A 
ATOM      6  C6  I4B d   1       5.192   1.484  -1.728  0.00  0.00     0.003 A 
ENDROOT
BRANCH   1   7
ATOM      7  C1' I4B d   1       4.913   1.888   0.733  0.00  0.00     0.060 C 
BRANCH   7   8
ATOM      8  C2' I4B d   1       3.404   1.898   0.872  0.00  0.00    -0.013 C 
ATOM      9  C4' I4B d   1       2.909   3.241   1.340  0.00  0.00     0.013 C 
ATOM     10  C3' I4B d   1       2.814   1.537  -0.458  0.00  0.00     0.013 C 
ENDBRANCH   7   8
ENDBRANCH   1   7
TORSDOF 2
ENDMDL
