MODEL 1
REMARK minimizedAffinity 2.67687774
REMARK minimizedRMSD -1
REMARK  2 active torsions:
REMARK  status: ('A' for Active; 'I' for Inactive)
REMARK    1  A    between atoms: C2'_3  and  C1'_4 
REMARK    2  A    between atoms: C1'_4  and  C1_5 
ROOT
ATOM      1  C1  I4B d   1       4.936   2.573  -1.544  0.00  0.00    -0.075 A 
ATOM      2  C2  I4B d   1       4.897   2.578  -0.172  0.00  0.00     0.003 A 
ATOM      3  C3  I4B d   1       3.886   1.864   0.515  0.00  0.00     0.002 A 
ATOM      4  C4  I4B d   1       2.910   1.205  -0.206  0.00  0.00    -0.004 A 
ATOM      5  C5  I4B d   1       2.965   1.182  -1.596  0.00  0.00     0.002 A 
ATOM      6  C6  I4B d   1       3.991   1.860  -2.270  0.00  0.00     0.003 A 
ENDROOT
BRANCH   1   7
ATOM      7  C1' I4B d   1       5.999   3.364  -2.238  0.00  0.00     0.060 C 
BRANCH   7   8
ATOM      8  C2' I4B d   1       5.499   4.787  -2.387  0.00  0.00    -0.013 C 
ATOM      9  C4' I4B d   1       5.994   5.659  -1.264  0.00  0.00     0.013 C 
ATOM     10  C3' I4B d   1       5.961   5.303  -3.717  0.00  0.00     0.013 C 
ENDBRANCH   7   8
ENDBRANCH   1   7
TORSDOF 2
ENDMDL
