MODEL 1
REMARK minimizedAffinity 7.80511427
REMARK minimizedRMSD -1
REMARK  2 active torsions:
REMARK  status: ('A' for Active; 'I' for Inactive)
REMARK    1  A    between atoms: C2'_3  and  C1'_4 
REMARK    2  A    between atoms: C1'_4  and  C1_5 
ROOT
ATOM      1  C1  I4B d   1       3.880   2.272   0.635  0.00  0.00    -0.075 A 
ATOM      2  C2  I4B d   1       3.556   2.008  -0.672  0.00  0.00     0.003 A 
ATOM      3  C3  I4B d   1       4.451   2.355  -1.713  0.00  0.00     0.002 A 
ATOM      4  C4  I4B d   1       5.629   3.006  -1.407  0.00  0.00    -0.004 A 
ATOM      5  C5  I4B d   1       5.966   3.252  -0.080  0.00  0.00     0.002 A 
ATOM      6  C6  I4B d   1       5.093   2.872   0.949  0.00  0.00     0.003 A 
ENDROOT
BRANCH   1   7
ATOM      7  C1' I4B d   1       2.897   1.921   1.706  0.00  0.00     0.060 C 
BRANCH   7   8
ATOM      8  C2' I4B d   1       1.920   3.071   1.838  0.00  0.00    -0.013 C 
ATOM      9  C4' I4B d   1       0.746   2.899   0.910  0.00  0.00     0.013 C 
ATOM     10  C3' I4B d   1       1.474   3.139   3.268  0.00  0.00     0.013 C 
ENDBRANCH   7   8
ENDBRANCH   1   7
TORSDOF 2
ENDMDL
