MODEL 1
REMARK minimizedAffinity 7.72655487
REMARK minimizedRMSD -1
REMARK  2 active torsions:
REMARK  status: ('A' for Active; 'I' for Inactive)
REMARK    1  A    between atoms: C2'_3  and  C1'_4 
REMARK    2  A    between atoms: C1'_4  and  C1_5 
ROOT
ATOM      1  C1  I4B d   1       3.670   1.665  -0.884  0.00  0.00    -0.075 A 
ATOM      2  C2  I4B d   1       3.906   1.648  -2.236  0.00  0.00     0.003 A 
ATOM      3  C3  I4B d   1       5.099   2.203  -2.758  0.00  0.00     0.002 A 
ATOM      4  C4  I4B d   1       6.000   2.805  -1.904  0.00  0.00    -0.004 A 
ATOM      5  C5  I4B d   1       5.770   2.801  -0.531  0.00  0.00     0.002 A 
ATOM      6  C6  I4B d   1       4.604   2.217  -0.016  0.00  0.00     0.003 A 
ENDROOT
BRANCH   1   7
ATOM      7  C1' I4B d   1       2.384   1.100  -0.369  0.00  0.00     0.060 C 
BRANCH   7   8
ATOM      8  C2' I4B d   1       2.528  -0.407  -0.307  0.00  0.00    -0.013 C 
ATOM      9  C4' I4B d   1       2.469  -0.903   1.114  0.00  0.00     0.013 C 
ATOM     10  C3' I4B d   1       1.435  -1.011  -1.137  0.00  0.00     0.013 C 
ENDBRANCH   7   8
ENDBRANCH   1   7
TORSDOF 2
ENDMDL
