MODEL 1
REMARK minimizedAffinity 9.02329159
REMARK minimizedRMSD -1
REMARK  0 active torsions:
REMARK  status: ('A' for Active; 'I' for Inactive)
ROOT
ATOM      1  C   UNL d   1      -3.146   1.195  -2.167  0.00  0.00     0.077 C 
ATOM      2  C1  UNL d   1      -3.385   2.197  -3.257  0.00  0.00    -0.074 A 
ATOM      3  C2  UNL d   1      -3.487   1.795  -4.593  0.00  0.00    -0.005 A 
ATOM      4  C3  UNL d   1      -3.719   2.737  -5.595  0.00  0.00     0.006 A 
ATOM      5  C4  UNL d   1      -3.851   4.088  -5.272  0.00  0.00    -0.005 A 
ATOM      6  C5  UNL d   1      -3.753   4.508  -3.942  0.00  0.00    -0.074 A 
ATOM      7  C6  UNL d   1      -3.903   5.956  -3.577  0.00  0.00     0.077 C 
ATOM      8  C7  UNL d   1      -3.527   3.555  -2.940  0.00  0.00    -0.001 A 
ENDROOT
TORSDOF 0
ENDMDL
