MODEL 1
REMARK minimizedAffinity 8.81693554
REMARK minimizedRMSD -1
REMARK  0 active torsions:
REMARK  status: ('A' for Active; 'I' for Inactive)
ROOT
ATOM      1  C   UNL d   1       0.407  -2.956   6.000  0.00  0.00     0.077 C 
ATOM      2  C1  UNL d   1       0.683  -2.289   4.685  0.00  0.00    -0.074 A 
ATOM      3  C2  UNL d   1       0.514  -0.909   4.530  0.00  0.00    -0.005 A 
ATOM      4  C3  UNL d   1       0.784  -0.302   3.304  0.00  0.00     0.006 A 
ATOM      5  C4  UNL d   1       1.225  -1.066   2.223  0.00  0.00    -0.005 A 
ATOM      6  C5  UNL d   1       1.401  -2.446   2.359  0.00  0.00    -0.074 A 
ATOM      7  C6  UNL d   1       1.884  -3.280   1.210  0.00  0.00     0.077 C 
ATOM      8  C7  UNL d   1       1.134  -3.049   3.597  0.00  0.00    -0.001 A 
ENDROOT
TORSDOF 0
ENDMDL
