MODEL 1
REMARK minimizedAffinity 6.522542
REMARK minimizedRMSD -1
REMARK  0 active torsions:
REMARK  status: ('A' for Active; 'I' for Inactive)
ROOT
ATOM      1  C   UNL d   1       2.197  -5.660   2.204  0.00  0.00     0.077 C 
ATOM      2  C1  UNL d   1       2.503  -4.268   1.737  0.00  0.00    -0.074 A 
ATOM      3  C2  UNL d   1       3.518  -4.030   0.804  0.00  0.00    -0.005 A 
ATOM      4  C3  UNL d   1       3.785  -2.730   0.372  0.00  0.00     0.006 A 
ATOM      5  C4  UNL d   1       3.041  -1.659   0.867  0.00  0.00    -0.005 A 
ATOM      6  C5  UNL d   1       2.022  -1.878   1.799  0.00  0.00    -0.074 A 
ATOM      7  C6  UNL d   1       1.207  -0.738   2.334  0.00  0.00     0.077 C 
ATOM      8  C7  UNL d   1       1.755  -3.187   2.223  0.00  0.00    -0.001 A 
ENDROOT
TORSDOF 0
ENDMDL
