MODEL 1
REMARK minimizedAffinity 14.1957073
REMARK minimizedRMSD -1
REMARK  0 active torsions:
REMARK  status: ('A' for Active; 'I' for Inactive)
ROOT
ATOM      1  C   UNL d   1       1.152  -2.651   5.999  0.00  0.00     0.077 C 
ATOM      2  C1  UNL d   1       1.365  -2.654   4.514  0.00  0.00    -0.074 A 
ATOM      3  C2  UNL d   1       1.999  -3.728   3.881  0.00  0.00    -0.005 A 
ATOM      4  C3  UNL d   1       2.182  -3.720   2.498  0.00  0.00     0.006 A 
ATOM      5  C4  UNL d   1       1.733  -2.641   1.736  0.00  0.00    -0.005 A 
ATOM      6  C5  UNL d   1       1.096  -1.559   2.352  0.00  0.00    -0.074 A 
ATOM      7  C6  UNL d   1       0.598  -0.396   1.546  0.00  0.00     0.077 C 
ATOM      8  C7  UNL d   1       0.910  -1.577   3.741  0.00  0.00    -0.001 A 
ENDROOT
TORSDOF 0
ENDMDL
