MODEL 1
REMARK minimizedAffinity 8.40558052
REMARK minimizedRMSD -1
REMARK  0 active torsions:
REMARK  status: ('A' for Active; 'I' for Inactive)
ROOT
ATOM      1  C   UNL d   1       0.772   0.160   1.083  0.00  0.00     0.077 C 
ATOM      2  C1  UNL d   1       1.307  -1.060   1.773  0.00  0.00    -0.074 A 
ATOM      3  C2  UNL d   1       2.035  -2.024   1.068  0.00  0.00    -0.005 A 
ATOM      4  C3  UNL d   1       2.533  -3.148   1.725  0.00  0.00     0.006 A 
ATOM      5  C4  UNL d   1       2.310  -3.321   3.092  0.00  0.00    -0.005 A 
ATOM      6  C5  UNL d   1       1.585  -2.367   3.813  0.00  0.00    -0.074 A 
ATOM      7  C6  UNL d   1       1.344  -2.532   5.285  0.00  0.00     0.077 C 
ATOM      8  C7  UNL d   1       1.093  -1.236   3.148  0.00  0.00    -0.001 A 
ENDROOT
TORSDOF 0
ENDMDL
