MODEL 1
REMARK minimizedAffinity 2.33592129
REMARK minimizedRMSD -1
REMARK  2 active torsions:
REMARK  status: ('A' for Active; 'I' for Inactive)
REMARK    1  A    between atoms: C2'_3  and  C1'_4 
REMARK    2  A    between atoms: C1'_4  and  C1_5 
ROOT
ATOM      1  C1  I4B d   1       0.049  -1.166   2.882  0.00  0.00    -0.075 A 
ATOM      2  C2  I4B d   1      -1.310  -0.976   2.851  0.00  0.00     0.003 A 
ATOM      3  C3  I4B d   1      -1.882  -0.064   1.932  0.00  0.00     0.002 A 
ATOM      4  C4  I4B d   1      -1.060   0.671   1.103  0.00  0.00    -0.004 A 
ATOM      5  C5  I4B d   1       0.316   0.460   1.119  0.00  0.00     0.002 A 
ATOM      6  C6  I4B d   1       0.874  -0.473   2.005  0.00  0.00     0.003 A 
ENDROOT
BRANCH   1   7
ATOM      7  C1' I4B d   1       0.623  -2.113   3.887  0.00  0.00     0.060 C 
BRANCH   7   8
ATOM      8  C2' I4B d   1       2.092  -1.785   4.053  0.00  0.00    -0.013 C 
ATOM      9  C4' I4B d   1       2.281  -0.409   4.636  0.00  0.00     0.013 C 
ATOM     10  C3' I4B d   1       2.705  -2.834   4.932  0.00  0.00     0.013 C 
ENDBRANCH   7   8
ENDBRANCH   1   7
TORSDOF 2
ENDMDL
