MODEL 1
REMARK minimizedAffinity 1.30376184
REMARK minimizedRMSD -1
REMARK  2 active torsions:
REMARK  status: ('A' for Active; 'I' for Inactive)
REMARK    1  A    between atoms: C2'_3  and  C1'_4 
REMARK    2  A    between atoms: C1'_4  and  C1_5 
ROOT
ATOM      1  C1  I4B d   1       0.322  -1.013   2.511  0.00  0.00    -0.075 A 
ATOM      2  C2  I4B d   1      -0.995  -1.311   2.263  0.00  0.00     0.003 A 
ATOM      3  C3  I4B d   1      -1.818  -0.387   1.576  0.00  0.00     0.002 A 
ATOM      4  C4  I4B d   1      -1.301   0.837   1.202  0.00  0.00    -0.004 A 
ATOM      5  C5  I4B d   1       0.040   1.128   1.434  0.00  0.00     0.002 A 
ATOM      6  C6  I4B d   1       0.860   0.193   2.081  0.00  0.00     0.003 A 
ENDROOT
BRANCH   1   7
ATOM      7  C1' I4B d   1       1.154  -1.999   3.268  0.00  0.00     0.060 C 
BRANCH   7   8
ATOM      8  C2' I4B d   1       2.097  -1.222   4.164  0.00  0.00    -0.013 C 
ATOM      9  C4' I4B d   1       1.457  -0.915   5.492  0.00  0.00     0.013 C 
ATOM     10  C3' I4B d   1       3.344  -2.037   4.339  0.00  0.00     0.013 C 
ENDBRANCH   7   8
ENDBRANCH   1   7
TORSDOF 2
ENDMDL
