MODEL 1
REMARK minimizedAffinity 7.75495625
REMARK minimizedRMSD -1
REMARK  2 active torsions:
REMARK  status: ('A' for Active; 'I' for Inactive)
REMARK    1  A    between atoms: C2'_3  and  C1'_4 
REMARK    2  A    between atoms: C1'_4  and  C1_5 
ROOT
ATOM      1  C1  I4B d   1       1.616  -5.759  -5.000  0.00  0.00    -0.075 A 
ATOM      2  C2  I4B d   1       1.920  -5.815  -3.662  0.00  0.00     0.003 A 
ATOM      3  C3  I4B d   1       0.889  -5.963  -2.703  0.00  0.00     0.002 A 
ATOM      4  C4  I4B d   1      -0.426  -6.000  -3.119  0.00  0.00    -0.004 A 
ATOM      5  C5  I4B d   1      -0.731  -5.966  -4.477  0.00  0.00     0.002 A 
ATOM      6  C6  I4B d   1       0.298  -5.857  -5.424  0.00  0.00     0.003 A 
ENDROOT
BRANCH   1   7
ATOM      7  C1' I4B d   1       2.727  -5.569  -5.984  0.00  0.00     0.060 C 
BRANCH   7   8
ATOM      8  C2' I4B d   1       3.218  -4.141  -5.863  0.00  0.00    -0.013 C 
ATOM      9  C4' I4B d   1       2.795  -3.527  -4.554  0.00  0.00     0.013 C 
ATOM     10  C3' I4B d   1       4.712  -4.152  -5.999  0.00  0.00     0.013 C 
ENDBRANCH   7   8
ENDBRANCH   1   7
TORSDOF 2
ENDMDL
