MODEL 1
REMARK minimizedAffinity 2.90742087
REMARK minimizedRMSD -1
REMARK  2 active torsions:
REMARK  status: ('A' for Active; 'I' for Inactive)
REMARK    1  A    between atoms: C2'_3  and  C1'_4 
REMARK    2  A    between atoms: C1'_4  and  C1_5 
ROOT
ATOM      1  C1  I4B d   1       0.431  -1.154   3.328  0.00  0.00    -0.075 A 
ATOM      2  C2  I4B d   1      -0.623  -1.535   4.122  0.00  0.00     0.003 A 
ATOM      3  C3  I4B d   1      -1.952  -1.405   3.652  0.00  0.00     0.002 A 
ATOM      4  C4  I4B d   1      -2.183  -0.847   2.412  0.00  0.00    -0.004 A 
ATOM      5  C5  I4B d   1      -1.113  -0.483   1.599  0.00  0.00     0.002 A 
ATOM      6  C6  I4B d   1       0.203  -0.648   2.055  0.00  0.00     0.003 A 
ENDROOT
BRANCH   1   7
ATOM      7  C1' I4B d   1       1.820  -1.274   3.869  0.00  0.00     0.060 C 
BRANCH   7   8
ATOM      8  C2' I4B d   1       1.721  -1.602   5.345  0.00  0.00    -0.013 C 
ATOM      9  C4' I4B d   1       3.084  -1.674   5.981  0.00  0.00     0.013 C 
ATOM     10  C3' I4B d   1       0.873  -0.551   5.996  0.00  0.00     0.013 C 
ENDBRANCH   7   8
ENDBRANCH   1   7
TORSDOF 2
ENDMDL
