MODEL 1
REMARK minimizedAffinity 3.2998178
REMARK minimizedRMSD -1
REMARK  2 active torsions:
REMARK  status: ('A' for Active; 'I' for Inactive)
REMARK    1  A    between atoms: C2'_3  and  C1'_4 
REMARK    2  A    between atoms: C1'_4  and  C1_5 
ROOT
ATOM      1  C1  I4B d   1       0.365  -1.165   2.976  0.00  0.00    -0.075 A 
ATOM      2  C2  I4B d   1       1.154  -0.341   2.213  0.00  0.00     0.003 A 
ATOM      3  C3  I4B d   1       0.567   0.674   1.420  0.00  0.00     0.002 A 
ATOM      4  C4  I4B d   1      -0.807   0.796   1.380  0.00  0.00    -0.004 A 
ATOM      5  C5  I4B d   1      -1.605  -0.025   2.172  0.00  0.00     0.002 A 
ATOM      6  C6  I4B d   1      -1.015  -1.004   2.984  0.00  0.00     0.003 A 
ENDROOT
BRANCH   1   7
ATOM      7  C1' I4B d   1       1.016  -2.248   3.776  0.00  0.00     0.060 C 
BRANCH   7   8
ATOM      8  C2' I4B d   1       1.915  -1.593   4.804  0.00  0.00    -0.013 C 
ATOM      9  C4' I4B d   1       1.127  -1.126   5.999  0.00  0.00     0.013 C 
ATOM     10  C3' I4B d   1       2.965  -2.587   5.202  0.00  0.00     0.013 C 
ENDBRANCH   7   8
ENDBRANCH   1   7
TORSDOF 2
ENDMDL
