MODEL 1
REMARK minimizedAffinity 2.96844482
REMARK minimizedRMSD -1
REMARK  2 active torsions:
REMARK  status: ('A' for Active; 'I' for Inactive)
REMARK    1  A    between atoms: C2'_3  and  C1'_4 
REMARK    2  A    between atoms: C1'_4  and  C1_5 
ROOT
ATOM      1  C1  I4B d   1       0.520  -1.520   3.369  0.00  0.00    -0.075 A 
ATOM      2  C2  I4B d   1       1.454  -1.261   2.397  0.00  0.00     0.003 A 
ATOM      3  C3  I4B d   1       1.154  -0.370   1.338  0.00  0.00     0.002 A 
ATOM      4  C4  I4B d   1      -0.102   0.196   1.262  0.00  0.00    -0.004 A 
ATOM      5  C5  I4B d   1      -1.041  -0.049   2.260  0.00  0.00     0.002 A 
ATOM      6  C6  I4B d   1      -0.724  -0.903   3.327  0.00  0.00     0.003 A 
ENDROOT
BRANCH   1   7
ATOM      7  C1' I4B d   1       0.859  -2.491   4.454  0.00  0.00     0.060 C 
BRANCH   7   8
ATOM      8  C2' I4B d   1       2.115  -2.000   5.145  0.00  0.00    -0.013 C 
ATOM      9  C4' I4B d   1       1.831  -0.792   5.999  0.00  0.00     0.013 C 
ATOM     10  C3' I4B d   1       2.663  -3.128   5.967  0.00  0.00     0.013 C 
ENDBRANCH   7   8
ENDBRANCH   1   7
TORSDOF 2
ENDMDL
