MODEL 1
REMARK minimizedAffinity 0.992331803
REMARK minimizedRMSD -1
REMARK  2 active torsions:
REMARK  status: ('A' for Active; 'I' for Inactive)
REMARK    1  A    between atoms: C2'_3  and  C1'_4 
REMARK    2  A    between atoms: C1'_4  and  C1_5 
ROOT
ATOM      1  C1  I4B d   1      -0.043  -0.228   1.535  0.00  0.00    -0.075 A 
ATOM      2  C2  I4B d   1      -1.054  -0.084   2.452  0.00  0.00     0.003 A 
ATOM      3  C3  I4B d   1      -0.881  -0.541   3.781  0.00  0.00     0.002 A 
ATOM      4  C4  I4B d   1       0.291  -1.177   4.134  0.00  0.00    -0.004 A 
ATOM      5  C5  I4B d   1       1.324  -1.302   3.209  0.00  0.00     0.002 A 
ATOM      6  C6  I4B d   1       1.161  -0.813   1.905  0.00  0.00     0.003 A 
ENDROOT
BRANCH   1   7
ATOM      7  C1' I4B d   1      -0.271   0.237   0.132  0.00  0.00     0.060 C 
BRANCH   7   8
ATOM      8  C2' I4B d   1      -1.493  -0.481  -0.404  0.00  0.00    -0.013 C 
ATOM      9  C4' I4B d   1      -2.091   0.258  -1.572  0.00  0.00     0.013 C 
ATOM     10  C3' I4B d   1      -1.079  -1.869  -0.796  0.00  0.00     0.013 C 
ENDBRANCH   7   8
ENDBRANCH   1   7
TORSDOF 2
ENDMDL
