MODEL 1
REMARK minimizedAffinity 4.40531921
REMARK minimizedRMSD -1
REMARK  2 active torsions:
REMARK  status: ('A' for Active; 'I' for Inactive)
REMARK    1  A    between atoms: C2'_3  and  C1'_4 
REMARK    2  A    between atoms: C1'_4  and  C1_5 
ROOT
ATOM      1  C1  I4B d   1      -0.362  -0.505   1.858  0.00  0.00    -0.075 A 
ATOM      2  C2  I4B d   1      -0.667  -1.270   2.956  0.00  0.00     0.003 A 
ATOM      3  C3  I4B d   1       0.367  -1.832   3.743  0.00  0.00     0.002 A 
ATOM      4  C4  I4B d   1       1.683  -1.649   3.368  0.00  0.00    -0.004 A 
ATOM      5  C5  I4B d   1       1.991  -0.855   2.267  0.00  0.00     0.002 A 
ATOM      6  C6  I4B d   1       0.963  -0.269   1.514  0.00  0.00     0.003 A 
ENDROOT
BRANCH   1   7
ATOM      7  C1' I4B d   1      -1.479   0.046   1.030  0.00  0.00     0.060 C 
BRANCH   7   8
ATOM      8  C2' I4B d   1      -1.191  -0.281  -0.421  0.00  0.00    -0.013 C 
ATOM      9  C4' I4B d   1      -1.511  -1.720  -0.729  0.00  0.00     0.013 C 
ATOM     10  C3' I4B d   1      -2.001   0.649  -1.274  0.00  0.00     0.013 C 
ENDBRANCH   7   8
ENDBRANCH   1   7
TORSDOF 2
ENDMDL
