MODEL 1
REMARK minimizedAffinity 14.7055664
REMARK minimizedRMSD -1
REMARK  0 active torsions:
REMARK  status: ('A' for Active; 'I' for Inactive)
ROOT
ATOM      1  C1  DEN d   1       1.576  -1.833   3.799  0.00  0.00     0.130 A 
ATOM      2  C2  DEN d   1       0.353  -1.267   3.237  0.00  0.00    -0.031 A 
ATOM      3  C3  DEN d   1      -0.787  -2.075   3.713  0.00  0.00     0.027 A 
ATOM      4  C4  DEN d   1      -0.778  -4.136   5.264  0.00  0.00     0.027 A 
ATOM      5  C5  DEN d   1       0.022  -4.995   5.985  0.00  0.00    -0.003 A 
ATOM      6  C6  DEN d   1       1.387  -4.883   6.000  0.00  0.00     0.001 A 
ATOM      7  C7  DEN d   1       1.991  -3.860   5.317  0.00  0.00     0.017 A 
ATOM      8  C8  DEN d   1       1.192  -2.994   4.582  0.00  0.00    -0.094 A 
ATOM      9  C9  DEN d   1      -0.187  -3.118   4.589  0.00  0.00    -0.072 A 
ENDROOT
TORSDOF 0
ENDMDL
