MODEL 1
REMARK minimizedAffinity 18.8512001
REMARK minimizedRMSD -1
REMARK  0 active torsions:
REMARK  status: ('A' for Active; 'I' for Inactive)
ROOT
ATOM      1  C1  DEN d   1      -2.532   4.871   3.293  0.00  0.00     0.130 A 
ATOM      2  C2  DEN d   1      -1.775   5.755   4.175  0.00  0.00    -0.031 A 
ATOM      3  C3  DEN d   1      -2.587   5.999   5.384  0.00  0.00     0.027 A 
ATOM      4  C4  DEN d   1      -4.929   5.094   5.975  0.00  0.00     0.027 A 
ATOM      5  C5  DEN d   1      -5.976   4.316   5.533  0.00  0.00    -0.003 A 
ATOM      6  C6  DEN d   1      -5.963   3.701   4.309  0.00  0.00     0.001 A 
ATOM      7  C7  DEN d   1      -4.862   3.817   3.503  0.00  0.00     0.017 A 
ATOM      8  C8  DEN d   1      -3.805   4.606   3.938  0.00  0.00    -0.094 A 
ATOM      9  C9  DEN d   1      -3.832   5.210   5.184  0.00  0.00    -0.072 A 
ENDROOT
TORSDOF 0
ENDMDL
