MODEL 1
REMARK minimizedAffinity 2.87476778
REMARK minimizedRMSD -1
REMARK  0 active torsions:
REMARK  status: ('A' for Active; 'I' for Inactive)
ROOT
ATOM      1  C1  DEN d   1      -0.949  -2.591  -1.340  0.00  0.00     0.130 A 
ATOM      2  C2  DEN d   1      -1.768  -1.425  -1.661  0.00  0.00    -0.031 A 
ATOM      3  C3  DEN d   1      -0.959  -0.216  -1.411  0.00  0.00     0.027 A 
ATOM      4  C4  DEN d   1       1.472  -0.035  -0.567  0.00  0.00     0.027 A 
ATOM      5  C5  DEN d   1       2.571  -0.752  -0.148  0.00  0.00    -0.003 A 
ATOM      6  C6  DEN d   1       2.563  -2.120  -0.066  0.00  0.00     0.001 A 
ATOM      7  C7  DEN d   1       1.447  -2.816  -0.450  0.00  0.00     0.017 A 
ATOM      8  C8  DEN d   1       0.333  -2.100  -0.866  0.00  0.00    -0.094 A 
ATOM      9  C9  DEN d   1       0.365  -0.718  -0.954  0.00  0.00    -0.072 A 
ENDROOT
TORSDOF 0
ENDMDL
