MODEL 1
REMARK minimizedAffinity 1.67596579
REMARK minimizedRMSD -1
REMARK  0 active torsions:
REMARK  status: ('A' for Active; 'I' for Inactive)
ROOT
ATOM      1  C1  DEN d   1       1.767   1.199  -0.383  0.00  0.00     0.130 A 
ATOM      2  C2  DEN d   1       3.154   1.377  -0.804  0.00  0.00    -0.031 A 
ATOM      3  C3  DEN d   1       3.688   0.054  -1.185  0.00  0.00     0.027 A 
ATOM      4  C4  DEN d   1       2.507  -2.239  -1.169  0.00  0.00     0.027 A 
ATOM      5  C5  DEN d   1       1.330  -2.894  -0.879  0.00  0.00    -0.003 A 
ATOM      6  C6  DEN d   1       0.237  -2.241  -0.375  0.00  0.00     0.001 A 
ATOM      7  C7  DEN d   1       0.283  -0.884  -0.189  0.00  0.00     0.017 A 
ATOM      8  C8  DEN d   1       1.468  -0.219  -0.472  0.00  0.00    -0.094 A 
ATOM      9  C9  DEN d   1       2.559  -0.895  -0.992  0.00  0.00    -0.072 A 
ENDROOT
TORSDOF 0
ENDMDL
