MODEL 1
REMARK minimizedAffinity 11.3097153
REMARK minimizedRMSD -1
REMARK  0 active torsions:
REMARK  status: ('A' for Active; 'I' for Inactive)
ROOT
ATOM      1  C1  DEN d   1       2.851  -0.213  -0.171  0.00  0.00     0.130 A 
ATOM      2  C2  DEN d   1       2.898  -1.536  -0.788  0.00  0.00    -0.031 A 
ATOM      3  C3  DEN d   1       3.482  -1.390  -2.137  0.00  0.00     0.027 A 
ATOM      4  C4  DEN d   1       4.317   0.743  -3.321  0.00  0.00     0.027 A 
ATOM      5  C5  DEN d   1       4.472   2.106  -3.201  0.00  0.00    -0.003 A 
ATOM      6  C6  DEN d   1       4.069   2.792  -2.086  0.00  0.00     0.001 A 
ATOM      7  C7  DEN d   1       3.533   2.108  -1.026  0.00  0.00     0.017 A 
ATOM      8  C8  DEN d   1       3.367   0.734  -1.143  0.00  0.00    -0.094 A 
ATOM      9  C9  DEN d   1       3.792   0.058  -2.274  0.00  0.00    -0.072 A 
ENDROOT
TORSDOF 0
ENDMDL
