MODEL 1
REMARK minimizedAffinity 15.6675768
REMARK minimizedRMSD -1
REMARK  0 active torsions:
REMARK  status: ('A' for Active; 'I' for Inactive)
ROOT
ATOM      1  C1  DEN d   1      -1.333   0.663  -1.623  0.00  0.00     0.130 A 
ATOM      2  C2  DEN d   1      -1.738  -0.330  -2.615  0.00  0.00    -0.031 A 
ATOM      3  C3  DEN d   1      -3.200  -0.510  -2.509  0.00  0.00     0.027 A 
ATOM      4  C4  DEN d   1      -4.867   0.649  -0.919  0.00  0.00     0.027 A 
ATOM      5  C5  DEN d   1      -4.992   1.558   0.108  0.00  0.00    -0.003 A 
ATOM      6  C6  DEN d   1      -3.911   2.203   0.648  0.00  0.00     0.001 A 
ATOM      7  C7  DEN d   1      -2.661   1.980   0.133  0.00  0.00     0.017 A 
ATOM      8  C8  DEN d   1      -2.526   1.059  -0.897  0.00  0.00    -0.094 A 
ATOM      9  C9  DEN d   1      -3.633   0.427  -1.438  0.00  0.00    -0.072 A 
ENDROOT
TORSDOF 0
ENDMDL
