MODEL 1
REMARK minimizedAffinity 15.1221561
REMARK minimizedRMSD -1
REMARK  0 active torsions:
REMARK  status: ('A' for Active; 'I' for Inactive)
ROOT
ATOM      1  C1  DEN d   1       4.905  -2.352   1.338  0.00  0.00     0.130 A 
ATOM      2  C2  DEN d   1       5.573  -1.098   1.674  0.00  0.00    -0.031 A 
ATOM      3  C3  DEN d   1       4.972  -0.027   0.855  0.00  0.00     0.027 A 
ATOM      4  C4  DEN d   1       3.079  -0.186  -0.889  0.00  0.00     0.027 A 
ATOM      5  C5  DEN d   1       2.208  -1.043  -1.525  0.00  0.00    -0.003 A 
ATOM      6  C6  DEN d   1       2.198  -2.390  -1.278  0.00  0.00     0.001 A 
ATOM      7  C7  DEN d   1       3.046  -2.914  -0.339  0.00  0.00     0.017 A 
ATOM      8  C8  DEN d   1       3.932  -2.058   0.301  0.00  0.00    -0.094 A 
ATOM      9  C9  DEN d   1       3.918  -0.697   0.047  0.00  0.00    -0.072 A 
ENDROOT
TORSDOF 0
ENDMDL
