MODEL 1
REMARK minimizedAffinity 8.55187798
REMARK minimizedRMSD -1
REMARK  0 active torsions:
REMARK  status: ('A' for Active; 'I' for Inactive)
ROOT
ATOM      1  C1  DEN d   1      -2.279  -0.055  -0.247  0.00  0.00     0.130 A 
ATOM      2  C2  DEN d   1      -1.479  -0.024  -1.469  0.00  0.00    -0.031 A 
ATOM      3  C3  DEN d   1      -2.365   0.366  -2.584  0.00  0.00     0.027 A 
ATOM      4  C4  DEN d   1      -4.883   0.925  -2.538  0.00  0.00     0.027 A 
ATOM      5  C5  DEN d   1      -5.996   1.024  -1.733  0.00  0.00    -0.003 A 
ATOM      6  C6  DEN d   1      -5.956   0.740  -0.394  0.00  0.00     0.001 A 
ATOM      7  C7  DEN d   1      -4.768   0.386   0.190  0.00  0.00     0.017 A 
ATOM      8  C8  DEN d   1      -3.643   0.277  -0.616  0.00  0.00    -0.094 A 
ATOM      9  C9  DEN d   1      -3.701   0.580  -1.966  0.00  0.00    -0.072 A 
ENDROOT
TORSDOF 0
ENDMDL
