MODEL 1
REMARK minimizedAffinity 15.6629782
REMARK minimizedRMSD -1
REMARK  0 active torsions:
REMARK  status: ('A' for Active; 'I' for Inactive)
ROOT
ATOM      1  C1  DEN d   1       3.834   3.056   1.500  0.00  0.00     0.130 A 
ATOM      2  C2  DEN d   1       3.368   2.402   2.720  0.00  0.00    -0.031 A 
ATOM      3  C3  DEN d   1       2.824   1.080   2.350  0.00  0.00     0.027 A 
ATOM      4  C4  DEN d   1       2.664  -0.015   0.020  0.00  0.00     0.027 A 
ATOM      5  C5  DEN d   1       2.919   0.160  -1.322  0.00  0.00    -0.003 A 
ATOM      6  C6  DEN d   1       3.461   1.316  -1.818  0.00  0.00     0.001 A 
ATOM      7  C7  DEN d   1       3.807   2.325  -0.960  0.00  0.00     0.017 A 
ATOM      8  C8  DEN d   1       3.547   2.160   0.394  0.00  0.00    -0.094 A 
ATOM      9  C9  DEN d   1       3.009   0.979   0.877  0.00  0.00    -0.072 A 
ENDROOT
TORSDOF 0
ENDMDL
