MODEL 1
REMARK minimizedAffinity 8.42286873
REMARK minimizedRMSD -1
REMARK  0 active torsions:
REMARK  status: ('A' for Active; 'I' for Inactive)
ROOT
ATOM      1  C1  DEN d   1       3.571   1.868   2.206  0.00  0.00     0.130 A 
ATOM      2  C2  DEN d   1       4.545   2.956   2.232  0.00  0.00    -0.031 A 
ATOM      3  C3  DEN d   1       5.021   3.176   0.852  0.00  0.00     0.027 A 
ATOM      4  C4  DEN d   1       4.345   1.946  -1.312  0.00  0.00     0.027 A 
ATOM      5  C5  DEN d   1       3.561   0.941  -1.834  0.00  0.00    -0.003 A 
ATOM      6  C6  DEN d   1       2.757   0.159  -1.048  0.00  0.00     0.001 A 
ATOM      7  C7  DEN d   1       2.686   0.399   0.299  0.00  0.00     0.017 A 
ATOM      8  C8  DEN d   1       3.479   1.405   0.834  0.00  0.00    -0.094 A 
ATOM      9  C9  DEN d   1       4.275   2.193   0.020  0.00  0.00    -0.072 A 
ENDROOT
TORSDOF 0
ENDMDL
