MODEL 1
REMARK minimizedAffinity -5.55078268
REMARK minimizedRMSD -1
REMARK  0 active torsions:
REMARK  status: ('A' for Active; 'I' for Inactive)
ROOT
ATOM      1  C   UNL d   1      -1.116   1.589   0.790  0.00  0.00     0.077 C 
ATOM      2  C1  UNL d   1       0.050   0.685   0.522  0.00  0.00    -0.074 A 
ATOM      3  C2  UNL d   1       1.341   1.203   0.372  0.00  0.00    -0.005 A 
ATOM      4  C3  UNL d   1       2.418   0.349   0.132  0.00  0.00     0.006 A 
ATOM      5  C4  UNL d   1       2.215  -1.029   0.040  0.00  0.00    -0.005 A 
ATOM      6  C5  UNL d   1       0.932  -1.565   0.188  0.00  0.00    -0.074 A 
ATOM      7  C6  UNL d   1       0.699  -3.044   0.102  0.00  0.00     0.077 C 
ATOM      8  C7  UNL d   1      -0.144  -0.701   0.436  0.00  0.00    -0.001 A 
ENDROOT
TORSDOF 0
ENDMDL
