MODEL 1
REMARK minimizedAffinity -3.74368501
REMARK minimizedRMSD -1
REMARK  0 active torsions:
REMARK  status: ('A' for Active; 'I' for Inactive)
ROOT
ATOM      1  C   UNL d   1       0.518   2.140  -0.388  0.00  0.00     0.077 C 
ATOM      2  C1  UNL d   1       0.590   0.716   0.078  0.00  0.00    -0.074 A 
ATOM      3  C2  UNL d   1       1.734  -0.056  -0.144  0.00  0.00    -0.005 A 
ATOM      4  C3  UNL d   1       1.789  -1.376   0.304  0.00  0.00     0.006 A 
ATOM      5  C4  UNL d   1       0.703  -1.936   0.977  0.00  0.00    -0.005 A 
ATOM      6  C5  UNL d   1      -0.450  -1.179   1.208  0.00  0.00    -0.074 A 
ATOM      7  C6  UNL d   1      -1.623  -1.762   1.938  0.00  0.00     0.077 C 
ATOM      8  C7  UNL d   1      -0.495   0.149   0.761  0.00  0.00    -0.001 A 
ENDROOT
TORSDOF 0
ENDMDL
