MODEL 1
REMARK minimizedAffinity -4.78842258
REMARK minimizedRMSD -1
REMARK  0 active torsions:
REMARK  status: ('A' for Active; 'I' for Inactive)
ROOT
ATOM      1  C   UNL d   1       1.515   3.455   0.484  0.00  0.00     0.077 C 
ATOM      2  C1  UNL d   1       0.422   2.783  -0.292  0.00  0.00    -0.074 A 
ATOM      3  C2  UNL d   1      -0.269   1.689   0.238  0.00  0.00    -0.005 A 
ATOM      4  C3  UNL d   1      -1.290   1.081  -0.491  0.00  0.00     0.006 A 
ATOM      5  C4  UNL d   1      -1.631   1.559  -1.757  0.00  0.00    -0.005 A 
ATOM      6  C5  UNL d   1      -0.952   2.653  -2.304  0.00  0.00    -0.074 A 
ATOM      7  C6  UNL d   1      -1.312   3.186  -3.659  0.00  0.00     0.077 C 
ATOM      8  C7  UNL d   1       0.068   3.263  -1.561  0.00  0.00    -0.001 A 
ENDROOT
TORSDOF 0
ENDMDL
