MODEL 1
REMARK minimizedAffinity -2.06390834
REMARK minimizedRMSD -1
REMARK  0 active torsions:
REMARK  status: ('A' for Active; 'I' for Inactive)
ROOT
ATOM      1  C   UNL d   1       2.755   1.042  -0.537  0.00  0.00     0.077 C 
ATOM      2  C1  UNL d   1       2.001  -0.113   0.052  0.00  0.00    -0.074 A 
ATOM      3  C2  UNL d   1       2.676  -1.231   0.551  0.00  0.00    -0.005 A 
ATOM      4  C3  UNL d   1       1.962  -2.294   1.106  0.00  0.00     0.006 A 
ATOM      5  C4  UNL d   1       0.569  -2.248   1.167  0.00  0.00    -0.005 A 
ATOM      6  C5  UNL d   1      -0.123  -1.137   0.674  0.00  0.00    -0.074 A 
ATOM      7  C6  UNL d   1      -1.620  -1.068   0.741  0.00  0.00     0.077 C 
ATOM      8  C7  UNL d   1       0.602  -0.071   0.125  0.00  0.00    -0.001 A 
ENDROOT
TORSDOF 0
ENDMDL
