MODEL 1
REMARK minimizedAffinity -2.35571241
REMARK minimizedRMSD -1
REMARK  0 active torsions:
REMARK  status: ('A' for Active; 'I' for Inactive)
ROOT
ATOM      1  C   UNL d   1       2.249   3.658  -0.038  0.00  0.00     0.077 C 
ATOM      2  C1  UNL d   1       1.692   2.266  -0.081  0.00  0.00    -0.074 A 
ATOM      3  C2  UNL d   1       2.509   1.174  -0.391  0.00  0.00    -0.005 A 
ATOM      4  C3  UNL d   1       1.978  -0.116  -0.418  0.00  0.00     0.006 A 
ATOM      5  C4  UNL d   1       0.628  -0.326  -0.136  0.00  0.00    -0.005 A 
ATOM      6  C5  UNL d   1      -0.204   0.753   0.177  0.00  0.00    -0.074 A 
ATOM      7  C6  UNL d   1      -1.656   0.544   0.491  0.00  0.00     0.077 C 
ATOM      8  C7  UNL d   1       0.338   2.045   0.209  0.00  0.00    -0.001 A 
ENDROOT
TORSDOF 0
ENDMDL
