MODEL 1
REMARK minimizedAffinity -2.22177911
REMARK minimizedRMSD -1
REMARK  0 active torsions:
REMARK  status: ('A' for Active; 'I' for Inactive)
ROOT
ATOM      1  C   UNL d   1      -2.504   2.244  -2.894  0.00  0.00     0.077 C 
ATOM      2  C1  UNL d   1      -1.536   1.868  -1.812  0.00  0.00    -0.074 A 
ATOM      3  C2  UNL d   1      -1.460   0.553  -1.341  0.00  0.00    -0.005 A 
ATOM      4  C3  UNL d   1      -0.548   0.216  -0.341  0.00  0.00     0.006 A 
ATOM      5  C4  UNL d   1       0.296   1.188   0.197  0.00  0.00    -0.005 A 
ATOM      6  C5  UNL d   1       0.235   2.508  -0.263  0.00  0.00    -0.074 A 
ATOM      7  C6  UNL d   1       1.142   3.563   0.297  0.00  0.00     0.077 C 
ATOM      8  C7  UNL d   1      -0.679   2.837  -1.273  0.00  0.00    -0.001 A 
ENDROOT
TORSDOF 0
ENDMDL
