MODEL 1
REMARK minimizedAffinity -1.62601209
REMARK minimizedRMSD -1
REMARK  0 active torsions:
REMARK  status: ('A' for Active; 'I' for Inactive)
ROOT
ATOM      1  C   UNL d   1       0.329   5.449   1.264  0.00  0.00     0.077 C 
ATOM      2  C1  UNL d   1       0.987   4.242   0.663  0.00  0.00    -0.074 A 
ATOM      3  C2  UNL d   1       2.381   4.149   0.583  0.00  0.00    -0.005 A 
ATOM      4  C3  UNL d   1       2.979   3.017   0.031  0.00  0.00     0.006 A 
ATOM      5  C4  UNL d   1       2.192   1.968  -0.446  0.00  0.00    -0.005 A 
ATOM      6  C5  UNL d   1       0.797   2.043  -0.374  0.00  0.00    -0.074 A 
ATOM      7  C6  UNL d   1      -0.063   0.920  -0.873  0.00  0.00     0.077 C 
ATOM      8  C7  UNL d   1       0.204   3.181   0.189  0.00  0.00    -0.001 A 
ENDROOT
TORSDOF 0
ENDMDL
