MODEL 1
REMARK minimizedAffinity -2.6271565
REMARK minimizedRMSD -1
REMARK  0 active torsions:
REMARK  status: ('A' for Active; 'I' for Inactive)
ROOT
ATOM      1  C   UNL d   1       2.133   3.635  -0.028  0.00  0.00     0.077 C 
ATOM      2  C1  UNL d   1       1.280   2.404   0.057  0.00  0.00    -0.074 A 
ATOM      3  C2  UNL d   1      -0.114   2.490  -0.007  0.00  0.00    -0.005 A 
ATOM      4  C3  UNL d   1      -0.894   1.336   0.064  0.00  0.00     0.006 A 
ATOM      5  C4  UNL d   1      -0.289   0.086   0.198  0.00  0.00    -0.005 A 
ATOM      6  C5  UNL d   1       1.104  -0.020   0.262  0.00  0.00    -0.074 A 
ATOM      7  C6  UNL d   1       1.772  -1.356   0.397  0.00  0.00     0.077 C 
ATOM      8  C7  UNL d   1       1.881   1.144   0.184  0.00  0.00    -0.001 A 
ENDROOT
TORSDOF 0
ENDMDL
