MODEL 1
REMARK minimizedAffinity -2.90145397
REMARK minimizedRMSD -1
REMARK  0 active torsions:
REMARK  status: ('A' for Active; 'I' for Inactive)
ROOT
ATOM      1  C   UNL d   1       0.843   4.012   0.085  0.00  0.00     0.077 C 
ATOM      2  C1  UNL d   1       0.160   3.418  -1.111  0.00  0.00    -0.074 A 
ATOM      3  C2  UNL d   1      -0.709   2.331  -0.977  0.00  0.00    -0.005 A 
ATOM      4  C3  UNL d   1      -1.344   1.795  -2.097  0.00  0.00     0.006 A 
ATOM      5  C4  UNL d   1      -1.116   2.340  -3.361  0.00  0.00    -0.005 A 
ATOM      6  C5  UNL d   1      -0.250   3.428  -3.515  0.00  0.00    -0.074 A 
ATOM      7  C6  UNL d   1      -0.002   4.032  -4.865  0.00  0.00     0.077 C 
ATOM      8  C7  UNL d   1       0.378   3.965  -2.383  0.00  0.00    -0.001 A 
ENDROOT
TORSDOF 0
ENDMDL
