MODEL 1
REMARK minimizedAffinity -3.14155459
REMARK minimizedRMSD -1
REMARK  0 active torsions:
REMARK  status: ('A' for Active; 'I' for Inactive)
ROOT
ATOM      1  C   UNL d   1       1.887   4.045   0.325  0.00  0.00     0.077 C 
ATOM      2  C1  UNL d   1       0.763   3.289  -0.320  0.00  0.00    -0.074 A 
ATOM      3  C2  UNL d   1      -0.009   3.872  -1.330  0.00  0.00    -0.005 A 
ATOM      4  C3  UNL d   1      -1.045   3.154  -1.927  0.00  0.00     0.006 A 
ATOM      5  C4  UNL d   1      -1.318   1.847  -1.522  0.00  0.00    -0.005 A 
ATOM      6  C5  UNL d   1      -0.556   1.247  -0.514  0.00  0.00    -0.074 A 
ATOM      7  C6  UNL d   1      -0.831  -0.160  -0.073  0.00  0.00     0.077 C 
ATOM      8  C7  UNL d   1       0.487   1.973   0.076  0.00  0.00    -0.001 A 
ENDROOT
TORSDOF 0
ENDMDL
