MODEL 1
REMARK minimizedAffinity 2.78029013
REMARK minimizedRMSD -1
REMARK  0 active torsions:
REMARK  status: ('A' for Active; 'I' for Inactive)
ROOT
ATOM      1  C   UNL d   1      -3.378   1.932  -3.444  0.00  0.00     0.077 C 
ATOM      2  C1  UNL d   1      -2.328   1.148  -2.715  0.00  0.00    -0.074 A 
ATOM      3  C2  UNL d   1      -1.377   0.396  -3.413  0.00  0.00    -0.005 A 
ATOM      4  C3  UNL d   1      -0.401  -0.320  -2.721  0.00  0.00     0.006 A 
ATOM      5  C4  UNL d   1      -0.366  -0.293  -1.326  0.00  0.00    -0.005 A 
ATOM      6  C5  UNL d   1      -1.308   0.453  -0.611  0.00  0.00    -0.074 A 
ATOM      7  C6  UNL d   1      -1.279   0.501   0.888  0.00  0.00     0.077 C 
ATOM      8  C7  UNL d   1      -2.282   1.176  -1.314  0.00  0.00    -0.001 A 
ENDROOT
TORSDOF 0
ENDMDL
