MODEL 1
REMARK minimizedAffinity -3.95006299
REMARK minimizedRMSD -1
REMARK  0 active torsions:
REMARK  status: ('A' for Active; 'I' for Inactive)
ROOT
ATOM      1  C   UNL d   1       0.990   2.446   0.174  0.00  0.00     0.077 C 
ATOM      2  C1  UNL d   1       0.460   1.068  -0.086  0.00  0.00    -0.074 A 
ATOM      3  C2  UNL d   1      -0.725   0.877  -0.805  0.00  0.00    -0.005 A 
ATOM      4  C3  UNL d   1      -1.201  -0.412  -1.047  0.00  0.00     0.006 A 
ATOM      5  C4  UNL d   1      -0.498  -1.521  -0.574  0.00  0.00    -0.005 A 
ATOM      6  C5  UNL d   1       0.689  -1.349   0.146  0.00  0.00    -0.074 A 
ATOM      7  C6  UNL d   1       1.461  -2.531   0.653  0.00  0.00     0.077 C 
ATOM      8  C7  UNL d   1       1.164  -0.052   0.379  0.00  0.00    -0.001 A 
ENDROOT
TORSDOF 0
ENDMDL
