MODEL 1
REMARK minimizedAffinity -3.34655333
REMARK minimizedRMSD -1
REMARK  0 active torsions:
REMARK  status: ('A' for Active; 'I' for Inactive)
ROOT
ATOM      1  C   UNL d   1      -2.618   2.247  -3.317  0.00  0.00     0.077 C 
ATOM      2  C1  UNL d   1      -1.841   1.922  -2.075  0.00  0.00    -0.074 A 
ATOM      3  C2  UNL d   1      -2.166   0.807  -1.295  0.00  0.00    -0.005 A 
ATOM      4  C3  UNL d   1      -1.429   0.513  -0.148  0.00  0.00     0.006 A 
ATOM      5  C4  UNL d   1      -0.361   1.329   0.230  0.00  0.00    -0.005 A 
ATOM      6  C5  UNL d   1      -0.022   2.447  -0.538  0.00  0.00    -0.074 A 
ATOM      7  C6  UNL d   1       1.128   3.329  -0.151  0.00  0.00     0.077 C 
ATOM      8  C7  UNL d   1      -0.763   2.733  -1.693  0.00  0.00    -0.001 A 
ENDROOT
TORSDOF 0
ENDMDL
