MODEL 1
REMARK minimizedAffinity -2.08832264
REMARK minimizedRMSD -1
REMARK  0 active torsions:
REMARK  status: ('A' for Active; 'I' for Inactive)
ROOT
ATOM      1  C   UNL d   1       3.991  -1.065   2.310  0.00  0.00     0.077 C 
ATOM      2  C1  UNL d   1       2.681  -1.393   1.657  0.00  0.00    -0.074 A 
ATOM      3  C2  UNL d   1       2.116  -2.667   1.779  0.00  0.00    -0.005 A 
ATOM      4  C3  UNL d   1       0.892  -2.955   1.175  0.00  0.00     0.006 A 
ATOM      5  C4  UNL d   1       0.222  -1.973   0.443  0.00  0.00    -0.005 A 
ATOM      6  C5  UNL d   1       0.771  -0.694   0.311  0.00  0.00    -0.074 A 
ATOM      7  C6  UNL d   1       0.059   0.375  -0.464  0.00  0.00     0.077 C 
ATOM      8  C7  UNL d   1       1.998  -0.411   0.927  0.00  0.00    -0.001 A 
ENDROOT
TORSDOF 0
ENDMDL
