MODEL 1
REMARK minimizedAffinity -3.49265718
REMARK minimizedRMSD -1
REMARK  0 active torsions:
REMARK  status: ('A' for Active; 'I' for Inactive)
ROOT
ATOM      1  C   UNL d   1       4.591   3.529  -0.674  0.00  0.00     0.077 C 
ATOM      2  C1  UNL d   1       3.207   2.984  -0.483  0.00  0.00    -0.074 A 
ATOM      3  C2  UNL d   1       2.945   1.619  -0.633  0.00  0.00    -0.005 A 
ATOM      4  C3  UNL d   1       1.654   1.125  -0.443  0.00  0.00     0.006 A 
ATOM      5  C4  UNL d   1       0.614   1.990  -0.102  0.00  0.00    -0.005 A 
ATOM      6  C5  UNL d   1       0.857   3.359   0.053  0.00  0.00    -0.074 A 
ATOM      7  C6  UNL d   1      -0.248   4.301   0.429  0.00  0.00     0.077 C 
ATOM      8  C7  UNL d   1       2.158   3.846  -0.133  0.00  0.00    -0.001 A 
ENDROOT
TORSDOF 0
ENDMDL
