MODEL 1
REMARK minimizedAffinity -4.75863838
REMARK minimizedRMSD -1
REMARK  0 active torsions:
REMARK  status: ('A' for Active; 'I' for Inactive)
ROOT
ATOM      1  C   UNL d   1      -0.726   3.687   0.410  0.00  0.00     0.077 C 
ATOM      2  C1  UNL d   1      -1.137   3.108  -0.911  0.00  0.00    -0.074 A 
ATOM      3  C2  UNL d   1      -1.980   1.994  -0.977  0.00  0.00    -0.005 A 
ATOM      4  C3  UNL d   1      -2.362   1.473  -2.213  0.00  0.00     0.006 A 
ATOM      5  C4  UNL d   1      -1.904   2.059  -3.394  0.00  0.00    -0.005 A 
ATOM      6  C5  UNL d   1      -1.061   3.174  -3.348  0.00  0.00    -0.074 A 
ATOM      7  C6  UNL d   1      -0.568   3.821  -4.608  0.00  0.00     0.077 C 
ATOM      8  C7  UNL d   1      -0.688   3.696  -2.102  0.00  0.00    -0.001 A 
ENDROOT
TORSDOF 0
ENDMDL
