MODEL 1
REMARK minimizedAffinity -2.02113271
REMARK minimizedRMSD -1
REMARK  0 active torsions:
REMARK  status: ('A' for Active; 'I' for Inactive)
ROOT
ATOM      1  C   UNL d   1      -4.490   1.909  -0.840  0.00  0.00     0.077 C 
ATOM      2  C1  UNL d   1      -3.231   1.448  -1.513  0.00  0.00    -0.074 A 
ATOM      3  C2  UNL d   1      -3.066   1.577  -2.896  0.00  0.00    -0.005 A 
ATOM      4  C3  UNL d   1      -1.886   1.153  -3.507  0.00  0.00     0.006 A 
ATOM      5  C4  UNL d   1      -0.861   0.596  -2.742  0.00  0.00    -0.005 A 
ATOM      6  C5  UNL d   1      -1.007   0.459  -1.358  0.00  0.00    -0.074 A 
ATOM      7  C6  UNL d   1       0.090  -0.128  -0.520  0.00  0.00     0.077 C 
ATOM      8  C7  UNL d   1      -2.193   0.895  -0.751  0.00  0.00    -0.001 A 
ENDROOT
TORSDOF 0
ENDMDL
