MODEL 1
REMARK minimizedAffinity -2.82056499
REMARK minimizedRMSD -1
REMARK  0 active torsions:
REMARK  status: ('A' for Active; 'I' for Inactive)
ROOT
ATOM      1  C   UNL d   1      -0.946  -2.138  -0.474  0.00  0.00     0.172 C 
ATOM      2  N   UNL d   1      -0.725  -0.758  -0.111  0.00  0.00    -0.070 N 
ATOM      3  C1  UNL d   1      -1.701   0.171   0.130  0.00  0.00    -0.004 A 
ATOM      4  C2  UNL d   1      -1.083   1.362   0.445  0.00  0.00    -0.047 A 
ATOM      5  C3  UNL d   1       0.314   1.141   0.391  0.00  0.00    -0.047 A 
ATOM      6  C4  UNL d   1       0.508  -0.180   0.045  0.00  0.00    -0.004 A 
ENDROOT
TORSDOF 0
ENDMDL
