MODEL 1
REMARK minimizedAffinity -3.02289772
REMARK minimizedRMSD -1
REMARK  0 active torsions:
REMARK  status: ('A' for Active; 'I' for Inactive)
ROOT
ATOM      1  C   UNL d   1      -0.066  -0.531   0.103  0.00  0.00     0.172 C 
ATOM      2  N   UNL d   1       0.401   0.785   0.469  0.00  0.00    -0.070 N 
ATOM      3  C1  UNL d   1       1.709   1.150   0.639  0.00  0.00    -0.004 A 
ATOM      4  C2  UNL d   1       1.735   2.484   0.983  0.00  0.00    -0.047 A 
ATOM      5  C3  UNL d   1       0.394   2.937   1.021  0.00  0.00    -0.047 A 
ATOM      6  C4  UNL d   1      -0.411   1.865   0.699  0.00  0.00    -0.004 A 
ENDROOT
TORSDOF 0
ENDMDL
