MODEL 1
REMARK minimizedAffinity 0.251836121
REMARK minimizedRMSD -1
REMARK  0 active torsions:
REMARK  status: ('A' for Active; 'I' for Inactive)
ROOT
ATOM      1  C   UNL d   1       1.764   0.464   0.447  0.00  0.00     0.172 C 
ATOM      2  N   UNL d   1       0.346   0.737   0.451  0.00  0.00    -0.070 N 
ATOM      3  C1  UNL d   1      -0.228   1.978   0.374  0.00  0.00    -0.004 A 
ATOM      4  C2  UNL d   1      -1.596   1.812   0.407  0.00  0.00    -0.047 A 
ATOM      5  C3  UNL d   1      -1.853   0.424   0.508  0.00  0.00    -0.047 A 
ATOM      6  C4  UNL d   1      -0.633  -0.218   0.533  0.00  0.00    -0.004 A 
ENDROOT
TORSDOF 0
ENDMDL
