MODEL 1
REMARK minimizedAffinity -2.80395293
REMARK minimizedRMSD -1
REMARK  0 active torsions:
REMARK  status: ('A' for Active; 'I' for Inactive)
ROOT
ATOM      1  C   UNL d   1       0.238  -0.700   0.009  0.00  0.00     0.172 C 
ATOM      2  N   UNL d   1       0.116   0.720   0.243  0.00  0.00    -0.070 N 
ATOM      3  C1  UNL d   1       1.062   1.515   0.832  0.00  0.00    -0.004 A 
ATOM      4  C2  UNL d   1       0.567   2.801   0.870  0.00  0.00    -0.047 A 
ATOM      5  C3  UNL d   1      -0.721   2.777   0.284  0.00  0.00    -0.047 A 
ATOM      6  C4  UNL d   1      -0.975   1.476  -0.096  0.00  0.00    -0.004 A 
ENDROOT
TORSDOF 0
ENDMDL
