MODEL 1
REMARK minimizedAffinity -2.95967317
REMARK minimizedRMSD -1
REMARK  0 active torsions:
REMARK  status: ('A' for Active; 'I' for Inactive)
ROOT
ATOM      1  C   UNL d   1      -0.150  -1.252   0.315  0.00  0.00     0.172 C 
ATOM      2  N   UNL d   1      -0.433   0.163   0.367  0.00  0.00    -0.070 N 
ATOM      3  C1  UNL d   1       0.492   1.156   0.549  0.00  0.00    -0.004 A 
ATOM      4  C2  UNL d   1      -0.176   2.361   0.538  0.00  0.00    -0.047 A 
ATOM      5  C3  UNL d   1      -1.549   2.083   0.344  0.00  0.00    -0.047 A 
ATOM      6  C4  UNL d   1      -1.681   0.715   0.241  0.00  0.00    -0.004 A 
ENDROOT
TORSDOF 0
ENDMDL
