MODEL 1
REMARK minimizedAffinity -2.82751513
REMARK minimizedRMSD -1
REMARK  0 active torsions:
REMARK  status: ('A' for Active; 'I' for Inactive)
ROOT
ATOM      1  C   UNL d   1      -0.288  -1.382  -0.165  0.00  0.00     0.172 C 
ATOM      2  N   UNL d   1      -0.462   0.004   0.204  0.00  0.00    -0.070 N 
ATOM      3  C1  UNL d   1      -1.602   0.554   0.725  0.00  0.00    -0.004 A 
ATOM      4  C2  UNL d   1      -1.364   1.894   0.941  0.00  0.00    -0.047 A 
ATOM      5  C3  UNL d   1      -0.035   2.159   0.534  0.00  0.00    -0.047 A 
ATOM      6  C4  UNL d   1       0.501   0.971   0.082  0.00  0.00    -0.004 A 
ENDROOT
TORSDOF 0
ENDMDL
