MODEL 1
REMARK minimizedAffinity -1.28361166
REMARK minimizedRMSD -1
REMARK  0 active torsions:
REMARK  status: ('A' for Active; 'I' for Inactive)
ROOT
ATOM      1  C   UNL d   1      -0.107   3.034   0.394  0.00  0.00     0.172 C 
ATOM      2  N   UNL d   1      -0.384   1.616   0.402  0.00  0.00    -0.070 N 
ATOM      3  C1  UNL d   1      -1.516   1.027   0.898  0.00  0.00    -0.004 A 
ATOM      4  C2  UNL d   1      -1.397  -0.334   0.718  0.00  0.00    -0.047 A 
ATOM      5  C3  UNL d   1      -0.149  -0.571   0.093  0.00  0.00    -0.047 A 
ATOM      6  C4  UNL d   1       0.457   0.654  -0.091  0.00  0.00    -0.004 A 
ENDROOT
TORSDOF 0
ENDMDL
