MODEL 1
REMARK minimizedAffinity -3.09680748
REMARK minimizedRMSD -1
REMARK  0 active torsions:
REMARK  status: ('A' for Active; 'I' for Inactive)
ROOT
ATOM      1  C   UNL d   1       0.272  -1.141  -0.274  0.00  0.00     0.172 C 
ATOM      2  N   UNL d   1       0.187   0.235   0.156  0.00  0.00    -0.070 N 
ATOM      3  C1  UNL d   1       1.249   1.073   0.366  0.00  0.00    -0.004 A 
ATOM      4  C2  UNL d   1       0.751   2.293   0.767  0.00  0.00    -0.047 A 
ATOM      5  C3  UNL d   1      -0.660   2.185   0.800  0.00  0.00    -0.047 A 
ATOM      6  C4  UNL d   1      -0.982   0.900   0.417  0.00  0.00    -0.004 A 
ENDROOT
TORSDOF 0
ENDMDL
