MODEL 1
REMARK minimizedAffinity 0.45342055
REMARK minimizedRMSD -1
REMARK  0 active torsions:
REMARK  status: ('A' for Active; 'I' for Inactive)
ROOT
ATOM      1  C   UNL d   1      -0.151  -1.127   0.011  0.00  0.00     0.172 C 
ATOM      2  N   UNL d   1      -0.510   0.226   0.365  0.00  0.00    -0.070 N 
ATOM      3  C1  UNL d   1       0.341   1.170   0.875  0.00  0.00    -0.004 A 
ATOM      4  C2  UNL d   1      -0.383   2.325   1.077  0.00  0.00    -0.047 A 
ATOM      5  C3  UNL d   1      -1.715   2.066   0.676  0.00  0.00    -0.047 A 
ATOM      6  C4  UNL d   1      -1.766   0.759   0.240  0.00  0.00    -0.004 A 
ENDROOT
TORSDOF 0
ENDMDL
