MODEL 1
REMARK minimizedAffinity -2.4662466
REMARK minimizedRMSD -1
REMARK  0 active torsions:
REMARK  status: ('A' for Active; 'I' for Inactive)
ROOT
ATOM      1  C   UNL d   1       2.420   0.396   0.411  0.00  0.00     0.172 C 
ATOM      2  N   UNL d   1       1.021   0.042   0.462  0.00  0.00    -0.070 N 
ATOM      3  C1  UNL d   1      -0.024   0.925   0.514  0.00  0.00    -0.004 A 
ATOM      4  C2  UNL d   1      -1.192   0.194   0.550  0.00  0.00    -0.047 A 
ATOM      5  C3  UNL d   1      -0.837  -1.175   0.519  0.00  0.00    -0.047 A 
ATOM      6  C4  UNL d   1       0.540  -1.241   0.465  0.00  0.00    -0.004 A 
ENDROOT
TORSDOF 0
ENDMDL
