MODEL 1
REMARK minimizedAffinity -3.62095857
REMARK minimizedRMSD -1
REMARK  0 active torsions:
REMARK  status: ('A' for Active; 'I' for Inactive)
ROOT
ATOM      1  C   UNL d   1       0.738  -0.997  -0.193  0.00  0.00     0.172 C 
ATOM      2  N   UNL d   1       0.968   0.397   0.109  0.00  0.00    -0.070 N 
ATOM      3  C1  UNL d   1       0.030   1.392   0.048  0.00  0.00    -0.004 A 
ATOM      4  C2  UNL d   1       0.644   2.572   0.410  0.00  0.00    -0.047 A 
ATOM      5  C3  UNL d   1       1.997   2.276   0.696  0.00  0.00    -0.047 A 
ATOM      6  C4  UNL d   1       2.171   0.922   0.502  0.00  0.00    -0.004 A 
ENDROOT
TORSDOF 0
ENDMDL
