MODEL 1
REMARK minimizedAffinity -2.59268165
REMARK minimizedRMSD -1
REMARK  0 active torsions:
REMARK  status: ('A' for Active; 'I' for Inactive)
ROOT
ATOM      1  C   UNL d   1      -0.299   2.773   0.820  0.00  0.00     0.172 C 
ATOM      2  N   UNL d   1      -0.040   1.361   0.665  0.00  0.00    -0.070 N 
ATOM      3  C1  UNL d   1       1.184   0.757   0.772  0.00  0.00    -0.004 A 
ATOM      4  C2  UNL d   1       1.009  -0.593   0.558  0.00  0.00    -0.047 A 
ATOM      5  C3  UNL d   1      -0.368  -0.808   0.313  0.00  0.00    -0.047 A 
ATOM      6  C4  UNL d   1      -0.994   0.418   0.385  0.00  0.00    -0.004 A 
ENDROOT
TORSDOF 0
ENDMDL
