MODEL 1
REMARK minimizedAffinity -1.96503818
REMARK minimizedRMSD -1
REMARK  0 active torsions:
REMARK  status: ('A' for Active; 'I' for Inactive)
ROOT
ATOM      1  C   UNL d   1      -0.177  -0.654  -0.038  0.00  0.00     0.172 C 
ATOM      2  N   UNL d   1      -0.188   0.761   0.252  0.00  0.00    -0.070 N 
ATOM      3  C1  UNL d   1       0.800   1.450   0.903  0.00  0.00    -0.004 A 
ATOM      4  C2  UNL d   1       0.413   2.771   0.980  0.00  0.00    -0.047 A 
ATOM      5  C3  UNL d   1      -0.852   2.879   0.354  0.00  0.00    -0.047 A 
ATOM      6  C4  UNL d   1      -1.200   1.620  -0.087  0.00  0.00    -0.004 A 
ENDROOT
TORSDOF 0
ENDMDL
