MODEL 1
REMARK minimizedAffinity -0.584952176
REMARK minimizedRMSD -1
REMARK  0 active torsions:
REMARK  status: ('A' for Active; 'I' for Inactive)
ROOT
ATOM      1  C   UNL d   1      -0.148  -1.178  -0.390  0.00  0.00     0.172 C 
ATOM      2  N   UNL d   1      -0.448   0.172   0.024  0.00  0.00    -0.070 N 
ATOM      3  C1  UNL d   1      -1.655   0.803  -0.124  0.00  0.00    -0.004 A 
ATOM      4  C2  UNL d   1      -1.533   2.074   0.397  0.00  0.00    -0.047 A 
ATOM      5  C3  UNL d   1      -0.208   2.211   0.872  0.00  0.00    -0.047 A 
ATOM      6  C4  UNL d   1       0.442   1.019   0.629  0.00  0.00    -0.004 A 
ENDROOT
TORSDOF 0
ENDMDL
