MODEL 1
REMARK minimizedAffinity -2.95662332
REMARK minimizedRMSD -1
REMARK  0 active torsions:
REMARK  status: ('A' for Active; 'I' for Inactive)
ROOT
ATOM      1  C   UNL d   1       0.356  -2.916  -2.128  0.00  0.00     0.172 C 
ATOM      2  N   UNL d   1      -0.151  -1.877  -1.263  0.00  0.00    -0.070 N 
ATOM      3  C1  UNL d   1      -0.454  -0.597  -1.645  0.00  0.00    -0.004 A 
ATOM      4  C2  UNL d   1      -0.907   0.080  -0.533  0.00  0.00    -0.047 A 
ATOM      5  C3  UNL d   1      -0.874  -0.825   0.555  0.00  0.00    -0.047 A 
ATOM      6  C4  UNL d   1      -0.403  -2.028   0.075  0.00  0.00    -0.004 A 
ENDROOT
TORSDOF 0
ENDMDL
