MODEL 1
REMARK minimizedAffinity -2.37954354
REMARK minimizedRMSD -1
REMARK  0 active torsions:
REMARK  status: ('A' for Active; 'I' for Inactive)
ROOT
ATOM      1  C   UNL d   1      -0.268  -0.571   0.375  0.00  0.00     0.172 C 
ATOM      2  N   UNL d   1      -0.319  -1.799  -0.383  0.00  0.00    -0.070 N 
ATOM      3  C1  UNL d   1       0.455  -2.907  -0.161  0.00  0.00    -0.004 A 
ATOM      4  C2  UNL d   1       0.105  -3.860  -1.093  0.00  0.00    -0.047 A 
ATOM      5  C3  UNL d   1      -0.914  -3.305  -1.904  0.00  0.00    -0.047 A 
ATOM      6  C4  UNL d   1      -1.156  -2.028  -1.443  0.00  0.00    -0.004 A 
ENDROOT
TORSDOF 0
ENDMDL
