MODEL 1
REMARK minimizedAffinity 14.6468639
REMARK minimizedRMSD -1
REMARK  1 active torsions:
REMARK  status: ('A' for Active; 'I' for Inactive)
REMARK    1  A    between atoms: C1_2  and  C2_3 
ROOT
ATOM      1  C2  UNL d   1       2.640   0.674   0.290  0.00  0.00    -0.073 A 
ATOM      2  C3  UNL d   1       2.447  -0.678  -0.016  0.00  0.00    -0.002 A 
ATOM      3  C4  UNL d   1       1.877  -1.050  -1.234  0.00  0.00     0.004 A 
ATOM      4  C5  UNL d   1       1.501  -0.077  -2.160  0.00  0.00    -0.004 A 
ATOM      5  C6  UNL d   1       1.697   1.278  -1.877  0.00  0.00    -0.075 A 
ATOM      6  C7  UNL d   1       1.296   2.338  -2.861  0.00  0.00     0.076 C 
ATOM      7  C8  UNL d   1       2.268   1.645  -0.651  0.00  0.00     0.001 A 
ENDROOT
BRANCH   1   8
ATOM      8  C1  UNL d   1       3.261   1.081   1.602  0.00  0.00     0.053 C 
ATOM      9  C   UNL d   1       2.484   2.199   2.278  0.00  0.00     0.018 C 
ENDBRANCH   1   8
TORSDOF 1
ENDMDL
