MODEL 1
REMARK minimizedAffinity 9.77160931
REMARK minimizedRMSD -1
REMARK  1 active torsions:
REMARK  status: ('A' for Active; 'I' for Inactive)
REMARK    1  A    between atoms: C1_2  and  C2_3 
ROOT
ATOM      1  C2  UNL d   1       3.390   3.261   1.790  0.00  0.00    -0.073 A 
ATOM      2  C3  UNL d   1       4.130   2.610   0.797  0.00  0.00    -0.002 A 
ATOM      3  C4  UNL d   1       3.843   1.288   0.456  0.00  0.00     0.004 A 
ATOM      4  C5  UNL d   1       2.810   0.606   1.099  0.00  0.00    -0.004 A 
ATOM      5  C6  UNL d   1       2.052   1.243   2.086  0.00  0.00    -0.075 A 
ATOM      6  C7  UNL d   1       0.939   0.523   2.789  0.00  0.00     0.076 C 
ATOM      7  C8  UNL d   1       2.348   2.570   2.425  0.00  0.00     0.001 A 
ENDROOT
BRANCH   1   8
ATOM      8  C1  UNL d   1       3.693   4.691   2.157  0.00  0.00     0.053 C 
ATOM      9  C   UNL d   1       5.168   5.022   1.993  0.00  0.00     0.018 C 
ENDBRANCH   1   8
TORSDOF 1
ENDMDL
