MODEL 1
REMARK minimizedAffinity 17.3502293
REMARK minimizedRMSD -1
REMARK  1 active torsions:
REMARK  status: ('A' for Active; 'I' for Inactive)
REMARK    1  A    between atoms: C1_2  and  C2_3 
ROOT
ATOM      1  C2  UNL d   1      -3.233  -5.002   1.706  0.00  0.00    -0.073 A 
ATOM      2  C3  UNL d   1      -4.016  -4.772   0.570  0.00  0.00    -0.002 A 
ATOM      3  C4  UNL d   1      -5.393  -4.582   0.689  0.00  0.00     0.004 A 
ATOM      4  C5  UNL d   1      -6.000  -4.613   1.945  0.00  0.00    -0.004 A 
ATOM      5  C6  UNL d   1      -5.232  -4.830   3.094  0.00  0.00    -0.075 A 
ATOM      6  C7  UNL d   1      -5.869  -4.868   4.452  0.00  0.00     0.076 C 
ATOM      7  C8  UNL d   1      -3.850  -5.022   2.965  0.00  0.00     0.001 A 
ENDROOT
BRANCH   1   8
ATOM      8  C1  UNL d   1      -1.744  -5.201   1.583  0.00  0.00     0.053 C 
ATOM      9  C   UNL d   1      -1.375  -5.975   0.327  0.00  0.00     0.018 C 
ENDBRANCH   1   8
TORSDOF 1
ENDMDL
