MODEL 1
REMARK minimizedAffinity 8.71442127
REMARK minimizedRMSD -1
REMARK  1 active torsions:
REMARK  status: ('A' for Active; 'I' for Inactive)
REMARK    1  A    between atoms: C1_2  and  C2_3 
ROOT
ATOM      1  C2  UNL d   1       0.914  -2.970  -1.137  0.00  0.00    -0.073 A 
ATOM      2  C3  UNL d   1       0.764  -4.353  -1.290  0.00  0.00    -0.002 A 
ATOM      3  C4  UNL d   1      -0.395  -4.877  -1.866  0.00  0.00     0.004 A 
ATOM      4  C5  UNL d   1      -1.410  -4.024  -2.299  0.00  0.00    -0.004 A 
ATOM      5  C6  UNL d   1      -1.273  -2.639  -2.166  0.00  0.00    -0.075 A 
ATOM      6  C7  UNL d   1      -2.357  -1.708  -2.626  0.00  0.00     0.076 C 
ATOM      7  C8  UNL d   1      -0.108  -2.121  -1.585  0.00  0.00     0.001 A 
ENDROOT
BRANCH   1   8
ATOM      8  C1  UNL d   1       2.166  -2.400  -0.522  0.00  0.00     0.053 C 
ATOM      9  C   UNL d   1       3.272  -3.438  -0.414  0.00  0.00     0.018 C 
ENDBRANCH   1   8
TORSDOF 1
ENDMDL
