MODEL 1
REMARK minimizedAffinity 19.5222607
REMARK minimizedRMSD -1
REMARK  1 active torsions:
REMARK  status: ('A' for Active; 'I' for Inactive)
REMARK    1  A    between atoms: C1_2  and  C2_3 
ROOT
ATOM      1  C2  UNL d   1      -5.795  -0.749   3.766  0.00  0.00    -0.073 A 
ATOM      2  C3  UNL d   1      -5.851  -1.628   4.854  0.00  0.00    -0.002 A 
ATOM      3  C4  UNL d   1      -5.956  -3.003   4.643  0.00  0.00     0.004 A 
ATOM      4  C5  UNL d   1      -6.000  -3.514   3.346  0.00  0.00    -0.004 A 
ATOM      5  C6  UNL d   1      -5.933  -2.652   2.246  0.00  0.00    -0.075 A 
ATOM      6  C7  UNL d   1      -5.981  -3.185   0.844  0.00  0.00     0.076 C 
ATOM      7  C8  UNL d   1      -5.830  -1.272   2.466  0.00  0.00     0.001 A 
ENDROOT
BRANCH   1   8
ATOM      8  C1  UNL d   1      -5.675   0.737   3.989  0.00  0.00     0.053 C 
ATOM      9  C   UNL d   1      -4.423   1.097   4.772  0.00  0.00     0.018 C 
ENDBRANCH   1   8
TORSDOF 1
ENDMDL
