MODEL 1
REMARK minimizedAffinity 11.2323952
REMARK minimizedRMSD -1
REMARK  1 active torsions:
REMARK  status: ('A' for Active; 'I' for Inactive)
REMARK    1  A    between atoms: C1_2  and  C2_3 
ROOT
ATOM      1  C2  UNL d   1       0.344  -2.046  -1.768  0.00  0.00    -0.073 A 
ATOM      2  C3  UNL d   1      -0.872  -1.371  -1.920  0.00  0.00    -0.002 A 
ATOM      3  C4  UNL d   1      -2.022  -2.066  -2.296  0.00  0.00     0.004 A 
ATOM      4  C5  UNL d   1      -1.969  -3.442  -2.517  0.00  0.00    -0.004 A 
ATOM      5  C6  UNL d   1      -0.766  -4.137  -2.359  0.00  0.00    -0.075 A 
ATOM      6  C7  UNL d   1      -0.692  -5.617  -2.595  0.00  0.00     0.076 C 
ATOM      7  C8  UNL d   1       0.385  -3.431  -1.983  0.00  0.00     0.001 A 
ENDROOT
BRANCH   1   8
ATOM      8  C1  UNL d   1       1.587  -1.300  -1.355  0.00  0.00     0.053 C 
ATOM      9  C   UNL d   1       1.605   0.121  -1.896  0.00  0.00     0.018 C 
ENDBRANCH   1   8
TORSDOF 1
ENDMDL
