MODEL 1
REMARK minimizedAffinity 11.3340607
REMARK minimizedRMSD -1
REMARK  1 active torsions:
REMARK  status: ('A' for Active; 'I' for Inactive)
REMARK    1  A    between atoms: C1_2  and  C2_3 
ROOT
ATOM      1  C2  UNL d   1       4.181   3.504   2.083  0.00  0.00    -0.073 A 
ATOM      2  C3  UNL d   1       3.176   3.482   3.057  0.00  0.00    -0.002 A 
ATOM      3  C4  UNL d   1       2.331   2.377   3.173  0.00  0.00     0.004 A 
ATOM      4  C5  UNL d   1       2.486   1.283   2.322  0.00  0.00    -0.004 A 
ATOM      5  C6  UNL d   1       3.492   1.281   1.350  0.00  0.00    -0.075 A 
ATOM      6  C7  UNL d   1       3.670   0.113   0.426  0.00  0.00     0.076 C 
ATOM      7  C8  UNL d   1       4.335   2.395   1.239  0.00  0.00     0.001 A 
ENDROOT
BRANCH   1   8
ATOM      8  C1  UNL d   1       5.100   4.692   1.959  0.00  0.00     0.053 C 
ATOM      9  C   UNL d   1       4.331   5.999   1.850  0.00  0.00     0.018 C 
ENDBRANCH   1   8
TORSDOF 1
ENDMDL
