MODEL 1
REMARK minimizedAffinity 8.54037666
REMARK minimizedRMSD -1
REMARK  1 active torsions:
REMARK  status: ('A' for Active; 'I' for Inactive)
REMARK    1  A    between atoms: C1_2  and  C2_3 
ROOT
ATOM      1  C2  UNL d   1       0.341  -2.605  -1.869  0.00  0.00    -0.073 A 
ATOM      2  C3  UNL d   1       0.163  -3.981  -1.687  0.00  0.00    -0.002 A 
ATOM      3  C4  UNL d   1      -0.979  -4.614  -2.180  0.00  0.00     0.004 A 
ATOM      4  C5  UNL d   1      -1.948  -3.882  -2.865  0.00  0.00    -0.004 A 
ATOM      5  C6  UNL d   1      -1.781  -2.508  -3.068  0.00  0.00    -0.075 A 
ATOM      6  C7  UNL d   1      -2.816  -1.705  -3.801  0.00  0.00     0.076 C 
ATOM      7  C8  UNL d   1      -0.634  -1.878  -2.567  0.00  0.00     0.001 A 
ENDROOT
BRANCH   1   8
ATOM      8  C1  UNL d   1       1.575  -1.917  -1.344  0.00  0.00     0.053 C 
ATOM      9  C   UNL d   1       2.265  -2.732  -0.261  0.00  0.00     0.018 C 
ENDBRANCH   1   8
TORSDOF 1
ENDMDL
