MODEL 1
REMARK minimizedAffinity 1.92974353
REMARK minimizedRMSD -1
REMARK  1 active torsions:
REMARK  status: ('A' for Active; 'I' for Inactive)
REMARK    1  A    between atoms: C1_2  and  C2_3 
ROOT
ATOM      1  C2  UNL d   1       0.910  -2.347  -1.882  0.00  0.00    -0.073 A 
ATOM      2  C3  UNL d   1       1.855  -2.595  -0.880  0.00  0.00    -0.002 A 
ATOM      3  C4  UNL d   1       2.753  -1.599  -0.495  0.00  0.00     0.004 A 
ATOM      4  C5  UNL d   1       2.711  -0.344  -1.102  0.00  0.00    -0.004 A 
ATOM      5  C6  UNL d   1       1.766  -0.072  -2.096  0.00  0.00    -0.075 A 
ATOM      6  C7  UNL d   1       1.709   1.273  -2.760  0.00  0.00     0.076 C 
ATOM      7  C8  UNL d   1       0.870  -1.079  -2.480  0.00  0.00     0.001 A 
ENDROOT
BRANCH   1   8
ATOM      8  C1  UNL d   1      -0.065  -3.417  -2.297  0.00  0.00     0.053 C 
ATOM      9  C   UNL d   1      -1.508  -2.981  -2.101  0.00  0.00     0.018 C 
ENDBRANCH   1   8
TORSDOF 1
ENDMDL
