MODEL 1
REMARK minimizedAffinity -3.96973681
REMARK minimizedRMSD -1
REMARK  1 active torsions:
REMARK  status: ('A' for Active; 'I' for Inactive)
REMARK    1  A    between atoms: C1_2  and  C2_3 
ROOT
ATOM      1  C2  UNL d   1       0.791  -1.490  -0.532  0.00  0.00    -0.073 A 
ATOM      2  C3  UNL d   1       1.687  -1.403  -1.603  0.00  0.00    -0.002 A 
ATOM      3  C4  UNL d   1       2.295  -0.187  -1.917  0.00  0.00     0.004 A 
ATOM      4  C5  UNL d   1       2.018   0.952  -1.160  0.00  0.00    -0.004 A 
ATOM      5  C6  UNL d   1       1.134   0.883  -0.079  0.00  0.00    -0.075 A 
ATOM      6  C7  UNL d   1       0.825   2.099   0.744  0.00  0.00     0.076 C 
ATOM      7  C8  UNL d   1       0.526  -0.342   0.228  0.00  0.00     0.001 A 
ENDROOT
BRANCH   1   8
ATOM      8  C1  UNL d   1       0.137  -2.803  -0.185  0.00  0.00     0.053 C 
ATOM      9  C   UNL d   1      -1.002  -3.141  -1.134  0.00  0.00     0.018 C 
ENDBRANCH   1   8
TORSDOF 1
ENDMDL
