MODEL 1
REMARK minimizedAffinity -1.75891876
REMARK minimizedRMSD -1
REMARK  1 active torsions:
REMARK  status: ('A' for Active; 'I' for Inactive)
REMARK    1  A    between atoms: C1_2  and  C2_3 
ROOT
ATOM      1  C2  UNL d   1       0.354  -0.921  -0.128  0.00  0.00    -0.073 A 
ATOM      2  C3  UNL d   1      -0.346  -0.902   1.083  0.00  0.00    -0.002 A 
ATOM      3  C4  UNL d   1      -0.861   0.296   1.580  0.00  0.00     0.004 A 
ATOM      4  C5  UNL d   1      -0.688   1.483   0.870  0.00  0.00    -0.004 A 
ATOM      5  C6  UNL d   1      -0.001   1.482  -0.349  0.00  0.00    -0.075 A 
ATOM      6  C7  UNL d   1       0.196   2.752  -1.124  0.00  0.00     0.076 C 
ATOM      7  C8  UNL d   1       0.516   0.276  -0.840  0.00  0.00     0.001 A 
ENDROOT
BRANCH   1   8
ATOM      8  C1  UNL d   1       0.907  -2.213  -0.672  0.00  0.00     0.053 C 
ATOM      9  C   UNL d   1       0.243  -2.611  -1.982  0.00  0.00     0.018 C 
ENDBRANCH   1   8
TORSDOF 1
ENDMDL
