MODEL 1
REMARK minimizedAffinity -4.16485119
REMARK minimizedRMSD -1
REMARK  1 active torsions:
REMARK  status: ('A' for Active; 'I' for Inactive)
REMARK    1  A    between atoms: C1_2  and  C2_3 
ROOT
ATOM      1  C2  UNL d   1      -0.615  -0.423   0.378  0.00  0.00    -0.073 A 
ATOM      2  C3  UNL d   1       0.715  -0.024   0.203  0.00  0.00    -0.002 A 
ATOM      3  C4  UNL d   1       1.485  -0.571  -0.825  0.00  0.00     0.004 A 
ATOM      4  C5  UNL d   1       0.932  -1.515  -1.690  0.00  0.00    -0.004 A 
ATOM      5  C6  UNL d   1      -0.399  -1.917  -1.538  0.00  0.00    -0.075 A 
ATOM      6  C7  UNL d   1      -1.008  -2.934  -2.459  0.00  0.00     0.076 C 
ATOM      7  C8  UNL d   1      -1.165  -1.366  -0.502  0.00  0.00     0.001 A 
ENDROOT
BRANCH   1   8
ATOM      8  C1  UNL d   1      -1.452   0.170   1.482  0.00  0.00     0.053 C 
ATOM      9  C   UNL d   1      -0.960   1.549   1.894  0.00  0.00     0.018 C 
ENDBRANCH   1   8
TORSDOF 1
ENDMDL
