MODEL 1
REMARK minimizedAffinity -1.16299796
REMARK minimizedRMSD -1
REMARK  1 active torsions:
REMARK  status: ('A' for Active; 'I' for Inactive)
REMARK    1  A    between atoms: C1_2  and  C2_3 
ROOT
ATOM      1  C2  UNL d   1      -0.540  -0.578   0.446  0.00  0.00    -0.073 A 
ATOM      2  C3  UNL d   1       0.432   0.194  -0.201  0.00  0.00    -0.002 A 
ATOM      3  C4  UNL d   1       1.077  -0.294  -1.337  0.00  0.00     0.004 A 
ATOM      4  C5  UNL d   1       0.754  -1.553  -1.843  0.00  0.00    -0.004 A 
ATOM      5  C6  UNL d   1      -0.222  -2.335  -1.217  0.00  0.00    -0.075 A 
ATOM      6  C7  UNL d   1      -0.580  -3.692  -1.746  0.00  0.00     0.076 C 
ATOM      7  C8  UNL d   1      -0.864  -1.839  -0.074  0.00  0.00     0.001 A 
ENDROOT
BRANCH   1   8
ATOM      8  C1  UNL d   1      -1.244  -0.053   1.671  0.00  0.00     0.053 C 
ATOM      9  C   UNL d   1      -0.755   1.333   2.060  0.00  0.00     0.018 C 
ENDBRANCH   1   8
TORSDOF 1
ENDMDL
