MODEL 1
REMARK minimizedAffinity -1.00709331
REMARK minimizedRMSD -1
REMARK  1 active torsions:
REMARK  status: ('A' for Active; 'I' for Inactive)
REMARK    1  A    between atoms: C1_2  and  C2_3 
ROOT
ATOM      1  C2  UNL d   1       0.634  -0.843  -0.590  0.00  0.00    -0.073 A 
ATOM      2  C3  UNL d   1       0.896   0.159  -1.531  0.00  0.00    -0.002 A 
ATOM      3  C4  UNL d   1       0.461   1.466  -1.309  0.00  0.00     0.004 A 
ATOM      4  C5  UNL d   1      -0.233   1.786  -0.142  0.00  0.00    -0.004 A 
ATOM      5  C6  UNL d   1      -0.494   0.801   0.816  0.00  0.00    -0.075 A 
ATOM      6  C7  UNL d   1      -1.242   1.128   2.075  0.00  0.00     0.076 C 
ATOM      7  C8  UNL d   1      -0.056  -0.510   0.584  0.00  0.00     0.001 A 
ENDROOT
BRANCH   1   8
ATOM      8  C1  UNL d   1       1.108  -2.254  -0.822  0.00  0.00     0.053 C 
ATOM      9  C   UNL d   1       0.403  -2.905  -2.002  0.00  0.00     0.018 C 
ENDBRANCH   1   8
TORSDOF 1
ENDMDL
