MODEL 1
REMARK minimizedAffinity -2.51818967
REMARK minimizedRMSD -1
REMARK  1 active torsions:
REMARK  status: ('A' for Active; 'I' for Inactive)
REMARK    1  A    between atoms: C1_2  and  C2_3 
ROOT
ATOM      1  C2  UNL d   1       0.427   0.258  -0.884  0.00  0.00    -0.073 A 
ATOM      2  C3  UNL d   1      -0.178   1.275  -1.632  0.00  0.00    -0.002 A 
ATOM      3  C4  UNL d   1      -1.135   2.106  -1.048  0.00  0.00     0.004 A 
ATOM      4  C5  UNL d   1      -1.492   1.933   0.290  0.00  0.00    -0.004 A 
ATOM      5  C6  UNL d   1      -0.890   0.930   1.056  0.00  0.00    -0.075 A 
ATOM      6  C7  UNL d   1      -1.265   0.729   2.496  0.00  0.00     0.076 C 
ATOM      7  C8  UNL d   1       0.068   0.098   0.462  0.00  0.00     0.001 A 
ENDROOT
BRANCH   1   8
ATOM      8  C1  UNL d   1       1.465  -0.637  -1.509  0.00  0.00     0.053 C 
ATOM      9  C   UNL d   1       1.011  -2.088  -1.561  0.00  0.00     0.018 C 
ENDBRANCH   1   8
TORSDOF 1
ENDMDL
