MODEL 1
REMARK minimizedAffinity 2.32813907
REMARK minimizedRMSD -1
REMARK  1 active torsions:
REMARK  status: ('A' for Active; 'I' for Inactive)
REMARK    1  A    between atoms: C1_2  and  C2_3 
ROOT
ATOM      1  C2  UNL d   1       0.324  -0.332  -0.495  0.00  0.00    -0.073 A 
ATOM      2  C3  UNL d   1       0.457   0.818  -1.281  0.00  0.00    -0.002 A 
ATOM      3  C4  UNL d   1      -0.038   2.042  -0.828  0.00  0.00     0.004 A 
ATOM      4  C5  UNL d   1      -0.663   2.130   0.415  0.00  0.00    -0.004 A 
ATOM      5  C6  UNL d   1      -0.795   0.994   1.221  0.00  0.00    -0.075 A 
ATOM      6  C7  UNL d   1      -1.467   1.071   2.560  0.00  0.00     0.076 C 
ATOM      7  C8  UNL d   1      -0.298  -0.232   0.758  0.00  0.00     0.001 A 
ENDROOT
BRANCH   1   8
ATOM      8  C1  UNL d   1       0.862  -1.655  -0.976  0.00  0.00     0.053 C 
ATOM      9  C   UNL d   1       0.095  -2.178  -2.180  0.00  0.00     0.018 C 
ENDBRANCH   1   8
TORSDOF 1
ENDMDL
