MODEL 1
REMARK minimizedAffinity -4.59579659
REMARK minimizedRMSD -1
REMARK  1 active torsions:
REMARK  status: ('A' for Active; 'I' for Inactive)
REMARK    1  A    between atoms: C1_2  and  C2_3 
ROOT
ATOM      1  C2  UNL d   1       0.426  -0.886  -0.335  0.00  0.00    -0.073 A 
ATOM      2  C3  UNL d   1       0.420  -1.793  -1.401  0.00  0.00    -0.002 A 
ATOM      3  C4  UNL d   1       0.434  -1.332  -2.718  0.00  0.00     0.004 A 
ATOM      4  C5  UNL d   1       0.461   0.037  -2.983  0.00  0.00    -0.004 A 
ATOM      5  C6  UNL d   1       0.479   0.958  -1.931  0.00  0.00    -0.075 A 
ATOM      6  C7  UNL d   1       0.505   2.435  -2.199  0.00  0.00     0.076 C 
ATOM      7  C8  UNL d   1       0.462   0.488  -0.611  0.00  0.00     0.001 A 
ENDROOT
BRANCH   1   8
ATOM      8  C1  UNL d   1       0.417  -1.379   1.089  0.00  0.00     0.053 C 
ATOM      9  C   UNL d   1      -0.669  -0.710   1.917  0.00  0.00     0.018 C 
ENDBRANCH   1   8
TORSDOF 1
ENDMDL
