MODEL 1
REMARK minimizedAffinity -4.13214922
REMARK minimizedRMSD -1
REMARK  1 active torsions:
REMARK  status: ('A' for Active; 'I' for Inactive)
REMARK    1  A    between atoms: C1_2  and  C2_3 
ROOT
ATOM      1  C2  UNL d   1      -0.526   2.347   0.545  0.00  0.00    -0.073 A 
ATOM      2  C3  UNL d   1      -1.083   2.041   1.791  0.00  0.00    -0.002 A 
ATOM      3  C4  UNL d   1      -1.027   0.738   2.288  0.00  0.00     0.004 A 
ATOM      4  C5  UNL d   1      -0.408  -0.269   1.547  0.00  0.00    -0.004 A 
ATOM      5  C6  UNL d   1       0.165   0.020   0.305  0.00  0.00    -0.075 A 
ATOM      6  C7  UNL d   1       0.833  -1.053  -0.505  0.00  0.00     0.076 C 
ATOM      7  C8  UNL d   1       0.102   1.330  -0.188  0.00  0.00     0.001 A 
ENDROOT
BRANCH   1   8
ATOM      8  C1  UNL d   1      -0.580   3.754   0.007  0.00  0.00     0.053 C 
ATOM      9  C   UNL d   1      -0.161   3.823  -1.453  0.00  0.00     0.018 C 
ENDBRANCH   1   8
TORSDOF 1
ENDMDL
