MODEL 1
REMARK minimizedAffinity -3.5550127
REMARK minimizedRMSD -1
REMARK  1 active torsions:
REMARK  status: ('A' for Active; 'I' for Inactive)
REMARK    1  A    between atoms: C1_2  and  C2_3 
ROOT
ATOM      1  C2  UNL d   1       0.691  -0.776  -0.833  0.00  0.00    -0.073 A 
ATOM      2  C3  UNL d   1       1.224   0.322  -1.516  0.00  0.00    -0.002 A 
ATOM      3  C4  UNL d   1       0.938   1.621  -1.094  0.00  0.00     0.004 A 
ATOM      4  C5  UNL d   1       0.124   1.835   0.019  0.00  0.00    -0.004 A 
ATOM      5  C6  UNL d   1      -0.408   0.749   0.722  0.00  0.00    -0.075 A 
ATOM      6  C7  UNL d   1      -1.287   0.962   1.919  0.00  0.00     0.076 C 
ATOM      7  C8  UNL d   1      -0.119  -0.552   0.290  0.00  0.00     0.001 A 
ENDROOT
BRANCH   1   8
ATOM      8  C1  UNL d   1       1.001  -2.181  -1.282  0.00  0.00     0.053 C 
ATOM      9  C   UNL d   1       0.337  -2.516  -2.608  0.00  0.00     0.018 C 
ENDBRANCH   1   8
TORSDOF 1
ENDMDL
