MODEL 1
REMARK minimizedAffinity -2.94177032
REMARK minimizedRMSD -1
REMARK  1 active torsions:
REMARK  status: ('A' for Active; 'I' for Inactive)
REMARK    1  A    between atoms: C1_2  and  C2_3 
ROOT
ATOM      1  C2  UNL d   1       0.408  -1.214  -0.952  0.00  0.00    -0.073 A 
ATOM      2  C3  UNL d   1      -0.236  -1.147  -2.192  0.00  0.00    -0.002 A 
ATOM      3  C4  UNL d   1      -0.452  -2.306  -2.939  0.00  0.00     0.004 A 
ATOM      4  C5  UNL d   1      -0.032  -3.544  -2.450  0.00  0.00    -0.004 A 
ATOM      5  C6  UNL d   1       0.603  -3.633  -1.207  0.00  0.00    -0.075 A 
ATOM      6  C7  UNL d   1       1.062  -4.956  -0.669  0.00  0.00     0.076 C 
ATOM      7  C8  UNL d   1       0.818  -2.464  -0.465  0.00  0.00     0.001 A 
ENDROOT
BRANCH   1   8
ATOM      8  C1  UNL d   1       0.638   0.034  -0.139  0.00  0.00     0.053 C 
ATOM      9  C   UNL d   1      -0.204   0.053   1.127  0.00  0.00     0.018 C 
ENDBRANCH   1   8
TORSDOF 1
ENDMDL
