MODEL 1
REMARK minimizedAffinity -4.61662912
REMARK minimizedRMSD -1
REMARK  0 active torsions:
REMARK  status: ('A' for Active; 'I' for Inactive)
ROOT
ATOM      1  C4' PXY d   1      -0.398  -0.191   3.079  0.00  0.00     0.077 C 
ATOM      2  C1' PXY d   1       1.545   1.347  -2.143  0.00  0.00     0.077 C 
ATOM      3  C1  PXY d   1       1.023   0.945  -0.777  0.00  0.00    -0.082 A 
ATOM      4  C2  PXY d   1       1.803   1.071   0.284  0.00  0.00     0.003 A 
ATOM      5  C3  PXY d   1       1.358   0.683   1.522  0.00  0.00     0.003 A 
ATOM      6  C4  PXY d   1       0.083   0.210   1.683  0.00  0.00    -0.082 A 
ATOM      7  C5  PXY d   1      -0.722   0.089   0.606  0.00  0.00     0.003 A 
ATOM      8  C6  PXY d   1      -0.237   0.450  -0.648  0.00  0.00     0.003 A 
ENDROOT
TORSDOF 0
ENDMDL
