MODEL 1
REMARK minimizedAffinity -4.14884281
REMARK minimizedRMSD -1
REMARK  0 active torsions:
REMARK  status: ('A' for Active; 'I' for Inactive)
ROOT
ATOM      1  C4' PXY d   1       0.474   1.218  -1.651  0.00  0.00     0.077 C 
ATOM      2  C1' PXY d   1      -1.099  -1.162   3.376  0.00  0.00     0.077 C 
ATOM      3  C1  PXY d   1      -0.696  -0.545   2.051  0.00  0.00    -0.082 A 
ATOM      4  C2  PXY d   1       0.533  -0.079   1.894  0.00  0.00     0.003 A 
ATOM      5  C3  PXY d   1       0.905   0.511   0.714  0.00  0.00     0.003 A 
ATOM      6  C4  PXY d   1       0.026   0.578  -0.335  0.00  0.00    -0.082 A 
ATOM      7  C5  PXY d   1      -1.226   0.096  -0.185  0.00  0.00     0.003 A 
ATOM      8  C6  PXY d   1      -1.596  -0.463   1.035  0.00  0.00     0.003 A 
ENDROOT
TORSDOF 0
ENDMDL
