MODEL 1
REMARK minimizedAffinity -3.06047845
REMARK minimizedRMSD -1
REMARK  0 active torsions:
REMARK  status: ('A' for Active; 'I' for Inactive)
ROOT
ATOM      1  C4' PXY d   1       0.477  -0.860  -2.666  0.00  0.00     0.077 C 
ATOM      2  C1' PXY d   1      -0.253  -0.360   3.047  0.00  0.00     0.077 C 
ATOM      3  C1  PXY d   1      -0.074  -0.492   1.547  0.00  0.00    -0.082 A 
ATOM      4  C2  PXY d   1       1.064  -0.960   1.063  0.00  0.00     0.003 A 
ATOM      5  C3  PXY d   1       1.255  -1.056  -0.292  0.00  0.00     0.003 A 
ATOM      6  C4  PXY d   1       0.249  -0.719  -1.158  0.00  0.00    -0.082 A 
ATOM      7  C5  PXY d   1      -0.919  -0.250  -0.671  0.00  0.00     0.003 A 
ATOM      8  C6  PXY d   1      -1.077  -0.122   0.706  0.00  0.00     0.003 A 
ENDROOT
TORSDOF 0
ENDMDL
