MODEL 1
REMARK minimizedAffinity -5.27111435
REMARK minimizedRMSD -1
REMARK  0 active torsions:
REMARK  status: ('A' for Active; 'I' for Inactive)
ROOT
ATOM      1  C4' PXY d   1       1.464   0.853  -2.280  0.00  0.00     0.077 C 
ATOM      2  C1' PXY d   1      -0.366  -0.311   3.079  0.00  0.00     0.077 C 
ATOM      3  C1  PXY d   1       0.108  -0.017   1.669  0.00  0.00    -0.082 A 
ATOM      4  C2  PXY d   1       1.206   0.698   1.484  0.00  0.00     0.003 A 
ATOM      5  C3  PXY d   1       1.630   1.001   0.216  0.00  0.00     0.003 A 
ATOM      6  C4  PXY d   1       0.954   0.523  -0.874  0.00  0.00    -0.082 A 
ATOM      7  C5  PXY d   1      -0.161  -0.216  -0.694  0.00  0.00     0.003 A 
ATOM      8  C6  PXY d   1      -0.599  -0.478   0.601  0.00  0.00     0.003 A 
ENDROOT
TORSDOF 0
ENDMDL
