MODEL 1
REMARK minimizedAffinity -4.07328176
REMARK minimizedRMSD -1
REMARK  0 active torsions:
REMARK  status: ('A' for Active; 'I' for Inactive)
ROOT
ATOM      1  C4' PXY d   1       1.231  -2.749  -3.649  0.00  0.00     0.077 C 
ATOM      2  C1' PXY d   1       1.275   1.238   0.537  0.00  0.00     0.077 C 
ATOM      3  C1  PXY d   1       1.265   0.202  -0.570  0.00  0.00    -0.082 A 
ATOM      4  C2  PXY d   1       0.663  -0.960  -0.373  0.00  0.00     0.003 A 
ATOM      5  C3  PXY d   1       0.672  -1.921  -1.351  0.00  0.00     0.003 A 
ATOM      6  C4  PXY d   1       1.258  -1.670  -2.563  0.00  0.00    -0.082 A 
ATOM      7  C5  PXY d   1       1.865  -0.483  -2.776  0.00  0.00     0.003 A 
ATOM      8  C6  PXY d   1       1.880   0.463  -1.755  0.00  0.00     0.003 A 
ENDROOT
TORSDOF 0
ENDMDL
