MODEL 1
REMARK minimizedAffinity -4.19158268
REMARK minimizedRMSD -1
REMARK  0 active torsions:
REMARK  status: ('A' for Active; 'I' for Inactive)
ROOT
ATOM      1  C4' PXY d   1      -0.058   0.786   2.779  0.00  0.00     0.077 C 
ATOM      2  C1' PXY d   1       0.574   0.525  -2.961  0.00  0.00     0.077 C 
ATOM      3  C1  PXY d   1       0.396   0.590  -1.456  0.00  0.00    -0.082 A 
ATOM      4  C2  PXY d   1       1.163   1.396  -0.741  0.00  0.00     0.003 A 
ATOM      5  C3  PXY d   1       1.037   1.442   0.624  0.00  0.00     0.003 A 
ATOM      6  C4  PXY d   1       0.080   0.696   1.257  0.00  0.00    -0.082 A 
ATOM      7  C5  PXY d   1      -0.714  -0.121   0.533  0.00  0.00     0.003 A 
ATOM      8  C6  PXY d   1      -0.542  -0.185  -0.847  0.00  0.00     0.003 A 
ENDROOT
TORSDOF 0
ENDMDL
