MODEL 1
REMARK minimizedAffinity -3.83593082
REMARK minimizedRMSD -1
REMARK  0 active torsions:
REMARK  status: ('A' for Active; 'I' for Inactive)
ROOT
ATOM      1  C4' PXY d   1      -0.085   0.957   2.792  0.00  0.00     0.077 C 
ATOM      2  C1' PXY d   1      -0.607   0.917  -2.964  0.00  0.00     0.077 C 
ATOM      3  C1  PXY d   1      -0.458   0.924  -1.456  0.00  0.00    -0.082 A 
ATOM      4  C2  PXY d   1      -1.531   0.803  -0.692  0.00  0.00     0.003 A 
ATOM      5  C3  PXY d   1      -1.418   0.839   0.674  0.00  0.00     0.003 A 
ATOM      6  C4  PXY d   1      -0.187   0.946   1.265  0.00  0.00    -0.082 A 
ATOM      7  C5  PXY d   1       0.914   1.060   0.492  0.00  0.00     0.003 A 
ATOM      8  C6  PXY d   1       0.773   1.062  -0.892  0.00  0.00     0.003 A 
ENDROOT
TORSDOF 0
ENDMDL
