MODEL 1
REMARK minimizedAffinity -2.69139314
REMARK minimizedRMSD -1
REMARK  0 active torsions:
REMARK  status: ('A' for Active; 'I' for Inactive)
ROOT
ATOM      1  C4' PXY d   1       1.658   1.517  -1.359  0.00  0.00     0.077 C 
ATOM      2  C1' PXY d   1      -0.460  -0.551   3.607  0.00  0.00     0.077 C 
ATOM      3  C1  PXY d   1       0.087  -0.017   2.298  0.00  0.00    -0.082 A 
ATOM      4  C2  PXY d   1       1.287   0.541   2.270  0.00  0.00     0.003 A 
ATOM      5  C3  PXY d   1       1.784   1.058   1.101  0.00  0.00     0.003 A 
ATOM      6  C4  PXY d   1       1.068   0.955  -0.062  0.00  0.00    -0.082 A 
ATOM      7  C5  PXY d   1      -0.152   0.379  -0.043  0.00  0.00     0.003 A 
ATOM      8  C6  PXY d   1      -0.656  -0.103   1.161  0.00  0.00     0.003 A 
ENDROOT
TORSDOF 0
ENDMDL
