MODEL 1
REMARK minimizedAffinity -3.98729348
REMARK minimizedRMSD -1
REMARK  0 active torsions:
REMARK  status: ('A' for Active; 'I' for Inactive)
ROOT
ATOM      1  C4' PXY d   1       1.134  -3.329  -3.538  0.00  0.00     0.077 C 
ATOM      2  C1' PXY d   1       3.815   1.762  -4.102  0.00  0.00     0.077 C 
ATOM      3  C1  PXY d   1       3.104   0.432  -3.944  0.00  0.00    -0.082 A 
ATOM      4  C2  PXY d   1       3.707  -0.682  -4.329  0.00  0.00     0.003 A 
ATOM      5  C3  PXY d   1       3.067  -1.889  -4.223  0.00  0.00     0.003 A 
ATOM      6  C4  PXY d   1       1.817  -1.965  -3.669  0.00  0.00    -0.082 A 
ATOM      7  C5  PXY d   1       1.200  -0.835  -3.265  0.00  0.00     0.003 A 
ATOM      8  C6  PXY d   1       1.850   0.386  -3.418  0.00  0.00     0.003 A 
ENDROOT
TORSDOF 0
ENDMDL
