MODEL 1
REMARK minimizedAffinity -3.9870832
REMARK minimizedRMSD -1
REMARK  0 active torsions:
REMARK  status: ('A' for Active; 'I' for Inactive)
ROOT
ATOM      1  C4' PXY d   1      -0.687  -0.031   3.164  0.00  0.00     0.077 C 
ATOM      2  C1' PXY d   1       0.231   0.719  -2.494  0.00  0.00     0.077 C 
ATOM      3  C1  PXY d   1      -0.023   0.524  -1.012  0.00  0.00    -0.082 A 
ATOM      4  C2  PXY d   1       0.963   0.714  -0.149  0.00  0.00     0.003 A 
ATOM      5  C3  PXY d   1       0.760   0.511   1.192  0.00  0.00     0.003 A 
ATOM      6  C4  PXY d   1      -0.479   0.163   1.660  0.00  0.00    -0.082 A 
ATOM      7  C5  PXY d   1      -1.492  -0.022   0.787  0.00  0.00     0.003 A 
ATOM      8  C6  PXY d   1      -1.255   0.148  -0.574  0.00  0.00     0.003 A 
ENDROOT
TORSDOF 0
ENDMDL
