MODEL 1
REMARK minimizedAffinity 4.31213284
REMARK minimizedRMSD -1
REMARK  0 active torsions:
REMARK  status: ('A' for Active; 'I' for Inactive)
ROOT
ATOM      1  C4' PXY d   1       4.231   0.310   1.373  0.00  0.00     0.077 C 
ATOM      2  C1' PXY d   1      -1.196   0.431   3.360  0.00  0.00     0.077 C 
ATOM      3  C1  PXY d   1       0.231   0.396   2.851  0.00  0.00    -0.082 A 
ATOM      4  C2  PXY d   1       0.558   1.090   1.773  0.00  0.00     0.003 A 
ATOM      5  C3  PXY d   1       1.837   1.044   1.281  0.00  0.00     0.003 A 
ATOM      6  C4  PXY d   1       2.804   0.323   1.929  0.00  0.00    -0.082 A 
ATOM      7  C5  PXY d   1       2.480  -0.379   3.035  0.00  0.00     0.003 A 
ATOM      8  C6  PXY d   1       1.167  -0.352   3.496  0.00  0.00     0.003 A 
ENDROOT
TORSDOF 0
ENDMDL
