MODEL 1
REMARK minimizedAffinity 4.44831419
REMARK minimizedRMSD -1
REMARK  0 active torsions:
REMARK  status: ('A' for Active; 'I' for Inactive)
ROOT
ATOM      1  C4' PXY d   1      -4.514  -1.720  -0.062  0.00  0.00     0.077 C 
ATOM      2  C1' PXY d   1      -2.991   2.907   3.050  0.00  0.00     0.077 C 
ATOM      3  C1  PXY d   1      -3.389   1.700   2.222  0.00  0.00    -0.082 A 
ATOM      4  C2  PXY d   1      -4.121   0.744   2.771  0.00  0.00     0.003 A 
ATOM      5  C3  PXY d   1      -4.463  -0.369   2.047  0.00  0.00     0.003 A 
ATOM      6  C4  PXY d   1      -4.097  -0.480   0.732  0.00  0.00    -0.082 A 
ATOM      7  C5  PXY d   1      -3.359   0.496   0.162  0.00  0.00     0.003 A 
ATOM      8  C6  PXY d   1      -2.987   1.599   0.926  0.00  0.00     0.003 A 
ENDROOT
TORSDOF 0
ENDMDL
