MODEL 1
REMARK minimizedAffinity -2.63691854
REMARK minimizedRMSD -1
REMARK  0 active torsions:
REMARK  status: ('A' for Active; 'I' for Inactive)
ROOT
ATOM      1  C4' PXY d   1       0.387  -0.655  -2.296  0.00  0.00     0.077 C 
ATOM      2  C1' PXY d   1      -0.255   0.341   3.362  0.00  0.00     0.077 C 
ATOM      3  C1  PXY d   1      -0.076   0.088   1.878  0.00  0.00    -0.082 A 
ATOM      4  C2  PXY d   1      -1.120  -0.263   1.143  0.00  0.00     0.003 A 
ATOM      5  C3  PXY d   1      -0.969  -0.527  -0.194  0.00  0.00     0.003 A 
ATOM      6  C4  PXY d   1       0.251  -0.380  -0.796  0.00  0.00    -0.082 A 
ATOM      7  C5  PXY d   1       1.319  -0.012  -0.056  0.00  0.00     0.003 A 
ATOM      8  C6  PXY d   1       1.153   0.212   1.308  0.00  0.00     0.003 A 
ENDROOT
TORSDOF 0
ENDMDL
