MODEL 1
REMARK minimizedAffinity -4.24859858
REMARK minimizedRMSD -1
REMARK  0 active torsions:
REMARK  status: ('A' for Active; 'I' for Inactive)
ROOT
ATOM      1  C4' PXY d   1       0.383  -0.582  -2.818  0.00  0.00     0.077 C 
ATOM      2  C1' PXY d   1       0.168   0.222   2.902  0.00  0.00     0.077 C 
ATOM      3  C1  PXY d   1       0.233   0.021   1.401  0.00  0.00    -0.082 A 
ATOM      4  C2  PXY d   1      -0.791  -0.530   0.770  0.00  0.00     0.003 A 
ATOM      5  C3  PXY d   1      -0.735  -0.749  -0.583  0.00  0.00     0.003 A 
ATOM      6  C4  PXY d   1       0.358  -0.350  -1.305  0.00  0.00    -0.082 A 
ATOM      7  C5  PXY d   1       1.402   0.222  -0.670  0.00  0.00     0.003 A 
ATOM      8  C6  PXY d   1       1.343   0.398   0.710  0.00  0.00     0.003 A 
ENDROOT
TORSDOF 0
ENDMDL
