MODEL 1
REMARK minimizedAffinity -5.11945248
REMARK minimizedRMSD -1
REMARK  0 active torsions:
REMARK  status: ('A' for Active; 'I' for Inactive)
ROOT
ATOM      1  C4' PXY d   1      -2.478   1.153  -1.301  0.00  0.00     0.077 C 
ATOM      2  C1' PXY d   1       0.750  -1.569   2.648  0.00  0.00     0.077 C 
ATOM      3  C1  PXY d   1      -0.086  -0.850   1.606  0.00  0.00    -0.082 A 
ATOM      4  C2  PXY d   1      -1.338  -0.526   1.883  0.00  0.00     0.003 A 
ATOM      5  C3  PXY d   1      -2.118   0.095   0.942  0.00  0.00     0.003 A 
ATOM      6  C4  PXY d   1      -1.594   0.436  -0.276  0.00  0.00    -0.082 A 
ATOM      7  C5  PXY d   1      -0.314   0.118  -0.563  0.00  0.00     0.003 A 
ATOM      8  C6  PXY d   1       0.449  -0.550   0.392  0.00  0.00     0.003 A 
ENDROOT
TORSDOF 0
ENDMDL
