MODEL 1
REMARK minimizedAffinity -4.09789085
REMARK minimizedRMSD -1
REMARK  0 active torsions:
REMARK  status: ('A' for Active; 'I' for Inactive)
ROOT
ATOM      1  C4' PXY d   1      -2.459  -0.026   0.728  0.00  0.00     0.077 C 
ATOM      2  C1' PXY d   1       3.206   0.482   1.758  0.00  0.00     0.077 C 
ATOM      3  C1  PXY d   1       1.719   0.341   1.498  0.00  0.00    -0.082 A 
ATOM      4  C2  PXY d   1       1.245   0.550   0.280  0.00  0.00     0.003 A 
ATOM      5  C3  PXY d   1      -0.101   0.458   0.035  0.00  0.00     0.003 A 
ATOM      6  C4  PXY d   1      -0.964   0.096   1.034  0.00  0.00    -0.082 A 
ATOM      7  C5  PXY d   1      -0.487  -0.130   2.276  0.00  0.00     0.003 A 
ATOM      8  C6  PXY d   1       0.878   0.010   2.514  0.00  0.00     0.003 A 
ENDROOT
TORSDOF 0
ENDMDL
