MODEL 1
REMARK minimizedAffinity -4.42027092
REMARK minimizedRMSD -1
REMARK  0 active torsions:
REMARK  status: ('A' for Active; 'I' for Inactive)
ROOT
ATOM      1  C4' PXY d   1       1.209  -0.975  -3.499  0.00  0.00     0.077 C 
ATOM      2  C1' PXY d   1       5.425   2.828  -4.579  0.00  0.00     0.077 C 
ATOM      3  C1  PXY d   1       4.322   1.825  -4.307  0.00  0.00    -0.082 A 
ATOM      4  C2  PXY d   1       3.344   2.138  -3.473  0.00  0.00     0.003 A 
ATOM      5  C3  PXY d   1       2.356   1.231  -3.191  0.00  0.00     0.003 A 
ATOM      6  C4  PXY d   1       2.338   0.010  -3.811  0.00  0.00    -0.082 A 
ATOM      7  C5  PXY d   1       3.327  -0.313  -4.672  0.00  0.00     0.003 A 
ATOM      8  C6  PXY d   1       4.343   0.607  -4.913  0.00  0.00     0.003 A 
ENDROOT
TORSDOF 0
ENDMDL
