MODEL 1
REMARK minimizedAffinity -2.69643474
REMARK minimizedRMSD -1
REMARK  0 active torsions:
REMARK  status: ('A' for Active; 'I' for Inactive)
ROOT
ATOM      1  C4' PXY d   1       0.592  -0.912  -2.339  0.00  0.00     0.077 C 
ATOM      2  C1' PXY d   1       0.063   0.889   3.128  0.00  0.00     0.077 C 
ATOM      3  C1  PXY d   1       0.189   0.418   1.693  0.00  0.00    -0.082 A 
ATOM      4  C2  PXY d   1       1.200  -0.362   1.346  0.00  0.00     0.003 A 
ATOM      5  C3  PXY d   1       1.347  -0.770   0.045  0.00  0.00     0.003 A 
ATOM      6  C4  PXY d   1       0.420  -0.421  -0.899  0.00  0.00    -0.082 A 
ATOM      7  C5  PXY d   1      -0.621   0.366  -0.551  0.00  0.00     0.003 A 
ATOM      8  C6  PXY d   1      -0.729   0.804   0.765  0.00  0.00     0.003 A 
ENDROOT
TORSDOF 0
ENDMDL
