MODEL 1
REMARK minimizedAffinity -2.83781004
REMARK minimizedRMSD -1
REMARK  0 active torsions:
REMARK  status: ('A' for Active; 'I' for Inactive)
ROOT
ATOM      1  C4' PXY d   1      -0.905  -0.287   2.931  0.00  0.00     0.077 C 
ATOM      2  C1' PXY d   1       0.817  -0.796  -2.564  0.00  0.00     0.077 C 
ATOM      3  C1  PXY d   1       0.364  -0.650  -1.124  0.00  0.00    -0.082 A 
ATOM      4  C2  PXY d   1       0.722  -1.557  -0.230  0.00  0.00     0.003 A 
ATOM      5  C3  PXY d   1       0.295  -1.457   1.069  0.00  0.00     0.003 A 
ATOM      6  C4  PXY d   1      -0.463  -0.390   1.469  0.00  0.00    -0.082 A 
ATOM      7  C5  PXY d   1      -0.824   0.546   0.565  0.00  0.00     0.003 A 
ATOM      8  C6  PXY d   1      -0.414   0.404  -0.758  0.00  0.00     0.003 A 
ENDROOT
TORSDOF 0
ENDMDL
