MODEL 1
REMARK minimizedAffinity -4.12356853
REMARK minimizedRMSD -1
REMARK  0 active torsions:
REMARK  status: ('A' for Active; 'I' for Inactive)
ROOT
ATOM      1  C4' PXY d   1       0.596  -0.928  -2.800  0.00  0.00     0.077 C 
ATOM      2  C1' PXY d   1      -0.156   0.558   2.736  0.00  0.00     0.077 C 
ATOM      3  C1  PXY d   1       0.039   0.181   1.280  0.00  0.00    -0.082 A 
ATOM      4  C2  PXY d   1      -0.166  -1.069   0.895  0.00  0.00     0.003 A 
ATOM      5  C3  PXY d   1       0.037  -1.434  -0.411  0.00  0.00     0.003 A 
ATOM      6  C4  PXY d   1       0.402  -0.500  -1.343  0.00  0.00    -0.082 A 
ATOM      7  C5  PXY d   1       0.602   0.779  -0.960  0.00  0.00     0.003 A 
ATOM      8  C6  PXY d   1       0.431   1.121   0.378  0.00  0.00     0.003 A 
ENDROOT
TORSDOF 0
ENDMDL
