MODEL 1
REMARK minimizedAffinity 18.6871662
REMARK minimizedRMSD -1
REMARK  0 active torsions:
REMARK  status: ('A' for Active; 'I' for Inactive)
ROOT
ATOM      1  C   UNL d   1       0.509   2.496   1.972  0.00  0.00     0.124 A 
ATOM      2  C1  UNL d   1      -0.562   1.999   1.242  0.00  0.00     0.062 A 
ATOM      3  C2  UNL d   1      -0.571   0.670   0.829  0.00  0.00     0.162 A 
ATOM      4  C3  UNL d   1       0.493  -0.174   1.148  0.00  0.00    -0.034 A 
ATOM      5  C4  UNL d   1       1.567   0.333   1.882  0.00  0.00     0.162 A 
ATOM      6  C5  UNL d   1       1.572   1.663   2.292  0.00  0.00     0.062 A 
ATOM      7  F   UNL d   1       2.607   2.140   2.997  0.00  0.00    -0.097 F 
ATOM      8  F1  UNL d   1       2.607  -0.450   2.205  0.00  0.00    -0.096 F 
ATOM      9  I   UNL d   1       0.482  -2.162   0.533  0.00  0.00    -0.060 I 
ATOM     10  F2  UNL d   1      -1.619   0.217   0.125  0.00  0.00    -0.096 F 
ATOM     11  F3  UNL d   1      -1.589   2.802   0.931  0.00  0.00    -0.097 F 
ATOM     12  F4  UNL d   1       0.516   3.775   2.367  0.00  0.00    -0.092 F 
ENDROOT
TORSDOF 0
ENDMDL
