MODEL 1
REMARK minimizedAffinity 30.7830963
REMARK minimizedRMSD -1
REMARK  0 active torsions:
REMARK  status: ('A' for Active; 'I' for Inactive)
ROOT
ATOM      1  C   UNL d   1       1.146  -3.622   3.040  0.00  0.00     0.124 A 
ATOM      2  C1  UNL d   1       1.855  -2.979   4.046  0.00  0.00     0.062 A 
ATOM      3  C2  UNL d   1       2.094  -1.610   3.969  0.00  0.00     0.162 A 
ATOM      4  C3  UNL d   1       1.623  -0.874   2.882  0.00  0.00    -0.034 A 
ATOM      5  C4  UNL d   1       0.912  -1.527   1.874  0.00  0.00     0.162 A 
ATOM      6  C5  UNL d   1       0.676  -2.896   1.955  0.00  0.00     0.062 A 
ATOM      7  F   UNL d   1      -0.009  -3.515   0.983  0.00  0.00    -0.097 F 
ATOM      8  F1  UNL d   1       0.445  -0.849   0.815  0.00  0.00    -0.096 F 
ATOM      9  I   UNL d   1       1.979   1.173   2.763  0.00  0.00    -0.060 I 
ATOM     10  F2  UNL d   1       2.781  -1.016   4.955  0.00  0.00    -0.096 F 
ATOM     11  F3  UNL d   1       2.311  -3.679   5.095  0.00  0.00    -0.097 F 
ATOM     12  F4  UNL d   1       0.918  -4.940   3.116  0.00  0.00    -0.092 F 
ENDROOT
TORSDOF 0
ENDMDL
