MODEL 1
REMARK minimizedAffinity 24.1958218
REMARK minimizedRMSD -1
REMARK  0 active torsions:
REMARK  status: ('A' for Active; 'I' for Inactive)
ROOT
ATOM      1  C   UNL d   1      -4.126  -3.754  -1.396  0.00  0.00     0.124 A 
ATOM      2  C1  UNL d   1      -3.946  -4.870  -2.201  0.00  0.00     0.062 A 
ATOM      3  C2  UNL d   1      -4.405  -4.867  -3.515  0.00  0.00     0.162 A 
ATOM      4  C3  UNL d   1      -5.048  -3.742  -4.033  0.00  0.00    -0.034 A 
ATOM      5  C4  UNL d   1      -5.225  -2.623  -3.217  0.00  0.00     0.162 A 
ATOM      6  C5  UNL d   1      -4.765  -2.632  -1.904  0.00  0.00     0.062 A 
ATOM      7  F   UNL d   1      -4.939  -1.552  -1.128  0.00  0.00    -0.097 F 
ATOM      8  F1  UNL d   1      -5.839  -1.525  -3.683  0.00  0.00    -0.096 F 
ATOM      9  I   UNL d   1      -5.735  -3.733  -5.997  0.00  0.00    -0.060 I 
ATOM     10  F2  UNL d   1      -4.218  -5.959  -4.270  0.00  0.00    -0.096 F 
ATOM     11  F3  UNL d   1      -3.330  -5.956  -1.711  0.00  0.00    -0.097 F 
ATOM     12  F4  UNL d   1      -3.684  -3.760  -0.131  0.00  0.00    -0.092 F 
ENDROOT
TORSDOF 0
ENDMDL
