MODEL 1
REMARK minimizedAffinity 11.1173649
REMARK minimizedRMSD -1
REMARK  0 active torsions:
REMARK  status: ('A' for Active; 'I' for Inactive)
ROOT
ATOM      1  C   UNL d   1       2.293  -2.912  -3.765  0.00  0.00     0.124 A 
ATOM      2  C1  UNL d   1       1.916  -1.608  -4.055  0.00  0.00     0.062 A 
ATOM      3  C2  UNL d   1       2.805  -0.748  -4.692  0.00  0.00     0.162 A 
ATOM      4  C3  UNL d   1       4.081  -1.189  -5.046  0.00  0.00    -0.034 A 
ATOM      5  C4  UNL d   1       4.453  -2.502  -4.751  0.00  0.00     0.162 A 
ATOM      6  C5  UNL d   1       3.561  -3.358  -4.114  0.00  0.00     0.062 A 
ATOM      7  F   UNL d   1       3.927  -4.617  -3.835  0.00  0.00    -0.097 F 
ATOM      8  F1  UNL d   1       5.671  -2.958  -5.077  0.00  0.00    -0.096 F 
ATOM      9  I   UNL d   1       5.413   0.095  -6.000  0.00  0.00    -0.060 I 
ATOM     10  F2  UNL d   1       2.414   0.507  -4.960  0.00  0.00    -0.096 F 
ATOM     11  F3  UNL d   1       0.693  -1.175  -3.719  0.00  0.00    -0.097 F 
ATOM     12  F4  UNL d   1       1.437  -3.738  -3.151  0.00  0.00    -0.092 F 
ENDROOT
TORSDOF 0
ENDMDL
