MODEL 1
REMARK minimizedAffinity 11.0673428
REMARK minimizedRMSD -1
REMARK  0 active torsions:
REMARK  status: ('A' for Active; 'I' for Inactive)
ROOT
ATOM      1  C   UNL d   1       3.142  -0.977  -3.908  0.00  0.00     0.124 A 
ATOM      2  C1  UNL d   1       2.916  -2.201  -3.294  0.00  0.00     0.062 A 
ATOM      3  C2  UNL d   1       3.731  -3.291  -3.587  0.00  0.00     0.162 A 
ATOM      4  C3  UNL d   1       4.780  -3.162  -4.497  0.00  0.00    -0.034 A 
ATOM      5  C4  UNL d   1       5.000  -1.927  -5.110  0.00  0.00     0.162 A 
ATOM      6  C5  UNL d   1       4.183  -0.841  -4.815  0.00  0.00     0.062 A 
ATOM      7  F   UNL d   1       4.403   0.341  -5.408  0.00  0.00    -0.097 F 
ATOM      8  F1  UNL d   1       6.000  -1.768  -5.990  0.00  0.00    -0.096 F 
ATOM      9  I   UNL d   1       6.000  -4.789  -4.937  0.00  0.00    -0.060 I 
ATOM     10  F2  UNL d   1       3.489  -4.463  -2.980  0.00  0.00    -0.096 F 
ATOM     11  F3  UNL d   1       1.910  -2.335  -2.418  0.00  0.00    -0.097 F 
ATOM     12  F4  UNL d   1       2.356   0.070  -3.625  0.00  0.00    -0.092 F 
ENDROOT
TORSDOF 0
ENDMDL
