MODEL 1
REMARK minimizedAffinity 22.4483414
REMARK minimizedRMSD -1
REMARK  0 active torsions:
REMARK  status: ('A' for Active; 'I' for Inactive)
ROOT
ATOM      1  C   UNL d   1       2.307   2.103   3.122  0.00  0.00     0.124 A 
ATOM      2  C1  UNL d   1       1.570   1.024   3.590  0.00  0.00     0.062 A 
ATOM      3  C2  UNL d   1       1.749  -0.240   3.036  0.00  0.00     0.162 A 
ATOM      4  C3  UNL d   1       2.671  -0.433   2.007  0.00  0.00    -0.034 A 
ATOM      5  C4  UNL d   1       3.408   0.657   1.540  0.00  0.00     0.162 A 
ATOM      6  C5  UNL d   1       3.225   1.918   2.098  0.00  0.00     0.062 A 
ATOM      7  F   UNL d   1       3.938   2.960   1.643  0.00  0.00    -0.097 F 
ATOM      8  F1  UNL d   1       4.302   0.507   0.552  0.00  0.00    -0.096 F 
ATOM      9  I   UNL d   1       2.942  -2.321   1.175  0.00  0.00    -0.060 I 
ATOM     10  F2  UNL d   1       1.024  -1.264   3.509  0.00  0.00    -0.096 F 
ATOM     11  F3  UNL d   1       0.682   1.200   4.579  0.00  0.00    -0.097 F 
ATOM     12  F4  UNL d   1       2.132   3.318   3.656  0.00  0.00    -0.092 F 
ENDROOT
TORSDOF 0
ENDMDL
