MODEL 1
REMARK minimizedAffinity 15.6671114
REMARK minimizedRMSD -1
REMARK  0 active torsions:
REMARK  status: ('A' for Active; 'I' for Inactive)
ROOT
ATOM      1  C   UNL d   1       3.793  -0.593  -3.054  0.00  0.00     0.124 A 
ATOM      2  C1  UNL d   1       3.154  -1.737  -2.598  0.00  0.00     0.062 A 
ATOM      3  C2  UNL d   1       3.470  -2.979  -3.142  0.00  0.00     0.162 A 
ATOM      4  C3  UNL d   1       4.432  -3.083  -4.147  0.00  0.00    -0.034 A 
ATOM      5  C4  UNL d   1       5.070  -1.927  -4.601  0.00  0.00     0.162 A 
ATOM      6  C5  UNL d   1       4.750  -0.688  -4.054  0.00  0.00     0.062 A 
ATOM      7  F   UNL d   1       5.369   0.416  -4.496  0.00  0.00    -0.097 F 
ATOM      8  F1  UNL d   1       5.999  -1.991  -5.566  0.00  0.00    -0.096 F 
ATOM      9  I   UNL d   1       4.907  -4.938  -4.962  0.00  0.00    -0.060 I 
ATOM     10  F2  UNL d   1       2.836  -4.068  -2.682  0.00  0.00    -0.096 F 
ATOM     11  F3  UNL d   1       2.228  -1.647  -1.633  0.00  0.00    -0.097 F 
ATOM     12  F4  UNL d   1       3.486   0.601  -2.530  0.00  0.00    -0.092 F 
ENDROOT
TORSDOF 0
ENDMDL
