MODEL 1
REMARK minimizedAffinity -1.49882519
REMARK minimizedRMSD -1
REMARK  0 active torsions:
REMARK  status: ('A' for Active; 'I' for Inactive)
ROOT
ATOM      1  C1  DEN d   1       1.746   0.109  -0.155  0.00  0.00     0.130 A 
ATOM      2  C2  DEN d   1       1.640   1.513  -0.545  0.00  0.00    -0.031 A 
ATOM      3  C3  DEN d   1       0.216   1.898  -0.480  0.00  0.00     0.027 A 
ATOM      4  C4  DEN d   1      -1.823   0.467   0.187  0.00  0.00     0.027 A 
ATOM      5  C5  DEN d   1      -2.233  -0.786   0.585  0.00  0.00    -0.003 A 
ATOM      6  C6  DEN d   1      -1.358  -1.829   0.731  0.00  0.00     0.001 A 
ATOM      7  C7  DEN d   1      -0.019  -1.626   0.520  0.00  0.00     0.017 A 
ATOM      8  C8  DEN d   1       0.401  -0.367   0.111  0.00  0.00    -0.094 A 
ATOM      9  C9  DEN d   1      -0.499   0.678  -0.019  0.00  0.00    -0.072 A 
ENDROOT
TORSDOF 0
ENDMDL
