MODEL 1
REMARK minimizedAffinity -1.75749767
REMARK minimizedRMSD -1
REMARK  0 active torsions:
REMARK  status: ('A' for Active; 'I' for Inactive)
ROOT
ATOM      1  C1  DEN d   1      -0.428  -0.873   0.751  0.00  0.00     0.130 A 
ATOM      2  C2  DEN d   1      -0.695   0.161  -0.246  0.00  0.00    -0.031 A 
ATOM      3  C3  DEN d   1       0.349   1.197  -0.120  0.00  0.00     0.027 A 
ATOM      4  C4  DEN d   1       2.346   1.299   1.509  0.00  0.00     0.027 A 
ATOM      5  C5  DEN d   1       2.981   0.655   2.548  0.00  0.00    -0.003 A 
ATOM      6  C6  DEN d   1       2.508  -0.516   3.079  0.00  0.00     0.001 A 
ATOM      7  C7  DEN d   1       1.393  -1.104   2.542  0.00  0.00     0.017 A 
ATOM      8  C8  DEN d   1       0.744  -0.457   1.500  0.00  0.00    -0.094 A 
ATOM      9  C9  DEN d   1       1.244   0.720   0.969  0.00  0.00    -0.072 A 
ENDROOT
TORSDOF 0
ENDMDL
