MODEL 1
REMARK minimizedAffinity 13.0761309
REMARK minimizedRMSD -1
REMARK  0 active torsions:
REMARK  status: ('A' for Active; 'I' for Inactive)
ROOT
ATOM      1  C1  DEN d   1      -3.176  -0.003  -4.906  0.00  0.00     0.130 A 
ATOM      2  C2  DEN d   1      -2.602  -0.738  -3.783  0.00  0.00    -0.031 A 
ATOM      3  C3  DEN d   1      -2.900   0.012  -2.546  0.00  0.00     0.027 A 
ATOM      4  C4  DEN d   1      -4.190   2.228  -2.264  0.00  0.00     0.027 A 
ATOM      5  C5  DEN d   1      -4.856   3.232  -2.931  0.00  0.00    -0.003 A 
ATOM      6  C6  DEN d   1      -4.977   3.246  -4.295  0.00  0.00     0.001 A 
ATOM      7  C7  DEN d   1      -4.464   2.212  -5.033  0.00  0.00     0.017 A 
ATOM      8  C8  DEN d   1      -3.786   1.200  -4.368  0.00  0.00    -0.094 A 
ATOM      9  C9  DEN d   1      -3.684   1.197  -2.987  0.00  0.00    -0.072 A 
ENDROOT
TORSDOF 0
ENDMDL
