MODEL 1
REMARK minimizedAffinity 4.84642363
REMARK minimizedRMSD -1
REMARK  0 active torsions:
REMARK  status: ('A' for Active; 'I' for Inactive)
ROOT
ATOM      1  C1  DEN d   1      -0.012  -0.731   0.410  0.00  0.00     0.130 A 
ATOM      2  C2  DEN d   1       0.133   0.360  -0.550  0.00  0.00    -0.031 A 
ATOM      3  C3  DEN d   1       1.189   1.266  -0.054  0.00  0.00     0.027 A 
ATOM      4  C4  DEN d   1       2.608   1.084   2.092  0.00  0.00     0.027 A 
ATOM      5  C5  DEN d   1       2.837   0.336   3.225  0.00  0.00    -0.003 A 
ATOM      6  C6  DEN d   1       2.116  -0.791   3.515  0.00  0.00     0.001 A 
ATOM      7  C7  DEN d   1       1.160  -1.230   2.637  0.00  0.00     0.017 A 
ATOM      8  C8  DEN d   1       0.918  -0.477   1.495  0.00  0.00    -0.094 A 
ATOM      9  C9  DEN d   1       1.666   0.653   1.214  0.00  0.00    -0.072 A 
ENDROOT
TORSDOF 0
ENDMDL
