MODEL 1
REMARK minimizedAffinity -1.78750694
REMARK minimizedRMSD -1
REMARK  0 active torsions:
REMARK  status: ('A' for Active; 'I' for Inactive)
ROOT
ATOM      1  C1  DEN d   1       2.520  -3.968  -5.501  0.00  0.00     0.130 A 
ATOM      2  C2  DEN d   1       3.033  -5.315  -5.736  0.00  0.00    -0.031 A 
ATOM      3  C3  DEN d   1       4.487  -5.214  -5.976  0.00  0.00     0.027 A 
ATOM      4  C4  DEN d   1       5.985  -3.115  -6.000  0.00  0.00     0.027 A 
ATOM      5  C5  DEN d   1       5.999  -1.744  -5.864  0.00  0.00    -0.003 A 
ATOM      6  C6  DEN d   1       4.859  -1.021  -5.633  0.00  0.00     0.001 A 
ATOM      7  C7  DEN d   1       3.662  -1.671  -5.487  0.00  0.00     0.017 A 
ATOM      8  C8  DEN d   1       3.638  -3.052  -5.630  0.00  0.00    -0.094 A 
ATOM      9  C9  DEN d   1       4.804  -3.766  -5.850  0.00  0.00    -0.072 A 
ENDROOT
TORSDOF 0
ENDMDL
