MODEL 1
REMARK minimizedAffinity -3.76637745
REMARK minimizedRMSD -1
REMARK  1 active torsions:
REMARK  status: ('A' for Active; 'I' for Inactive)
REMARK    1  A    between atoms: C3_4  and  O_7 
ROOT
ATOM      1  C   UNL d   1      -4.486   1.976  -4.325  0.00  0.00    -0.033 A 
ATOM      2  C1  UNL d   1      -4.599   1.577  -2.991  0.00  0.00     0.039 A 
ATOM      3  C2  UNL d   1      -5.103   2.461  -2.036  0.00  0.00    -0.080 A 
ATOM      4  C3  UNL d   1      -5.492   3.740  -2.426  0.00  0.00     0.150 A 
ATOM      5  C4  UNL d   1      -5.386   4.143  -3.753  0.00  0.00    -0.007 A 
ATOM      6  C5  UNL d   1      -4.881   3.259  -4.706  0.00  0.00     0.039 A 
ENDROOT
BRANCH   4   7
ATOM      7  O   UNL d   1      -5.986   4.639  -1.529  0.00  0.00    -0.526 OA
ATOM      8  H5  UNL d   1      -5.975   4.232  -0.647  0.00  0.00     0.418 HD
ENDBRANCH   4   7
TORSDOF 1
ENDMDL
