MODEL 1
REMARK minimizedAffinity 0.356848896
REMARK minimizedRMSD -1
REMARK  1 active torsions:
REMARK  status: ('A' for Active; 'I' for Inactive)
REMARK    1  A    between atoms: C3_4  and  O_7 
ROOT
ATOM      1  C   UNL d   1      -5.190   5.242  -4.939  0.00  0.00    -0.033 A 
ATOM      2  C1  UNL d   1      -6.000   4.580  -5.863  0.00  0.00     0.039 A 
ATOM      3  C2  UNL d   1      -5.916   3.193  -6.000  0.00  0.00    -0.080 A 
ATOM      4  C3  UNL d   1      -5.020   2.481  -5.207  0.00  0.00     0.150 A 
ATOM      5  C4  UNL d   1      -4.212   3.134  -4.282  0.00  0.00    -0.007 A 
ATOM      6  C5  UNL d   1      -4.297   4.519  -4.147  0.00  0.00     0.039 A 
ENDROOT
BRANCH   4   7
ATOM      7  O   UNL d   1      -4.899   1.127  -5.309  0.00  0.00    -0.526 OA
ATOM      8  H5  UNL d   1      -5.498   0.816  -6.008  0.00  0.00     0.418 HD
ENDBRANCH   4   7
TORSDOF 1
ENDMDL
