MODEL 1
REMARK minimizedAffinity 6.5194006
REMARK minimizedRMSD -1
REMARK  1 active torsions:
REMARK  status: ('A' for Active; 'I' for Inactive)
REMARK    1  A    between atoms: C3_4  and  O_7 
ROOT
ATOM      1  C   UNL d   1       0.009   1.558   1.447  0.00  0.00    -0.033 A 
ATOM      2  C1  UNL d   1       0.001   2.949   1.323  0.00  0.00     0.039 A 
ATOM      3  C2  UNL d   1       0.349   3.751   2.413  0.00  0.00    -0.080 A 
ATOM      4  C3  UNL d   1       0.702   3.150   3.618  0.00  0.00     0.150 A 
ATOM      5  C4  UNL d   1       0.715   1.765   3.747  0.00  0.00    -0.007 A 
ATOM      6  C5  UNL d   1       0.367   0.966   2.658  0.00  0.00     0.039 A 
ENDROOT
BRANCH   4   7
ATOM      7  O   UNL d   1       1.044   3.890   4.710  0.00  0.00    -0.526 OA
ATOM      8  H5  UNL d   1       0.962   4.831   4.482  0.00  0.00     0.418 HD
ENDBRANCH   4   7
TORSDOF 1
ENDMDL
