MODEL 1
REMARK minimizedAffinity 5.46887636
REMARK minimizedRMSD -1
REMARK  1 active torsions:
REMARK  status: ('A' for Active; 'I' for Inactive)
REMARK    1  A    between atoms: C3_4  and  O_7 
ROOT
ATOM      1  C   UNL d   1      -4.681   0.010  -4.096  0.00  0.00    -0.033 A 
ATOM      2  C1  UNL d   1      -5.803   0.391  -4.835  0.00  0.00     0.039 A 
ATOM      3  C2  UNL d   1      -6.000   1.733  -5.166  0.00  0.00    -0.080 A 
ATOM      4  C3  UNL d   1      -5.068   2.682  -4.756  0.00  0.00     0.150 A 
ATOM      5  C4  UNL d   1      -3.946   2.309  -4.023  0.00  0.00    -0.007 A 
ATOM      6  C5  UNL d   1      -3.751   0.968  -3.692  0.00  0.00     0.039 A 
ENDROOT
BRANCH   4   7
ATOM      7  O   UNL d   1      -5.219   4.004  -5.052  0.00  0.00    -0.526 OA
ATOM      8  H5  UNL d   1      -6.054   4.117  -5.536  0.00  0.00     0.418 HD
ENDBRANCH   4   7
TORSDOF 1
ENDMDL
