MODEL 1
REMARK minimizedAffinity -0.133811533
REMARK minimizedRMSD -1
REMARK  1 active torsions:
REMARK  status: ('A' for Active; 'I' for Inactive)
REMARK    1  A    between atoms: C3_4  and  O_7 
ROOT
ATOM      1  C   UNL d   1       0.380   6.000   0.965  0.00  0.00    -0.033 A 
ATOM      2  C1  UNL d   1      -0.120   5.982   2.269  0.00  0.00     0.039 A 
ATOM      3  C2  UNL d   1      -0.239   4.773   2.956  0.00  0.00    -0.080 A 
ATOM      4  C3  UNL d   1       0.144   3.590   2.330  0.00  0.00     0.150 A 
ATOM      5  C4  UNL d   1       0.647   3.601   1.033  0.00  0.00    -0.007 A 
ATOM      6  C5  UNL d   1       0.765   4.810   0.348  0.00  0.00     0.039 A 
ENDROOT
BRANCH   4   7
ATOM      7  O   UNL d   1       0.041   2.385   2.959  0.00  0.00    -0.526 OA
ATOM      8  H5  UNL d   1      -0.348   2.528   3.837  0.00  0.00     0.418 HD
ENDBRANCH   4   7
TORSDOF 1
ENDMDL
