MODEL 1
REMARK minimizedAffinity -4.23860312
REMARK minimizedRMSD -1
REMARK  1 active torsions:
REMARK  status: ('A' for Active; 'I' for Inactive)
REMARK    1  A    between atoms: C3_4  and  O_7 
ROOT
ATOM      1  C   UNL d   1      -5.618   2.255  -5.312  0.00  0.00    -0.033 A 
ATOM      2  C1  UNL d   1      -4.888   1.148  -4.876  0.00  0.00     0.039 A 
ATOM      3  C2  UNL d   1      -4.532   1.030  -3.531  0.00  0.00    -0.080 A 
ATOM      4  C3  UNL d   1      -4.912   2.024  -2.634  0.00  0.00     0.150 A 
ATOM      5  C4  UNL d   1      -5.643   3.128  -3.061  0.00  0.00    -0.007 A 
ATOM      6  C5  UNL d   1      -5.997   3.244  -4.405  0.00  0.00     0.039 A 
ENDROOT
BRANCH   4   7
ATOM      7  O   UNL d   1      -4.583   1.955  -1.313  0.00  0.00    -0.526 OA
ATOM      8  H5  UNL d   1      -4.054   1.153  -1.169  0.00  0.00     0.418 HD
ENDBRANCH   4   7
TORSDOF 1
ENDMDL
