MODEL 1
REMARK minimizedAffinity 4.14900208
REMARK minimizedRMSD -1
REMARK  1 active torsions:
REMARK  status: ('A' for Active; 'I' for Inactive)
REMARK    1  A    between atoms: C3_4  and  O_7 
ROOT
ATOM      1  C   UNL d   1      -1.389   1.578  -2.592  0.00  0.00    -0.033 A 
ATOM      2  C1  UNL d   1      -0.040   1.222  -2.535  0.00  0.00     0.039 A 
ATOM      3  C2  UNL d   1       0.549   0.906  -1.309  0.00  0.00    -0.080 A 
ATOM      4  C3  UNL d   1      -0.220   0.948  -0.150  0.00  0.00     0.150 A 
ATOM      5  C4  UNL d   1      -1.566   1.298  -0.200  0.00  0.00    -0.007 A 
ATOM      6  C5  UNL d   1      -2.152   1.614  -1.424  0.00  0.00     0.039 A 
ENDROOT
BRANCH   4   7
ATOM      7  O   UNL d   1       0.312   0.652   1.070  0.00  0.00    -0.526 OA
ATOM      8  H5  UNL d   1       1.257   0.457   0.954  0.00  0.00     0.418 HD
ENDBRANCH   4   7
TORSDOF 1
ENDMDL
