MODEL 1
REMARK minimizedAffinity 0.579808354
REMARK minimizedRMSD -1
REMARK  1 active torsions:
REMARK  status: ('A' for Active; 'I' for Inactive)
REMARK    1  A    between atoms: C3_4  and  O_7 
ROOT
ATOM      1  C   UNL d   1       1.050  -3.661  -4.103  0.00  0.00    -0.033 A 
ATOM      2  C1  UNL d   1       2.362  -3.602  -4.576  0.00  0.00     0.039 A 
ATOM      3  C2  UNL d   1       3.432  -3.761  -3.694  0.00  0.00    -0.080 A 
ATOM      4  C3  UNL d   1       3.178  -3.980  -2.343  0.00  0.00     0.150 A 
ATOM      5  C4  UNL d   1       1.873  -4.043  -1.865  0.00  0.00    -0.007 A 
ATOM      6  C5  UNL d   1       0.805  -3.883  -2.747  0.00  0.00     0.039 A 
ENDROOT
BRANCH   4   7
ATOM      7  O   UNL d   1       4.190  -4.136  -1.443  0.00  0.00    -0.526 OA
ATOM      8  H5  UNL d   1       5.036  -4.040  -1.912  0.00  0.00     0.418 HD
ENDBRANCH   4   7
TORSDOF 1
ENDMDL
