MODEL 1
REMARK minimizedAffinity -1.33917129
REMARK minimizedRMSD -1
REMARK  1 active torsions:
REMARK  status: ('A' for Active; 'I' for Inactive)
REMARK    1  A    between atoms: C3_4  and  O_7 
ROOT
ATOM      1  C   UNL d   1       1.836  -2.200   3.116  0.00  0.00    -0.033 A 
ATOM      2  C1  UNL d   1       1.720  -2.871   4.336  0.00  0.00     0.039 A 
ATOM      3  C2  UNL d   1       0.474  -2.989   4.954  0.00  0.00    -0.080 A 
ATOM      4  C3  UNL d   1      -0.647  -2.434   4.344  0.00  0.00     0.150 A 
ATOM      5  C4  UNL d   1      -0.540  -1.768   3.128  0.00  0.00    -0.007 A 
ATOM      6  C5  UNL d   1       0.705  -1.650   2.512  0.00  0.00     0.039 A 
ENDROOT
BRANCH   4   7
ATOM      7  O   UNL d   1      -1.883  -2.519   4.912  0.00  0.00    -0.526 OA
ATOM      8  H5  UNL d   1      -1.799  -2.981   5.763  0.00  0.00     0.418 HD
ENDBRANCH   4   7
TORSDOF 1
ENDMDL
