MODEL 1
REMARK minimizedAffinity 1.13729572
REMARK minimizedRMSD -1
REMARK  1 active torsions:
REMARK  status: ('A' for Active; 'I' for Inactive)
REMARK    1  A    between atoms: C3_4  and  O_7 
ROOT
ATOM      1  C   UNL d   1      -1.006   2.232  -2.092  0.00  0.00    -0.033 A 
ATOM      2  C1  UNL d   1      -1.654   1.158  -1.478  0.00  0.00     0.039 A 
ATOM      3  C2  UNL d   1      -0.934   0.276  -0.669  0.00  0.00    -0.080 A 
ATOM      4  C3  UNL d   1       0.431   0.480  -0.482  0.00  0.00     0.150 A 
ATOM      5  C4  UNL d   1       1.081   1.550  -1.088  0.00  0.00    -0.007 A 
ATOM      6  C5  UNL d   1       0.361   2.428  -1.896  0.00  0.00     0.039 A 
ENDROOT
BRANCH   4   7
ATOM      7  O   UNL d   1       1.176  -0.357   0.295  0.00  0.00    -0.526 OA
ATOM      8  H5  UNL d   1       0.599  -1.066   0.625  0.00  0.00     0.418 HD
ENDBRANCH   4   7
TORSDOF 1
ENDMDL
