MODEL 1
REMARK minimizedAffinity -1.06997859
REMARK minimizedRMSD -1
REMARK  1 active torsions:
REMARK  status: ('A' for Active; 'I' for Inactive)
REMARK    1  A    between atoms: C3_4  and  O_7 
ROOT
ATOM      1  C   UNL d   1       0.302   0.992  -0.948  0.00  0.00    -0.033 A 
ATOM      2  C1  UNL d   1      -0.074   0.775  -2.275  0.00  0.00     0.039 A 
ATOM      3  C2  UNL d   1      -0.083  -0.520  -2.797  0.00  0.00    -0.080 A 
ATOM      4  C3  UNL d   1       0.284  -1.587  -1.982  0.00  0.00     0.150 A 
ATOM      5  C4  UNL d   1       0.656  -1.379  -0.658  0.00  0.00    -0.007 A 
ATOM      6  C5  UNL d   1       0.665  -0.084  -0.139  0.00  0.00     0.039 A 
ENDROOT
BRANCH   4   7
ATOM      7  O   UNL d   1       0.295  -2.869  -2.448  0.00  0.00    -0.526 OA
ATOM      8  H5  UNL d   1       0.044  -2.857  -3.387  0.00  0.00     0.418 HD
ENDBRANCH   4   7
TORSDOF 1
ENDMDL
