MODEL 1
REMARK minimizedAffinity -0.921275437
REMARK minimizedRMSD -1
REMARK  1 active torsions:
REMARK  status: ('A' for Active; 'I' for Inactive)
REMARK    1  A    between atoms: C3_4  and  O_7 
ROOT
ATOM      1  C   UNL d   1      -5.775   2.931  -5.998  0.00  0.00    -0.033 A 
ATOM      2  C1  UNL d   1      -6.000   3.908  -5.027  0.00  0.00     0.039 A 
ATOM      3  C2  UNL d   1      -5.367   3.820  -3.785  0.00  0.00    -0.080 A 
ATOM      4  C3  UNL d   1      -4.511   2.752  -3.529  0.00  0.00     0.150 A 
ATOM      5  C4  UNL d   1      -4.279   1.778  -4.494  0.00  0.00    -0.007 A 
ATOM      6  C5  UNL d   1      -4.913   1.867  -5.732  0.00  0.00     0.039 A 
ENDROOT
BRANCH   4   7
ATOM      7  O   UNL d   1      -3.874   2.621  -2.331  0.00  0.00    -0.526 OA
ATOM      8  H5  UNL d   1      -4.152   3.352  -1.753  0.00  0.00     0.418 HD
ENDBRANCH   4   7
TORSDOF 1
ENDMDL
