MODEL 1
REMARK minimizedAffinity 1.59315681
REMARK minimizedRMSD -1
REMARK  1 active torsions:
REMARK  status: ('A' for Active; 'I' for Inactive)
REMARK    1  A    between atoms: C3_4  and  O_7 
ROOT
ATOM      1  C   UNL d   1      -5.999   3.376  -4.082  0.00  0.00    -0.033 A 
ATOM      2  C1  UNL d   1      -5.236   2.923  -3.004  0.00  0.00     0.039 A 
ATOM      3  C2  UNL d   1      -4.472   1.760  -3.127  0.00  0.00    -0.080 A 
ATOM      4  C3  UNL d   1      -4.480   1.062  -4.331  0.00  0.00     0.150 A 
ATOM      5  C4  UNL d   1      -5.236   1.509  -5.410  0.00  0.00    -0.007 A 
ATOM      6  C5  UNL d   1      -5.998   2.670  -5.285  0.00  0.00     0.039 A 
ENDROOT
BRANCH   4   7
ATOM      7  O   UNL d   1      -3.755  -0.081  -4.497  0.00  0.00    -0.526 OA
ATOM      8  H5  UNL d   1      -3.306  -0.284  -3.660  0.00  0.00     0.418 HD
ENDBRANCH   4   7
TORSDOF 1
ENDMDL
