MODEL 1
REMARK minimizedAffinity -3.75691056
REMARK minimizedRMSD -1
REMARK  1 active torsions:
REMARK  status: ('A' for Active; 'I' for Inactive)
REMARK    1  A    between atoms: C3_4  and  O_7 
ROOT
ATOM      1  C   UNL d   1      -5.163   0.601  -5.579  0.00  0.00    -0.033 A 
ATOM      2  C1  UNL d   1      -4.496   0.591  -4.352  0.00  0.00     0.039 A 
ATOM      3  C2  UNL d   1      -4.503   1.730  -3.543  0.00  0.00    -0.080 A 
ATOM      4  C3  UNL d   1      -5.179   2.869  -3.972  0.00  0.00     0.150 A 
ATOM      5  C4  UNL d   1      -5.848   2.884  -5.192  0.00  0.00    -0.007 A 
ATOM      6  C5  UNL d   1      -5.840   1.746  -5.998  0.00  0.00     0.039 A 
ENDROOT
BRANCH   4   7
ATOM      7  O   UNL d   1      -5.209   4.005  -3.220  0.00  0.00    -0.526 OA
ATOM      8  H5  UNL d   1      -4.680   3.858  -2.418  0.00  0.00     0.418 HD
ENDBRANCH   4   7
TORSDOF 1
ENDMDL
