MODEL 1
REMARK minimizedAffinity -1.15594876
REMARK minimizedRMSD -1
REMARK  1 active torsions:
REMARK  status: ('A' for Active; 'I' for Inactive)
REMARK    1  A    between atoms: C3_4  and  O_7 
ROOT
ATOM      1  C   UNL d   1       0.744   4.305   4.121  0.00  0.00    -0.033 A 
ATOM      2  C1  UNL d   1       0.122   3.318   4.888  0.00  0.00     0.039 A 
ATOM      3  C2  UNL d   1      -0.151   2.067   4.331  0.00  0.00    -0.080 A 
ATOM      4  C3  UNL d   1       0.203   1.816   3.008  0.00  0.00     0.150 A 
ATOM      5  C4  UNL d   1       0.826   2.793   2.239  0.00  0.00    -0.007 A 
ATOM      6  C5  UNL d   1       1.098   4.042   2.797  0.00  0.00     0.039 A 
ENDROOT
BRANCH   4   7
ATOM      7  O   UNL d   1      -0.048   0.612   2.419  0.00  0.00    -0.526 OA
ATOM      8  H5  UNL d   1      -0.508   0.046   3.061  0.00  0.00     0.418 HD
ENDBRANCH   4   7
TORSDOF 1
ENDMDL
