MODEL 1
REMARK minimizedAffinity 1.68889546
REMARK minimizedRMSD -1
REMARK  1 active torsions:
REMARK  status: ('A' for Active; 'I' for Inactive)
REMARK    1  A    between atoms: C3_4  and  O_7 
ROOT
ATOM      1  C   UNL d   1       0.963   4.857   2.668  0.00  0.00    -0.033 A 
ATOM      2  C1  UNL d   1       1.205   5.107   1.316  0.00  0.00     0.039 A 
ATOM      3  C2  UNL d   1       0.893   4.141   0.359  0.00  0.00    -0.080 A 
ATOM      4  C3  UNL d   1       0.340   2.929   0.765  0.00  0.00     0.150 A 
ATOM      5  C4  UNL d   1       0.093   2.674   2.110  0.00  0.00    -0.007 A 
ATOM      6  C5  UNL d   1       0.406   3.641   3.065  0.00  0.00     0.039 A 
ENDROOT
BRANCH   4   7
ATOM      7  O   UNL d   1       0.024   1.953  -0.133  0.00  0.00    -0.526 OA
ATOM      8  H5  UNL d   1       0.276   2.258  -1.020  0.00  0.00     0.418 HD
ENDBRANCH   4   7
TORSDOF 1
ENDMDL
