MODEL 1
REMARK minimizedAffinity -0.132036239
REMARK minimizedRMSD -1
REMARK  1 active torsions:
REMARK  status: ('A' for Active; 'I' for Inactive)
REMARK    1  A    between atoms: C3_4  and  O_7 
ROOT
ATOM      1  C   UNL d   1      -4.111   5.219  -4.910  0.00  0.00    -0.033 A 
ATOM      2  C1  UNL d   1      -3.417   4.940  -3.731  0.00  0.00     0.039 A 
ATOM      3  C2  UNL d   1      -4.011   5.191  -2.493  0.00  0.00    -0.080 A 
ATOM      4  C3  UNL d   1      -5.298   5.720  -2.448  0.00  0.00     0.150 A 
ATOM      5  C4  UNL d   1      -5.997   5.996  -3.618  0.00  0.00    -0.007 A 
ATOM      6  C5  UNL d   1      -5.401   5.745  -4.854  0.00  0.00     0.039 A 
ENDROOT
BRANCH   4   7
ATOM      7  O   UNL d   1      -5.918   5.986  -1.263  0.00  0.00    -0.526 OA
ATOM      8  H5  UNL d   1      -5.305   5.772  -0.540  0.00  0.00     0.418 HD
ENDBRANCH   4   7
TORSDOF 1
ENDMDL
