MODEL 1
REMARK minimizedAffinity 4.97411966
REMARK minimizedRMSD -1
REMARK  0 active torsions:
REMARK  status: ('A' for Active; 'I' for Inactive)
ROOT
ATOM      1  C   UNL d   1      -1.081  -0.771   3.123  0.00  0.00     0.078 C 
ATOM      2  C1  UNL d   1      -0.057  -1.546   2.348  0.00  0.00    -0.077 A 
ATOM      3  C2  UNL d   1       0.747  -2.505   2.975  0.00  0.00    -0.001 A 
ATOM      4  C3  UNL d   1       1.703  -3.212   2.243  0.00  0.00     0.003 A 
ATOM      5  C4  UNL d   1       1.864  -2.966   0.881  0.00  0.00    -0.005 A 
ATOM      6  C5  UNL d   1       1.070  -2.012   0.249  0.00  0.00     0.003 A 
ATOM      7  C6  UNL d   1       0.113  -1.304   0.979  0.00  0.00    -0.001 A 
ENDROOT
TORSDOF 0
ENDMDL
