MODEL 1
REMARK minimizedAffinity 5.12029219
REMARK minimizedRMSD -1
REMARK  0 active torsions:
REMARK  status: ('A' for Active; 'I' for Inactive)
ROOT
ATOM      1  C   UNL d   1       0.268  -1.654   2.612  0.00  0.00     0.078 C 
ATOM      2  C1  UNL d   1      -1.009  -0.891   2.418  0.00  0.00    -0.077 A 
ATOM      3  C2  UNL d   1      -1.345   0.178   3.259  0.00  0.00    -0.001 A 
ATOM      4  C3  UNL d   1      -2.541   0.873   3.074  0.00  0.00     0.003 A 
ATOM      5  C4  UNL d   1      -3.411   0.506   2.049  0.00  0.00    -0.005 A 
ATOM      6  C5  UNL d   1      -3.087  -0.557   1.209  0.00  0.00     0.003 A 
ATOM      7  C6  UNL d   1      -1.891  -1.253   1.393  0.00  0.00    -0.001 A 
ENDROOT
TORSDOF 0
ENDMDL
