MODEL 1
REMARK minimizedAffinity 9.29027271
REMARK minimizedRMSD -1
REMARK  0 active torsions:
REMARK  status: ('A' for Active; 'I' for Inactive)
ROOT
ATOM      1  C   UNL d   1       1.553  -4.030   1.316  0.00  0.00     0.078 C 
ATOM      2  C1  UNL d   1       0.370  -3.440   2.023  0.00  0.00    -0.077 A 
ATOM      3  C2  UNL d   1       0.398  -2.125   2.502  0.00  0.00    -0.001 A 
ATOM      4  C3  UNL d   1      -0.707  -1.592   3.167  0.00  0.00     0.003 A 
ATOM      5  C4  UNL d   1      -1.849  -2.367   3.360  0.00  0.00    -0.005 A 
ATOM      6  C5  UNL d   1      -1.886  -3.678   2.888  0.00  0.00     0.003 A 
ATOM      7  C6  UNL d   1      -0.781  -4.212   2.223  0.00  0.00    -0.001 A 
ENDROOT
TORSDOF 0
ENDMDL
