MODEL 1
REMARK minimizedAffinity 2.13812089
REMARK minimizedRMSD -1
REMARK  0 active torsions:
REMARK  status: ('A' for Active; 'I' for Inactive)
ROOT
ATOM      1  C   UNL d   1      -1.610   1.958  -2.804  0.00  0.00     0.078 C 
ATOM      2  C1  UNL d   1      -0.447   2.359  -3.662  0.00  0.00    -0.077 A 
ATOM      3  C2  UNL d   1       0.426   3.378  -3.264  0.00  0.00    -0.001 A 
ATOM      4  C3  UNL d   1       1.498   3.747  -4.077  0.00  0.00     0.003 A 
ATOM      5  C4  UNL d   1       1.708   3.102  -5.294  0.00  0.00    -0.005 A 
ATOM      6  C5  UNL d   1       0.843   2.087  -5.700  0.00  0.00     0.003 A 
ATOM      7  C6  UNL d   1      -0.230   1.717  -4.888  0.00  0.00    -0.001 A 
ENDROOT
TORSDOF 0
ENDMDL
