MODEL 1
REMARK minimizedAffinity -3.8304975
REMARK minimizedRMSD -1
REMARK  1 active torsions:
REMARK  status: ('A' for Active; 'I' for Inactive)
REMARK    1  A    between atoms: C1_2  and  C2_3 
ROOT
ATOM      1  C2  UNL d   1       0.437  -0.329  -0.723  0.00  0.00    -0.081 A 
ATOM      2  C3  UNL d   1      -0.931  -0.113  -0.520  0.00  0.00     0.006 A 
ATOM      3  C4  UNL d   1      -1.385   0.496   0.653  0.00  0.00     0.002 A 
ATOM      4  C5  UNL d   1      -0.479   0.905   1.637  0.00  0.00    -0.080 A 
ATOM      5  C6  UNL d   1      -0.951   1.586   2.887  0.00  0.00     0.076 C 
ATOM      6  C7  UNL d   1       0.887   0.673   1.442  0.00  0.00     0.002 A 
ATOM      7  C8  UNL d   1       1.341   0.064   0.270  0.00  0.00     0.006 A 
ENDROOT
BRANCH   1   8
ATOM      8  C1  UNL d   1       0.935  -0.926  -2.015  0.00  0.00     0.054 C 
ATOM      9  C   UNL d   1       0.319  -0.230  -3.220  0.00  0.00     0.018 C 
ENDBRANCH   1   8
TORSDOF 1
ENDMDL
