MODEL 1
REMARK minimizedAffinity -5.61924124
REMARK minimizedRMSD -1
REMARK  1 active torsions:
REMARK  status: ('A' for Active; 'I' for Inactive)
REMARK    1  A    between atoms: C1_2  and  C2_3 
ROOT
ATOM      1  C2  UNL d   1       0.647  -0.358  -0.526  0.00  0.00    -0.081 A 
ATOM      2  C3  UNL d   1      -0.746  -0.222  -0.470  0.00  0.00     0.006 A 
ATOM      3  C4  UNL d   1      -1.366   0.241   0.693  0.00  0.00     0.002 A 
ATOM      4  C5  UNL d   1      -0.604   0.584   1.815  0.00  0.00    -0.080 A 
ATOM      5  C6  UNL d   1      -1.255   1.112   3.059  0.00  0.00     0.076 C 
ATOM      6  C7  UNL d   1       0.786   0.432   1.765  0.00  0.00     0.002 A 
ATOM      7  C8  UNL d   1       1.406  -0.032   0.603  0.00  0.00     0.006 A 
ENDROOT
BRANCH   1   8
ATOM      8  C1  UNL d   1       1.323  -0.796  -1.800  0.00  0.00     0.054 C 
ATOM      9  C   UNL d   1       0.483  -0.448  -3.021  0.00  0.00     0.018 C 
ENDBRANCH   1   8
TORSDOF 1
ENDMDL
