MODEL 1
REMARK minimizedAffinity -4.42157125
REMARK minimizedRMSD -1
REMARK  1 active torsions:
REMARK  status: ('A' for Active; 'I' for Inactive)
REMARK    1  A    between atoms: C1_2  and  C2_3 
ROOT
ATOM      1  C2  UNL d   1       0.283  -0.358  -0.623  0.00  0.00    -0.081 A 
ATOM      2  C3  UNL d   1      -1.045  -0.458  -0.189  0.00  0.00     0.006 A 
ATOM      3  C4  UNL d   1      -1.489   0.285   0.908  0.00  0.00     0.002 A 
ATOM      4  C5  UNL d   1      -0.617   1.145   1.583  0.00  0.00    -0.080 A 
ATOM      5  C6  UNL d   1      -1.089   1.971   2.743  0.00  0.00     0.076 C 
ATOM      6  C7  UNL d   1       0.714   1.232   1.161  0.00  0.00     0.002 A 
ATOM      7  C8  UNL d   1       1.159   0.489   0.065  0.00  0.00     0.006 A 
ENDROOT
BRANCH   1   8
ATOM      8  C1  UNL d   1       0.749  -1.108  -1.844  0.00  0.00     0.054 C 
ATOM      9  C   UNL d   1       1.122  -0.155  -2.970  0.00  0.00     0.018 C 
ENDBRANCH   1   8
TORSDOF 1
ENDMDL
