MODEL 1
REMARK minimizedAffinity -3.90521312
REMARK minimizedRMSD -1
REMARK  1 active torsions:
REMARK  status: ('A' for Active; 'I' for Inactive)
REMARK    1  A    between atoms: C1_2  and  C2_3 
ROOT
ATOM      1  C2  UNL d   1       0.129  -0.399  -0.966  0.00  0.00    -0.081 A 
ATOM      2  C3  UNL d   1       1.169  -0.334  -0.031  0.00  0.00     0.006 A 
ATOM      3  C4  UNL d   1       0.938   0.171   1.251  0.00  0.00     0.002 A 
ATOM      4  C5  UNL d   1      -0.337   0.611   1.621  0.00  0.00    -0.080 A 
ATOM      5  C6  UNL d   1      -0.606   1.128   3.004  0.00  0.00     0.076 C 
ATOM      6  C7  UNL d   1      -1.372   0.563   0.681  0.00  0.00     0.002 A 
ATOM      7  C8  UNL d   1      -1.142   0.058  -0.601  0.00  0.00     0.006 A 
ENDROOT
BRANCH   1   8
ATOM      8  C1  UNL d   1       0.360  -1.003  -2.328  0.00  0.00     0.054 C 
ATOM      9  C   UNL d   1       1.073  -0.027  -3.252  0.00  0.00     0.018 C 
ENDBRANCH   1   8
TORSDOF 1
ENDMDL
