MODEL 1
REMARK minimizedAffinity -2.49382663
REMARK minimizedRMSD -1
REMARK  1 active torsions:
REMARK  status: ('A' for Active; 'I' for Inactive)
REMARK    1  A    between atoms: C1_2  and  C2_3 
ROOT
ATOM      1  C2  UNL d   1       0.652   0.070  -2.363  0.00  0.00    -0.081 A 
ATOM      2  C3  UNL d   1      -0.508   0.853  -2.419  0.00  0.00     0.006 A 
ATOM      3  C4  UNL d   1      -1.440   0.813  -1.379  0.00  0.00     0.002 A 
ATOM      4  C5  UNL d   1      -1.225  -0.005  -0.264  0.00  0.00    -0.080 A 
ATOM      5  C6  UNL d   1      -2.203  -0.035   0.872  0.00  0.00     0.076 C 
ATOM      6  C7  UNL d   1      -0.075  -0.800  -0.217  0.00  0.00     0.002 A 
ATOM      7  C8  UNL d   1       0.857  -0.760  -1.256  0.00  0.00     0.006 A 
ENDROOT
BRANCH   1   8
ATOM      8  C1  UNL d   1       1.690   0.161  -3.452  0.00  0.00     0.054 C 
ATOM      9  C   UNL d   1       1.635   1.507  -4.159  0.00  0.00     0.018 C 
ENDBRANCH   1   8
TORSDOF 1
ENDMDL
