MODEL 1
REMARK minimizedAffinity -5.27396345
REMARK minimizedRMSD -1
REMARK  1 active torsions:
REMARK  status: ('A' for Active; 'I' for Inactive)
REMARK    1  A    between atoms: C1_2  and  C2_3 
ROOT
ATOM      1  C2  UNL d   1       0.419   0.311   1.165  0.00  0.00    -0.081 A 
ATOM      2  C3  UNL d   1       0.068  -0.909   0.575  0.00  0.00     0.006 A 
ATOM      3  C4  UNL d   1       0.055  -1.047  -0.815  0.00  0.00     0.002 A 
ATOM      4  C5  UNL d   1       0.402   0.030  -1.638  0.00  0.00    -0.080 A 
ATOM      5  C6  UNL d   1       0.422  -0.113  -3.130  0.00  0.00     0.076 C 
ATOM      6  C7  UNL d   1       0.736   1.255  -1.049  0.00  0.00     0.002 A 
ATOM      7  C8  UNL d   1       0.748   1.393   0.340  0.00  0.00     0.006 A 
ENDROOT
BRANCH   1   8
ATOM      8  C1  UNL d   1       0.496   0.444   2.664  0.00  0.00     0.054 C 
ATOM      9  C   UNL d   1      -0.876   0.291   3.305  0.00  0.00     0.018 C 
ENDBRANCH   1   8
TORSDOF 1
ENDMDL
