MODEL 1
REMARK minimizedAffinity -4.45635414
REMARK minimizedRMSD -1
REMARK  1 active torsions:
REMARK  status: ('A' for Active; 'I' for Inactive)
REMARK    1  A    between atoms: C1_2  and  C2_3 
ROOT
ATOM      1  C2  UNL d   1       0.265   0.146   1.547  0.00  0.00    -0.081 A 
ATOM      2  C3  UNL d   1      -0.996   0.301   2.136  0.00  0.00     0.006 A 
ATOM      3  C4  UNL d   1      -2.153  -0.054   1.437  0.00  0.00     0.002 A 
ATOM      4  C5  UNL d   1      -2.068  -0.577   0.143  0.00  0.00    -0.080 A 
ATOM      5  C6  UNL d   1      -3.300  -0.990  -0.606  0.00  0.00     0.076 C 
ATOM      6  C7  UNL d   1      -0.809  -0.715  -0.453  0.00  0.00     0.002 A 
ATOM      7  C8  UNL d   1       0.347  -0.360   0.245  0.00  0.00     0.006 A 
ENDROOT
BRANCH   1   8
ATOM      8  C1  UNL d   1       1.517   0.467   2.321  0.00  0.00     0.054 C 
ATOM      9  C   UNL d   1       2.572  -0.616   2.141  0.00  0.00     0.018 C 
ENDBRANCH   1   8
TORSDOF 1
ENDMDL
