MODEL 1
REMARK minimizedAffinity 1.23290455
REMARK minimizedRMSD -1
REMARK  3 active torsions:
REMARK  status: ('A' for Active; 'I' for Inactive)
REMARK    1  A    between atoms: C3'_2  and  C2'_3 
REMARK    2  A    between atoms: C2'_3  and  C1'_4 
REMARK    3  A    between atoms: C1'_4  and  C1_5 
ROOT
ATOM      1  C1  N4B d   1       2.708   1.110   1.100  0.00  0.00    -0.075 A 
ATOM      2  C2  N4B d   1       2.846   1.968   2.213  0.00  0.00     0.002 A 
ATOM      3  C3  N4B d   1       2.746   1.462   3.486  0.00  0.00     0.002 A 
ATOM      4  C4  N4B d   1       2.492   0.112   3.670  0.00  0.00    -0.004 A 
ATOM      5  C5  N4B d   1       2.385  -0.715   2.590  0.00  0.00     0.002 A 
ATOM      6  C6  N4B d   1       2.486  -0.221   1.305  0.00  0.00     0.002 A 
ENDROOT
BRANCH   1   7
ATOM      7  C1' N4B d   1       2.723   1.631  -0.311  0.00  0.00     0.057 C 
BRANCH   7   8
ATOM      8  C2' N4B d   1       2.254   3.083  -0.314  0.00  0.00     0.009 C 
BRANCH   8   9
ATOM      9  C3' N4B d   1       0.740   3.191  -0.368  0.00  0.00     0.004 C 
ATOM     10  C4' N4B d   1       0.271   4.471  -0.992  0.00  0.00     0.003 C 
ENDBRANCH   8   9
ENDBRANCH   7   8
ENDBRANCH   1   7
TORSDOF 3
ENDMDL
