MODEL 1
REMARK minimizedAffinity 6.15051365
REMARK minimizedRMSD -1
REMARK  3 active torsions:
REMARK  status: ('A' for Active; 'I' for Inactive)
REMARK    1  A    between atoms: C3'_2  and  C2'_3 
REMARK    2  A    between atoms: C2'_3  and  C1'_4 
REMARK    3  A    between atoms: C1'_4  and  C1_5 
ROOT
ATOM      1  C1  N4B d   1       2.180  -2.359   3.697  0.00  0.00    -0.075 A 
ATOM      2  C2  N4B d   1       2.528  -3.711   3.483  0.00  0.00     0.002 A 
ATOM      3  C3  N4B d   1       2.963  -4.482   4.533  0.00  0.00     0.002 A 
ATOM      4  C4  N4B d   1       3.074  -3.920   5.796  0.00  0.00    -0.004 A 
ATOM      5  C5  N4B d   1       2.712  -2.620   5.999  0.00  0.00     0.002 A 
ATOM      6  C6  N4B d   1       2.270  -1.835   4.954  0.00  0.00     0.002 A 
ENDROOT
BRANCH   1   7
ATOM      7  C1' N4B d   1       1.782  -1.453   2.563  0.00  0.00     0.057 C 
BRANCH   7   8
ATOM      8  C2' N4B d   1       2.229  -0.029   2.880  0.00  0.00     0.009 C 
BRANCH   8   9
ATOM      9  C3' N4B d   1       1.800   0.954   1.804  0.00  0.00     0.004 C 
ATOM     10  C4' N4B d   1       2.961   1.551   1.066  0.00  0.00     0.003 C 
ENDBRANCH   8   9
ENDBRANCH   7   8
ENDBRANCH   1   7
TORSDOF 3
ENDMDL
