MODEL 1
REMARK minimizedAffinity 5.82323217
REMARK minimizedRMSD -1
REMARK  3 active torsions:
REMARK  status: ('A' for Active; 'I' for Inactive)
REMARK    1  A    between atoms: C3'_2  and  C2'_3 
REMARK    2  A    between atoms: C2'_3  and  C1'_4 
REMARK    3  A    between atoms: C1'_4  and  C1_5 
ROOT
ATOM      1  C1  N4B d   1       1.828  -1.397   1.708  0.00  0.00    -0.075 A 
ATOM      2  C2  N4B d   1       2.083  -0.008   1.676  0.00  0.00     0.002 A 
ATOM      3  C3  N4B d   1       2.155   0.703   2.848  0.00  0.00     0.002 A 
ATOM      4  C4  N4B d   1       1.959   0.054   4.058  0.00  0.00    -0.004 A 
ATOM      5  C5  N4B d   1       1.738  -1.292   4.081  0.00  0.00     0.002 A 
ATOM      6  C6  N4B d   1       1.667  -2.021   2.911  0.00  0.00     0.002 A 
ENDROOT
BRANCH   1   7
ATOM      7  C1' N4B d   1       1.655  -2.201   0.448  0.00  0.00     0.057 C 
BRANCH   7   8
ATOM      8  C2' N4B d   1       0.552  -1.574  -0.399  0.00  0.00     0.009 C 
BRANCH   8   9
ATOM      9  C3' N4B d   1       0.365  -2.302  -1.719  0.00  0.00     0.004 C 
ATOM     10  C4' N4B d   1       1.520  -2.111  -2.656  0.00  0.00     0.003 C 
ENDBRANCH   8   9
ENDBRANCH   7   8
ENDBRANCH   1   7
TORSDOF 3
ENDMDL
