MODEL 1
REMARK minimizedAffinity 8.20685387
REMARK minimizedRMSD -1
REMARK  3 active torsions:
REMARK  status: ('A' for Active; 'I' for Inactive)
REMARK    1  A    between atoms: C3'_2  and  C2'_3 
REMARK    2  A    between atoms: C2'_3  and  C1'_4 
REMARK    3  A    between atoms: C1'_4  and  C1_5 
ROOT
ATOM      1  C1  N4B d   1       2.605   0.126   2.024  0.00  0.00    -0.075 A 
ATOM      2  C2  N4B d   1       1.350  -0.308   1.543  0.00  0.00     0.002 A 
ATOM      3  C3  N4B d   1       0.767  -1.436   2.067  0.00  0.00     0.002 A 
ATOM      4  C4  N4B d   1       1.425  -2.153   3.055  0.00  0.00    -0.004 A 
ATOM      5  C5  N4B d   1       2.626  -1.713   3.531  0.00  0.00     0.002 A 
ATOM      6  C6  N4B d   1       3.222  -0.579   3.017  0.00  0.00     0.002 A 
ENDROOT
BRANCH   1   7
ATOM      7  C1' N4B d   1       3.322   1.304   1.422  0.00  0.00     0.057 C 
BRANCH   7   8
ATOM      8  C2' N4B d   1       2.331   2.448   1.229  0.00  0.00     0.009 C 
BRANCH   8   9
ATOM      9  C3' N4B d   1       2.659   3.283   0.004  0.00  0.00     0.004 C 
ATOM     10  C4' N4B d   1       1.682   4.399  -0.217  0.00  0.00     0.003 C 
ENDBRANCH   8   9
ENDBRANCH   7   8
ENDBRANCH   1   7
TORSDOF 3
ENDMDL
