MODEL 1
REMARK minimizedAffinity -2.08979011
REMARK minimizedRMSD -1
REMARK  1 active torsions:
REMARK  status: ('A' for Active; 'I' for Inactive)
REMARK    1  A    between atoms: C1_2  and  C2_3 
ROOT
ATOM      1  C2  UNL d   1      -0.051   0.383   1.148  0.00  0.00    -0.077 A 
ATOM      2  C3  UNL d   1       0.791   0.747   0.088  0.00  0.00     0.002 A 
ATOM      3  C4  UNL d   1       0.252   1.111  -1.148  0.00  0.00     0.002 A 
ATOM      4  C5  UNL d   1      -1.128   1.118  -1.334  0.00  0.00    -0.004 A 
ATOM      5  C6  UNL d   1      -1.974   0.755  -0.286  0.00  0.00     0.002 A 
ATOM      6  C7  UNL d   1      -1.438   0.390   0.950  0.00  0.00     0.002 A 
ENDROOT
BRANCH   1   7
ATOM      7  C1  UNL d   1       0.525   0.038   2.496  0.00  0.00     0.055 C 
ATOM      8  C   UNL d   1      -0.476   0.303   3.611  0.00  0.00     0.019 C 
ENDBRANCH   1   7
TORSDOF 1
ENDMDL
