MODEL 1
REMARK minimizedAffinity -4.01244688
REMARK minimizedRMSD -1
REMARK  1 active torsions:
REMARK  status: ('A' for Active; 'I' for Inactive)
REMARK    1  A    between atoms: C1_2  and  C2_3 
ROOT
ATOM      1  C2  UNL d   1       0.006  -0.188   0.146  0.00  0.00    -0.077 A 
ATOM      2  C3  UNL d   1       1.310   0.163   0.524  0.00  0.00     0.002 A 
ATOM      3  C4  UNL d   1       1.723   0.020   1.850  0.00  0.00     0.002 A 
ATOM      4  C5  UNL d   1       0.841  -0.476   2.807  0.00  0.00    -0.004 A 
ATOM      5  C6  UNL d   1      -0.459  -0.825   2.442  0.00  0.00     0.002 A 
ATOM      6  C7  UNL d   1      -0.874  -0.682   1.117  0.00  0.00     0.002 A 
ENDROOT
BRANCH   1   7
ATOM      7  C1  UNL d   1      -0.427  -0.081  -1.293  0.00  0.00     0.055 C 
ATOM      8  C   UNL d   1       0.193  -1.183  -2.140  0.00  0.00     0.019 C 
ENDBRANCH   1   7
TORSDOF 1
ENDMDL
