MODEL 1
REMARK minimizedAffinity -1.66038287
REMARK minimizedRMSD -1
REMARK  1 active torsions:
REMARK  status: ('A' for Active; 'I' for Inactive)
REMARK    1  A    between atoms: C1_2  and  C2_3 
ROOT
ATOM      1  C2  UNL d   1      -0.056   0.091  -0.079  0.00  0.00    -0.077 A 
ATOM      2  C3  UNL d   1      -1.312  -0.331   0.377  0.00  0.00     0.002 A 
ATOM      3  C4  UNL d   1      -1.503  -0.656   1.721  0.00  0.00     0.002 A 
ATOM      4  C5  UNL d   1      -0.443  -0.558   2.621  0.00  0.00    -0.004 A 
ATOM      5  C6  UNL d   1       0.811  -0.141   2.176  0.00  0.00     0.002 A 
ATOM      6  C7  UNL d   1       1.004   0.183   0.832  0.00  0.00     0.002 A 
ENDROOT
BRANCH   1   7
ATOM      7  C1  UNL d   1       0.140   0.488  -1.519  0.00  0.00     0.055 C 
ATOM      8  C   UNL d   1       0.702  -0.663  -2.340  0.00  0.00     0.019 C 
ENDBRANCH   1   7
TORSDOF 1
ENDMDL
