MODEL 1
REMARK minimizedAffinity -4.5559864
REMARK minimizedRMSD -1
REMARK  1 active torsions:
REMARK  status: ('A' for Active; 'I' for Inactive)
REMARK    1  A    between atoms: C1_2  and  C2_3 
ROOT
ATOM      1  C2  UNL d   1      -0.282   0.204  -0.159  0.00  0.00    -0.077 A 
ATOM      2  C3  UNL d   1      -1.360  -0.510   0.384  0.00  0.00     0.002 A 
ATOM      3  C4  UNL d   1      -1.382  -0.830   1.743  0.00  0.00     0.002 A 
ATOM      4  C5  UNL d   1      -0.331  -0.438   2.570  0.00  0.00    -0.004 A 
ATOM      5  C6  UNL d   1       0.746   0.270   2.038  0.00  0.00     0.002 A 
ATOM      6  C7  UNL d   1       0.770   0.590   0.680  0.00  0.00     0.002 A 
ENDROOT
BRANCH   1   7
ATOM      7  C1  UNL d   1      -0.281   0.593  -1.615  0.00  0.00     0.055 C 
ATOM      8  C   UNL d   1       0.761  -0.194  -2.397  0.00  0.00     0.019 C 
ENDBRANCH   1   7
TORSDOF 1
ENDMDL
