MODEL 1
REMARK minimizedAffinity -3.12312818
REMARK minimizedRMSD -1
REMARK  1 active torsions:
REMARK  status: ('A' for Active; 'I' for Inactive)
REMARK    1  A    between atoms: C1_2  and  C2_3 
ROOT
ATOM      1  C2  UNL d   1       0.015   0.337  -0.487  0.00  0.00    -0.077 A 
ATOM      2  C3  UNL d   1      -0.987  -0.451   0.096  0.00  0.00     0.002 A 
ATOM      3  C4  UNL d   1      -0.983  -0.695   1.471  0.00  0.00     0.002 A 
ATOM      4  C5  UNL d   1       0.017  -0.152   2.274  0.00  0.00    -0.004 A 
ATOM      5  C6  UNL d   1       1.020   0.631   1.704  0.00  0.00     0.002 A 
ATOM      6  C7  UNL d   1       1.018   0.875   0.330  0.00  0.00     0.002 A 
ENDROOT
BRANCH   1   7
ATOM      7  C1  UNL d   1      -0.015   0.642  -1.961  0.00  0.00     0.055 C 
ATOM      8  C   UNL d   1       0.510  -0.529  -2.780  0.00  0.00     0.019 C 
ENDBRANCH   1   7
TORSDOF 1
ENDMDL
