MODEL 1
REMARK minimizedAffinity -2.0389967
REMARK minimizedRMSD -1
REMARK  1 active torsions:
REMARK  status: ('A' for Active; 'I' for Inactive)
REMARK    1  A    between atoms: C1_2  and  C2_3 
ROOT
ATOM      1  C2  UNL d   1       0.175   0.099   0.145  0.00  0.00    -0.077 A 
ATOM      2  C3  UNL d   1      -0.956  -0.679   0.432  0.00  0.00     0.002 A 
ATOM      3  C4  UNL d   1      -1.301  -0.961   1.755  0.00  0.00     0.002 A 
ATOM      4  C5  UNL d   1      -0.525  -0.466   2.800  0.00  0.00    -0.004 A 
ATOM      5  C6  UNL d   1       0.602   0.307   2.525  0.00  0.00     0.002 A 
ATOM      6  C7  UNL d   1       0.950   0.589   1.203  0.00  0.00     0.002 A 
ENDROOT
BRANCH   1   7
ATOM      7  C1  UNL d   1       0.521   0.446  -1.280  0.00  0.00     0.055 C 
ATOM      8  C   UNL d   1       0.719  -0.806  -2.122  0.00  0.00     0.019 C 
ENDBRANCH   1   7
TORSDOF 1
ENDMDL
