MODEL 1
REMARK minimizedAffinity -1.52709115
REMARK minimizedRMSD -1
REMARK  1 active torsions:
REMARK  status: ('A' for Active; 'I' for Inactive)
REMARK    1  A    between atoms: C1_2  and  C2_3 
ROOT
ATOM      1  C2  UNL d   1       0.016  -0.386  -1.602  0.00  0.00    -0.077 A 
ATOM      2  C3  UNL d   1      -0.440  -1.446  -2.399  0.00  0.00     0.002 A 
ATOM      3  C4  UNL d   1       0.272  -1.831  -3.536  0.00  0.00     0.002 A 
ATOM      4  C5  UNL d   1       1.445  -1.166  -3.885  0.00  0.00    -0.004 A 
ATOM      5  C6  UNL d   1       1.906  -0.109  -3.101  0.00  0.00     0.002 A 
ATOM      6  C7  UNL d   1       1.195   0.278  -1.964  0.00  0.00     0.002 A 
ENDROOT
BRANCH   1   7
ATOM      7  C1  UNL d   1      -0.723  -0.001  -0.347  0.00  0.00     0.055 C 
ATOM      8  C   UNL d   1      -0.817  -1.171   0.621  0.00  0.00     0.019 C 
ENDBRANCH   1   7
TORSDOF 1
ENDMDL
