MODEL 1
REMARK minimizedAffinity -3.20431185
REMARK minimizedRMSD -1
REMARK  1 active torsions:
REMARK  status: ('A' for Active; 'I' for Inactive)
REMARK    1  A    between atoms: C1_2  and  C2_3 
ROOT
ATOM      1  C2  UNL d   1       0.494  -0.663  -1.899  0.00  0.00    -0.077 A 
ATOM      2  C3  UNL d   1       1.077   0.607  -1.786  0.00  0.00     0.002 A 
ATOM      3  C4  UNL d   1       1.307   1.169  -0.529  0.00  0.00     0.002 A 
ATOM      4  C5  UNL d   1       0.963   0.467   0.624  0.00  0.00    -0.004 A 
ATOM      5  C6  UNL d   1       0.380  -0.796   0.522  0.00  0.00     0.002 A 
ATOM      6  C7  UNL d   1       0.148  -1.359  -0.734  0.00  0.00     0.002 A 
ENDROOT
BRANCH   1   7
ATOM      7  C1  UNL d   1       0.289  -1.292  -3.253  0.00  0.00     0.055 C 
ATOM      8  C   UNL d   1       1.427  -2.241  -3.599  0.00  0.00     0.019 C 
ENDBRANCH   1   7
TORSDOF 1
ENDMDL
