MODEL 1
REMARK minimizedAffinity -4.16374826
REMARK minimizedRMSD -1
REMARK  1 active torsions:
REMARK  status: ('A' for Active; 'I' for Inactive)
REMARK    1  A    between atoms: C1_2  and  C2_3 
ROOT
ATOM      1  C2  UNL d   1       0.071  -0.085  -0.092  0.00  0.00    -0.077 A 
ATOM      2  C3  UNL d   1      -1.034  -0.216   0.761  0.00  0.00     0.002 A 
ATOM      3  C4  UNL d   1      -0.850  -0.383   2.135  0.00  0.00     0.002 A 
ATOM      4  C5  UNL d   1       0.437  -0.417   2.668  0.00  0.00    -0.004 A 
ATOM      5  C6  UNL d   1       1.542  -0.291   1.827  0.00  0.00     0.002 A 
ATOM      6  C7  UNL d   1       1.360  -0.125   0.454  0.00  0.00     0.002 A 
ENDROOT
BRANCH   1   7
ATOM      7  C1  UNL d   1      -0.127   0.144  -1.568  0.00  0.00     0.055 C 
ATOM      8  C   UNL d   1       0.875  -0.652  -2.391  0.00  0.00     0.019 C 
ENDBRANCH   1   7
TORSDOF 1
ENDMDL
