MODEL 1
REMARK minimizedAffinity -4.78345442
REMARK minimizedRMSD -1
REMARK  1 active torsions:
REMARK  status: ('A' for Active; 'I' for Inactive)
REMARK    1  A    between atoms: C1_2  and  C2_3 
ROOT
ATOM      1  C2  UNL d   1       0.181  -0.054   0.159  0.00  0.00    -0.077 A 
ATOM      2  C3  UNL d   1      -1.042  -0.654   0.488  0.00  0.00     0.002 A 
ATOM      3  C4  UNL d   1      -1.504  -0.638   1.806  0.00  0.00     0.002 A 
ATOM      4  C5  UNL d   1      -0.752  -0.020   2.802  0.00  0.00    -0.004 A 
ATOM      5  C6  UNL d   1       0.467   0.578   2.485  0.00  0.00     0.002 A 
ATOM      6  C7  UNL d   1       0.931   0.562   1.169  0.00  0.00     0.002 A 
ENDROOT
BRANCH   1   7
ATOM      7  C1  UNL d   1       0.658  -0.027  -1.270  0.00  0.00     0.055 C 
ATOM      8  C   UNL d   1       1.075   1.376  -1.688  0.00  0.00     0.019 C 
ENDBRANCH   1   7
TORSDOF 1
ENDMDL
