MODEL 1
REMARK minimizedAffinity -6.05254364
REMARK minimizedRMSD -1
REMARK  1 active torsions:
REMARK  status: ('A' for Active; 'I' for Inactive)
REMARK    1  A    between atoms: C1_2  and  C2_3 
ROOT
ATOM      1  C2  UNL d   1      -0.819   0.114   0.271  0.00  0.00    -0.077 A 
ATOM      2  C3  UNL d   1      -2.044  -0.194   0.879  0.00  0.00     0.002 A 
ATOM      3  C4  UNL d   1      -2.104  -0.468   2.247  0.00  0.00     0.002 A 
ATOM      4  C5  UNL d   1      -0.944  -0.433   3.018  0.00  0.00    -0.004 A 
ATOM      5  C6  UNL d   1       0.279  -0.130   2.421  0.00  0.00     0.002 A 
ATOM      6  C7  UNL d   1       0.341   0.143   1.054  0.00  0.00     0.002 A 
ENDROOT
BRANCH   1   7
ATOM      7  C1  UNL d   1      -0.760   0.459  -1.194  0.00  0.00     0.055 C 
ATOM      8  C   UNL d   1       0.335  -0.325  -1.904  0.00  0.00     0.019 C 
ENDBRANCH   1   7
TORSDOF 1
ENDMDL
