MODEL 1
REMARK minimizedAffinity -2.72390056
REMARK minimizedRMSD -1
REMARK  1 active torsions:
REMARK  status: ('A' for Active; 'I' for Inactive)
REMARK    1  A    between atoms: C1_2  and  C2_3 
ROOT
ATOM      1  C2  UNL d   1      -0.586  -0.246   0.975  0.00  0.00    -0.077 A 
ATOM      2  C3  UNL d   1      -0.956  -0.275  -0.377  0.00  0.00     0.002 A 
ATOM      3  C4  UNL d   1      -0.058   0.139  -1.364  0.00  0.00     0.002 A 
ATOM      4  C5  UNL d   1       1.215   0.580  -1.009  0.00  0.00    -0.004 A 
ATOM      5  C6  UNL d   1       1.591   0.615   0.333  0.00  0.00     0.002 A 
ATOM      6  C7  UNL d   1       0.695   0.203   1.320  0.00  0.00     0.002 A 
ENDROOT
BRANCH   1   7
ATOM      7  C1  UNL d   1      -1.535  -0.738   2.036  0.00  0.00     0.055 C 
ATOM      8  C   UNL d   1      -0.831  -0.900   3.376  0.00  0.00     0.019 C 
ENDBRANCH   1   7
TORSDOF 1
ENDMDL
