MODEL 1
REMARK minimizedAffinity -4.20122623
REMARK minimizedRMSD -1
REMARK  1 active torsions:
REMARK  status: ('A' for Active; 'I' for Inactive)
REMARK    1  A    between atoms: C1_2  and  C2_3 
ROOT
ATOM      1  C2  UNL d   1      -0.500  -0.127   0.260  0.00  0.00    -0.077 A 
ATOM      2  C3  UNL d   1      -1.635  -0.671   0.877  0.00  0.00     0.002 A 
ATOM      3  C4  UNL d   1      -1.625  -0.966   2.242  0.00  0.00     0.002 A 
ATOM      4  C5  UNL d   1      -0.484  -0.717   3.001  0.00  0.00    -0.004 A 
ATOM      5  C6  UNL d   1       0.652  -0.178   2.397  0.00  0.00     0.002 A 
ATOM      6  C7  UNL d   1       0.643   0.116   1.032  0.00  0.00     0.002 A 
ENDROOT
BRANCH   1   7
ATOM      7  C1  UNL d   1      -0.525   0.237  -1.201  0.00  0.00     0.055 C 
ATOM      8  C   UNL d   1       0.880   0.462  -1.740  0.00  0.00     0.019 C 
ENDBRANCH   1   7
TORSDOF 1
ENDMDL
