MODEL 1
REMARK minimizedAffinity -3.3055799
REMARK minimizedRMSD -1
REMARK  1 active torsions:
REMARK  status: ('A' for Active; 'I' for Inactive)
REMARK    1  A    between atoms: C1_2  and  C2_3 
ROOT
ATOM      1  C2  UNL d   1      -0.370   0.062   1.741  0.00  0.00    -0.077 A 
ATOM      2  C3  UNL d   1       0.829   0.189   1.027  0.00  0.00     0.002 A 
ATOM      3  C4  UNL d   1       0.813   0.322  -0.363  0.00  0.00     0.002 A 
ATOM      4  C5  UNL d   1      -0.400   0.332  -1.049  0.00  0.00    -0.004 A 
ATOM      5  C6  UNL d   1      -1.598   0.204  -0.348  0.00  0.00     0.002 A 
ATOM      6  C7  UNL d   1      -1.584   0.070   1.041  0.00  0.00     0.002 A 
ENDROOT
BRANCH   1   7
ATOM      7  C1  UNL d   1      -0.357  -0.032   3.245  0.00  0.00     0.055 C 
ATOM      8  C   UNL d   1      -1.590  -0.758   3.765  0.00  0.00     0.019 C 
ENDBRANCH   1   7
TORSDOF 1
ENDMDL
