MODEL 1
REMARK minimizedAffinity -5.17187929
REMARK minimizedRMSD -1
REMARK  0 active torsions:
REMARK  status: ('A' for Active; 'I' for Inactive)
ROOT
ATOM      1  C   UNL d   1      -0.987   1.165   2.758  0.00  0.00     0.020 A 
ATOM      2  C1  UNL d   1       0.104   0.733   3.512  0.00  0.00     0.020 A 
ATOM      3  C2  UNL d   1       1.090  -0.060   2.922  0.00  0.00     0.034 A 
ATOM      4  C3  UNL d   1       0.988  -0.423   1.574  0.00  0.00     0.017 A 
ATOM      5  C4  UNL d   1      -0.107   0.011   0.818  0.00  0.00     0.017 A 
ATOM      6  C5  UNL d   1      -1.092   0.805   1.414  0.00  0.00     0.034 A 
ATOM      7 Cl   UNL d   1      -0.302  -0.396  -0.850  0.00  0.00    -0.070 Cl
ATOM      8 Cl1  UNL d   1       2.245  -1.405   0.909  0.00  0.00    -0.070 Cl
ENDROOT
TORSDOF 0
ENDMDL
