MODEL 1
REMARK minimizedAffinity -3.37901402
REMARK minimizedRMSD -1
REMARK  0 active torsions:
REMARK  status: ('A' for Active; 'I' for Inactive)
ROOT
ATOM      1  C   UNL d   1       0.311  -0.612  -0.532  0.00  0.00     0.020 A 
ATOM      2  C1  UNL d   1      -0.972  -0.221  -0.151  0.00  0.00     0.020 A 
ATOM      3  C2  UNL d   1      -1.154   0.562   0.990  0.00  0.00     0.034 A 
ATOM      4  C3  UNL d   1      -0.050   0.957   1.756  0.00  0.00     0.017 A 
ATOM      5  C4  UNL d   1       1.237   0.563   1.373  0.00  0.00     0.017 A 
ATOM      6  C5  UNL d   1       1.413  -0.221   0.229  0.00  0.00     0.034 A 
ATOM      7 Cl   UNL d   1       2.647   1.011   2.267  0.00  0.00    -0.070 Cl
ATOM      8 Cl1  UNL d   1      -0.348   1.926   3.155  0.00  0.00    -0.070 Cl
ENDROOT
TORSDOF 0
ENDMDL
