MODEL 1
REMARK minimizedAffinity 0.461389333
REMARK minimizedRMSD -1
REMARK  0 active torsions:
REMARK  status: ('A' for Active; 'I' for Inactive)
ROOT
ATOM      1  C   UNL d   1       1.377  -0.126  -0.416  0.00  0.00     0.020 A 
ATOM      2  C1  UNL d   1       1.747   0.049   0.916  0.00  0.00     0.020 A 
ATOM      3  C2  UNL d   1       0.796  -0.088   1.929  0.00  0.00     0.034 A 
ATOM      4  C3  UNL d   1      -0.531  -0.401   1.611  0.00  0.00     0.017 A 
ATOM      5  C4  UNL d   1      -0.902  -0.577   0.273  0.00  0.00     0.017 A 
ATOM      6  C5  UNL d   1       0.055  -0.438  -0.737  0.00  0.00     0.034 A 
ATOM      7 Cl   UNL d   1      -2.519  -0.964  -0.198  0.00  0.00    -0.070 Cl
ATOM      8 Cl1  UNL d   1      -1.655  -0.556   2.914  0.00  0.00    -0.070 Cl
ENDROOT
TORSDOF 0
ENDMDL
