MODEL 1
REMARK minimizedAffinity -1.76963019
REMARK minimizedRMSD -1
REMARK  0 active torsions:
REMARK  status: ('A' for Active; 'I' for Inactive)
ROOT
ATOM      1  C   UNL d   1       1.654  -0.077   1.301  0.00  0.00     0.020 A 
ATOM      2  C1  UNL d   1       2.360  -0.996   0.526  0.00  0.00     0.020 A 
ATOM      3  C2  UNL d   1       2.240  -0.974  -0.865  0.00  0.00     0.034 A 
ATOM      4  C3  UNL d   1       1.412  -0.032  -1.485  0.00  0.00     0.017 A 
ATOM      5  C4  UNL d   1       0.703   0.890  -0.706  0.00  0.00     0.017 A 
ATOM      6  C5  UNL d   1       0.827   0.864   0.686  0.00  0.00     0.034 A 
ATOM      7 Cl   UNL d   1      -0.338   2.082  -1.399  0.00  0.00    -0.070 Cl
ATOM      8 Cl1  UNL d   1       1.311  -0.062  -3.210  0.00  0.00    -0.070 Cl
ENDROOT
TORSDOF 0
ENDMDL
