MODEL 1
REMARK minimizedAffinity -4.85772943
REMARK minimizedRMSD -1
REMARK  0 active torsions:
REMARK  status: ('A' for Active; 'I' for Inactive)
ROOT
ATOM      1  C   UNL d   1       1.226   0.194   1.400  0.00  0.00     0.020 A 
ATOM      2  C1  UNL d   1       0.208   1.010   1.890  0.00  0.00     0.020 A 
ATOM      3  C2  UNL d   1      -1.101   0.844   1.432  0.00  0.00     0.034 A 
ATOM      4  C3  UNL d   1      -1.395  -0.141   0.482  0.00  0.00     0.017 A 
ATOM      5  C4  UNL d   1      -0.372  -0.960  -0.009  0.00  0.00     0.017 A 
ATOM      6  C5  UNL d   1       0.937  -0.789   0.453  0.00  0.00     0.034 A 
ATOM      7 Cl   UNL d   1      -0.657  -2.197  -1.182  0.00  0.00    -0.070 Cl
ATOM      8 Cl1  UNL d   1      -3.036  -0.291  -0.038  0.00  0.00    -0.070 Cl
ENDROOT
TORSDOF 0
ENDMDL
