MODEL 1
REMARK minimizedAffinity -4.24708986
REMARK minimizedRMSD -1
REMARK  0 active torsions:
REMARK  status: ('A' for Active; 'I' for Inactive)
ROOT
ATOM      1  C   UNL d   1      -0.759   1.002   3.336  0.00  0.00     0.020 A 
ATOM      2  C1  UNL d   1       0.479   1.420   2.852  0.00  0.00     0.020 A 
ATOM      3  C2  UNL d   1       0.846   1.137   1.534  0.00  0.00     0.034 A 
ATOM      4  C3  UNL d   1      -0.028   0.433   0.697  0.00  0.00     0.017 A 
ATOM      5  C4  UNL d   1      -1.271   0.014   1.184  0.00  0.00     0.017 A 
ATOM      6  C5  UNL d   1      -1.633   0.301   2.504  0.00  0.00     0.034 A 
ATOM      7 Cl   UNL d   1      -2.402  -0.858   0.211  0.00  0.00    -0.070 Cl
ATOM      8 Cl1  UNL d   1       0.490   0.118  -0.921  0.00  0.00    -0.070 Cl
ENDROOT
TORSDOF 0
ENDMDL
