MODEL 1
REMARK minimizedAffinity -4.19869709
REMARK minimizedRMSD -1
REMARK  0 active torsions:
REMARK  status: ('A' for Active; 'I' for Inactive)
ROOT
ATOM      1  C   UNL d   1      -3.610  -3.401  -1.435  0.00  0.00     0.020 A 
ATOM      2  C1  UNL d   1      -2.315  -3.890  -1.607  0.00  0.00     0.020 A 
ATOM      3  C2  UNL d   1      -1.218  -3.065  -1.352  0.00  0.00     0.034 A 
ATOM      4  C3  UNL d   1      -1.413  -1.747  -0.923  0.00  0.00     0.017 A 
ATOM      5  C4  UNL d   1      -2.712  -1.257  -0.750  0.00  0.00     0.017 A 
ATOM      6  C5  UNL d   1      -3.808  -2.088  -1.007  0.00  0.00     0.034 A 
ATOM      7 Cl   UNL d   1      -3.032   0.357  -0.224  0.00  0.00    -0.070 Cl
ATOM      8 Cl1  UNL d   1      -0.010  -0.783  -0.626  0.00  0.00    -0.070 Cl
ENDROOT
TORSDOF 0
ENDMDL
