MODEL 1
REMARK minimizedAffinity -2.41246724
REMARK minimizedRMSD -1
REMARK  0 active torsions:
REMARK  status: ('A' for Active; 'I' for Inactive)
ROOT
ATOM      1  C   UNL d   1       1.702  -0.394   0.346  0.00  0.00     0.020 A 
ATOM      2  C1  UNL d   1       2.212   0.091   1.550  0.00  0.00     0.020 A 
ATOM      3  C2  UNL d   1       1.373   0.757   2.446  0.00  0.00     0.034 A 
ATOM      4  C3  UNL d   1       0.020   0.941   2.138  0.00  0.00     0.017 A 
ATOM      5  C4  UNL d   1      -0.491   0.455   0.929  0.00  0.00     0.017 A 
ATOM      6  C5  UNL d   1       0.354  -0.212   0.036  0.00  0.00     0.034 A 
ATOM      7 Cl   UNL d   1      -2.149   0.644   0.481  0.00  0.00    -0.070 Cl
ATOM      8 Cl1  UNL d   1      -0.960   1.775   3.292  0.00  0.00    -0.070 Cl
ENDROOT
TORSDOF 0
ENDMDL
