MODEL 1
REMARK minimizedAffinity 2.76253533
REMARK minimizedRMSD -1
REMARK  0 active torsions:
REMARK  status: ('A' for Active; 'I' for Inactive)
ROOT
ATOM      1  C   UNL d   1      -0.368   0.299   2.651  0.00  0.00     0.020 A 
ATOM      2  C1  UNL d   1       0.869   0.687   2.140  0.00  0.00     0.020 A 
ATOM      3  C2  UNL d   1       1.099   0.650   0.763  0.00  0.00     0.034 A 
ATOM      4  C3  UNL d   1       0.089   0.224  -0.108  0.00  0.00     0.017 A 
ATOM      5  C4  UNL d   1      -1.153  -0.165   0.406  0.00  0.00     0.017 A 
ATOM      6  C5  UNL d   1      -1.377  -0.126   1.786  0.00  0.00     0.034 A 
ATOM      7 Cl   UNL d   1      -2.448  -0.702  -0.605  0.00  0.00    -0.070 Cl
ATOM      8 Cl1  UNL d   1       0.442   0.204  -1.799  0.00  0.00    -0.070 Cl
ENDROOT
TORSDOF 0
ENDMDL
