MODEL 1
REMARK minimizedAffinity 3.50720787
REMARK minimizedRMSD -1
REMARK  0 active torsions:
REMARK  status: ('A' for Active; 'I' for Inactive)
ROOT
ATOM      1  C   UNL d   1      -0.336   1.345   5.546  0.00  0.00     0.020 A 
ATOM      2  C1  UNL d   1      -0.689   0.031   5.852  0.00  0.00     0.020 A 
ATOM      3  C2  UNL d   1       0.231  -1.002   5.661  0.00  0.00     0.034 A 
ATOM      4  C3  UNL d   1       1.509  -0.723   5.162  0.00  0.00     0.017 A 
ATOM      5  C4  UNL d   1       1.862   0.596   4.856  0.00  0.00     0.017 A 
ATOM      6  C5  UNL d   1       0.937   1.627   5.050  0.00  0.00     0.034 A 
ATOM      7 Cl   UNL d   1       3.420   1.018   4.237  0.00  0.00    -0.070 Cl
ATOM      8 Cl1  UNL d   1       2.596  -2.049   4.951  0.00  0.00    -0.070 Cl
ENDROOT
TORSDOF 0
ENDMDL
