MODEL 1
REMARK minimizedAffinity -2.68514228
REMARK minimizedRMSD -1
REMARK  0 active torsions:
REMARK  status: ('A' for Active; 'I' for Inactive)
ROOT
ATOM      1  C   UNL d   1      -1.286  -1.284  -4.277  0.00  0.00     0.020 A 
ATOM      2  C1  UNL d   1      -1.596  -0.501  -5.388  0.00  0.00     0.020 A 
ATOM      3  C2  UNL d   1      -0.740   0.532  -5.775  0.00  0.00     0.034 A 
ATOM      4  C3  UNL d   1       0.430   0.786  -5.050  0.00  0.00     0.017 A 
ATOM      5  C4  UNL d   1       0.740  -0.000  -3.934  0.00  0.00     0.017 A 
ATOM      6  C5  UNL d   1      -0.121  -1.034  -3.551  0.00  0.00     0.034 A 
ATOM      7 Cl   UNL d   1       2.165   0.253  -2.989  0.00  0.00    -0.070 Cl
ATOM      8 Cl1  UNL d   1       1.442   2.080  -5.585  0.00  0.00    -0.070 Cl
ENDROOT
TORSDOF 0
ENDMDL
