MODEL 1
REMARK minimizedAffinity 12.3423643
REMARK minimizedRMSD -1
REMARK  2 active torsions:
REMARK  status: ('A' for Active; 'I' for Inactive)
REMARK    1  A    between atoms: C2'_3  and  C1'_4 
REMARK    2  A    between atoms: C1'_4  and  C1_5 
ROOT
ATOM      1  C1  I4B d   1       3.002  -5.914  -3.096  0.00  0.00    -0.075 A 
ATOM      2  C2  I4B d   1       4.214  -5.911  -3.738  0.00  0.00     0.003 A 
ATOM      3  C3  I4B d   1       4.272  -5.929  -5.153  0.00  0.00     0.002 A 
ATOM      4  C4  I4B d   1       3.100  -5.999  -5.880  0.00  0.00    -0.004 A 
ATOM      5  C5  I4B d   1       1.871  -5.978  -5.227  0.00  0.00     0.002 A 
ATOM      6  C6  I4B d   1       1.821  -5.923  -3.827  0.00  0.00     0.003 A 
ENDROOT
BRANCH   1   7
ATOM      7  C1' I4B d   1       2.979  -5.928  -1.600  0.00  0.00     0.060 C 
BRANCH   7   8
ATOM      8  C2' I4B d   1       4.227  -5.226  -1.107  0.00  0.00    -0.013 C 
ATOM      9  C4' I4B d   1       5.471  -5.893  -1.631  0.00  0.00     0.013 C 
ATOM     10  C3' I4B d   1       4.156  -3.793  -1.546  0.00  0.00     0.013 C 
ENDBRANCH   7   8
ENDBRANCH   1   7
TORSDOF 2
ENDMDL
