MODEL 1
REMARK minimizedAffinity 5.90436792
REMARK minimizedRMSD -1
REMARK  2 active torsions:
REMARK  status: ('A' for Active; 'I' for Inactive)
REMARK    1  A    between atoms: C2'_3  and  C1'_4 
REMARK    2  A    between atoms: C1'_4  and  C1_5 
ROOT
ATOM      1  C1  I4B d   1       1.527  -4.663   4.075  0.00  0.00    -0.075 A 
ATOM      2  C2  I4B d   1       1.900  -5.352   5.202  0.00  0.00     0.003 A 
ATOM      3  C3  I4B d   1       0.924  -5.997   5.999  0.00  0.00     0.002 A 
ATOM      4  C4  I4B d   1      -0.410  -5.887   5.663  0.00  0.00    -0.004 A 
ATOM      5  C5  I4B d   1      -0.784  -5.207   4.507  0.00  0.00     0.002 A 
ATOM      6  C6  I4B d   1       0.191  -4.602   3.701  0.00  0.00     0.003 A 
ENDROOT
BRANCH   1   7
ATOM      7  C1' I4B d   1       2.580  -3.966   3.274  0.00  0.00     0.060 C 
BRANCH   7   8
ATOM      8  C2' I4B d   1       2.909  -2.661   3.971  0.00  0.00    -0.013 C 
ATOM      9  C4' I4B d   1       4.376  -2.573   4.300  0.00  0.00     0.013 C 
ATOM     10  C3' I4B d   1       2.487  -1.537   3.073  0.00  0.00     0.013 C 
ENDBRANCH   7   8
ENDBRANCH   1   7
TORSDOF 2
ENDMDL
