MODEL 1
REMARK minimizedAffinity 2.80726361
REMARK minimizedRMSD -1
REMARK  2 active torsions:
REMARK  status: ('A' for Active; 'I' for Inactive)
REMARK    1  A    between atoms: C2'_3  and  C1'_4 
REMARK    2  A    between atoms: C1'_4  and  C1_5 
ROOT
ATOM      1  C1  I4B d   1       3.802  -5.936  -3.434  0.00  0.00    -0.075 A 
ATOM      2  C2  I4B d   1       2.436  -5.968  -3.565  0.00  0.00     0.003 A 
ATOM      3  C3  I4B d   1       1.844  -6.000  -4.851  0.00  0.00     0.002 A 
ATOM      4  C4  I4B d   1       2.648  -5.948  -5.971  0.00  0.00    -0.004 A 
ATOM      5  C5  I4B d   1       4.033  -5.939  -5.837  0.00  0.00     0.002 A 
ATOM      6  C6  I4B d   1       4.615  -5.945  -4.561  0.00  0.00     0.003 A 
ENDROOT
BRANCH   1   7
ATOM      7  C1' I4B d   1       4.393  -5.870  -2.062  0.00  0.00     0.060 C 
BRANCH   7   8
ATOM      8  C2' I4B d   1       3.516  -4.968  -1.219  0.00  0.00    -0.013 C 
ATOM      9  C4' I4B d   1       2.863  -3.902  -2.059  0.00  0.00     0.013 C 
ATOM     10  C3' I4B d   1       2.490  -5.824  -0.538  0.00  0.00     0.013 C 
ENDBRANCH   7   8
ENDBRANCH   1   7
TORSDOF 2
ENDMDL
