MODEL 1
REMARK minimizedAffinity 8.14826012
REMARK minimizedRMSD -1
REMARK  2 active torsions:
REMARK  status: ('A' for Active; 'I' for Inactive)
REMARK    1  A    between atoms: C2'_3  and  C1'_4 
REMARK    2  A    between atoms: C1'_4  and  C1_5 
ROOT
ATOM      1  C1  I4B d   1       3.738  -2.982   3.917  0.00  0.00    -0.075 A 
ATOM      2  C2  I4B d   1       4.843  -2.556   3.223  0.00  0.00     0.003 A 
ATOM      3  C3  I4B d   1       6.000  -2.128   3.919  0.00  0.00     0.002 A 
ATOM      4  C4  I4B d   1       5.990  -2.094   5.298  0.00  0.00    -0.004 A 
ATOM      5  C5  I4B d   1       4.877  -2.548   6.000  0.00  0.00     0.002 A 
ATOM      6  C6  I4B d   1       3.748  -3.007   5.305  0.00  0.00     0.003 A 
ENDROOT
BRANCH   1   7
ATOM      7  C1' I4B d   1       2.522  -3.396   3.151  0.00  0.00     0.060 C 
BRANCH   7   8
ATOM      8  C2' I4B d   1       1.429  -2.384   3.426  0.00  0.00    -0.013 C 
ATOM      9  C4' I4B d   1       1.486  -1.241   2.446  0.00  0.00     0.013 C 
ATOM     10  C3' I4B d   1       0.111  -3.094   3.353  0.00  0.00     0.013 C 
ENDBRANCH   7   8
ENDBRANCH   1   7
TORSDOF 2
ENDMDL
