MODEL 1
REMARK minimizedAffinity 8.79554749
REMARK minimizedRMSD -1
REMARK  2 active torsions:
REMARK  status: ('A' for Active; 'I' for Inactive)
REMARK    1  A    between atoms: C2'_3  and  C1'_4 
REMARK    2  A    between atoms: C1'_4  and  C1_5 
ROOT
ATOM      1  C1  I4B d   1       2.628   0.947   0.855  0.00  0.00    -0.075 A 
ATOM      2  C2  I4B d   1       3.296   1.370  -0.266  0.00  0.00     0.003 A 
ATOM      3  C3  I4B d   1       2.991   2.624  -0.848  0.00  0.00     0.002 A 
ATOM      4  C4  I4B d   1       1.982   3.396  -0.309  0.00  0.00    -0.004 A 
ATOM      5  C5  I4B d   1       1.321   2.976   0.842  0.00  0.00     0.002 A 
ATOM      6  C6  I4B d   1       1.654   1.750   1.436  0.00  0.00     0.003 A 
ENDROOT
BRANCH   1   7
ATOM      7  C1' I4B d   1       2.953  -0.397   1.424  0.00  0.00     0.060 C 
BRANCH   7   8
ATOM      8  C2' I4B d   1       1.702  -0.939   2.087  0.00  0.00    -0.013 C 
ATOM      9  C4' I4B d   1       0.920  -1.814   1.143  0.00  0.00     0.013 C 
ATOM     10  C3' I4B d   1       2.119  -1.698   3.311  0.00  0.00     0.013 C 
ENDBRANCH   7   8
ENDBRANCH   1   7
TORSDOF 2
ENDMDL
