MODEL 1
REMARK minimizedAffinity 7.0629015
REMARK minimizedRMSD -1
REMARK  2 active torsions:
REMARK  status: ('A' for Active; 'I' for Inactive)
REMARK    1  A    between atoms: C2'_3  and  C1'_4 
REMARK    2  A    between atoms: C1'_4  and  C1_5 
ROOT
ATOM      1  C1  I4B d   1      -4.829   1.638  -2.316  0.00  0.00    -0.075 A 
ATOM      2  C2  I4B d   1      -5.996   1.745  -1.600  0.00  0.00     0.003 A 
ATOM      3  C3  I4B d   1      -5.961   2.083  -0.226  0.00  0.00     0.002 A 
ATOM      4  C4  I4B d   1      -4.743   2.255   0.401  0.00  0.00    -0.004 A 
ATOM      5  C5  I4B d   1      -3.563   2.169  -0.331  0.00  0.00     0.002 A 
ATOM      6  C6  I4B d   1      -3.606   1.871  -1.701  0.00  0.00     0.003 A 
ENDROOT
BRANCH   1   7
ATOM      7  C1' I4B d   1      -4.901   1.247  -3.758  0.00  0.00     0.060 C 
BRANCH   7   8
ATOM      8  C2' I4B d   1      -5.634   2.344  -4.503  0.00  0.00    -0.013 C 
ATOM      9  C4' I4B d   1      -4.791   3.587  -4.611  0.00  0.00     0.013 C 
ATOM     10  C3' I4B d   1      -6.000   1.818  -5.859  0.00  0.00     0.013 C 
ENDBRANCH   7   8
ENDBRANCH   1   7
TORSDOF 2
ENDMDL
