MODEL 1
REMARK minimizedAffinity 11.0723562
REMARK minimizedRMSD -1
REMARK  1 active torsions:
REMARK  status: ('A' for Active; 'I' for Inactive)
REMARK    1  A    between atoms: C1_2  and  C2_3 
ROOT
ATOM      1  C2  UNL d   1       2.747   0.191  -0.476  0.00  0.00    -0.073 A 
ATOM      2  C3  UNL d   1       3.173  -0.700   0.515  0.00  0.00    -0.002 A 
ATOM      3  C4  UNL d   1       2.749  -2.030   0.498  0.00  0.00     0.004 A 
ATOM      4  C5  UNL d   1       1.902  -2.483  -0.513  0.00  0.00    -0.004 A 
ATOM      5  C6  UNL d   1       1.474  -1.611  -1.520  0.00  0.00    -0.075 A 
ATOM      6  C7  UNL d   1       0.561  -2.082  -2.613  0.00  0.00     0.076 C 
ATOM      7  C8  UNL d   1       1.902  -0.276  -1.494  0.00  0.00     0.001 A 
ENDROOT
BRANCH   1   8
ATOM      8  C1  UNL d   1       3.207   1.626  -0.465  0.00  0.00     0.053 C 
ATOM      9  C   UNL d   1       4.120   1.940  -1.639  0.00  0.00     0.018 C 
ENDBRANCH   1   8
TORSDOF 1
ENDMDL
