MODEL 1
REMARK minimizedAffinity 15.1005259
REMARK minimizedRMSD -1
REMARK  1 active torsions:
REMARK  status: ('A' for Active; 'I' for Inactive)
REMARK    1  A    between atoms: C1_2  and  C2_3 
ROOT
ATOM      1  C2  UNL d   1       2.635   1.144   0.378  0.00  0.00    -0.073 A 
ATOM      2  C3  UNL d   1       1.909   1.621  -0.719  0.00  0.00    -0.002 A 
ATOM      3  C4  UNL d   1       1.175   0.742  -1.516  0.00  0.00     0.004 A 
ATOM      4  C5  UNL d   1       1.152  -0.621  -1.220  0.00  0.00    -0.004 A 
ATOM      5  C6  UNL d   1       1.860  -1.116  -0.120  0.00  0.00    -0.075 A 
ATOM      6  C7  UNL d   1       1.848  -2.579   0.210  0.00  0.00     0.076 C 
ATOM      7  C8  UNL d   1       2.598  -0.227   0.673  0.00  0.00     0.001 A 
ENDROOT
BRANCH   1   8
ATOM      8  C1  UNL d   1       3.424   2.090   1.245  0.00  0.00     0.053 C 
ATOM      9  C   UNL d   1       4.922   1.857   1.125  0.00  0.00     0.018 C 
ENDBRANCH   1   8
TORSDOF 1
ENDMDL
