MODEL 1
REMARK minimizedAffinity 13.229949
REMARK minimizedRMSD -1
REMARK  1 active torsions:
REMARK  status: ('A' for Active; 'I' for Inactive)
REMARK    1  A    between atoms: C1_2  and  C2_3 
ROOT
ATOM      1  C2  UNL d   1      -4.960   2.329  -0.943  0.00  0.00    -0.073 A 
ATOM      2  C3  UNL d   1      -5.965   1.713  -0.189  0.00  0.00    -0.002 A 
ATOM      3  C4  UNL d   1      -6.000   0.324  -0.062  0.00  0.00     0.004 A 
ATOM      4  C5  UNL d   1      -5.028  -0.462  -0.681  0.00  0.00    -0.004 A 
ATOM      5  C6  UNL d   1      -4.009   0.136  -1.430  0.00  0.00    -0.075 A 
ATOM      6  C7  UNL d   1      -2.958  -0.696  -2.104  0.00  0.00     0.076 C 
ATOM      7  C8  UNL d   1      -3.982   1.531  -1.555  0.00  0.00     0.001 A 
ENDROOT
BRANCH   1   8
ATOM      8  C1  UNL d   1      -4.914   3.829  -1.078  0.00  0.00     0.053 C 
ATOM      9  C   UNL d   1      -3.822   4.446  -0.218  0.00  0.00     0.018 C 
ENDBRANCH   1   8
TORSDOF 1
ENDMDL
