MODEL 1
REMARK minimizedAffinity 19.1746521
REMARK minimizedRMSD -1
REMARK  1 active torsions:
REMARK  status: ('A' for Active; 'I' for Inactive)
REMARK    1  A    between atoms: C1_2  and  C2_3 
ROOT
ATOM      1  C2  UNL d   1      -4.557   3.782  -0.583  0.00  0.00    -0.073 A 
ATOM      2  C3  UNL d   1      -5.252   3.907  -1.791  0.00  0.00    -0.002 A 
ATOM      3  C4  UNL d   1      -5.830   2.787  -2.391  0.00  0.00     0.004 A 
ATOM      4  C5  UNL d   1      -5.725   1.534  -1.787  0.00  0.00    -0.004 A 
ATOM      5  C6  UNL d   1      -5.044   1.391  -0.573  0.00  0.00    -0.075 A 
ATOM      6  C7  UNL d   1      -4.920   0.050   0.088  0.00  0.00     0.076 C 
ATOM      7  C8  UNL d   1      -4.464   2.520   0.022  0.00  0.00     0.001 A 
ENDROOT
BRANCH   1   8
ATOM      8  C1  UNL d   1      -3.937   4.989   0.072  0.00  0.00     0.053 C 
ATOM      9  C   UNL d   1      -4.985   5.995   0.521  0.00  0.00     0.018 C 
ENDBRANCH   1   8
TORSDOF 1
ENDMDL
