MODEL 1
REMARK minimizedAffinity 16.6811371
REMARK minimizedRMSD -1
REMARK  1 active torsions:
REMARK  status: ('A' for Active; 'I' for Inactive)
REMARK    1  A    between atoms: C1_2  and  C2_3 
ROOT
ATOM      1  C2  UNL d   1      -4.282   3.605  -0.880  0.00  0.00    -0.073 A 
ATOM      2  C3  UNL d   1      -5.078   3.713  -2.026  0.00  0.00    -0.002 A 
ATOM      3  C4  UNL d   1      -5.650   2.575  -2.596  0.00  0.00     0.004 A 
ATOM      4  C5  UNL d   1      -5.438   1.320  -2.024  0.00  0.00    -0.004 A 
ATOM      5  C6  UNL d   1      -4.655   1.194  -0.872  0.00  0.00    -0.075 A 
ATOM      6  C7  UNL d   1      -4.416  -0.148  -0.245  0.00  0.00     0.076 C 
ATOM      7  C8  UNL d   1      -4.082   2.341  -0.307  0.00  0.00     0.001 A 
ENDROOT
BRANCH   1   8
ATOM      8  C1  UNL d   1      -3.667   4.832  -0.257  0.00  0.00     0.053 C 
ATOM      9  C   UNL d   1      -4.721   5.796   0.264  0.00  0.00     0.018 C 
ENDBRANCH   1   8
TORSDOF 1
ENDMDL
