MODEL 1
REMARK minimizedAffinity 10.8042612
REMARK minimizedRMSD -1
REMARK  1 active torsions:
REMARK  status: ('A' for Active; 'I' for Inactive)
REMARK    1  A    between atoms: C1_2  and  C2_3 
ROOT
ATOM      1  C2  UNL d   1      -5.375   3.717   2.672  0.00  0.00    -0.073 A 
ATOM      2  C3  UNL d   1      -6.000   4.377   1.607  0.00  0.00    -0.002 A 
ATOM      3  C4  UNL d   1      -5.722   4.011   0.290  0.00  0.00     0.004 A 
ATOM      4  C5  UNL d   1      -4.824   2.977   0.023  0.00  0.00    -0.004 A 
ATOM      5  C6  UNL d   1      -4.199   2.297   1.074  0.00  0.00    -0.075 A 
ATOM      6  C7  UNL d   1      -3.229   1.185   0.804  0.00  0.00     0.076 C 
ATOM      7  C8  UNL d   1      -4.481   2.673   2.394  0.00  0.00     0.001 A 
ENDROOT
BRANCH   1   8
ATOM      8  C1  UNL d   1      -5.677   4.105   4.096  0.00  0.00     0.053 C 
ATOM      9  C   UNL d   1      -4.783   5.235   4.581  0.00  0.00     0.018 C 
ENDBRANCH   1   8
TORSDOF 1
ENDMDL
