MODEL 1
REMARK minimizedAffinity 9.99955845
REMARK minimizedRMSD -1
REMARK  1 active torsions:
REMARK  status: ('A' for Active; 'I' for Inactive)
REMARK    1  A    between atoms: C1_2  and  C2_3 
ROOT
ATOM      1  C2  UNL d   1      -3.596   5.471   4.810  0.00  0.00    -0.073 A 
ATOM      2  C3  UNL d   1      -4.831   5.960   5.252  0.00  0.00    -0.002 A 
ATOM      3  C4  UNL d   1      -5.999   5.661   4.549  0.00  0.00     0.004 A 
ATOM      4  C5  UNL d   1      -5.946   4.867   3.404  0.00  0.00    -0.004 A 
ATOM      5  C6  UNL d   1      -4.723   4.359   2.954  0.00  0.00    -0.075 A 
ATOM      6  C7  UNL d   1      -4.648   3.505   1.723  0.00  0.00     0.076 C 
ATOM      7  C8  UNL d   1      -3.554   4.666   3.663  0.00  0.00     0.001 A 
ENDROOT
BRANCH   1   8
ATOM      8  C1  UNL d   1      -2.333   5.786   5.569  0.00  0.00     0.053 C 
ATOM      9  C   UNL d   1      -1.111   5.792   4.665  0.00  0.00     0.018 C 
ENDBRANCH   1   8
TORSDOF 1
ENDMDL
