MODEL 1
REMARK minimizedAffinity 9.63110828
REMARK minimizedRMSD -1
REMARK  1 active torsions:
REMARK  status: ('A' for Active; 'I' for Inactive)
REMARK    1  A    between atoms: C1_2  and  C2_3 
ROOT
ATOM      1  C2  UNL d   1       1.748  -2.936  -1.749  0.00  0.00    -0.076 A 
ATOM      2  C3  UNL d   1       1.390  -1.651  -2.193  0.00  0.00     0.004 A 
ATOM      3  C4  UNL d   1       1.838  -0.511  -1.527  0.00  0.00    -0.003 A 
ATOM      4  C5  UNL d   1       2.651  -0.637  -0.406  0.00  0.00     0.000 A 
ATOM      5  C6  UNL d   1       3.030  -1.904   0.038  0.00  0.00     0.000 A 
ATOM      6  C7  UNL d   1       2.601  -3.063  -0.632  0.00  0.00    -0.073 A 
ATOM      7  C8  UNL d   1       3.035  -4.403  -0.105  0.00  0.00     0.078 C 
ENDROOT
BRANCH   1   8
ATOM      8  C1  UNL d   1       1.210  -4.136  -2.495  0.00  0.00     0.053 C 
ATOM      9  C   UNL d   1      -0.044  -3.812  -3.292  0.00  0.00     0.018 C 
ENDBRANCH   1   8
TORSDOF 1
ENDMDL
