MODEL 1
REMARK minimizedAffinity 3.79372954
REMARK minimizedRMSD -1
REMARK  1 active torsions:
REMARK  status: ('A' for Active; 'I' for Inactive)
REMARK    1  A    between atoms: C1_2  and  C2_3 
ROOT
ATOM      1  C2  UNL d   1      -2.477   0.076   2.072  0.00  0.00    -0.076 A 
ATOM      2  C3  UNL d   1      -1.301  -0.333   1.420  0.00  0.00     0.004 A 
ATOM      3  C4  UNL d   1      -0.078   0.278   1.694  0.00  0.00    -0.003 A 
ATOM      4  C5  UNL d   1      -0.012   1.308   2.626  0.00  0.00     0.000 A 
ATOM      5  C6  UNL d   1      -1.166   1.715   3.295  0.00  0.00     0.000 A 
ATOM      6  C7  UNL d   1      -2.403   1.098   3.042  0.00  0.00    -0.073 A 
ATOM      7  C8  UNL d   1      -3.617   1.581   3.789  0.00  0.00     0.078 C 
ENDROOT
BRANCH   1   8
ATOM      8  C1  UNL d   1      -3.778  -0.605   1.714  0.00  0.00     0.053 C 
ATOM      9  C   UNL d   1      -3.835  -2.045   2.200  0.00  0.00     0.018 C 
ENDBRANCH   1   8
TORSDOF 1
ENDMDL
