MODEL 1
REMARK minimizedAffinity 7.46555519
REMARK minimizedRMSD -1
REMARK  1 active torsions:
REMARK  status: ('A' for Active; 'I' for Inactive)
REMARK    1  A    between atoms: C1_2  and  C2_3 
ROOT
ATOM      1  C2  UNL d   1       1.927  -3.728  -1.913  0.00  0.00    -0.076 A 
ATOM      2  C3  UNL d   1       1.512  -2.385  -1.926  0.00  0.00     0.004 A 
ATOM      3  C4  UNL d   1       2.003  -1.473  -0.993  0.00  0.00    -0.003 A 
ATOM      4  C5  UNL d   1       2.916  -1.890  -0.031  0.00  0.00     0.000 A 
ATOM      5  C6  UNL d   1       3.353  -3.214  -0.014  0.00  0.00     0.000 A 
ATOM      6  C7  UNL d   1       2.881  -4.142  -0.959  0.00  0.00    -0.073 A 
ATOM      7  C8  UNL d   1       3.380  -5.559  -0.890  0.00  0.00     0.078 C 
ENDROOT
BRANCH   1   8
ATOM      8  C1  UNL d   1       1.341  -4.677  -2.934  0.00  0.00     0.053 C 
ATOM      9  C   UNL d   1      -0.180  -4.683  -2.917  0.00  0.00     0.018 C 
ENDBRANCH   1   8
TORSDOF 1
ENDMDL
