MODEL 1
REMARK minimizedAffinity 11.1887856
REMARK minimizedRMSD -1
REMARK  1 active torsions:
REMARK  status: ('A' for Active; 'I' for Inactive)
REMARK    1  A    between atoms: C1_2  and  C2_3 
ROOT
ATOM      1  C2  UNL d   1       1.583  -2.748  -1.788  0.00  0.00    -0.076 A 
ATOM      2  C3  UNL d   1       1.220  -1.440  -2.152  0.00  0.00     0.004 A 
ATOM      3  C4  UNL d   1       1.676  -0.340  -1.427  0.00  0.00    -0.003 A 
ATOM      4  C5  UNL d   1       2.503  -0.531  -0.325  0.00  0.00     0.000 A 
ATOM      5  C6  UNL d   1       2.888  -1.821   0.039  0.00  0.00     0.000 A 
ATOM      6  C7  UNL d   1       2.451  -2.939  -0.691  0.00  0.00    -0.073 A 
ATOM      7  C8  UNL d   1       2.892  -4.308  -0.249  0.00  0.00     0.078 C 
ENDROOT
BRANCH   1   8
ATOM      8  C1  UNL d   1       1.036  -3.903  -2.596  0.00  0.00     0.053 C 
ATOM      9  C   UNL d   1      -0.484  -3.949  -2.592  0.00  0.00     0.018 C 
ENDBRANCH   1   8
TORSDOF 1
ENDMDL
