MODEL 1
REMARK minimizedAffinity 8.76931381
REMARK minimizedRMSD -1
REMARK  1 active torsions:
REMARK  status: ('A' for Active; 'I' for Inactive)
REMARK    1  A    between atoms: C1_2  and  C2_3 
ROOT
ATOM      1  C2  UNL d   1       2.269   1.730   1.340  0.00  0.00    -0.076 A 
ATOM      2  C3  UNL d   1       3.162   2.664   1.893  0.00  0.00     0.004 A 
ATOM      3  C4  UNL d   1       4.366   2.968   1.261  0.00  0.00    -0.003 A 
ATOM      4  C5  UNL d   1       4.697   2.343   0.063  0.00  0.00     0.000 A 
ATOM      5  C6  UNL d   1       3.815   1.427  -0.509  0.00  0.00     0.000 A 
ATOM      6  C7  UNL d   1       2.590   1.121   0.107  0.00  0.00    -0.073 A 
ATOM      7  C8  UNL d   1       1.680   0.121  -0.551  0.00  0.00     0.078 C 
ENDROOT
BRANCH   1   8
ATOM      8  C1  UNL d   1       0.991   1.420   2.085  0.00  0.00     0.053 C 
ATOM      9  C   UNL d   1       1.164   1.491   3.594  0.00  0.00     0.018 C 
ENDBRANCH   1   8
TORSDOF 1
ENDMDL
