MODEL 1
REMARK minimizedAffinity 17.4624214
REMARK minimizedRMSD -1
REMARK  1 active torsions:
REMARK  status: ('A' for Active; 'I' for Inactive)
REMARK    1  A    between atoms: C1_2  and  C2_3 
ROOT
ATOM      1  C2  UNL d   1      -3.148   1.228   3.456  0.00  0.00    -0.076 A 
ATOM      2  C3  UNL d   1      -2.509   1.154   2.206  0.00  0.00     0.004 A 
ATOM      3  C4  UNL d   1      -1.119   1.144   2.110  0.00  0.00    -0.003 A 
ATOM      4  C5  UNL d   1      -0.344   1.208   3.263  0.00  0.00     0.000 A 
ATOM      5  C6  UNL d   1      -0.961   1.264   4.512  0.00  0.00     0.000 A 
ATOM      6  C7  UNL d   1      -2.361   1.259   4.628  0.00  0.00    -0.073 A 
ATOM      7  C8  UNL d   1      -2.973   1.327   6.000  0.00  0.00     0.078 C 
ENDROOT
BRANCH   1   8
ATOM      8  C1  UNL d   1      -4.659   1.263   3.497  0.00  0.00     0.053 C 
ATOM      9  C   UNL d   1      -5.197   2.582   4.029  0.00  0.00     0.018 C 
ENDBRANCH   1   8
TORSDOF 1
ENDMDL
