MODEL 1
REMARK minimizedAffinity 19.878355
REMARK minimizedRMSD -1
REMARK  1 active torsions:
REMARK  status: ('A' for Active; 'I' for Inactive)
REMARK    1  A    between atoms: C1_2  and  C2_3 
ROOT
ATOM      1  C2  UNL d   1       3.114  -2.584  -0.071  0.00  0.00    -0.076 A 
ATOM      2  C3  UNL d   1       2.102  -3.555  -0.177  0.00  0.00     0.004 A 
ATOM      3  C4  UNL d   1       2.400  -4.914  -0.088  0.00  0.00    -0.003 A 
ATOM      4  C5  UNL d   1       3.714  -5.324   0.109  0.00  0.00     0.000 A 
ATOM      5  C6  UNL d   1       4.727  -4.375   0.234  0.00  0.00     0.000 A 
ATOM      6  C7  UNL d   1       4.442  -3.000   0.163  0.00  0.00    -0.073 A 
ATOM      7  C8  UNL d   1       5.575  -2.020   0.298  0.00  0.00     0.078 C 
ENDROOT
BRANCH   1   8
ATOM      8  C1  UNL d   1       2.735  -1.126  -0.203  0.00  0.00     0.053 C 
ATOM      9  C   UNL d   1       1.979  -0.835  -1.490  0.00  0.00     0.018 C 
ENDBRANCH   1   8
TORSDOF 1
ENDMDL
