MODEL 1
REMARK minimizedAffinity 16.4603081
REMARK minimizedRMSD -1
REMARK  1 active torsions:
REMARK  status: ('A' for Active; 'I' for Inactive)
REMARK    1  A    between atoms: C1_2  and  C2_3 
ROOT
ATOM      1  C2  UNL d   1      -4.492  -1.384   2.941  0.00  0.00    -0.076 A 
ATOM      2  C3  UNL d   1      -4.035  -1.600   4.253  0.00  0.00     0.004 A 
ATOM      3  C4  UNL d   1      -4.559  -2.628   5.035  0.00  0.00    -0.003 A 
ATOM      4  C5  UNL d   1      -5.548  -3.457   4.518  0.00  0.00     0.000 A 
ATOM      5  C6  UNL d   1      -6.000  -3.269   3.212  0.00  0.00     0.000 A 
ATOM      6  C7  UNL d   1      -5.471  -2.248   2.405  0.00  0.00    -0.073 A 
ATOM      7  C8  UNL d   1      -6.000  -2.086   1.006  0.00  0.00     0.078 C 
ENDROOT
BRANCH   1   8
ATOM      8  C1  UNL d   1      -3.906  -0.237   2.150  0.00  0.00     0.053 C 
ATOM      9  C   UNL d   1      -3.342   0.858   3.041  0.00  0.00     0.018 C 
ENDBRANCH   1   8
TORSDOF 1
ENDMDL
