MODEL 1
REMARK minimizedAffinity 21.604475
REMARK minimizedRMSD -1
REMARK  1 active torsions:
REMARK  status: ('A' for Active; 'I' for Inactive)
REMARK    1  A    between atoms: C1_2  and  C2_3 
ROOT
ATOM      1  C2  UNL d   1       2.038   0.340   0.853  0.00  0.00    -0.076 A 
ATOM      2  C3  UNL d   1       2.708   1.370   1.535  0.00  0.00     0.004 A 
ATOM      3  C4  UNL d   1       3.846   1.967   0.995  0.00  0.00    -0.003 A 
ATOM      4  C5  UNL d   1       4.332   1.544  -0.237  0.00  0.00     0.000 A 
ATOM      5  C6  UNL d   1       3.670   0.535  -0.936  0.00  0.00     0.000 A 
ATOM      6  C7  UNL d   1       2.513  -0.066  -0.413  0.00  0.00    -0.073 A 
ATOM      7  C8  UNL d   1       1.843  -1.154  -1.207  0.00  0.00     0.078 C 
ENDROOT
BRANCH   1   8
ATOM      8  C1  UNL d   1       0.825  -0.289   1.500  0.00  0.00     0.053 C 
ATOM      9  C   UNL d   1       0.237   0.579   2.602  0.00  0.00     0.018 C 
ENDBRANCH   1   8
TORSDOF 1
ENDMDL
