MODEL 1
REMARK minimizedAffinity 3.71790123
REMARK minimizedRMSD -1
REMARK  1 active torsions:
REMARK  status: ('A' for Active; 'I' for Inactive)
REMARK    1  A    between atoms: C1_2  and  C2_3 
ROOT
ATOM      1  C2  UNL d   1       2.418  -3.137  -1.551  0.00  0.00    -0.076 A 
ATOM      2  C3  UNL d   1       1.298  -3.710  -2.178  0.00  0.00     0.004 A 
ATOM      3  C4  UNL d   1       1.174  -5.093  -2.300  0.00  0.00    -0.003 A 
ATOM      4  C5  UNL d   1       2.168  -5.925  -1.797  0.00  0.00     0.000 A 
ATOM      5  C6  UNL d   1       3.277  -5.374  -1.157  0.00  0.00     0.000 A 
ATOM      6  C7  UNL d   1       3.410  -3.983  -1.011  0.00  0.00    -0.073 A 
ATOM      7  C8  UNL d   1       4.631  -3.443  -0.317  0.00  0.00     0.078 C 
ENDROOT
BRANCH   1   8
ATOM      8  C1  UNL d   1       2.512  -1.629  -1.472  0.00  0.00     0.053 C 
ATOM      9  C   UNL d   1       1.926  -0.944  -2.697  0.00  0.00     0.018 C 
ENDBRANCH   1   8
TORSDOF 1
ENDMDL
