MODEL 1
REMARK minimizedAffinity -1.86719549
REMARK minimizedRMSD -1
REMARK  0 active torsions:
REMARK  status: ('A' for Active; 'I' for Inactive)
ROOT
ATOM      1  N1  IND d   1      -0.938  -0.175  -0.012  0.00  0.00    -0.196 N 
ATOM      2  C2  IND d   1      -0.932   1.011  -0.692  0.00  0.00     0.054 A 
ATOM      3  C3  IND d   1       0.337   1.398  -0.950  0.00  0.00    -0.031 A 
ATOM      4  C4  IND d   1       2.552   0.189  -0.441  0.00  0.00     0.051 A 
ATOM      5  C5  IND d   1       3.058  -0.908   0.198  0.00  0.00    -0.031 A 
ATOM      6  C6  IND d   1       2.241  -1.837   0.809  0.00  0.00     0.015 A 
ATOM      7  C7  IND d   1       0.881  -1.709   0.794  0.00  0.00    -0.016 A 
ATOM      8  C8  IND d   1       0.364  -0.592   0.153  0.00  0.00    -0.047 A 
ATOM      9  C9  IND d   1       1.190   0.376  -0.433  0.00  0.00    -0.096 A 
ATOM     10  HN1 IND d   1      -1.638  -0.591   0.265  0.00  0.00     0.298 HD
ENDROOT
TORSDOF 0
ENDMDL
