MODEL 1
REMARK minimizedAffinity -3.61034155
REMARK minimizedRMSD -1
REMARK  0 active torsions:
REMARK  status: ('A' for Active; 'I' for Inactive)
ROOT
ATOM      1  N1  IND d   1      -0.781  -0.401   1.498  0.00  0.00    -0.196 N 
ATOM      2  C2  IND d   1      -1.413   0.423   0.609  0.00  0.00     0.054 A 
ATOM      3  C3  IND d   1      -0.587   0.732  -0.415  0.00  0.00    -0.031 A 
ATOM      4  C4  IND d   1       1.808  -0.085  -0.888  0.00  0.00     0.051 A 
ATOM      5  C5  IND d   1       2.823  -0.821  -0.343  0.00  0.00    -0.031 A 
ATOM      6  C6  IND d   1       2.684  -1.470   0.866  0.00  0.00     0.015 A 
ATOM      7  C7  IND d   1       1.516  -1.417   1.574  0.00  0.00    -0.016 A 
ATOM      8  C8  IND d   1       0.487  -0.664   1.027  0.00  0.00    -0.047 A 
ATOM      9  C9  IND d   1       0.636   0.032  -0.179  0.00  0.00    -0.096 A 
ATOM     10  HN1 IND d   1      -1.118  -0.705   2.229  0.00  0.00     0.298 HD
ENDROOT
TORSDOF 0
ENDMDL
