MODEL 1
REMARK minimizedAffinity -0.98372823
REMARK minimizedRMSD -1
REMARK  0 active torsions:
REMARK  status: ('A' for Active; 'I' for Inactive)
ROOT
ATOM      1  N1  IND d   1       0.541   1.560  -1.020  0.00  0.00    -0.196 N 
ATOM      2  C2  IND d   1      -0.776   1.808  -0.751  0.00  0.00     0.054 A 
ATOM      3  C3  IND d   1      -1.236   0.948   0.184  0.00  0.00    -0.031 A 
ATOM      4  C4  IND d   1       0.025  -0.883   1.484  0.00  0.00     0.051 A 
ATOM      5  C5  IND d   1       1.237  -1.509   1.559  0.00  0.00    -0.031 A 
ATOM      6  C6  IND d   1       2.302  -1.136   0.764  0.00  0.00     0.015 A 
ATOM      7  C7  IND d   1       2.196  -0.109  -0.131  0.00  0.00    -0.016 A 
ATOM      8  C8  IND d   1       0.965   0.525  -0.215  0.00  0.00    -0.047 A 
ATOM      9  C9  IND d   1      -0.132   0.122   0.558  0.00  0.00    -0.096 A 
ATOM     10  HN1 IND d   1       1.023   1.979  -1.595  0.00  0.00     0.298 HD
ENDROOT
TORSDOF 0
ENDMDL
