MODEL 1
REMARK minimizedAffinity -0.692327023
REMARK minimizedRMSD -1
REMARK  0 active torsions:
REMARK  status: ('A' for Active; 'I' for Inactive)
ROOT
ATOM      1  N1  IND d   1      -1.494  -0.101   0.125  0.00  0.00    -0.196 N 
ATOM      2  C2  IND d   1      -0.274   0.304   0.589  0.00  0.00     0.054 A 
ATOM      3  C3  IND d   1       0.307   1.149  -0.292  0.00  0.00    -0.031 A 
ATOM      4  C4  IND d   1      -0.609   2.084  -2.509  0.00  0.00     0.051 A 
ATOM      5  C5  IND d   1      -1.666   1.976  -3.369  0.00  0.00    -0.031 A 
ATOM      6  C6  IND d   1      -2.743   1.156  -3.101  0.00  0.00     0.015 A 
ATOM      7  C7  IND d   1      -2.808   0.418  -1.953  0.00  0.00    -0.016 A 
ATOM      8  C8  IND d   1      -1.733   0.520  -1.081  0.00  0.00    -0.047 A 
ATOM      9  C9  IND d   1      -0.618   1.318  -1.367  0.00  0.00    -0.096 A 
ATOM     10  HN1 IND d   1      -2.024  -0.651   0.521  0.00  0.00     0.298 HD
ENDROOT
TORSDOF 0
ENDMDL
