MODEL 1
REMARK minimizedAffinity -2.78730941
REMARK minimizedRMSD -1
REMARK  0 active torsions:
REMARK  status: ('A' for Active; 'I' for Inactive)
ROOT
ATOM      1  N1  IND d   1      -0.895  -0.438   1.577  0.00  0.00    -0.196 N 
ATOM      2  C2  IND d   1      -1.484   0.591   0.897  0.00  0.00     0.054 A 
ATOM      3  C3  IND d   1      -0.578   1.212   0.109  0.00  0.00    -0.031 A 
ATOM      4  C4  IND d   1       1.900   0.644  -0.298  0.00  0.00     0.051 A 
ATOM      5  C5  IND d   1       2.897  -0.188   0.126  0.00  0.00    -0.031 A 
ATOM      6  C6  IND d   1       2.677  -1.168   1.072  0.00  0.00     0.015 A 
ATOM      7  C7  IND d   1       1.442  -1.360   1.624  0.00  0.00    -0.016 A 
ATOM      8  C8  IND d   1       0.428  -0.512   1.202  0.00  0.00    -0.047 A 
ATOM      9  C9  IND d   1       0.656   0.512   0.273  0.00  0.00    -0.096 A 
ATOM     10  HN1 IND d   1      -1.286  -0.953   2.145  0.00  0.00     0.298 HD
ENDROOT
TORSDOF 0
ENDMDL
