MODEL 1
REMARK minimizedAffinity -3.53436112
REMARK minimizedRMSD -1
REMARK  0 active torsions:
REMARK  status: ('A' for Active; 'I' for Inactive)
ROOT
ATOM      1  N1  IND d   1      -0.067  -0.033   0.500  0.00  0.00    -0.196 N 
ATOM      2  C2  IND d   1       0.944  -0.653  -0.181  0.00  0.00     0.054 A 
ATOM      3  C3  IND d   1       0.752  -0.540  -1.514  0.00  0.00    -0.031 A 
ATOM      4  C4  IND d   1      -1.098   0.704  -2.801  0.00  0.00     0.051 A 
ATOM      5  C5  IND d   1      -2.265   1.390  -2.614  0.00  0.00    -0.031 A 
ATOM      6  C6  IND d   1      -2.768   1.645  -1.354  0.00  0.00     0.015 A 
ATOM      7  C7  IND d   1      -2.113   1.231  -0.229  0.00  0.00    -0.016 A 
ATOM      8  C8  IND d   1      -0.931   0.527  -0.415  0.00  0.00    -0.047 A 
ATOM      9  C9  IND d   1      -0.439   0.228  -1.692  0.00  0.00    -0.096 A 
ATOM     10  HN1 IND d   1      -0.149   0.001   1.355  0.00  0.00     0.298 HD
ENDROOT
TORSDOF 0
ENDMDL
