MODEL 1
REMARK minimizedAffinity -4.49640274
REMARK minimizedRMSD -1
REMARK  0 active torsions:
REMARK  status: ('A' for Active; 'I' for Inactive)
ROOT
ATOM      1  N1  IND d   1      -0.736  -0.365   2.092  0.00  0.00    -0.196 N 
ATOM      2  C2  IND d   1      -0.502  -0.993   3.283  0.00  0.00     0.054 A 
ATOM      3  C3  IND d   1       0.675  -1.656   3.242  0.00  0.00    -0.031 A 
ATOM      4  C4  IND d   1       2.427  -1.763   1.359  0.00  0.00     0.051 A 
ATOM      5  C5  IND d   1       2.642  -1.380   0.065  0.00  0.00    -0.031 A 
ATOM      6  C6  IND d   1       1.725  -0.621  -0.633  0.00  0.00     0.015 A 
ATOM      7  C7  IND d   1       0.558  -0.206  -0.056  0.00  0.00    -0.016 A 
ATOM      8  C8  IND d   1       0.333  -0.599   1.255  0.00  0.00    -0.047 A 
ATOM      9  C9  IND d   1       1.241  -1.405   1.955  0.00  0.00    -0.096 A 
ATOM     10  HN1 IND d   1      -1.434   0.098   1.897  0.00  0.00     0.298 HD
ENDROOT
TORSDOF 0
ENDMDL
