MODEL 1
REMARK minimizedAffinity -1.54923391
REMARK minimizedRMSD -1
REMARK  0 active torsions:
REMARK  status: ('A' for Active; 'I' for Inactive)
ROOT
ATOM      1  N1  IND d   1      -0.722  -0.879   1.121  0.00  0.00    -0.196 N 
ATOM      2  C2  IND d   1      -1.253   0.040   0.259  0.00  0.00     0.054 A 
ATOM      3  C3  IND d   1      -0.268   0.709  -0.381  0.00  0.00    -0.031 A 
ATOM      4  C4  IND d   1       2.283   0.391  -0.242  0.00  0.00     0.051 A 
ATOM      5  C5  IND d   1       3.246  -0.303   0.435  0.00  0.00    -0.031 A 
ATOM      6  C6  IND d   1       2.930  -1.245   1.393  0.00  0.00     0.015 A 
ATOM      7  C7  IND d   1       1.632  -1.537   1.702  0.00  0.00    -0.016 A 
ATOM      8  C8  IND d   1       0.651  -0.830   1.022  0.00  0.00    -0.047 A 
ATOM      9  C9  IND d   1       0.966   0.157   0.080  0.00  0.00    -0.096 A 
ATOM     10  HN1 IND d   1      -1.170  -1.399   1.639  0.00  0.00     0.298 HD
ENDROOT
TORSDOF 0
ENDMDL
