MODEL 1
REMARK minimizedAffinity -1.44630384
REMARK minimizedRMSD -1
REMARK  0 active torsions:
REMARK  status: ('A' for Active; 'I' for Inactive)
ROOT
ATOM      1  N1  IND d   1      -0.246  -0.885   2.374  0.00  0.00    -0.196 N 
ATOM      2  C2  IND d   1      -1.326  -0.131   2.008  0.00  0.00     0.054 A 
ATOM      3  C3  IND d   1      -1.043   0.588   0.898  0.00  0.00    -0.031 A 
ATOM      4  C4  IND d   1       1.091   0.603  -0.541  0.00  0.00     0.051 A 
ATOM      5  C5  IND d   1       2.364   0.106  -0.586  0.00  0.00    -0.031 A 
ATOM      6  C6  IND d   1       2.840  -0.766   0.371  0.00  0.00     0.015 A 
ATOM      7  C7  IND d   1       2.054  -1.185   1.407  0.00  0.00    -0.016 A 
ATOM      8  C8  IND d   1       0.764  -0.677   1.460  0.00  0.00    -0.047 A 
ATOM      9  C9  IND d   1       0.289   0.242   0.515  0.00  0.00    -0.096 A 
ATOM     10  HN1 IND d   1      -0.204  -1.402   3.059  0.00  0.00     0.298 HD
ENDROOT
TORSDOF 0
ENDMDL
