MODEL 1
REMARK minimizedAffinity -3.48267817
REMARK minimizedRMSD -1
REMARK  0 active torsions:
REMARK  status: ('A' for Active; 'I' for Inactive)
ROOT
ATOM      1  N1  IND d   1      -1.377   0.275   0.279  0.00  0.00    -0.196 N 
ATOM      2  C2  IND d   1      -1.257   1.310  -0.606  0.00  0.00     0.054 A 
ATOM      3  C3  IND d   1      -0.014   1.332  -1.138  0.00  0.00    -0.031 A 
ATOM      4  C4  IND d   1       1.948  -0.296  -0.779  0.00  0.00     0.051 A 
ATOM      5  C5  IND d   1       2.328  -1.377  -0.034  0.00  0.00    -0.031 A 
ATOM      6  C6  IND d   1       1.474  -1.977   0.869  0.00  0.00     0.015 A 
ATOM      7  C7  IND d   1       0.199  -1.523   1.053  0.00  0.00    -0.016 A 
ATOM      8  C8  IND d   1      -0.188  -0.420   0.305  0.00  0.00    -0.047 A 
ATOM      9  C9  IND d   1       0.688   0.219  -0.582  0.00  0.00    -0.096 A 
ATOM     10  HN1 IND d   1      -2.078   0.089   0.741  0.00  0.00     0.298 HD
ENDROOT
TORSDOF 0
ENDMDL
