MODEL 1
REMARK minimizedAffinity -4.37141418
REMARK minimizedRMSD -1
REMARK  0 active torsions:
REMARK  status: ('A' for Active; 'I' for Inactive)
ROOT
ATOM      1  N1  IND d   1      -0.566  -0.787  -1.289  0.00  0.00    -0.196 N 
ATOM      2  C2  IND d   1       0.232  -0.501  -0.217  0.00  0.00     0.054 A 
ATOM      3  C3  IND d   1       0.158   0.814   0.087  0.00  0.00    -0.031 A 
ATOM      4  C4  IND d   1      -1.288   2.659  -0.977  0.00  0.00     0.051 A 
ATOM      5  C5  IND d   1      -2.153   2.889  -2.010  0.00  0.00    -0.031 A 
ATOM      6  C6  IND d   1      -2.543   1.884  -2.871  0.00  0.00     0.015 A 
ATOM      7  C7  IND d   1      -2.089   0.604  -2.724  0.00  0.00    -0.016 A 
ATOM      8  C8  IND d   1      -1.206   0.368  -1.680  0.00  0.00    -0.047 A 
ATOM      9  C9  IND d   1      -0.773   1.393  -0.829  0.00  0.00    -0.096 A 
ATOM     10  HN1 IND d   1      -0.655  -1.560  -1.656  0.00  0.00     0.298 HD
ENDROOT
TORSDOF 0
ENDMDL
