MODEL 1
REMARK minimizedAffinity -3.89606285
REMARK minimizedRMSD -1
REMARK  0 active torsions:
REMARK  status: ('A' for Active; 'I' for Inactive)
ROOT
ATOM      1  N1  IND d   1      -1.148   0.187   0.258  0.00  0.00    -0.196 N 
ATOM      2  C2  IND d   1      -0.997   1.189  -0.660  0.00  0.00     0.054 A 
ATOM      3  C3  IND d   1       0.290   1.261  -1.069  0.00  0.00    -0.031 A 
ATOM      4  C4  IND d   1       2.292  -0.230  -0.441  0.00  0.00     0.051 A 
ATOM      5  C5  IND d   1       2.654  -1.255   0.388  0.00  0.00    -0.031 A 
ATOM      6  C6  IND d   1       1.748  -1.865   1.231  0.00  0.00     0.015 A 
ATOM      7  C7  IND d   1       0.438  -1.479   1.268  0.00  0.00    -0.016 A 
ATOM      8  C8  IND d   1       0.068  -0.435   0.433  0.00  0.00    -0.047 A 
ATOM      9  C9  IND d   1       0.992   0.217  -0.394  0.00  0.00    -0.096 A 
ATOM     10  HN1 IND d   1      -1.881  -0.020   0.658  0.00  0.00     0.298 HD
ENDROOT
TORSDOF 0
ENDMDL
