MODEL 1
REMARK minimizedAffinity -3.84978509
REMARK minimizedRMSD -1
REMARK  0 active torsions:
REMARK  status: ('A' for Active; 'I' for Inactive)
ROOT
ATOM      1  N1  IND d   1      -0.366  -0.403   1.114  0.00  0.00    -0.196 N 
ATOM      2  C2  IND d   1      -0.847   0.734   0.526  0.00  0.00     0.054 A 
ATOM      3  C3  IND d   1       0.150   1.398  -0.101  0.00  0.00    -0.031 A 
ATOM      4  C4  IND d   1       2.626   0.748  -0.378  0.00  0.00     0.051 A 
ATOM      5  C5  IND d   1       3.545  -0.184   0.013  0.00  0.00    -0.031 A 
ATOM      6  C6  IND d   1       3.200  -1.260   0.805  0.00  0.00     0.015 A 
ATOM      7  C7  IND d   1       1.915  -1.451   1.227  0.00  0.00    -0.016 A 
ATOM      8  C8  IND d   1       0.980  -0.502   0.838  0.00  0.00    -0.047 A 
ATOM      9  C9  IND d   1       1.333   0.615   0.070  0.00  0.00    -0.096 A 
ATOM     10  HN1 IND d   1      -0.826  -0.962   1.577  0.00  0.00     0.298 HD
ENDROOT
TORSDOF 0
ENDMDL
