MODEL 1
REMARK minimizedAffinity -1.23048222
REMARK minimizedRMSD -1
REMARK  0 active torsions:
REMARK  status: ('A' for Active; 'I' for Inactive)
ROOT
ATOM      1  N1  IND d   1       0.483  -1.540   1.795  0.00  0.00    -0.196 N 
ATOM      2  C2  IND d   1       1.768  -1.939   2.036  0.00  0.00     0.054 A 
ATOM      3  C3  IND d   1       2.630  -1.236   1.267  0.00  0.00    -0.031 A 
ATOM      4  C4  IND d   1       2.160   0.685  -0.381  0.00  0.00     0.051 A 
ATOM      5  C5  IND d   1       1.136   1.378  -0.964  0.00  0.00    -0.031 A 
ATOM      6  C6  IND d   1      -0.184   1.131  -0.649  0.00  0.00     0.015 A 
ATOM      7  C7  IND d   1      -0.531   0.184   0.274  0.00  0.00    -0.016 A 
ATOM      8  C8  IND d   1       0.506  -0.526   0.862  0.00  0.00    -0.047 A 
ATOM      9  C9  IND d   1       1.845  -0.309   0.515  0.00  0.00    -0.096 A 
ATOM     10  HN1 IND d   1      -0.221  -1.868   2.163  0.00  0.00     0.298 HD
ENDROOT
TORSDOF 0
ENDMDL
