MODEL 1
REMARK minimizedAffinity -1.27007043
REMARK minimizedRMSD -1
REMARK  0 active torsions:
REMARK  status: ('A' for Active; 'I' for Inactive)
ROOT
ATOM      1  N1  IND d   1      -3.198  -0.220  -1.890  0.00  0.00    -0.196 N 
ATOM      2  C2  IND d   1      -3.120   0.646  -2.945  0.00  0.00     0.054 A 
ATOM      3  C3  IND d   1      -1.996   1.392  -2.860  0.00  0.00    -0.031 A 
ATOM      4  C4  IND d   1      -0.093   1.289  -1.129  0.00  0.00     0.051 A 
ATOM      5  C5  IND d   1       0.267   0.682   0.041  0.00  0.00    -0.031 A 
ATOM      6  C6  IND d   1      -0.525  -0.278   0.638  0.00  0.00     0.015 A 
ATOM      7  C7  IND d   1      -1.705  -0.676   0.079  0.00  0.00    -0.016 A 
ATOM      8  C8  IND d   1      -2.077  -0.057  -1.106  0.00  0.00    -0.047 A 
ATOM      9  C9  IND d   1      -1.299   0.948  -1.695  0.00  0.00    -0.096 A 
ATOM     10  HN1 IND d   1      -3.839  -0.773  -1.742  0.00  0.00     0.298 HD
ENDROOT
TORSDOF 0
ENDMDL
