MODEL 1
REMARK minimizedAffinity 9.69149208
REMARK minimizedRMSD -1
REMARK  0 active torsions:
REMARK  status: ('A' for Active; 'I' for Inactive)
ROOT
ATOM      1  N1  IND d   1       2.387  -3.671  -4.723  0.00  0.00    -0.196 N 
ATOM      2  C2  IND d   1       3.248  -4.467  -5.427  0.00  0.00     0.054 A 
ATOM      3  C3  IND d   1       2.578  -5.492  -6.000  0.00  0.00    -0.031 A 
ATOM      4  C4  IND d   1       0.054  -6.000  -5.999  0.00  0.00     0.051 A 
ATOM      5  C5  IND d   1      -1.130  -5.578  -5.462  0.00  0.00    -0.031 A 
ATOM      6  C6  IND d   1      -1.203  -4.474  -4.637  0.00  0.00     0.015 A 
ATOM      7  C7  IND d   1      -0.093  -3.742  -4.326  0.00  0.00    -0.016 A 
ATOM      8  C8  IND d   1       1.112  -4.172  -4.863  0.00  0.00    -0.047 A 
ATOM      9  C9  IND d   1       1.200  -5.316  -5.667  0.00  0.00    -0.096 A 
ATOM     10  HN1 IND d   1       2.606  -2.974  -4.268  0.00  0.00     0.298 HD
ENDROOT
TORSDOF 0
ENDMDL
