MODEL 1
REMARK minimizedAffinity -2.01987863
REMARK minimizedRMSD -1
REMARK  0 active torsions:
REMARK  status: ('A' for Active; 'I' for Inactive)
ROOT
ATOM      1  N1  IND d   1      -0.821   2.158  -1.560  0.00  0.00    -0.196 N 
ATOM      2  C2  IND d   1      -1.440   2.300  -2.770  0.00  0.00     0.054 A 
ATOM      3  C3  IND d   1      -2.579   1.572  -2.804  0.00  0.00    -0.031 A 
ATOM      4  C4  IND d   1      -3.669   0.154  -0.952  0.00  0.00     0.051 A 
ATOM      5  C5  IND d   1      -3.457  -0.309   0.316  0.00  0.00    -0.031 A 
ATOM      6  C6  IND d   1      -2.333   0.036   1.040  0.00  0.00     0.015 A 
ATOM      7  C7  IND d   1      -1.382   0.870   0.523  0.00  0.00    -0.016 A 
ATOM      8  C8  IND d   1      -1.591   1.336  -0.767  0.00  0.00    -0.047 A 
ATOM      9  C9  IND d   1      -2.708   0.955  -1.522  0.00  0.00    -0.096 A 
ATOM     10  HN1 IND d   1      -0.075   2.521  -1.333  0.00  0.00     0.298 HD
ENDROOT
TORSDOF 0
ENDMDL
