MODEL 1
REMARK minimizedAffinity -3.08401084
REMARK minimizedRMSD -1
REMARK  0 active torsions:
REMARK  status: ('A' for Active; 'I' for Inactive)
ROOT
ATOM      1  N1  IND d   1      -3.373   0.288  -2.444  0.00  0.00    -0.196 N 
ATOM      2  C2  IND d   1      -2.711   1.062  -3.356  0.00  0.00     0.054 A 
ATOM      3  C3  IND d   1      -1.544   1.505  -2.838  0.00  0.00    -0.031 A 
ATOM      4  C4  IND d   1      -0.472   1.000  -0.553  0.00  0.00     0.051 A 
ATOM      5  C5  IND d   1      -0.716   0.372   0.636  0.00  0.00    -0.031 A 
ATOM      6  C6  IND d   1      -1.880  -0.333   0.863  0.00  0.00     0.015 A 
ATOM      7  C7  IND d   1      -2.843  -0.446  -0.100  0.00  0.00    -0.016 A 
ATOM      8  C8  IND d   1      -2.602   0.197  -1.306  0.00  0.00    -0.047 A 
ATOM      9  C9  IND d   1      -1.441   0.949  -1.527  0.00  0.00    -0.096 A 
ATOM     10  HN1 IND d   1      -4.141  -0.080  -2.561  0.00  0.00     0.298 HD
ENDROOT
TORSDOF 0
ENDMDL
