MODEL 1
REMARK minimizedAffinity -4.59887457
REMARK minimizedRMSD -1
REMARK  0 active torsions:
REMARK  status: ('A' for Active; 'I' for Inactive)
ROOT
ATOM      1  N1  IND d   1       1.456  -1.160  -0.238  0.00  0.00    -0.196 N 
ATOM      2  C2  IND d   1       1.787  -2.228   0.547  0.00  0.00     0.054 A 
ATOM      3  C3  IND d   1       0.951  -2.311   1.606  0.00  0.00    -0.031 A 
ATOM      4  C4  IND d   1      -1.093  -0.860   2.193  0.00  0.00     0.051 A 
ATOM      5  C5  IND d   1      -1.770   0.258   1.795  0.00  0.00    -0.031 A 
ATOM      6  C6  IND d   1      -1.400   0.974   0.675  0.00  0.00     0.015 A 
ATOM      7  C7  IND d   1      -0.342   0.590  -0.099  0.00  0.00    -0.016 A 
ATOM      8  C8  IND d   1       0.352  -0.541   0.306  0.00  0.00    -0.047 A 
ATOM      9  C9  IND d   1       0.008  -1.247   1.466  0.00  0.00    -0.096 A 
ATOM     10  HN1 IND d   1       1.868  -0.915  -0.952  0.00  0.00     0.298 HD
ENDROOT
TORSDOF 0
ENDMDL
