MODEL 1
REMARK minimizedAffinity 8.90891743
REMARK minimizedRMSD -1
REMARK  0 active torsions:
REMARK  status: ('A' for Active; 'I' for Inactive)
ROOT
ATOM      1  C   UNL d   1      -2.709  -1.777  -5.934  0.00  0.00     0.077 C 
ATOM      2  C1  UNL d   1      -2.858  -3.250  -5.696  0.00  0.00    -0.074 A 
ATOM      3  C2  UNL d   1      -1.788  -4.012  -5.215  0.00  0.00    -0.005 A 
ATOM      4  C3  UNL d   1      -1.943  -5.380  -4.990  0.00  0.00     0.006 A 
ATOM      5  C4  UNL d   1      -3.169  -5.998  -5.241  0.00  0.00    -0.005 A 
ATOM      6  C5  UNL d   1      -4.250  -5.253  -5.720  0.00  0.00    -0.074 A 
ATOM      7  C6  UNL d   1      -5.577  -5.900  -5.987  0.00  0.00     0.077 C 
ATOM      8  C7  UNL d   1      -4.088  -3.878  -5.938  0.00  0.00    -0.001 A 
ENDROOT
TORSDOF 0
ENDMDL
