MODEL 1
REMARK minimizedAffinity 7.02223921
REMARK minimizedRMSD -1
REMARK  0 active torsions:
REMARK  status: ('A' for Active; 'I' for Inactive)
ROOT
ATOM      1  C   UNL d   1      -0.380   2.814  -0.297  0.00  0.00     0.077 C 
ATOM      2  C1  UNL d   1      -0.777   1.582  -1.055  0.00  0.00    -0.074 A 
ATOM      3  C2  UNL d   1       0.067   1.031  -2.025  0.00  0.00    -0.005 A 
ATOM      4  C3  UNL d   1      -0.312  -0.120  -2.715  0.00  0.00     0.006 A 
ATOM      5  C4  UNL d   1      -1.537  -0.732  -2.442  0.00  0.00    -0.005 A 
ATOM      6  C5  UNL d   1      -2.393  -0.196  -1.476  0.00  0.00    -0.074 A 
ATOM      7  C6  UNL d   1      -3.709  -0.846  -1.164  0.00  0.00     0.077 C 
ATOM      8  C7  UNL d   1      -2.002   0.958  -0.781  0.00  0.00    -0.001 A 
ENDROOT
TORSDOF 0
ENDMDL
