MODEL 1
REMARK minimizedAffinity -1.94647515
REMARK minimizedRMSD -1
REMARK  0 active torsions:
REMARK  status: ('A' for Active; 'I' for Inactive)
ROOT
ATOM      1  C   UNL d   1      -0.423   2.978  -2.243  0.00  0.00     0.077 C 
ATOM      2  C1  UNL d   1      -0.951   3.019  -0.840  0.00  0.00    -0.074 A 
ATOM      3  C2  UNL d   1      -1.839   4.020  -0.435  0.00  0.00    -0.005 A 
ATOM      4  C3  UNL d   1      -2.329   4.040   0.871  0.00  0.00     0.006 A 
ATOM      5  C4  UNL d   1      -1.937   3.059   1.783  0.00  0.00    -0.005 A 
ATOM      6  C5  UNL d   1      -1.051   2.049   1.396  0.00  0.00    -0.074 A 
ATOM      7  C6  UNL d   1      -0.627   0.982   2.361  0.00  0.00     0.077 C 
ATOM      8  C7  UNL d   1      -0.568   2.032   0.080  0.00  0.00    -0.001 A 
ENDROOT
TORSDOF 0
ENDMDL
