MODEL 1
REMARK minimizedAffinity 10.3902206
REMARK minimizedRMSD -1
REMARK  0 active torsions:
REMARK  status: ('A' for Active; 'I' for Inactive)
ROOT
ATOM      1  C   UNL d   1       1.967   5.076  -0.717  0.00  0.00     0.077 C 
ATOM      2  C1  UNL d   1       0.973   3.972  -0.511  0.00  0.00    -0.074 A 
ATOM      3  C2  UNL d   1       1.003   2.821  -1.306  0.00  0.00    -0.005 A 
ATOM      4  C3  UNL d   1       0.079   1.798  -1.097  0.00  0.00     0.006 A 
ATOM      5  C4  UNL d   1      -0.883   1.914  -0.093  0.00  0.00    -0.005 A 
ATOM      6  C5  UNL d   1      -0.928   3.057   0.713  0.00  0.00    -0.074 A 
ATOM      7  C6  UNL d   1      -1.949   3.194   1.803  0.00  0.00     0.077 C 
ATOM      8  C7  UNL d   1       0.009   4.078   0.501  0.00  0.00    -0.001 A 
ENDROOT
TORSDOF 0
ENDMDL
