MODEL 1
REMARK minimizedAffinity 12.2833099
REMARK minimizedRMSD -1
REMARK  0 active torsions:
REMARK  status: ('A' for Active; 'I' for Inactive)
ROOT
ATOM      1  C   UNL d   1      -5.289   0.890  -1.340  0.00  0.00     0.077 C 
ATOM      2  C1  UNL d   1      -5.008   1.796  -2.502  0.00  0.00    -0.074 A 
ATOM      3  C2  UNL d   1      -5.354   1.423  -3.805  0.00  0.00    -0.005 A 
ATOM      4  C3  UNL d   1      -5.095   2.281  -4.874  0.00  0.00     0.006 A 
ATOM      5  C4  UNL d   1      -4.489   3.518  -4.652  0.00  0.00    -0.005 A 
ATOM      6  C5  UNL d   1      -4.136   3.908  -3.356  0.00  0.00    -0.074 A 
ATOM      7  C6  UNL d   1      -3.493   5.238  -3.098  0.00  0.00     0.077 C 
ATOM      8  C7  UNL d   1      -4.406   3.044  -2.286  0.00  0.00    -0.001 A 
ENDROOT
TORSDOF 0
ENDMDL
