MODEL 1
REMARK minimizedAffinity 11.4171324
REMARK minimizedRMSD -1
REMARK  0 active torsions:
REMARK  status: ('A' for Active; 'I' for Inactive)
ROOT
ATOM      1  C   UNL d   1      -3.699  -0.562  -1.264  0.00  0.00     0.077 C 
ATOM      2  C1  UNL d   1      -2.413   0.186  -1.452  0.00  0.00    -0.074 A 
ATOM      3  C2  UNL d   1      -1.621  -0.020  -2.587  0.00  0.00    -0.005 A 
ATOM      4  C3  UNL d   1      -0.432   0.690  -2.753  0.00  0.00     0.006 A 
ATOM      5  C4  UNL d   1      -0.023   1.611  -1.788  0.00  0.00    -0.005 A 
ATOM      6  C5  UNL d   1      -0.802   1.831  -0.647  0.00  0.00    -0.074 A 
ATOM      7  C6  UNL d   1      -0.382   2.824   0.395  0.00  0.00     0.077 C 
ATOM      8  C7  UNL d   1      -1.999   1.119  -0.491  0.00  0.00    -0.001 A 
ENDROOT
TORSDOF 0
ENDMDL
