MODEL 1
REMARK minimizedAffinity 3.85203695
REMARK minimizedRMSD -1
REMARK  0 active torsions:
REMARK  status: ('A' for Active; 'I' for Inactive)
ROOT
ATOM      1  C   UNL d   1       0.058  -0.487   3.192  0.00  0.00     0.077 C 
ATOM      2  C1  UNL d   1      -0.033   0.678   2.252  0.00  0.00    -0.074 A 
ATOM      3  C2  UNL d   1      -0.039   1.991   2.734  0.00  0.00    -0.005 A 
ATOM      4  C3  UNL d   1      -0.114   3.065   1.847  0.00  0.00     0.006 A 
ATOM      5  C4  UNL d   1      -0.183   2.838   0.472  0.00  0.00    -0.005 A 
ATOM      6  C5  UNL d   1      -0.178   1.532  -0.028  0.00  0.00    -0.074 A 
ATOM      7  C6  UNL d   1      -0.242   1.270  -1.503  0.00  0.00     0.077 C 
ATOM      8  C7  UNL d   1      -0.095   0.458   0.869  0.00  0.00    -0.001 A 
ENDROOT
TORSDOF 0
ENDMDL
