MODEL 1
REMARK minimizedAffinity 2.02673841
REMARK minimizedRMSD -1
REMARK  0 active torsions:
REMARK  status: ('A' for Active; 'I' for Inactive)
ROOT
ATOM      1  C   UNL d   1      -0.412   0.908   2.963  0.00  0.00     0.077 C 
ATOM      2  C1  UNL d   1      -0.523   1.602   1.638  0.00  0.00    -0.074 A 
ATOM      3  C2  UNL d   1      -0.778   2.975   1.565  0.00  0.00    -0.005 A 
ATOM      4  C3  UNL d   1      -0.869   3.609   0.326  0.00  0.00     0.006 A 
ATOM      5  C4  UNL d   1      -0.708   2.877  -0.851  0.00  0.00    -0.005 A 
ATOM      6  C5  UNL d   1      -0.452   1.503  -0.798  0.00  0.00    -0.074 A 
ATOM      7  C6  UNL d   1      -0.265   0.704  -2.053  0.00  0.00     0.077 C 
ATOM      8  C7  UNL d   1      -0.354   0.875   0.451  0.00  0.00    -0.001 A 
ENDROOT
TORSDOF 0
ENDMDL
