MODEL 1
REMARK minimizedAffinity -1.65718007
REMARK minimizedRMSD -1
REMARK  0 active torsions:
REMARK  status: ('A' for Active; 'I' for Inactive)
ROOT
ATOM      1  C   UNL d   1       0.406   1.382  -1.199  0.00  0.00     0.077 C 
ATOM      2  C1  UNL d   1       0.003   1.432   0.244  0.00  0.00    -0.074 A 
ATOM      3  C2  UNL d   1      -0.797   2.471   0.732  0.00  0.00    -0.005 A 
ATOM      4  C3  UNL d   1      -1.172   2.499   2.075  0.00  0.00     0.006 A 
ATOM      5  C4  UNL d   1      -0.752   1.491   2.943  0.00  0.00    -0.005 A 
ATOM      6  C5  UNL d   1       0.048   0.444   2.474  0.00  0.00    -0.074 A 
ATOM      7  C6  UNL d   1       0.500  -0.653   3.391  0.00  0.00     0.077 C 
ATOM      8  C7  UNL d   1       0.414   0.419   1.121  0.00  0.00    -0.001 A 
ENDROOT
TORSDOF 0
ENDMDL
