MODEL 1
REMARK minimizedAffinity -0.218910635
REMARK minimizedRMSD -1
REMARK  0 active torsions:
REMARK  status: ('A' for Active; 'I' for Inactive)
ROOT
ATOM      1  C   UNL d   1      -5.280   4.128   6.000  0.00  0.00     0.020 A 
ATOM      2  C1  UNL d   1      -4.804   2.829   5.821  0.00  0.00     0.020 A 
ATOM      3  C2  UNL d   1      -4.691   2.298   4.535  0.00  0.00     0.034 A 
ATOM      4  C3  UNL d   1      -5.055   3.065   3.422  0.00  0.00     0.017 A 
ATOM      5  C4  UNL d   1      -5.532   4.368   3.602  0.00  0.00     0.017 A 
ATOM      6  C5  UNL d   1      -5.643   4.895   4.892  0.00  0.00     0.034 A 
ATOM      7 Cl   UNL d   1      -6.000   5.376   2.278  0.00  0.00    -0.070 Cl
ATOM      8 Cl1  UNL d   1      -4.889   2.344   1.860  0.00  0.00    -0.070 Cl
ENDROOT
TORSDOF 0
ENDMDL
