MODEL 1
REMARK minimizedAffinity -2.76195312
REMARK minimizedRMSD -1
REMARK  0 active torsions:
REMARK  status: ('A' for Active; 'I' for Inactive)
ROOT
ATOM      1  C   UNL d   1      -5.338   5.441   2.051  0.00  0.00     0.020 A 
ATOM      2  C1  UNL d   1      -5.336   4.055   1.895  0.00  0.00     0.020 A 
ATOM      3  C2  UNL d   1      -5.540   3.227   3.000  0.00  0.00     0.034 A 
ATOM      4  C3  UNL d   1      -5.747   3.784   4.268  0.00  0.00     0.017 A 
ATOM      5  C4  UNL d   1      -5.749   5.174   4.424  0.00  0.00     0.017 A 
ATOM      6  C5  UNL d   1      -5.545   5.999   3.314  0.00  0.00     0.034 A 
ATOM      7 Cl   UNL d   1      -5.999   5.934   5.956  0.00  0.00    -0.070 Cl
ATOM      8 Cl1  UNL d   1      -5.993   2.700   5.590  0.00  0.00    -0.070 Cl
ENDROOT
TORSDOF 0
ENDMDL
