MODEL 1
REMARK minimizedAffinity 5.79222012
REMARK minimizedRMSD -1
REMARK  0 active torsions:
REMARK  status: ('A' for Active; 'I' for Inactive)
ROOT
ATOM      1  C   UNL d   1      -5.075   4.881   4.902  0.00  0.00     0.020 A 
ATOM      2  C1  UNL d   1      -5.725   5.961   4.304  0.00  0.00     0.020 A 
ATOM      3  C2  UNL d   1      -5.999   5.940   2.935  0.00  0.00     0.034 A 
ATOM      4  C3  UNL d   1      -5.625   4.837   2.159  0.00  0.00     0.017 A 
ATOM      5  C4  UNL d   1      -4.973   3.754   2.759  0.00  0.00     0.017 A 
ATOM      6  C5  UNL d   1      -4.700   3.780   4.131  0.00  0.00     0.034 A 
ATOM      7 Cl   UNL d   1      -4.480   2.358   1.867  0.00  0.00    -0.070 Cl
ATOM      8 Cl1  UNL d   1      -5.997   4.879   0.472  0.00  0.00    -0.070 Cl
ENDROOT
TORSDOF 0
ENDMDL
