MODEL 1
REMARK minimizedAffinity 0.116865411
REMARK minimizedRMSD -1
REMARK  0 active torsions:
REMARK  status: ('A' for Active; 'I' for Inactive)
ROOT
ATOM      1  C   UNL d   1      -5.189   5.712   1.197  0.00  0.00     0.020 A 
ATOM      2  C1  UNL d   1      -5.993   5.998   2.300  0.00  0.00     0.020 A 
ATOM      3  C2  UNL d   1      -5.999   5.139   3.401  0.00  0.00     0.034 A 
ATOM      4  C3  UNL d   1      -5.201   3.990   3.402  0.00  0.00     0.017 A 
ATOM      5  C4  UNL d   1      -4.394   3.703   2.294  0.00  0.00     0.017 A 
ATOM      6  C5  UNL d   1      -4.391   4.567   1.194  0.00  0.00     0.034 A 
ATOM      7 Cl   UNL d   1      -3.381   2.305   2.222  0.00  0.00    -0.070 Cl
ATOM      8 Cl1  UNL d   1      -5.258   2.973   4.797  0.00  0.00    -0.070 Cl
ENDROOT
TORSDOF 0
ENDMDL
