MODEL 1
REMARK minimizedAffinity -2.44385195
REMARK minimizedRMSD -1
REMARK  0 active torsions:
REMARK  status: ('A' for Active; 'I' for Inactive)
ROOT
ATOM      1  C   UNL d   1      -5.999   5.481   2.011  0.00  0.00     0.020 A 
ATOM      2  C1  UNL d   1      -5.992   4.107   1.771  0.00  0.00     0.020 A 
ATOM      3  C2  UNL d   1      -5.982   3.212   2.843  0.00  0.00     0.034 A 
ATOM      4  C3  UNL d   1      -5.980   3.689   4.159  0.00  0.00     0.017 A 
ATOM      5  C4  UNL d   1      -5.988   5.068   4.398  0.00  0.00     0.017 A 
ATOM      6  C5  UNL d   1      -5.998   5.960   3.321  0.00  0.00     0.034 A 
ATOM      7 Cl   UNL d   1      -5.987   5.733   5.994  0.00  0.00    -0.070 Cl
ATOM      8 Cl1  UNL d   1      -5.969   2.525   5.436  0.00  0.00    -0.070 Cl
ENDROOT
TORSDOF 0
ENDMDL
