MODEL 1
REMARK minimizedAffinity 10.4117994
REMARK minimizedRMSD -1
REMARK  0 active torsions:
REMARK  status: ('A' for Active; 'I' for Inactive)
ROOT
ATOM      1  C   UNL d   1      -2.646  -1.034  -0.393  0.00  0.00     0.020 A 
ATOM      2  C1  UNL d   1      -2.798  -0.939   0.989  0.00  0.00     0.020 A 
ATOM      3  C2  UNL d   1      -1.678  -0.766   1.805  0.00  0.00     0.034 A 
ATOM      4  C3  UNL d   1      -0.400  -0.687   1.239  0.00  0.00     0.017 A 
ATOM      5  C4  UNL d   1      -0.248  -0.782  -0.149  0.00  0.00     0.017 A 
ATOM      6  C5  UNL d   1      -1.374  -0.956  -0.961  0.00  0.00     0.034 A 
ATOM      7 Cl   UNL d   1       1.295  -0.694  -0.921  0.00  0.00    -0.070 Cl
ATOM      8 Cl1  UNL d   1       0.940  -0.472   2.307  0.00  0.00    -0.070 Cl
ENDROOT
TORSDOF 0
ENDMDL
