MODEL 1
REMARK minimizedAffinity -3.55325818
REMARK minimizedRMSD -1
REMARK  0 active torsions:
REMARK  status: ('A' for Active; 'I' for Inactive)
ROOT
ATOM      1  C   UNL d   1      -5.522   3.698   2.108  0.00  0.00     0.020 A 
ATOM      2  C1  UNL d   1      -5.342   5.080   2.114  0.00  0.00     0.020 A 
ATOM      3  C2  UNL d   1      -5.261   5.768   3.327  0.00  0.00     0.034 A 
ATOM      4  C3  UNL d   1      -5.360   5.074   4.538  0.00  0.00     0.017 A 
ATOM      5  C4  UNL d   1      -5.541   3.686   4.530  0.00  0.00     0.017 A 
ATOM      6  C5  UNL d   1      -5.622   3.002   3.313  0.00  0.00     0.034 A 
ATOM      7 Cl   UNL d   1      -5.673   2.760   5.984  0.00  0.00    -0.070 Cl
ATOM      8 Cl1  UNL d   1      -5.251   5.988   6.000  0.00  0.00    -0.070 Cl
ENDROOT
TORSDOF 0
ENDMDL
