MODEL 1
REMARK minimizedAffinity -2.28077245
REMARK minimizedRMSD -1
REMARK  0 active torsions:
REMARK  status: ('A' for Active; 'I' for Inactive)
ROOT
ATOM      1  C   UNL d   1      -5.621   4.073   1.891  0.00  0.00     0.020 A 
ATOM      2  C1  UNL d   1      -5.924   5.425   2.049  0.00  0.00     0.020 A 
ATOM      3  C2  UNL d   1      -5.909   6.000   3.322  0.00  0.00     0.034 A 
ATOM      4  C3  UNL d   1      -5.591   5.222   4.442  0.00  0.00     0.017 A 
ATOM      5  C4  UNL d   1      -5.288   3.866   4.282  0.00  0.00     0.017 A 
ATOM      6  C5  UNL d   1      -5.304   3.295   3.005  0.00  0.00     0.034 A 
ATOM      7 Cl   UNL d   1      -4.886   2.842   5.616  0.00  0.00    -0.070 Cl
ATOM      8 Cl1  UNL d   1      -5.591   5.999   5.985  0.00  0.00    -0.070 Cl
ENDROOT
TORSDOF 0
ENDMDL
