MODEL 1
REMARK minimizedAffinity -1.9105351
REMARK minimizedRMSD -1
REMARK  0 active torsions:
REMARK  status: ('A' for Active; 'I' for Inactive)
ROOT
ATOM      1  C   UNL d   1      -5.693   4.019   2.012  0.00  0.00     0.020 A 
ATOM      2  C1  UNL d   1      -5.540   5.402   2.107  0.00  0.00     0.020 A 
ATOM      3  C2  UNL d   1      -5.283   5.993   3.345  0.00  0.00     0.034 A 
ATOM      4  C3  UNL d   1      -5.179   5.201   4.495  0.00  0.00     0.017 A 
ATOM      5  C4  UNL d   1      -5.333   3.814   4.399  0.00  0.00     0.017 A 
ATOM      6  C5  UNL d   1      -5.590   3.227   3.157  0.00  0.00     0.034 A 
ATOM      7 Cl   UNL d   1      -5.217   2.772   5.774  0.00  0.00    -0.070 Cl
ATOM      8 Cl1  UNL d   1      -4.859   6.000   5.994  0.00  0.00    -0.070 Cl
ENDROOT
TORSDOF 0
ENDMDL
