MODEL 1
REMARK minimizedAffinity -1.69393814
REMARK minimizedRMSD -1
REMARK  0 active torsions:
REMARK  status: ('A' for Active; 'I' for Inactive)
ROOT
ATOM      1  C   UNL d   1      -5.752   5.437   1.969  0.00  0.00     0.020 A 
ATOM      2  C1  UNL d   1      -5.225   4.151   1.856  0.00  0.00     0.020 A 
ATOM      3  C2  UNL d   1      -4.926   3.415   3.004  0.00  0.00     0.034 A 
ATOM      4  C3  UNL d   1      -5.155   3.964   4.271  0.00  0.00     0.017 A 
ATOM      5  C4  UNL d   1      -5.684   5.255   4.384  0.00  0.00     0.017 A 
ATOM      6  C5  UNL d   1      -5.981   5.987   3.231  0.00  0.00     0.034 A 
ATOM      7 Cl   UNL d   1      -5.994   5.999   5.913  0.00  0.00    -0.070 Cl
ATOM      8 Cl1  UNL d   1      -4.763   2.997   5.649  0.00  0.00    -0.070 Cl
ENDROOT
TORSDOF 0
ENDMDL
