MODEL 1
REMARK minimizedAffinity -2.35494184
REMARK minimizedRMSD -1
REMARK  0 active torsions:
REMARK  status: ('A' for Active; 'I' for Inactive)
ROOT
ATOM      1  C   UNL d   1      -5.716   5.450   2.038  0.00  0.00     0.020 A 
ATOM      2  C1  UNL d   1      -5.300   4.125   1.911  0.00  0.00     0.020 A 
ATOM      3  C2  UNL d   1      -5.093   3.346   3.052  0.00  0.00     0.034 A 
ATOM      4  C3  UNL d   1      -5.302   3.891   4.324  0.00  0.00     0.017 A 
ATOM      5  C4  UNL d   1      -5.720   5.221   4.450  0.00  0.00     0.017 A 
ATOM      6  C5  UNL d   1      -5.926   5.996   3.304  0.00  0.00     0.034 A 
ATOM      7 Cl   UNL d   1      -5.998   5.963   5.985  0.00  0.00    -0.070 Cl
ATOM      8 Cl1  UNL d   1      -5.027   2.870   5.690  0.00  0.00    -0.070 Cl
ENDROOT
TORSDOF 0
ENDMDL
