MODEL 1
REMARK minimizedAffinity 6.81169701
REMARK minimizedRMSD -1
REMARK  0 active torsions:
REMARK  status: ('A' for Active; 'I' for Inactive)
ROOT
ATOM      1  C   UNL d   1      -0.823  -0.714  -1.465  0.00  0.00     0.020 A 
ATOM      2  C1  UNL d   1      -0.247   0.431  -0.916  0.00  0.00     0.020 A 
ATOM      3  C2  UNL d   1      -0.432   0.725   0.437  0.00  0.00     0.034 A 
ATOM      4  C3  UNL d   1      -1.195  -0.125   1.245  0.00  0.00     0.017 A 
ATOM      5  C4  UNL d   1      -1.773  -1.274   0.692  0.00  0.00     0.017 A 
ATOM      6  C5  UNL d   1      -1.585  -1.564  -0.662  0.00  0.00     0.034 A 
ATOM      7 Cl   UNL d   1      -2.728  -2.372   1.626  0.00  0.00    -0.070 Cl
ATOM      8 Cl1  UNL d   1      -1.381   0.300   2.909  0.00  0.00    -0.070 Cl
ENDROOT
TORSDOF 0
ENDMDL
