MODEL 1
REMARK minimizedAffinity -1.77327371
REMARK minimizedRMSD -1
REMARK  0 active torsions:
REMARK  status: ('A' for Active; 'I' for Inactive)
ROOT
ATOM      1  C   UNL d   1      -5.051   5.411   2.045  0.00  0.00     0.020 A 
ATOM      2  C1  UNL d   1      -5.039   4.022   1.921  0.00  0.00     0.020 A 
ATOM      3  C2  UNL d   1      -4.864   3.222   3.051  0.00  0.00     0.034 A 
ATOM      4  C3  UNL d   1      -4.700   3.809   4.311  0.00  0.00     0.017 A 
ATOM      5  C4  UNL d   1      -4.712   5.203   4.435  0.00  0.00     0.017 A 
ATOM      6  C5  UNL d   1      -4.888   6.000   3.300  0.00  0.00     0.034 A 
ATOM      7 Cl   UNL d   1      -4.516   6.000   5.956  0.00  0.00    -0.070 Cl
ATOM      8 Cl1  UNL d   1      -4.488   2.758   5.666  0.00  0.00    -0.070 Cl
ENDROOT
TORSDOF 0
ENDMDL
