MODEL 1
REMARK minimizedAffinity 1.04258823
REMARK minimizedRMSD -1
REMARK  0 active torsions:
REMARK  status: ('A' for Active; 'I' for Inactive)
ROOT
ATOM      1  C   UNL d   1      -0.053  -0.373   0.898  0.00  0.00     0.020 A 
ATOM      2  C1  UNL d   1      -1.269  -1.037   1.057  0.00  0.00     0.020 A 
ATOM      3  C2  UNL d   1      -2.058  -1.323  -0.059  0.00  0.00     0.034 A 
ATOM      4  C3  UNL d   1      -1.633  -0.946  -1.338  0.00  0.00     0.017 A 
ATOM      5  C4  UNL d   1      -0.412  -0.280  -1.496  0.00  0.00     0.017 A 
ATOM      6  C5  UNL d   1       0.375   0.005  -0.375  0.00  0.00     0.034 A 
ATOM      7 Cl   UNL d   1       0.180   0.217  -3.042  0.00  0.00    -0.070 Cl
ATOM      8 Cl1  UNL d   1      -2.659  -1.333  -2.673  0.00  0.00    -0.070 Cl
ENDROOT
TORSDOF 0
ENDMDL
