MODEL 1
REMARK minimizedAffinity 2.06574416
REMARK minimizedRMSD -1
REMARK  0 active torsions:
REMARK  status: ('A' for Active; 'I' for Inactive)
ROOT
ATOM      1  C   UNL d   1      -2.527  -0.673   1.532  0.00  0.00     0.020 A 
ATOM      2  C1  UNL d   1      -1.303  -0.169   1.970  0.00  0.00     0.020 A 
ATOM      3  C2  UNL d   1      -0.252  -0.003   1.065  0.00  0.00     0.034 A 
ATOM      4  C3  UNL d   1      -0.422  -0.342  -0.282  0.00  0.00     0.017 A 
ATOM      5  C4  UNL d   1      -1.651  -0.849  -0.721  0.00  0.00     0.017 A 
ATOM      6  C5  UNL d   1      -2.700  -1.012   0.189  0.00  0.00     0.034 A 
ATOM      7 Cl   UNL d   1      -1.937  -1.289  -2.367  0.00  0.00    -0.070 Cl
ATOM      8 Cl1  UNL d   1       0.920  -0.111  -1.345  0.00  0.00    -0.070 Cl
ENDROOT
TORSDOF 0
ENDMDL
