MODEL 1
REMARK minimizedAffinity -2.23067689
REMARK minimizedRMSD -1
REMARK  0 active torsions:
REMARK  status: ('A' for Active; 'I' for Inactive)
ROOT
ATOM      1  C   UNL d   1      -5.207   4.858   1.486  0.00  0.00     0.020 A 
ATOM      2  C1  UNL d   1      -5.763   5.985   2.089  0.00  0.00     0.020 A 
ATOM      3  C2  UNL d   1      -5.997   5.997   3.466  0.00  0.00     0.034 A 
ATOM      4  C3  UNL d   1      -5.675   4.879   4.244  0.00  0.00     0.017 A 
ATOM      5  C4  UNL d   1      -5.116   3.748   3.637  0.00  0.00     0.017 A 
ATOM      6  C5  UNL d   1      -4.884   3.742   2.259  0.00  0.00     0.034 A 
ATOM      7 Cl   UNL d   1      -4.692   2.331   4.531  0.00  0.00    -0.070 Cl
ATOM      8 Cl1  UNL d   1      -5.991   4.962   5.941  0.00  0.00    -0.070 Cl
ENDROOT
TORSDOF 0
ENDMDL
