MODEL 1
REMARK minimizedAffinity 0.27750361
REMARK minimizedRMSD -1
REMARK  0 active torsions:
REMARK  status: ('A' for Active; 'I' for Inactive)
ROOT
ATOM      1  C   UNL d   1      -5.395   4.088   1.868  0.00  0.00     0.020 A 
ATOM      2  C1  UNL d   1      -5.754   5.431   1.984  0.00  0.00     0.020 A 
ATOM      3  C2  UNL d   1      -5.936   5.999   3.246  0.00  0.00     0.034 A 
ATOM      4  C3  UNL d   1      -5.759   5.224   4.399  0.00  0.00     0.017 A 
ATOM      5  C4  UNL d   1      -5.398   3.877   4.282  0.00  0.00     0.017 A 
ATOM      6  C5  UNL d   1      -5.217   3.313   3.015  0.00  0.00     0.034 A 
ATOM      7 Cl   UNL d   1      -5.162   2.858   5.658  0.00  0.00    -0.070 Cl
ATOM      8 Cl1  UNL d   1      -6.000   5.992   5.928  0.00  0.00    -0.070 Cl
ENDROOT
TORSDOF 0
ENDMDL
