MODEL 1
REMARK minimizedAffinity -0.475059569
REMARK minimizedRMSD -1
REMARK  0 active torsions:
REMARK  status: ('A' for Active; 'I' for Inactive)
ROOT
ATOM      1  N1  IND d   1       0.792  -0.962  -0.493  0.00  0.00    -0.196 N 
ATOM      2  C2  IND d   1       0.493  -0.580  -1.771  0.00  0.00     0.054 A 
ATOM      3  C3  IND d   1      -0.611   0.201  -1.782  0.00  0.00    -0.031 A 
ATOM      4  C4  IND d   1      -2.025   1.062   0.189  0.00  0.00     0.051 A 
ATOM      5  C5  IND d   1      -2.164   0.952   1.544  0.00  0.00    -0.031 A 
ATOM      6  C6  IND d   1      -1.305   0.184   2.305  0.00  0.00     0.015 A 
ATOM      7  C7  IND d   1      -0.265  -0.495   1.738  0.00  0.00    -0.016 A 
ATOM      8  C8  IND d   1      -0.125  -0.391   0.362  0.00  0.00    -0.047 A 
ATOM      9  C9  IND d   1      -1.018   0.352  -0.421  0.00  0.00    -0.096 A 
ATOM     10  HN1 IND d   1       1.444  -1.474  -0.262  0.00  0.00     0.298 HD
ENDROOT
TORSDOF 0
ENDMDL
