MODEL 1
REMARK minimizedAffinity -3.36325145
REMARK minimizedRMSD -1
REMARK  0 active torsions:
REMARK  status: ('A' for Active; 'I' for Inactive)
ROOT
ATOM      1  N1  IND d   1       1.597  -0.276  -0.539  0.00  0.00    -0.196 N 
ATOM      2  C2  IND d   1       1.137  -0.103  -1.814  0.00  0.00     0.054 A 
ATOM      3  C3  IND d   1      -0.197   0.114  -1.807  0.00  0.00    -0.031 A 
ATOM      4  C4  IND d   1      -1.810   0.326   0.188  0.00  0.00     0.051 A 
ATOM      5  C5  IND d   1      -1.861   0.206   1.549  0.00  0.00    -0.031 A 
ATOM      6  C6  IND d   1      -0.739  -0.083   2.298  0.00  0.00     0.015 A 
ATOM      7  C7  IND d   1       0.483  -0.254   1.714  0.00  0.00    -0.016 A 
ATOM      8  C8  IND d   1       0.538  -0.140   0.332  0.00  0.00    -0.047 A 
ATOM      9  C9  IND d   1      -0.605   0.111  -0.438  0.00  0.00    -0.096 A 
ATOM     10  HN1 IND d   1       2.411  -0.443  -0.317  0.00  0.00     0.298 HD
ENDROOT
TORSDOF 0
ENDMDL
