MODEL 1
REMARK minimizedAffinity -2.51582432
REMARK minimizedRMSD -1
REMARK  0 active torsions:
REMARK  status: ('A' for Active; 'I' for Inactive)
ROOT
ATOM      1  N1  IND d   1       1.839  -0.758   1.900  0.00  0.00    -0.196 N 
ATOM      2  C2  IND d   1       1.795  -0.672   3.264  0.00  0.00     0.054 A 
ATOM      3  C3  IND d   1       0.602  -0.182   3.667  0.00  0.00    -0.031 A 
ATOM      4  C4  IND d   1      -1.464   0.450   2.266  0.00  0.00     0.051 A 
ATOM      5  C5  IND d   1      -1.892   0.577   0.974  0.00  0.00    -0.031 A 
ATOM      6  C6  IND d   1      -1.082   0.256  -0.097  0.00  0.00     0.015 A 
ATOM      7  C7  IND d   1       0.187  -0.216   0.086  0.00  0.00    -0.016 A 
ATOM      8  C8  IND d   1       0.627  -0.339   1.396  0.00  0.00    -0.047 A 
ATOM      9  C9  IND d   1      -0.175   0.024   2.486  0.00  0.00    -0.096 A 
ATOM     10  HN1 IND d   1       2.510  -1.028   1.436  0.00  0.00     0.298 HD
ENDROOT
TORSDOF 0
ENDMDL
