MODEL 1
REMARK minimizedAffinity -0.948361814
REMARK minimizedRMSD -1
REMARK  0 active torsions:
REMARK  status: ('A' for Active; 'I' for Inactive)
ROOT
ATOM      1  N1  IND d   1       1.781  -0.678   2.291  0.00  0.00    -0.196 N 
ATOM      2  C2  IND d   1       1.533  -0.631   3.635  0.00  0.00     0.054 A 
ATOM      3  C3  IND d   1       0.294  -0.143   3.868  0.00  0.00    -0.031 A 
ATOM      4  C4  IND d   1      -1.534   0.548   2.191  0.00  0.00     0.051 A 
ATOM      5  C5  IND d   1      -1.761   0.716   0.854  0.00  0.00    -0.031 A 
ATOM      6  C6  IND d   1      -0.801   0.420  -0.092  0.00  0.00     0.015 A 
ATOM      7  C7  IND d   1       0.424  -0.069   0.266  0.00  0.00    -0.016 A 
ATOM      8  C8  IND d   1       0.661  -0.234   1.623  0.00  0.00    -0.047 A 
ATOM      9  C9  IND d   1      -0.295   0.105   2.590  0.00  0.00    -0.096 A 
ATOM     10  HN1 IND d   1       2.513  -0.940   1.925  0.00  0.00     0.298 HD
ENDROOT
TORSDOF 0
ENDMDL
