MODEL 1
REMARK minimizedAffinity -2.29879332
REMARK minimizedRMSD -1
REMARK  0 active torsions:
REMARK  status: ('A' for Active; 'I' for Inactive)
ROOT
ATOM      1  N1  IND d   1       1.936  -1.080   2.398  0.00  0.00    -0.196 N 
ATOM      2  C2  IND d   1       1.751  -0.933   3.744  0.00  0.00     0.054 A 
ATOM      3  C3  IND d   1       0.516  -0.447   4.000  0.00  0.00    -0.031 A 
ATOM      4  C4  IND d   1      -1.403   0.084   2.367  0.00  0.00     0.051 A 
ATOM      5  C5  IND d   1      -1.697   0.144   1.034  0.00  0.00    -0.031 A 
ATOM      6  C6  IND d   1      -0.777  -0.210   0.067  0.00  0.00     0.015 A 
ATOM      7  C7  IND d   1       0.472  -0.651   0.401  0.00  0.00    -0.016 A 
ATOM      8  C8  IND d   1       0.777  -0.707   1.753  0.00  0.00    -0.047 A 
ATOM      9  C9  IND d   1      -0.138  -0.308   2.737  0.00  0.00    -0.096 A 
ATOM     10  HN1 IND d   1       2.655  -1.358   2.017  0.00  0.00     0.298 HD
ENDROOT
TORSDOF 0
ENDMDL
