MODEL 1
REMARK minimizedAffinity -0.0257074703
REMARK minimizedRMSD -1
REMARK  0 active torsions:
REMARK  status: ('A' for Active; 'I' for Inactive)
ROOT
ATOM      1  N1  IND d   1       1.452  -0.013  -0.586  0.00  0.00    -0.196 N 
ATOM      2  C2  IND d   1       0.311  -0.385   0.070  0.00  0.00     0.054 A 
ATOM      3  C3  IND d   1      -0.702  -0.557  -0.808  0.00  0.00    -0.031 A 
ATOM      4  C4  IND d   1      -0.686  -0.381  -3.377  0.00  0.00     0.051 A 
ATOM      5  C5  IND d   1       0.115  -0.033  -4.428  0.00  0.00    -0.031 A 
ATOM      6  C6  IND d   1       1.430   0.345  -4.249  0.00  0.00     0.015 A 
ATOM      7  C7  IND d   1       1.998   0.377  -3.007  0.00  0.00    -0.016 A 
ATOM      8  C8  IND d   1       1.186   0.031  -1.937  0.00  0.00    -0.047 A 
ATOM      9  C9  IND d   1      -0.161  -0.312  -2.108  0.00  0.00    -0.096 A 
ATOM     10  HN1 IND d   1       2.208   0.164  -0.216  0.00  0.00     0.298 HD
ENDROOT
TORSDOF 0
ENDMDL
