MODEL 1
REMARK minimizedAffinity -4.87083673
REMARK minimizedRMSD -1
REMARK  0 active torsions:
REMARK  status: ('A' for Active; 'I' for Inactive)
ROOT
ATOM      1  N1  IND d   1       1.558  -0.941   1.938  0.00  0.00    -0.196 N 
ATOM      2  C2  IND d   1       1.241  -0.826   3.262  0.00  0.00     0.054 A 
ATOM      3  C3  IND d   1       0.035  -0.232   3.407  0.00  0.00    -0.031 A 
ATOM      4  C4  IND d   1      -1.635   0.539   1.606  0.00  0.00     0.051 A 
ATOM      5  C5  IND d   1      -1.774   0.676   0.253  0.00  0.00    -0.031 A 
ATOM      6  C6  IND d   1      -0.790   0.270  -0.625  0.00  0.00     0.015 A 
ATOM      7  C7  IND d   1       0.370  -0.301  -0.182  0.00  0.00    -0.016 A 
ATOM      8  C8  IND d   1       0.517  -0.435   1.191  0.00  0.00    -0.047 A 
ATOM      9  C9  IND d   1      -0.460   0.014   2.090  0.00  0.00    -0.096 A 
ATOM     10  HN1 IND d   1       2.286  -1.273   1.623  0.00  0.00     0.298 HD
ENDROOT
TORSDOF 0
ENDMDL
