MODEL 1
REMARK minimizedAffinity -4.87184763
REMARK minimizedRMSD -1
REMARK  0 active torsions:
REMARK  status: ('A' for Active; 'I' for Inactive)
ROOT
ATOM      1  N1  IND d   1       1.759  -0.762   2.041  0.00  0.00    -0.196 N 
ATOM      2  C2  IND d   1       1.859  -0.618   3.397  0.00  0.00     0.054 A 
ATOM      3  C3  IND d   1       0.755  -0.011   3.888  0.00  0.00    -0.031 A 
ATOM      4  C4  IND d   1      -1.381   0.739   2.662  0.00  0.00     0.051 A 
ATOM      5  C5  IND d   1      -1.924   0.850   1.413  0.00  0.00    -0.031 A 
ATOM      6  C6  IND d   1      -1.254   0.418   0.286  0.00  0.00     0.015 A 
ATOM      7  C7  IND d   1      -0.016  -0.154   0.369  0.00  0.00    -0.016 A 
ATOM      8  C8  IND d   1       0.541  -0.262   1.636  0.00  0.00    -0.047 A 
ATOM      9  C9  IND d   1      -0.116   0.214   2.778  0.00  0.00    -0.096 A 
ATOM     10  HN1 IND d   1       2.356  -1.107   1.528  0.00  0.00     0.298 HD
ENDROOT
TORSDOF 0
ENDMDL
