MODEL 1
REMARK minimizedAffinity -5.34640312
REMARK minimizedRMSD -1
REMARK  0 active torsions:
REMARK  status: ('A' for Active; 'I' for Inactive)
ROOT
ATOM      1  C   UNL d   1      -0.765  -0.522  -2.291  0.00  0.00     0.124 A 
ATOM      2  C1  UNL d   1      -0.794   0.855  -2.463  0.00  0.00     0.062 A 
ATOM      3  C2  UNL d   1      -0.835   1.698  -1.357  0.00  0.00     0.162 A 
ATOM      4  C3  UNL d   1      -0.846   1.167  -0.067  0.00  0.00    -0.034 A 
ATOM      5  C4  UNL d   1      -0.818  -0.219   0.099  0.00  0.00     0.162 A 
ATOM      6  C5  UNL d   1      -0.777  -1.058  -1.010  0.00  0.00     0.062 A 
ATOM      7  F   UNL d   1      -0.749  -2.388  -0.841  0.00  0.00    -0.097 F 
ATOM      8  F1  UNL d   1      -0.828  -0.763   1.325  0.00  0.00    -0.096 F 
ATOM      9  I   UNL d   1      -0.907   2.425   1.590  0.00  0.00    -0.060 I 
ATOM     10  F2  UNL d   1      -0.862   3.025  -1.554  0.00  0.00    -0.096 F 
ATOM     11  F3  UNL d   1      -0.784   1.374  -3.699  0.00  0.00    -0.097 F 
ATOM     12  F4  UNL d   1      -0.727  -1.332  -3.357  0.00  0.00    -0.092 F 
ENDROOT
TORSDOF 0
ENDMDL
