MODEL 1
REMARK minimizedAffinity -1.71498156
REMARK minimizedRMSD -1
REMARK  0 active torsions:
REMARK  status: ('A' for Active; 'I' for Inactive)
ROOT
ATOM      1  C   UNL d   1      -0.283   1.752   1.082  0.00  0.00     0.124 A 
ATOM      2  C1  UNL d   1       0.188   0.748   1.916  0.00  0.00     0.062 A 
ATOM      3  C2  UNL d   1       0.538  -0.493   1.390  0.00  0.00     0.162 A 
ATOM      4  C3  UNL d   1       0.418  -0.736   0.022  0.00  0.00    -0.034 A 
ATOM      5  C4  UNL d   1      -0.058   0.278  -0.811  0.00  0.00     0.162 A 
ATOM      6  C5  UNL d   1      -0.406   1.516  -0.281  0.00  0.00     0.062 A 
ATOM      7  F   UNL d   1      -0.862   2.485  -1.088  0.00  0.00    -0.097 F 
ATOM      8  F1  UNL d   1      -0.186   0.078  -2.131  0.00  0.00    -0.096 F 
ATOM      9  I   UNL d   1       0.940  -2.589  -0.768  0.00  0.00    -0.060 I 
ATOM     10  F2  UNL d   1       0.991  -1.444   2.220  0.00  0.00    -0.096 F 
ATOM     11  F3  UNL d   1       0.307   0.973   3.232  0.00  0.00    -0.097 F 
ATOM     12  F4  UNL d   1      -0.620   2.944   1.590  0.00  0.00    -0.092 F 
ENDROOT
TORSDOF 0
ENDMDL
