MODEL 1
REMARK minimizedAffinity -4.0922904
REMARK minimizedRMSD -1
REMARK  0 active torsions:
REMARK  status: ('A' for Active; 'I' for Inactive)
ROOT
ATOM      1  C   UNL d   1      -0.784   2.592  -0.998  0.00  0.00     0.124 A 
ATOM      2  C1  UNL d   1      -1.296   3.016   0.221  0.00  0.00     0.062 A 
ATOM      3  C2  UNL d   1      -0.988   2.323   1.388  0.00  0.00     0.162 A 
ATOM      4  C3  UNL d   1      -0.162   1.199   1.342  0.00  0.00    -0.034 A 
ATOM      5  C4  UNL d   1       0.348   0.779   0.113  0.00  0.00     0.162 A 
ATOM      6  C5  UNL d   1       0.037   1.475  -1.051  0.00  0.00     0.062 A 
ATOM      7  F   UNL d   1       0.532   1.064  -2.228  0.00  0.00    -0.097 F 
ATOM      8  F1  UNL d   1       1.144  -0.297   0.033  0.00  0.00    -0.096 F 
ATOM      9  I   UNL d   1       0.301   0.161   3.085  0.00  0.00    -0.060 I 
ATOM     10  F2  UNL d   1      -1.496   2.755   2.552  0.00  0.00    -0.096 F 
ATOM     11  F3  UNL d   1      -2.090   4.095   0.274  0.00  0.00    -0.097 F 
ATOM     12  F4  UNL d   1      -1.083   3.260  -2.120  0.00  0.00    -0.092 F 
ENDROOT
TORSDOF 0
ENDMDL
