MODEL 1
REMARK minimizedAffinity -1.53931713
REMARK minimizedRMSD -1
REMARK  0 active torsions:
REMARK  status: ('A' for Active; 'I' for Inactive)
ROOT
ATOM      1  C   UNL d   1       0.255   1.028   1.504  0.00  0.00     0.124 A 
ATOM      2  C1  UNL d   1       1.162   0.028   1.184  0.00  0.00     0.062 A 
ATOM      3  C2  UNL d   1       0.787  -1.012   0.338  0.00  0.00     0.162 A 
ATOM      4  C3  UNL d   1      -0.501  -1.057  -0.194  0.00  0.00    -0.034 A 
ATOM      5  C4  UNL d   1      -1.408  -0.047   0.133  0.00  0.00     0.162 A 
ATOM      6  C5  UNL d   1      -1.029   0.990   0.979  0.00  0.00     0.062 A 
ATOM      7  F   UNL d   1      -1.907   1.956   1.287  0.00  0.00    -0.097 F 
ATOM      8  F1  UNL d   1      -2.655  -0.059  -0.362  0.00  0.00    -0.096 F 
ATOM      9  I   UNL d   1      -1.065  -2.610  -1.459  0.00  0.00    -0.060 I 
ATOM     10  F2  UNL d   1       1.684  -1.966   0.046  0.00  0.00    -0.096 F 
ATOM     11  F3  UNL d   1       2.403   0.062   1.691  0.00  0.00    -0.097 F 
ATOM     12  F4  UNL d   1       0.618   2.027   2.319  0.00  0.00    -0.092 F 
ENDROOT
TORSDOF 0
ENDMDL
