MODEL 1
REMARK minimizedAffinity -1.9799614
REMARK minimizedRMSD -1
REMARK  0 active torsions:
REMARK  status: ('A' for Active; 'I' for Inactive)
ROOT
ATOM      1  C   UNL d   1       0.316   2.785   0.366  0.00  0.00     0.124 A 
ATOM      2  C1  UNL d   1       0.242   2.544  -0.999  0.00  0.00     0.062 A 
ATOM      3  C2  UNL d   1       0.285   1.240  -1.482  0.00  0.00     0.162 A 
ATOM      4  C3  UNL d   1       0.402   0.165  -0.600  0.00  0.00    -0.034 A 
ATOM      5  C4  UNL d   1       0.478   0.416   0.771  0.00  0.00     0.162 A 
ATOM      6  C5  UNL d   1       0.434   1.722   1.249  0.00  0.00     0.062 A 
ATOM      7  F   UNL d   1       0.507   1.953   2.568  0.00  0.00    -0.097 F 
ATOM      8  F1  UNL d   1       0.591  -0.593   1.647  0.00  0.00    -0.096 F 
ATOM      9  I   UNL d   1       0.467  -1.786  -1.320  0.00  0.00    -0.060 I 
ATOM     10  F2  UNL d   1       0.210   1.036  -2.806  0.00  0.00    -0.096 F 
ATOM     11  F3  UNL d   1       0.129   3.570  -1.854  0.00  0.00    -0.097 F 
ATOM     12  F4  UNL d   1       0.276   4.041   0.829  0.00  0.00    -0.092 F 
ENDROOT
TORSDOF 0
ENDMDL
