MODEL 1
REMARK minimizedAffinity -4.0109911
REMARK minimizedRMSD -1
REMARK  0 active torsions:
REMARK  status: ('A' for Active; 'I' for Inactive)
ROOT
ATOM      1  C   UNL d   1      -0.271   2.794   1.035  0.00  0.00     0.124 A 
ATOM      2  C1  UNL d   1      -0.281   2.559  -0.333  0.00  0.00     0.062 A 
ATOM      3  C2  UNL d   1      -0.073   1.274  -0.824  0.00  0.00     0.162 A 
ATOM      4  C3  UNL d   1       0.146   0.212   0.053  0.00  0.00    -0.034 A 
ATOM      5  C4  UNL d   1       0.156   0.456   1.428  0.00  0.00     0.162 A 
ATOM      6  C5  UNL d   1      -0.053   1.743   1.914  0.00  0.00     0.062 A 
ATOM      7  F   UNL d   1      -0.043   1.967   3.236  0.00  0.00    -0.097 F 
ATOM      8  F1  UNL d   1       0.363  -0.542   2.300  0.00  0.00    -0.096 F 
ATOM      9  I   UNL d   1       0.457  -1.712  -0.677  0.00  0.00    -0.060 I 
ATOM     10  F2  UNL d   1      -0.088   1.076  -2.151  0.00  0.00    -0.096 F 
ATOM     11  F3  UNL d   1      -0.491   3.574  -1.184  0.00  0.00    -0.097 F 
ATOM     12  F4  UNL d   1      -0.471   4.032   1.505  0.00  0.00    -0.092 F 
ENDROOT
TORSDOF 0
ENDMDL
