MODEL 1
REMARK minimizedAffinity -4.37223768
REMARK minimizedRMSD -1
REMARK  0 active torsions:
REMARK  status: ('A' for Active; 'I' for Inactive)
ROOT
ATOM      1  C   UNL d   1      -0.619   1.993   1.730  0.00  0.00     0.124 A 
ATOM      2  C1  UNL d   1      -1.036   1.701   0.438  0.00  0.00     0.062 A 
ATOM      3  C2  UNL d   1      -0.611   0.534  -0.188  0.00  0.00     0.162 A 
ATOM      4  C3  UNL d   1       0.237  -0.353   0.476  0.00  0.00    -0.034 A 
ATOM      5  C4  UNL d   1       0.654  -0.052   1.774  0.00  0.00     0.162 A 
ATOM      6  C5  UNL d   1       0.226   1.116   2.396  0.00  0.00     0.062 A 
ATOM      7  F   UNL d   1       0.631   1.396   3.643  0.00  0.00    -0.097 F 
ATOM      8  F1  UNL d   1       1.470  -0.882   2.441  0.00  0.00    -0.096 F 
ATOM      9  I   UNL d   1       0.876  -2.100  -0.458  0.00  0.00    -0.060 I 
ATOM     10  F2  UNL d   1      -1.030   0.278  -1.436  0.00  0.00    -0.096 F 
ATOM     11  F3  UNL d   1      -1.852   2.547  -0.208  0.00  0.00    -0.097 F 
ATOM     12  F4  UNL d   1      -1.029   3.117   2.330  0.00  0.00    -0.092 F 
ENDROOT
TORSDOF 0
ENDMDL
