MODEL 1
REMARK minimizedAffinity -2.68911314
REMARK minimizedRMSD -1
REMARK  1 active torsions:
REMARK  status: ('A' for Active; 'I' for Inactive)
REMARK    1  A    between atoms: C1_2  and  C2_3 
ROOT
ATOM      1  C2  UNL d   1      -1.242   0.381   0.468  0.00  0.00    -0.073 A 
ATOM      2  C3  UNL d   1      -1.615   0.720   1.774  0.00  0.00    -0.002 A 
ATOM      3  C4  UNL d   1      -2.925   1.113   2.053  0.00  0.00     0.004 A 
ATOM      4  C5  UNL d   1      -3.875   1.166   1.033  0.00  0.00    -0.004 A 
ATOM      5  C6  UNL d   1      -3.524   0.819  -0.276  0.00  0.00    -0.075 A 
ATOM      6  C7  UNL d   1      -4.534   0.872  -1.385  0.00  0.00     0.076 C 
ATOM      7  C8  UNL d   1      -2.207   0.428  -0.549  0.00  0.00     0.001 A 
ENDROOT
BRANCH   1   8
ATOM      8  C1  UNL d   1       0.169  -0.051   0.163  0.00  0.00     0.053 C 
ATOM      9  C   UNL d   1       0.218  -1.432  -0.472  0.00  0.00     0.018 C 
ENDBRANCH   1   8
TORSDOF 1
ENDMDL
