MODEL 1
REMARK minimizedAffinity -4.34379244
REMARK minimizedRMSD -1
REMARK  1 active torsions:
REMARK  status: ('A' for Active; 'I' for Inactive)
REMARK    1  A    between atoms: C1_2  and  C2_3 
ROOT
ATOM      1  C2  UNL d   1      -0.114   0.121   0.312  0.00  0.00    -0.073 A 
ATOM      2  C3  UNL d   1      -0.631   0.461  -0.944  0.00  0.00    -0.002 A 
ATOM      3  C4  UNL d   1      -1.910   1.008  -1.055  0.00  0.00     0.004 A 
ATOM      4  C5  UNL d   1      -2.681   1.228   0.086  0.00  0.00    -0.004 A 
ATOM      5  C6  UNL d   1      -2.178   0.906   1.351  0.00  0.00    -0.075 A 
ATOM      6  C7  UNL d   1      -2.996   1.134   2.588  0.00  0.00     0.076 C 
ATOM      7  C8  UNL d   1      -0.894   0.354   1.454  0.00  0.00     0.001 A 
ENDROOT
BRANCH   1   8
ATOM      8  C1  UNL d   1       1.268  -0.465   0.438  0.00  0.00     0.053 C 
ATOM      9  C   UNL d   1       1.231  -1.959   0.717  0.00  0.00     0.018 C 
ENDBRANCH   1   8
TORSDOF 1
ENDMDL
