MODEL 1
REMARK minimizedAffinity -3.24634171
REMARK minimizedRMSD -1
REMARK  1 active torsions:
REMARK  status: ('A' for Active; 'I' for Inactive)
REMARK    1  A    between atoms: C1_2  and  C2_3 
ROOT
ATOM      1  C2  UNL d   1      -0.085   0.053   0.091  0.00  0.00    -0.073 A 
ATOM      2  C3  UNL d   1      -0.617  -1.020  -0.634  0.00  0.00    -0.002 A 
ATOM      3  C4  UNL d   1       0.112  -2.201  -0.783  0.00  0.00     0.004 A 
ATOM      4  C5  UNL d   1       1.375  -2.324  -0.204  0.00  0.00    -0.004 A 
ATOM      5  C6  UNL d   1       1.919  -1.267   0.534  0.00  0.00    -0.075 A 
ATOM      6  C7  UNL d   1       3.277  -1.383   1.161  0.00  0.00     0.076 C 
ATOM      7  C8  UNL d   1       1.182  -0.084   0.676  0.00  0.00     0.001 A 
ENDROOT
BRANCH   1   8
ATOM      8  C1  UNL d   1      -0.871   1.327   0.260  0.00  0.00     0.053 C 
ATOM      9  C   UNL d   1      -2.370   1.076   0.264  0.00  0.00     0.018 C 
ENDBRANCH   1   8
TORSDOF 1
ENDMDL
