MODEL 1
REMARK minimizedAffinity -4.7873621
REMARK minimizedRMSD -1
REMARK  1 active torsions:
REMARK  status: ('A' for Active; 'I' for Inactive)
REMARK    1  A    between atoms: C1_2  and  C2_3 
ROOT
ATOM      1  C2  UNL d   1      -0.578   0.644   0.128  0.00  0.00    -0.073 A 
ATOM      2  C3  UNL d   1       0.108   1.859   0.236  0.00  0.00    -0.002 A 
ATOM      3  C4  UNL d   1       1.466   1.875   0.557  0.00  0.00     0.004 A 
ATOM      4  C5  UNL d   1       2.153   0.679   0.764  0.00  0.00    -0.004 A 
ATOM      5  C6  UNL d   1       1.487  -0.546   0.649  0.00  0.00    -0.075 A 
ATOM      6  C7  UNL d   1       2.211  -1.841   0.871  0.00  0.00     0.076 C 
ATOM      7  C8  UNL d   1       0.123  -0.553   0.329  0.00  0.00     0.001 A 
ENDROOT
BRANCH   1   8
ATOM      8  C1  UNL d   1      -2.043   0.621  -0.224  0.00  0.00     0.053 C 
ATOM      9  C   UNL d   1      -2.918   1.032   0.950  0.00  0.00     0.018 C 
ENDBRANCH   1   8
TORSDOF 1
ENDMDL
