MODEL 1
REMARK minimizedAffinity -4.72395134
REMARK minimizedRMSD -1
REMARK  1 active torsions:
REMARK  status: ('A' for Active; 'I' for Inactive)
REMARK    1  A    between atoms: C1_2  and  C2_3 
ROOT
ATOM      1  C2  UNL d   1      -0.004   0.135  -0.103  0.00  0.00    -0.073 A 
ATOM      2  C3  UNL d   1      -0.497  -1.065  -0.628  0.00  0.00    -0.002 A 
ATOM      3  C4  UNL d   1       0.340  -2.173  -0.763  0.00  0.00     0.004 A 
ATOM      4  C5  UNL d   1       1.676  -2.095  -0.369  0.00  0.00    -0.004 A 
ATOM      5  C6  UNL d   1       2.185  -0.908   0.169  0.00  0.00    -0.075 A 
ATOM      6  C7  UNL d   1       3.620  -0.807   0.596  0.00  0.00     0.076 C 
ATOM      7  C8  UNL d   1       1.338   0.201   0.299  0.00  0.00     0.001 A 
ENDROOT
BRANCH   1   8
ATOM      8  C1  UNL d   1      -0.906   1.332   0.050  0.00  0.00     0.053 C 
ATOM      9  C   UNL d   1      -2.305   0.938   0.498  0.00  0.00     0.018 C 
ENDBRANCH   1   8
TORSDOF 1
ENDMDL
