MODEL 1
REMARK minimizedAffinity -4.28906155
REMARK minimizedRMSD -1
REMARK  1 active torsions:
REMARK  status: ('A' for Active; 'I' for Inactive)
REMARK    1  A    between atoms: C1_2  and  C2_3 
ROOT
ATOM      1  C2  UNL d   1       0.384  -1.538  -0.409  0.00  0.00    -0.073 A 
ATOM      2  C3  UNL d   1       1.476  -2.030   0.314  0.00  0.00    -0.002 A 
ATOM      3  C4  UNL d   1       2.268  -1.165   1.070  0.00  0.00     0.004 A 
ATOM      4  C5  UNL d   1       1.973   0.198   1.116  0.00  0.00    -0.004 A 
ATOM      5  C6  UNL d   1       0.879   0.707   0.409  0.00  0.00    -0.075 A 
ATOM      6  C7  UNL d   1       0.550   2.170   0.447  0.00  0.00     0.076 C 
ATOM      7  C8  UNL d   1       0.090  -0.168  -0.350  0.00  0.00     0.001 A 
ENDROOT
BRANCH   1   8
ATOM      8  C1  UNL d   1      -0.478  -2.469  -1.222  0.00  0.00     0.053 C 
ATOM      9  C   UNL d   1      -0.895  -1.849  -2.546  0.00  0.00     0.018 C 
ENDBRANCH   1   8
TORSDOF 1
ENDMDL
