MODEL 1
REMARK minimizedAffinity 7.47019577
REMARK minimizedRMSD -1
REMARK  0 active torsions:
REMARK  status: ('A' for Active; 'I' for Inactive)
ROOT
ATOM      1  C4' PXY d   1      -5.705  -1.728   1.938  0.00  0.00     0.077 C 
ATOM      2  C1' PXY d   1      -2.474   1.200   5.733  0.00  0.00     0.077 C 
ATOM      3  C1  PXY d   1      -3.318   0.440   4.729  0.00  0.00    -0.082 A 
ATOM      4  C2  PXY d   1      -4.364  -0.253   5.145  0.00  0.00     0.003 A 
ATOM      5  C3  PXY d   1      -5.119  -0.972   4.254  0.00  0.00     0.003 A 
ATOM      6  C4  PXY d   1      -4.831  -0.938   2.916  0.00  0.00    -0.082 A 
ATOM      7  C5  PXY d   1      -3.771  -0.224   2.482  0.00  0.00     0.003 A 
ATOM      8  C6  PXY d   1      -2.993   0.466   3.407  0.00  0.00     0.003 A 
ENDROOT
TORSDOF 0
ENDMDL
