MODEL 1
REMARK minimizedAffinity 4.75773525
REMARK minimizedRMSD -1
REMARK  0 active torsions:
REMARK  status: ('A' for Active; 'I' for Inactive)
ROOT
ATOM      1  C4' PXY d   1       2.292   3.405  -2.976  0.00  0.00     0.077 C 
ATOM      2  C1' PXY d   1      -1.901   5.991  -6.000  0.00  0.00     0.077 C 
ATOM      3  C1  PXY d   1      -0.805   5.321  -5.196  0.00  0.00    -0.082 A 
ATOM      4  C2  PXY d   1       0.208   4.745  -5.825  0.00  0.00     0.003 A 
ATOM      5  C3  PXY d   1       1.191   4.106  -5.115  0.00  0.00     0.003 A 
ATOM      6  C4  PXY d   1       1.167   4.102  -3.746  0.00  0.00    -0.082 A 
ATOM      7  C5  PXY d   1       0.143   4.697  -3.097  0.00  0.00     0.003 A 
ATOM      8  C6  PXY d   1      -0.867   5.305  -3.837  0.00  0.00     0.003 A 
ENDROOT
TORSDOF 0
ENDMDL
