MODEL 1
REMARK minimizedAffinity 2.4985373
REMARK minimizedRMSD -1
REMARK  0 active torsions:
REMARK  status: ('A' for Active; 'I' for Inactive)
ROOT
ATOM      1  C4' PXY d   1      -2.406   6.000  -6.000  0.00  0.00     0.077 C 
ATOM      2  C1' PXY d   1       2.338   3.998  -3.372  0.00  0.00     0.077 C 
ATOM      3  C1  PXY d   1       1.087   4.521  -4.050  0.00  0.00    -0.082 A 
ATOM      4  C2  PXY d   1       0.985   4.464  -5.368  0.00  0.00     0.003 A 
ATOM      5  C3  PXY d   1      -0.126   4.961  -6.000  0.00  0.00     0.003 A 
ATOM      6  C4  PXY d   1      -1.165   5.475  -5.272  0.00  0.00    -0.082 A 
ATOM      7  C5  PXY d   1      -1.073   5.528  -3.926  0.00  0.00     0.003 A 
ATOM      8  C6  PXY d   1       0.080   5.055  -3.307  0.00  0.00     0.003 A 
ENDROOT
TORSDOF 0
ENDMDL
