MODEL 1
REMARK minimizedAffinity 9.02599907
REMARK minimizedRMSD -1
REMARK  0 active torsions:
REMARK  status: ('A' for Active; 'I' for Inactive)
ROOT
ATOM      1  C4' PXY d   1      -3.153  -1.362   0.447  0.00  0.00     0.077 C 
ATOM      2  C1' PXY d   1      -5.875  -5.680   3.160  0.00  0.00     0.077 C 
ATOM      3  C1  PXY d   1      -5.166  -4.539   2.458  0.00  0.00    -0.082 A 
ATOM      4  C2  PXY d   1      -4.886  -4.638   1.168  0.00  0.00     0.003 A 
ATOM      5  C3  PXY d   1      -4.216  -3.630   0.525  0.00  0.00     0.003 A 
ATOM      6  C4  PXY d   1      -3.877  -2.485   1.195  0.00  0.00    -0.082 A 
ATOM      7  C5  PXY d   1      -4.168  -2.372   2.509  0.00  0.00     0.003 A 
ATOM      8  C6  PXY d   1      -4.812  -3.425   3.153  0.00  0.00     0.003 A 
ENDROOT
TORSDOF 0
ENDMDL
