MODEL 1
REMARK minimizedAffinity 3.96662045
REMARK minimizedRMSD -1
REMARK  0 active torsions:
REMARK  status: ('A' for Active; 'I' for Inactive)
ROOT
ATOM      1  C4' PXY d   1      -2.631   5.998  -5.999  0.00  0.00     0.077 C 
ATOM      2  C1' PXY d   1       2.000   3.720  -3.395  0.00  0.00     0.077 C 
ATOM      3  C1  PXY d   1       0.793   4.324  -4.086  0.00  0.00    -0.082 A 
ATOM      4  C2  PXY d   1      -0.358   4.405  -3.439  0.00  0.00     0.003 A 
ATOM      5  C3  PXY d   1      -1.468   4.919  -4.060  0.00  0.00     0.003 A 
ATOM      6  C4  PXY d   1      -1.384   5.404  -5.337  0.00  0.00    -0.082 A 
ATOM      7  C5  PXY d   1      -0.210   5.335  -6.000  0.00  0.00     0.003 A 
ATOM      8  C6  PXY d   1       0.894   4.772  -5.366  0.00  0.00     0.003 A 
ENDROOT
TORSDOF 0
ENDMDL
