MODEL 1
REMARK minimizedAffinity 11.967515
REMARK minimizedRMSD -1
REMARK  0 active torsions:
REMARK  status: ('A' for Active; 'I' for Inactive)
ROOT
ATOM      1  C4' PXY d   1       1.119  -2.335   2.626  0.00  0.00     0.077 C 
ATOM      2  C1' PXY d   1       5.998   0.737   2.214  0.00  0.00     0.077 C 
ATOM      3  C1  PXY d   1       4.712  -0.058   2.325  0.00  0.00    -0.082 A 
ATOM      4  C2  PXY d   1       4.766  -1.367   2.513  0.00  0.00     0.003 A 
ATOM      5  C3  PXY d   1       3.613  -2.106   2.584  0.00  0.00     0.003 A 
ATOM      6  C4  PXY d   1       2.392  -1.491   2.516  0.00  0.00    -0.082 A 
ATOM      7  C5  PXY d   1       2.328  -0.155   2.336  0.00  0.00     0.003 A 
ATOM      8  C6  PXY d   1       3.510   0.571   2.225  0.00  0.00     0.003 A 
ENDROOT
TORSDOF 0
ENDMDL
