MODEL 1
REMARK minimizedAffinity 11.6895237
REMARK minimizedRMSD -1
REMARK  0 active torsions:
REMARK  status: ('A' for Active; 'I' for Inactive)
ROOT
ATOM      1  C4' PXY d   1       2.879   4.224  -4.127  0.00  0.00     0.077 C 
ATOM      2  C1' PXY d   1      -2.334   6.000  -5.885  0.00  0.00     0.077 C 
ATOM      3  C1  PXY d   1      -0.972   5.531  -5.412  0.00  0.00    -0.082 A 
ATOM      4  C2  PXY d   1       0.119   5.996  -5.998  0.00  0.00     0.003 A 
ATOM      5  C3  PXY d   1       1.358   5.558  -5.605  0.00  0.00     0.003 A 
ATOM      6  C4  PXY d   1       1.483   4.677  -4.565  0.00  0.00    -0.082 A 
ATOM      7  C5  PXY d   1       0.375   4.206  -3.954  0.00  0.00     0.003 A 
ATOM      8  C6  PXY d   1      -0.875   4.631  -4.396  0.00  0.00     0.003 A 
ENDROOT
TORSDOF 0
ENDMDL
