MODEL 1
REMARK minimizedAffinity 5.72566843
REMARK minimizedRMSD -1
REMARK  0 active torsions:
REMARK  status: ('A' for Active; 'I' for Inactive)
ROOT
ATOM      1  C4' PXY d   1      -4.239   1.061   0.474  0.00  0.00     0.077 C 
ATOM      2  C1' PXY d   1       0.379  -1.858   2.363  0.00  0.00     0.077 C 
ATOM      3  C1  PXY d   1      -0.835  -1.090   1.880  0.00  0.00    -0.082 A 
ATOM      4  C2  PXY d   1      -1.364  -1.376   0.702  0.00  0.00     0.003 A 
ATOM      5  C3  PXY d   1      -2.443  -0.670   0.235  0.00  0.00     0.003 A 
ATOM      6  C4  PXY d   1      -3.019   0.304   1.006  0.00  0.00    -0.082 A 
ATOM      7  C5  PXY d   1      -2.491   0.595   2.215  0.00  0.00     0.003 A 
ATOM      8  C6  PXY d   1      -1.371  -0.106   2.652  0.00  0.00     0.003 A 
ENDROOT
TORSDOF 0
ENDMDL
