MODEL 1
REMARK minimizedAffinity 4.35881424
REMARK minimizedRMSD -1
REMARK  0 active torsions:
REMARK  status: ('A' for Active; 'I' for Inactive)
ROOT
ATOM      1  C4' PXY d   1       1.637  -3.786  -0.073  0.00  0.00     0.077 C 
ATOM      2  C1' PXY d   1      -3.867  -2.584   1.223  0.00  0.00     0.077 C 
ATOM      3  C1  PXY d   1      -2.420  -2.888   0.888  0.00  0.00    -0.082 A 
ATOM      4  C2  PXY d   1      -2.138  -3.721  -0.101  0.00  0.00     0.003 A 
ATOM      5  C3  PXY d   1      -0.836  -4.032  -0.396  0.00  0.00     0.003 A 
ATOM      6  C4  PXY d   1       0.190  -3.443   0.294  0.00  0.00    -0.082 A 
ATOM      7  C5  PXY d   1      -0.089  -2.584   1.297  0.00  0.00     0.003 A 
ATOM      8  C6  PXY d   1      -1.418  -2.313   1.608  0.00  0.00     0.003 A 
ENDROOT
TORSDOF 0
ENDMDL
