MODEL 1
REMARK minimizedAffinity 6.61559439
REMARK minimizedRMSD -1
REMARK  0 active torsions:
REMARK  status: ('A' for Active; 'I' for Inactive)
ROOT
ATOM      1  C4' PXY d   1       6.000   3.188   3.747  0.00  0.00     0.077 C 
ATOM      2  C1' PXY d   1       2.648  -1.125   1.855  0.00  0.00     0.077 C 
ATOM      3  C1  PXY d   1       3.536  -0.002   2.356  0.00  0.00    -0.082 A 
ATOM      4  C2  PXY d   1       3.007   1.182   2.619  0.00  0.00     0.003 A 
ATOM      5  C3  PXY d   1       3.801   2.217   3.042  0.00  0.00     0.003 A 
ATOM      6  C4  PXY d   1       5.140   2.023   3.248  0.00  0.00    -0.082 A 
ATOM      7  C5  PXY d   1       5.685   0.815   2.992  0.00  0.00     0.003 A 
ATOM      8  C6  PXY d   1       4.870  -0.211   2.524  0.00  0.00     0.003 A 
ENDROOT
TORSDOF 0
ENDMDL
