MODEL 1
REMARK minimizedAffinity 12.6376247
REMARK minimizedRMSD -1
REMARK  0 active torsions:
REMARK  status: ('A' for Active; 'I' for Inactive)
ROOT
ATOM      1  C4' PXY d   1       0.926   5.142  -4.818  0.00  0.00     0.077 C 
ATOM      2  C1' PXY d   1       2.241   4.019   0.698  0.00  0.00     0.077 C 
ATOM      3  C1  PXY d   1       1.903   4.303  -0.753  0.00  0.00    -0.082 A 
ATOM      4  C2  PXY d   1       1.615   5.538  -1.127  0.00  0.00     0.003 A 
ATOM      5  C3  PXY d   1       1.275   5.807  -2.428  0.00  0.00     0.003 A 
ATOM      6  C4  PXY d   1       1.283   4.810  -3.367  0.00  0.00    -0.082 A 
ATOM      7  C5  PXY d   1       1.586   3.549  -2.994  0.00  0.00     0.003 A 
ATOM      8  C6  PXY d   1       1.887   3.289  -1.661  0.00  0.00     0.003 A 
ENDROOT
TORSDOF 0
ENDMDL
