MODEL 1
REMARK minimizedAffinity 3.95116043
REMARK minimizedRMSD -1
REMARK  0 active torsions:
REMARK  status: ('A' for Active; 'I' for Inactive)
ROOT
ATOM      1  C4' PXY d   1       1.763  -1.539   3.202  0.00  0.00     0.077 C 
ATOM      2  C1' PXY d   1      -2.319  -3.548  -0.364  0.00  0.00     0.077 C 
ATOM      3  C1  PXY d   1      -1.255  -3.010   0.573  0.00  0.00    -0.082 A 
ATOM      4  C2  PXY d   1      -0.023  -3.489   0.508  0.00  0.00     0.003 A 
ATOM      5  C3  PXY d   1       0.943  -3.037   1.369  0.00  0.00     0.003 A 
ATOM      6  C4  PXY d   1       0.659  -2.046   2.270  0.00  0.00    -0.082 A 
ATOM      7  C5  PXY d   1      -0.592  -1.544   2.335  0.00  0.00     0.003 A 
ATOM      8  C6  PXY d   1      -1.569  -2.046   1.480  0.00  0.00     0.003 A 
ENDROOT
TORSDOF 0
ENDMDL
