MODEL 1
REMARK minimizedAffinity 3.61686468
REMARK minimizedRMSD -1
REMARK  0 active torsions:
REMARK  status: ('A' for Active; 'I' for Inactive)
ROOT
ATOM      1  C4' PXY d   1      -4.222  -0.197  -2.374  0.00  0.00     0.077 C 
ATOM      2  C1' PXY d   1      -2.333   0.321   3.065  0.00  0.00     0.077 C 
ATOM      3  C1  PXY d   1      -2.839   0.191   1.642  0.00  0.00    -0.082 A 
ATOM      4  C2  PXY d   1      -2.343  -0.749   0.854  0.00  0.00     0.003 A 
ATOM      5  C3  PXY d   1      -2.766  -0.860  -0.446  0.00  0.00     0.003 A 
ATOM      6  C4  PXY d   1      -3.747  -0.035  -0.927  0.00  0.00    -0.082 A 
ATOM      7  C5  PXY d   1      -4.267   0.919  -0.126  0.00  0.00     0.003 A 
ATOM      8  C6  PXY d   1      -3.794   1.042   1.177  0.00  0.00     0.003 A 
ENDROOT
TORSDOF 0
ENDMDL
