MODEL 1
REMARK minimizedAffinity 12.5397377
REMARK minimizedRMSD -1
REMARK  0 active torsions:
REMARK  status: ('A' for Active; 'I' for Inactive)
ROOT
ATOM      1  C4' PXY d   1      -0.754  -0.362   5.129  0.00  0.00     0.077 C 
ATOM      2  C1' PXY d   1      -0.167  -3.831   0.542  0.00  0.00     0.077 C 
ATOM      3  C1  PXY d   1      -0.319  -2.931   1.753  0.00  0.00    -0.082 A 
ATOM      4  C2  PXY d   1      -1.037  -1.824   1.659  0.00  0.00     0.003 A 
ATOM      5  C3  PXY d   1      -1.158  -0.983   2.735  0.00  0.00     0.003 A 
ATOM      6  C4  PXY d   1      -0.582  -1.305   3.935  0.00  0.00    -0.082 A 
ATOM      7  C5  PXY d   1       0.144  -2.439   4.041  0.00  0.00     0.003 A 
ATOM      8  C6  PXY d   1       0.289  -3.258   2.926  0.00  0.00     0.003 A 
ENDROOT
TORSDOF 0
ENDMDL
