MODEL 1
REMARK minimizedAffinity 0.75725621
REMARK minimizedRMSD -1
REMARK  0 active torsions:
REMARK  status: ('A' for Active; 'I' for Inactive)
ROOT
ATOM      1  C4' PXY d   1      -5.996   5.971  -3.064  0.00  0.00     0.077 C 
ATOM      2  C1' PXY d   1      -1.094   5.077  -5.995  0.00  0.00     0.077 C 
ATOM      3  C1  PXY d   1      -2.384   5.320  -5.236  0.00  0.00    -0.082 A 
ATOM      4  C2  PXY d   1      -2.427   5.098  -3.932  0.00  0.00     0.003 A 
ATOM      5  C3  PXY d   1      -3.594   5.281  -3.235  0.00  0.00     0.003 A 
ATOM      6  C4  PXY d   1      -4.713   5.749  -3.870  0.00  0.00    -0.082 A 
ATOM      7  C5  PXY d   1      -4.674   5.988  -5.198  0.00  0.00     0.003 A 
ATOM      8  C6  PXY d   1      -3.492   5.756  -5.894  0.00  0.00     0.003 A 
ENDROOT
TORSDOF 0
ENDMDL
