MODEL 1
REMARK minimizedAffinity 3.35941577
REMARK minimizedRMSD -1
REMARK  0 active torsions:
REMARK  status: ('A' for Active; 'I' for Inactive)
ROOT
ATOM      1  C4' PXY d   1       0.367   5.998  -5.821  0.00  0.00     0.077 C 
ATOM      2  C1' PXY d   1      -4.874   5.971  -3.384  0.00  0.00     0.077 C 
ATOM      3  C1  PXY d   1      -3.505   5.973  -4.034  0.00  0.00    -0.082 A 
ATOM      4  C2  PXY d   1      -2.421   5.963  -3.276  0.00  0.00     0.003 A 
ATOM      5  C3  PXY d   1      -1.175   5.996  -3.846  0.00  0.00     0.003 A 
ATOM      6  C4  PXY d   1      -1.036   5.987  -5.209  0.00  0.00    -0.082 A 
ATOM      7  C5  PXY d   1      -2.137   5.987  -5.989  0.00  0.00     0.003 A 
ATOM      8  C6  PXY d   1      -3.393   5.994  -5.390  0.00  0.00     0.003 A 
ENDROOT
TORSDOF 0
ENDMDL
