MODEL 1
REMARK minimizedAffinity 7.04332018
REMARK minimizedRMSD -1
REMARK  0 active torsions:
REMARK  status: ('A' for Active; 'I' for Inactive)
ROOT
ATOM      1  C4' PXY d   1       1.017   4.926  -5.806  0.00  0.00     0.077 C 
ATOM      2  C1' PXY d   1      -4.221   5.999  -3.609  0.00  0.00     0.077 C 
ATOM      3  C1  PXY d   1      -2.842   5.720  -4.174  0.00  0.00    -0.082 A 
ATOM      4  C2  PXY d   1      -2.618   5.887  -5.467  0.00  0.00     0.003 A 
ATOM      5  C3  PXY d   1      -1.386   5.608  -6.000  0.00  0.00     0.003 A 
ATOM      6  C4  PXY d   1      -0.357   5.205  -5.191  0.00  0.00    -0.082 A 
ATOM      7  C5  PXY d   1      -0.574   5.042  -3.869  0.00  0.00     0.003 A 
ATOM      8  C6  PXY d   1      -1.844   5.291  -3.355  0.00  0.00     0.003 A 
ENDROOT
TORSDOF 0
ENDMDL
