MODEL 1
REMARK minimizedAffinity 10.798172
REMARK minimizedRMSD -1
REMARK  0 active torsions:
REMARK  status: ('A' for Active; 'I' for Inactive)
ROOT
ATOM      1  C4' PXY d   1      -2.272  -1.815   1.123  0.00  0.00     0.077 C 
ATOM      2  C1' PXY d   1      -4.452   3.329  -0.363  0.00  0.00     0.077 C 
ATOM      3  C1  PXY d   1      -3.870   1.986   0.033  0.00  0.00    -0.082 A 
ATOM      4  C2  PXY d   1      -4.147   0.914  -0.692  0.00  0.00     0.003 A 
ATOM      5  C3  PXY d   1      -3.656  -0.314  -0.330  0.00  0.00     0.003 A 
ATOM      6  C4  PXY d   1      -2.830  -0.437   0.755  0.00  0.00    -0.082 A 
ATOM      7  C5  PXY d   1      -2.534   0.653   1.494  0.00  0.00     0.003 A 
ATOM      8  C6  PXY d   1      -3.076   1.884   1.133  0.00  0.00     0.003 A 
ENDROOT
TORSDOF 0
ENDMDL
