MODEL 1
REMARK minimizedAffinity 3.99062657
REMARK minimizedRMSD -1
REMARK  0 active torsions:
REMARK  status: ('A' for Active; 'I' for Inactive)
ROOT
ATOM      1  C4' PXY d   1      -5.847  -5.407  -5.928  0.00  0.00     0.077 C 
ATOM      2  C1' PXY d   1      -0.315  -4.626  -4.447  0.00  0.00     0.077 C 
ATOM      3  C1  PXY d   1      -1.770  -4.825  -4.824  0.00  0.00    -0.082 A 
ATOM      4  C2  PXY d   1      -2.108  -5.825  -5.622  0.00  0.00     0.003 A 
ATOM      5  C3  PXY d   1      -3.414  -6.000  -5.999  0.00  0.00     0.003 A 
ATOM      6  C4  PXY d   1      -4.392  -5.174  -5.513  0.00  0.00    -0.082 A 
ATOM      7  C5  PXY d   1      -4.057  -4.158  -4.690  0.00  0.00     0.003 A 
ATOM      8  C6  PXY d   1      -2.719  -3.973  -4.352  0.00  0.00     0.003 A 
ENDROOT
TORSDOF 0
ENDMDL
