MODEL 1
REMARK minimizedAffinity 5.4622879
REMARK minimizedRMSD -1
REMARK  0 active torsions:
REMARK  status: ('A' for Active; 'I' for Inactive)
ROOT
ATOM      1  C4' PXY d   1      -1.750  -0.693   4.040  0.00  0.00     0.077 C 
ATOM      2  C1' PXY d   1      -3.575   0.268  -1.360  0.00  0.00     0.077 C 
ATOM      3  C1  PXY d   1      -3.100   0.004   0.055  0.00  0.00    -0.082 A 
ATOM      4  C2  PXY d   1      -3.084   0.991   0.936  0.00  0.00     0.003 A 
ATOM      5  C3  PXY d   1      -2.627   0.777   2.210  0.00  0.00     0.003 A 
ATOM      6  C4  PXY d   1      -2.231  -0.474   2.603  0.00  0.00    -0.082 A 
ATOM      7  C5  PXY d   1      -2.254  -1.489   1.714  0.00  0.00     0.003 A 
ATOM      8  C6  PXY d   1      -2.683  -1.241   0.413  0.00  0.00     0.003 A 
ENDROOT
TORSDOF 0
ENDMDL
