MODEL 1
REMARK minimizedAffinity 15.5416422
REMARK minimizedRMSD -1
REMARK  0 active torsions:
REMARK  status: ('A' for Active; 'I' for Inactive)
ROOT
ATOM      1  C   UNL d   1       1.777  -1.571   3.782  0.00  0.00    -0.002 A 
ATOM      2  C1  UNL d   1       1.416  -0.243   3.605  0.00  0.00     0.010 A 
ATOM      3  C2  UNL d   1       0.174   0.090   3.062  0.00  0.00     0.041 A 
ATOM      4  C3  UNL d   1      -0.710  -0.945   2.698  0.00  0.00    -0.075 A 
ATOM      5  S   UNL d   1      -2.284  -0.775   2.015  0.00  0.00     0.015 SA
ATOM      6  C4  UNL d   1      -2.516  -2.462   1.943  0.00  0.00     0.022 A 
ATOM      7  C5  UNL d   1      -1.429  -3.153   2.424  0.00  0.00     0.026 A 
ATOM      8  C6  UNL d   1      -0.370  -2.290   2.867  0.00  0.00    -0.082 A 
ATOM      9  C7  UNL d   1       0.897  -2.595   3.420  0.00  0.00     0.045 A 
ENDROOT
TORSDOF 0
ENDMDL
