MODEL 1
REMARK minimizedAffinity 16.8514595
REMARK minimizedRMSD -1
REMARK  0 active torsions:
REMARK  status: ('A' for Active; 'I' for Inactive)
ROOT
ATOM      1  C   UNL d   1       3.173  -0.639   5.107  0.00  0.00    -0.002 A 
ATOM      2  C1  UNL d   1       2.115  -0.489   5.993  0.00  0.00     0.010 A 
ATOM      3  C2  UNL d   1       0.813  -0.812   5.606  0.00  0.00     0.041 A 
ATOM      4  C3  UNL d   1       0.590  -1.295   4.302  0.00  0.00    -0.075 A 
ATOM      5  S   UNL d   1      -0.920  -1.755   3.608  0.00  0.00     0.015 SA
ATOM      6  C4  UNL d   1      -0.197  -2.162   2.119  0.00  0.00     0.022 A 
ATOM      7  C5  UNL d   1       1.163  -1.958   2.134  0.00  0.00     0.026 A 
ATOM      8  C6  UNL d   1       1.639  -1.455   3.392  0.00  0.00    -0.082 A 
ATOM      9  C7  UNL d   1       2.947  -1.118   3.814  0.00  0.00     0.045 A 
ENDROOT
TORSDOF 0
ENDMDL
