MODEL 1
REMARK minimizedAffinity 7.4511528
REMARK minimizedRMSD -1
REMARK  0 active torsions:
REMARK  status: ('A' for Active; 'I' for Inactive)
ROOT
ATOM      1  C   UNL d   1      -1.270  -1.515  -5.253  0.00  0.00    -0.002 A 
ATOM      2  C1  UNL d   1      -0.914  -2.332  -4.190  0.00  0.00     0.010 A 
ATOM      3  C2  UNL d   1       0.413  -2.399  -3.760  0.00  0.00     0.041 A 
ATOM      4  C3  UNL d   1       1.384  -1.622  -4.421  0.00  0.00    -0.075 A 
ATOM      5  S   UNL d   1       3.070  -1.544  -4.067  0.00  0.00     0.015 SA
ATOM      6  C4  UNL d   1       3.356  -0.422  -5.318  0.00  0.00     0.022 A 
ATOM      7  C5  UNL d   1       2.205  -0.105  -6.000  0.00  0.00     0.026 A 
ATOM      8  C6  UNL d   1       1.049  -0.791  -5.494  0.00  0.00    -0.082 A 
ATOM      9  C7  UNL d   1      -0.304  -0.746  -5.907  0.00  0.00     0.045 A 
ENDROOT
TORSDOF 0
ENDMDL
