MODEL 1
REMARK minimizedAffinity 1.44533253
REMARK minimizedRMSD -1
REMARK  0 active torsions:
REMARK  status: ('A' for Active; 'I' for Inactive)
ROOT
ATOM      1  C   UNL d   1      -0.740  -1.302  -4.056  0.00  0.00    -0.002 A 
ATOM      2  C1  UNL d   1      -0.804  -0.750  -5.327  0.00  0.00     0.010 A 
ATOM      3  C2  UNL d   1       0.362  -0.378  -6.000  0.00  0.00     0.041 A 
ATOM      4  C3  UNL d   1       1.606  -0.574  -5.367  0.00  0.00    -0.075 A 
ATOM      5  S   UNL d   1       3.165  -0.196  -5.999  0.00  0.00     0.015 SA
ATOM      6  C4  UNL d   1       3.952  -0.759  -4.596  0.00  0.00     0.022 A 
ATOM      7  C5  UNL d   1       3.063  -1.227  -3.658  0.00  0.00     0.026 A 
ATOM      8  C6  UNL d   1       1.696  -1.129  -4.087  0.00  0.00    -0.082 A 
ATOM      9  C7  UNL d   1       0.496  -1.495  -3.431  0.00  0.00     0.045 A 
ENDROOT
TORSDOF 0
ENDMDL
