MODEL 1
REMARK minimizedAffinity 3.56981564
REMARK minimizedRMSD -1
REMARK  0 active torsions:
REMARK  status: ('A' for Active; 'I' for Inactive)
ROOT
ATOM      1  C   UNL d   1      -0.853  -1.892  -3.869  0.00  0.00    -0.002 A 
ATOM      2  C1  UNL d   1       0.034  -2.545  -3.024  0.00  0.00     0.010 A 
ATOM      3  C2  UNL d   1       1.411  -2.372  -3.170  0.00  0.00     0.041 A 
ATOM      4  C3  UNL d   1       1.888  -1.522  -4.188  0.00  0.00    -0.075 A 
ATOM      5  S   UNL d   1       3.533  -1.159  -4.554  0.00  0.00     0.015 SA
ATOM      6  C4  UNL d   1       3.097  -0.128  -5.839  0.00  0.00     0.022 A 
ATOM      7  C5  UNL d   1       1.734  -0.052  -6.000  0.00  0.00     0.026 A 
ATOM      8  C6  UNL d   1       1.014  -0.853  -5.051  0.00  0.00    -0.082 A 
ATOM      9  C7  UNL d   1      -0.377  -1.050  -4.878  0.00  0.00     0.045 A 
ENDROOT
TORSDOF 0
ENDMDL
