MODEL 1
REMARK minimizedAffinity 14.33183
REMARK minimizedRMSD -1
REMARK  0 active torsions:
REMARK  status: ('A' for Active; 'I' for Inactive)
ROOT
ATOM      1  C   UNL d   1       3.857   0.131  -5.999  0.00  0.00    -0.002 A 
ATOM      2  C1  UNL d   1       5.236   0.287  -5.994  0.00  0.00     0.010 A 
ATOM      3  C2  UNL d   1       5.973   0.052  -4.832  0.00  0.00     0.041 A 
ATOM      4  C3  UNL d   1       5.294  -0.348  -3.664  0.00  0.00    -0.075 A 
ATOM      5  S   UNL d   1       5.989  -0.692  -2.124  0.00  0.00     0.015 SA
ATOM      6  C4  UNL d   1       4.472  -1.055  -1.437  0.00  0.00     0.022 A 
ATOM      7  C5  UNL d   1       3.449  -0.921  -2.346  0.00  0.00     0.026 A 
ATOM      8  C6  UNL d   1       3.906  -0.512  -3.644  0.00  0.00    -0.082 A 
ATOM      9  C7  UNL d   1       3.187  -0.265  -4.839  0.00  0.00     0.045 A 
ENDROOT
TORSDOF 0
ENDMDL
