MODEL 1
REMARK minimizedAffinity 9.43479919
REMARK minimizedRMSD -1
REMARK  0 active torsions:
REMARK  status: ('A' for Active; 'I' for Inactive)
ROOT
ATOM      1  C   UNL d   1      -0.728  -1.312  -4.874  0.00  0.00    -0.002 A 
ATOM      2  C1  UNL d   1      -0.369  -1.874  -3.657  0.00  0.00     0.010 A 
ATOM      3  C2  UNL d   1       0.966  -1.894  -3.249  0.00  0.00     0.041 A 
ATOM      4  C3  UNL d   1       1.944  -1.333  -4.093  0.00  0.00    -0.075 A 
ATOM      5  S   UNL d   1       3.641  -1.244  -3.802  0.00  0.00     0.015 SA
ATOM      6  C4  UNL d   1       3.930  -0.457  -5.286  0.00  0.00     0.022 A 
ATOM      7  C5  UNL d   1       2.772  -0.259  -5.999  0.00  0.00     0.026 A 
ATOM      8  C6  UNL d   1       1.608  -0.760  -5.323  0.00  0.00    -0.082 A 
ATOM      9  C7  UNL d   1       0.246  -0.756  -5.708  0.00  0.00     0.045 A 
ENDROOT
TORSDOF 0
ENDMDL
