MODEL 1
REMARK minimizedAffinity 6.75238037
REMARK minimizedRMSD -1
REMARK  1 active torsions:
REMARK  status: ('A' for Active; 'I' for Inactive)
REMARK    1  A    between atoms: C1_2  and  C2_3 
ROOT
ATOM      1  C2  UNL d   1       1.993  -5.081   2.953  0.00  0.00    -0.077 A 
ATOM      2  C3  UNL d   1       3.260  -5.163   2.357  0.00  0.00     0.002 A 
ATOM      3  C4  UNL d   1       4.357  -5.617   3.092  0.00  0.00     0.002 A 
ATOM      4  C5  UNL d   1       4.198  -5.997   4.423  0.00  0.00    -0.004 A 
ATOM      5  C6  UNL d   1       2.943  -5.917   5.024  0.00  0.00     0.002 A 
ATOM      6  C7  UNL d   1       1.845  -5.462   4.293  0.00  0.00     0.002 A 
ENDROOT
BRANCH   1   7
ATOM      7  C1  UNL d   1       0.799  -4.637   2.149  0.00  0.00     0.055 C 
ATOM      8  C   UNL d   1       0.327  -3.255   2.575  0.00  0.00     0.019 C 
ENDBRANCH   1   7
TORSDOF 1
ENDMDL
