MODEL 1
REMARK minimizedAffinity 9.24542618
REMARK minimizedRMSD -1
REMARK  1 active torsions:
REMARK  status: ('A' for Active; 'I' for Inactive)
REMARK    1  A    between atoms: C1_2  and  C2_3 
ROOT
ATOM      1  C2  UNL d   1       0.951   0.782  -5.437  0.00  0.00    -0.077 A 
ATOM      2  C3  UNL d   1       1.090  -0.057  -4.323  0.00  0.00     0.002 A 
ATOM      3  C4  UNL d   1       2.352  -0.311  -3.783  0.00  0.00     0.002 A 
ATOM      4  C5  UNL d   1       3.484   0.273  -4.349  0.00  0.00    -0.004 A 
ATOM      5  C6  UNL d   1       3.356   1.107  -5.458  0.00  0.00     0.002 A 
ATOM      6  C7  UNL d   1       2.095   1.362  -6.000  0.00  0.00     0.002 A 
ENDROOT
BRANCH   1   7
ATOM      7  C1  UNL d   1      -0.415   1.096  -5.991  0.00  0.00     0.055 C 
ATOM      8  C   UNL d   1      -1.309  -0.135  -5.991  0.00  0.00     0.019 C 
ENDBRANCH   1   7
TORSDOF 1
ENDMDL
