MODEL 1
REMARK minimizedAffinity 9.84782887
REMARK minimizedRMSD -1
REMARK  1 active torsions:
REMARK  status: ('A' for Active; 'I' for Inactive)
REMARK    1  A    between atoms: C1_2  and  C2_3 
ROOT
ATOM      1  C2  UNL d   1       2.711   1.625  -3.098  0.00  0.00    -0.077 A 
ATOM      2  C3  UNL d   1       1.904   2.054  -2.035  0.00  0.00     0.002 A 
ATOM      3  C4  UNL d   1       1.764   3.416  -1.760  0.00  0.00     0.002 A 
ATOM      4  C5  UNL d   1       2.425   4.359  -2.545  0.00  0.00    -0.004 A 
ATOM      5  C6  UNL d   1       3.231   3.942  -3.603  0.00  0.00     0.002 A 
ATOM      6  C7  UNL d   1       3.373   2.581  -3.879  0.00  0.00     0.002 A 
ENDROOT
BRANCH   1   7
ATOM      7  C1  UNL d   1       2.824   0.159  -3.428  0.00  0.00     0.055 C 
ATOM      8  C   UNL d   1       1.453  -0.474  -3.610  0.00  0.00     0.019 C 
ENDBRANCH   1   7
TORSDOF 1
ENDMDL
