MODEL 1
REMARK minimizedAffinity 9.24517059
REMARK minimizedRMSD -1
REMARK  1 active torsions:
REMARK  status: ('A' for Active; 'I' for Inactive)
REMARK    1  A    between atoms: C1_2  and  C2_3 
ROOT
ATOM      1  C2  UNL d   1       0.864   0.571  -2.128  0.00  0.00    -0.077 A 
ATOM      2  C3  UNL d   1       1.064   0.990  -3.451  0.00  0.00     0.002 A 
ATOM      3  C4  UNL d   1       1.187   0.053  -4.478  0.00  0.00     0.002 A 
ATOM      4  C5  UNL d   1       1.106  -1.309  -4.194  0.00  0.00    -0.004 A 
ATOM      5  C6  UNL d   1       0.910  -1.736  -2.881  0.00  0.00     0.002 A 
ATOM      6  C7  UNL d   1       0.788  -0.800  -1.853  0.00  0.00     0.002 A 
ENDROOT
BRANCH   1   7
ATOM      7  C1  UNL d   1       0.682   1.582  -1.027  0.00  0.00     0.055 C 
ATOM      8  C   UNL d   1       1.458   2.860  -1.314  0.00  0.00     0.019 C 
ENDBRANCH   1   7
TORSDOF 1
ENDMDL
