MODEL 1
REMARK minimizedAffinity 11.8635178
REMARK minimizedRMSD -1
REMARK  1 active torsions:
REMARK  status: ('A' for Active; 'I' for Inactive)
REMARK    1  A    between atoms: C1_2  and  C2_3 
ROOT
ATOM      1  C2  UNL d   1       5.747  -2.922   4.596  0.00  0.00    -0.077 A 
ATOM      2  C3  UNL d   1       5.461  -2.115   3.487  0.00  0.00     0.002 A 
ATOM      3  C4  UNL d   1       5.391  -0.727   3.622  0.00  0.00     0.002 A 
ATOM      4  C5  UNL d   1       5.611  -0.135   4.864  0.00  0.00    -0.004 A 
ATOM      5  C6  UNL d   1       5.894  -0.929   5.974  0.00  0.00     0.002 A 
ATOM      6  C7  UNL d   1       5.962  -2.317   5.841  0.00  0.00     0.002 A 
ENDROOT
BRANCH   1   7
ATOM      7  C1  UNL d   1       5.871  -4.416   4.442  0.00  0.00     0.055 C 
ATOM      8  C   UNL d   1       5.874  -5.113   5.794  0.00  0.00     0.019 C 
ENDBRANCH   1   7
TORSDOF 1
ENDMDL
