MODEL 1
REMARK minimizedAffinity 10.0648861
REMARK minimizedRMSD -1
REMARK  1 active torsions:
REMARK  status: ('A' for Active; 'I' for Inactive)
REMARK    1  A    between atoms: C1_2  and  C2_3 
ROOT
ATOM      1  C2  UNL d   1      -0.221  -2.438  -5.339  0.00  0.00    -0.077 A 
ATOM      2  C3  UNL d   1      -0.686  -1.183  -5.757  0.00  0.00     0.002 A 
ATOM      3  C4  UNL d   1      -0.188  -0.016  -5.175  0.00  0.00     0.002 A 
ATOM      4  C5  UNL d   1       0.780  -0.091  -4.176  0.00  0.00    -0.004 A 
ATOM      5  C6  UNL d   1       1.248  -1.335  -3.752  0.00  0.00     0.002 A 
ATOM      6  C7  UNL d   1       0.750  -2.503  -4.332  0.00  0.00     0.002 A 
ENDROOT
BRANCH   1   7
ATOM      7  C1  UNL d   1      -0.722  -3.696  -5.999  0.00  0.00     0.055 C 
ATOM      8  C   UNL d   1      -2.242  -3.754  -5.999  0.00  0.00     0.019 C 
ENDBRANCH   1   7
TORSDOF 1
ENDMDL
