MODEL 1
REMARK minimizedAffinity 13.2910509
REMARK minimizedRMSD -1
REMARK  1 active torsions:
REMARK  status: ('A' for Active; 'I' for Inactive)
REMARK    1  A    between atoms: C1_2  and  C2_3 
ROOT
ATOM      1  C2  UNL d   1       3.682   3.468  -5.456  0.00  0.00    -0.077 A 
ATOM      2  C3  UNL d   1       4.568   4.101  -4.572  0.00  0.00     0.002 A 
ATOM      3  C4  UNL d   1       4.256   5.351  -4.034  0.00  0.00     0.002 A 
ATOM      4  C5  UNL d   1       3.057   5.976  -4.369  0.00  0.00    -0.004 A 
ATOM      5  C6  UNL d   1       2.170   5.356  -5.248  0.00  0.00     0.002 A 
ATOM      6  C7  UNL d   1       2.481   4.107  -5.788  0.00  0.00     0.002 A 
ENDROOT
BRANCH   1   7
ATOM      7  C1  UNL d   1       3.994   2.098  -5.999  0.00  0.00     0.055 C 
ATOM      8  C   UNL d   1       2.759   1.209  -6.000  0.00  0.00     0.019 C 
ENDBRANCH   1   7
TORSDOF 1
ENDMDL
