MODEL 1
REMARK minimizedAffinity 8.59468746
REMARK minimizedRMSD -1
REMARK  1 active torsions:
REMARK  status: ('A' for Active; 'I' for Inactive)
REMARK    1  A    between atoms: C1_2  and  C2_3 
ROOT
ATOM      1  C2  UNL d   1      -5.465  -4.057  -2.248  0.00  0.00    -0.077 A 
ATOM      2  C3  UNL d   1      -5.944  -3.023  -1.430  0.00  0.00     0.002 A 
ATOM      3  C4  UNL d   1      -5.784  -1.690  -1.812  0.00  0.00     0.002 A 
ATOM      4  C5  UNL d   1      -5.150  -1.378  -3.013  0.00  0.00    -0.004 A 
ATOM      5  C6  UNL d   1      -4.669  -2.399  -3.832  0.00  0.00     0.002 A 
ATOM      6  C7  UNL d   1      -4.827  -3.732  -3.451  0.00  0.00     0.002 A 
ENDROOT
BRANCH   1   7
ATOM      7  C1  UNL d   1      -5.680  -5.497  -1.862  0.00  0.00     0.055 C 
ATOM      8  C   UNL d   1      -4.566  -6.000  -0.956  0.00  0.00     0.019 C 
ENDBRANCH   1   7
TORSDOF 1
ENDMDL
