MODEL 1
REMARK minimizedAffinity 1.35877645
REMARK minimizedRMSD -1
REMARK  1 active torsions:
REMARK  status: ('A' for Active; 'I' for Inactive)
REMARK    1  A    between atoms: C1_2  and  C2_3 
ROOT
ATOM      1  C2  UNL d   1       0.605  -0.996  -3.867  0.00  0.00    -0.077 A 
ATOM      2  C3  UNL d   1      -0.372  -0.190  -4.467  0.00  0.00     0.002 A 
ATOM      3  C4  UNL d   1      -1.422  -0.768  -5.184  0.00  0.00     0.002 A 
ATOM      4  C5  UNL d   1      -1.507  -2.153  -5.303  0.00  0.00    -0.004 A 
ATOM      5  C6  UNL d   1      -0.539  -2.964  -4.711  0.00  0.00     0.002 A 
ATOM      6  C7  UNL d   1       0.511  -2.388  -3.995  0.00  0.00     0.002 A 
ENDROOT
BRANCH   1   7
ATOM      7  C1  UNL d   1       1.710  -0.378  -3.052  0.00  0.00     0.055 C 
ATOM      8  C   UNL d   1       1.172   0.687  -2.107  0.00  0.00     0.019 C 
ENDBRANCH   1   7
TORSDOF 1
ENDMDL
