MODEL 1
REMARK minimizedAffinity 11.1621799
REMARK minimizedRMSD -1
REMARK  1 active torsions:
REMARK  status: ('A' for Active; 'I' for Inactive)
REMARK    1  A    between atoms: C1_2  and  C2_3 
ROOT
ATOM      1  C2  UNL d   1      -0.144  -2.525  -5.545  0.00  0.00    -0.077 A 
ATOM      2  C3  UNL d   1      -1.235  -1.646  -5.550  0.00  0.00     0.002 A 
ATOM      3  C4  UNL d   1      -2.527  -2.125  -5.779  0.00  0.00     0.002 A 
ATOM      4  C5  UNL d   1      -2.739  -3.484  -6.000  0.00  0.00    -0.004 A 
ATOM      5  C6  UNL d   1      -1.659  -4.366  -5.999  0.00  0.00     0.002 A 
ATOM      6  C7  UNL d   1      -0.368  -3.889  -5.772  0.00  0.00     0.002 A 
ENDROOT
BRANCH   1   7
ATOM      7  C1  UNL d   1       1.244  -2.018  -5.250  0.00  0.00     0.055 C 
ATOM      8  C   UNL d   1       1.233  -1.008  -4.112  0.00  0.00     0.019 C 
ENDBRANCH   1   7
TORSDOF 1
ENDMDL
