MODEL 1
REMARK minimizedAffinity 4.94406605
REMARK minimizedRMSD -1
REMARK  1 active torsions:
REMARK  status: ('A' for Active; 'I' for Inactive)
REMARK    1  A    between atoms: C1_2  and  C2_3 
ROOT
ATOM      1  C2  UNL d   1      -5.404  -3.565  -1.145  0.00  0.00    -0.077 A 
ATOM      2  C3  UNL d   1      -4.541  -3.630  -0.043  0.00  0.00     0.002 A 
ATOM      3  C4  UNL d   1      -3.960  -4.844   0.328  0.00  0.00     0.002 A 
ATOM      4  C5  UNL d   1      -4.232  -6.000  -0.400  0.00  0.00    -0.004 A 
ATOM      5  C6  UNL d   1      -5.091  -5.946  -1.497  0.00  0.00     0.002 A 
ATOM      6  C7  UNL d   1      -5.674  -4.734  -1.869  0.00  0.00     0.002 A 
ENDROOT
BRANCH   1   7
ATOM      7  C1  UNL d   1      -5.994  -2.247  -1.577  0.00  0.00     0.055 C 
ATOM      8  C   UNL d   1      -5.728  -1.978  -3.051  0.00  0.00     0.019 C 
ENDBRANCH   1   7
TORSDOF 1
ENDMDL
