MODEL 1
REMARK minimizedAffinity 11.0425577
REMARK minimizedRMSD -1
REMARK  1 active torsions:
REMARK  status: ('A' for Active; 'I' for Inactive)
REMARK    1  A    between atoms: C1_2  and  C2_3 
ROOT
ATOM      1  C2  UNL d   1       2.156   0.456  -2.272  0.00  0.00    -0.077 A 
ATOM      2  C3  UNL d   1       0.856   0.109  -1.879  0.00  0.00     0.002 A 
ATOM      3  C4  UNL d   1       0.163  -0.903  -2.546  0.00  0.00     0.002 A 
ATOM      4  C5  UNL d   1       0.763  -1.579  -3.606  0.00  0.00    -0.004 A 
ATOM      5  C6  UNL d   1       2.055  -1.240  -4.005  0.00  0.00     0.002 A 
ATOM      6  C7  UNL d   1       2.749  -0.228  -3.341  0.00  0.00     0.002 A 
ENDROOT
BRANCH   1   7
ATOM      7  C1  UNL d   1       2.924   1.514  -1.522  0.00  0.00     0.055 C 
ATOM      8  C   UNL d   1       1.988   2.535  -0.892  0.00  0.00     0.019 C 
ENDBRANCH   1   7
TORSDOF 1
ENDMDL
