MODEL 1
REMARK minimizedAffinity 7.24268579
REMARK minimizedRMSD -1
REMARK  1 active torsions:
REMARK  status: ('A' for Active; 'I' for Inactive)
REMARK    1  A    between atoms: C1_2  and  C2_3 
ROOT
ATOM      1  C2  UNL d   1      -1.324  -3.562  -5.966  0.00  0.00    -0.077 A 
ATOM      2  C3  UNL d   1      -0.668  -4.801  -5.970  0.00  0.00     0.002 A 
ATOM      3  C4  UNL d   1      -1.401  -5.989  -5.985  0.00  0.00     0.002 A 
ATOM      4  C5  UNL d   1      -2.794  -5.950  -5.999  0.00  0.00    -0.004 A 
ATOM      5  C6  UNL d   1      -3.456  -4.722  -5.992  0.00  0.00     0.002 A 
ATOM      6  C7  UNL d   1      -2.724  -3.534  -5.977  0.00  0.00     0.002 A 
ENDROOT
BRANCH   1   7
ATOM      7  C1  UNL d   1      -0.534  -2.280  -6.000  0.00  0.00     0.055 C 
ATOM      8  C   UNL d   1       0.391  -2.167  -4.797  0.00  0.00     0.019 C 
ENDBRANCH   1   7
TORSDOF 1
ENDMDL
