MODEL 1
REMARK minimizedAffinity 5.86042118
REMARK minimizedRMSD -1
REMARK  1 active torsions:
REMARK  status: ('A' for Active; 'I' for Inactive)
REMARK    1  A    between atoms: C3_4  and  O_7 
ROOT
ATOM      1  C   UNL d   1       1.775   4.884  -5.098  0.00  0.00    -0.033 A 
ATOM      2  C1  UNL d   1       2.268   3.930  -5.990  0.00  0.00     0.039 A 
ATOM      3  C2  UNL d   1       3.618   3.576  -5.961  0.00  0.00    -0.080 A 
ATOM      4  C3  UNL d   1       4.464   4.183  -5.037  0.00  0.00     0.150 A 
ATOM      5  C4  UNL d   1       3.979   5.132  -4.142  0.00  0.00    -0.007 A 
ATOM      6  C5  UNL d   1       2.630   5.484  -4.173  0.00  0.00     0.039 A 
ENDROOT
BRANCH   4   7
ATOM      7  O   UNL d   1       5.790   3.874  -4.974  0.00  0.00    -0.526 OA
ATOM      8  H5  UNL d   1       5.988   3.225  -5.670  0.00  0.00     0.418 HD
ENDBRANCH   4   7
TORSDOF 1
ENDMDL
