MODEL 1
REMARK minimizedAffinity 13.704669
REMARK minimizedRMSD -1
REMARK  1 active torsions:
REMARK  status: ('A' for Active; 'I' for Inactive)
REMARK    1  A    between atoms: C3_4  and  O_7 
ROOT
ATOM      1  C   UNL d   1      -0.734  -1.289   1.648  0.00  0.00    -0.033 A 
ATOM      2  C1  UNL d   1      -1.929  -0.606   1.883  0.00  0.00     0.039 A 
ATOM      3  C2  UNL d   1      -2.575  -0.729   3.114  0.00  0.00    -0.080 A 
ATOM      4  C3  UNL d   1      -2.017  -1.536   4.101  0.00  0.00     0.150 A 
ATOM      5  C4  UNL d   1      -0.825  -2.217   3.875  0.00  0.00    -0.007 A 
ATOM      6  C5  UNL d   1      -0.181  -2.094   2.645  0.00  0.00     0.039 A 
ENDROOT
BRANCH   4   7
ATOM      7  O   UNL d   1      -2.613  -1.691   5.317  0.00  0.00    -0.526 OA
ATOM      8  H5  UNL d   1      -3.443  -1.185   5.319  0.00  0.00     0.418 HD
ENDBRANCH   4   7
TORSDOF 1
ENDMDL
