MODEL 1
REMARK minimizedAffinity 8.66084385
REMARK minimizedRMSD -1
REMARK  1 active torsions:
REMARK  status: ('A' for Active; 'I' for Inactive)
REMARK    1  A    between atoms: C3_4  and  O_7 
ROOT
ATOM      1  C   UNL d   1       0.824   0.297  -4.532  0.00  0.00    -0.033 A 
ATOM      2  C1  UNL d   1       1.444  -0.851  -4.037  0.00  0.00     0.039 A 
ATOM      3  C2  UNL d   1       1.023  -2.113  -4.461  0.00  0.00    -0.080 A 
ATOM      4  C3  UNL d   1      -0.019  -2.213  -5.379  0.00  0.00     0.150 A 
ATOM      5  C4  UNL d   1      -0.640  -1.073  -5.880  0.00  0.00    -0.007 A 
ATOM      6  C5  UNL d   1      -0.218   0.186  -5.455  0.00  0.00     0.039 A 
ENDROOT
BRANCH   4   7
ATOM      7  O   UNL d   1      -0.469  -3.422  -5.819  0.00  0.00    -0.526 OA
ATOM      8  H5  UNL d   1       0.034  -4.120  -5.366  0.00  0.00     0.418 HD
ENDBRANCH   4   7
TORSDOF 1
ENDMDL
