MODEL 1
REMARK minimizedAffinity 1.25682962
REMARK minimizedRMSD -1
REMARK  1 active torsions:
REMARK  status: ('A' for Active; 'I' for Inactive)
REMARK    1  A    between atoms: C3_4  and  O_7 
ROOT
ATOM      1  C   UNL d   1      -1.865  -0.707   1.810  0.00  0.00    -0.033 A 
ATOM      2  C1  UNL d   1      -1.070   0.382   2.169  0.00  0.00     0.039 A 
ATOM      3  C2  UNL d   1      -1.650   1.636   2.370  0.00  0.00    -0.080 A 
ATOM      4  C3  UNL d   1      -3.025   1.787   2.211  0.00  0.00     0.150 A 
ATOM      5  C4  UNL d   1      -3.824   0.704   1.857  0.00  0.00    -0.007 A 
ATOM      6  C5  UNL d   1      -3.243  -0.547   1.656  0.00  0.00     0.039 A 
ENDROOT
BRANCH   4   7
ATOM      7  O   UNL d   1      -3.636   2.992   2.392  0.00  0.00    -0.526 OA
ATOM      8  H5  UNL d   1      -2.955   3.652   2.605  0.00  0.00     0.418 HD
ENDBRANCH   4   7
TORSDOF 1
ENDMDL
