MODEL 1
REMARK minimizedAffinity 3.38627958
REMARK minimizedRMSD -1
REMARK  1 active torsions:
REMARK  status: ('A' for Active; 'I' for Inactive)
REMARK    1  A    between atoms: C3_4  and  O_7 
ROOT
ATOM      1  C   UNL d   1      -3.029   0.077   3.313  0.00  0.00    -0.033 A 
ATOM      2  C1  UNL d   1      -3.361   1.315   2.759  0.00  0.00     0.039 A 
ATOM      3  C2  UNL d   1      -2.644   1.809   1.668  0.00  0.00    -0.080 A 
ATOM      4  C3  UNL d   1      -1.599   1.056   1.140  0.00  0.00     0.150 A 
ATOM      5  C4  UNL d   1      -1.265  -0.180   1.684  0.00  0.00    -0.007 A 
ATOM      6  C5  UNL d   1      -1.982  -0.671   2.774  0.00  0.00     0.039 A 
ENDROOT
BRANCH   4   7
ATOM      7  O   UNL d   1      -0.867   1.498   0.078  0.00  0.00    -0.526 OA
ATOM      8  H5  UNL d   1      -1.192   2.379  -0.174  0.00  0.00     0.418 HD
ENDBRANCH   4   7
TORSDOF 1
ENDMDL
