MODEL 1
REMARK minimizedAffinity 8.79411602
REMARK minimizedRMSD -1
REMARK  1 active torsions:
REMARK  status: ('A' for Active; 'I' for Inactive)
REMARK    1  A    between atoms: C3_4  and  O_7 
ROOT
ATOM      1  C   UNL d   1       1.141   0.307  -3.915  0.00  0.00    -0.033 A 
ATOM      2  C1  UNL d   1       1.362  -0.933  -3.313  0.00  0.00     0.039 A 
ATOM      3  C2  UNL d   1       0.756  -2.080  -3.831  0.00  0.00    -0.080 A 
ATOM      4  C3  UNL d   1      -0.065  -1.973  -4.950  0.00  0.00     0.150 A 
ATOM      5  C4  UNL d   1      -0.287  -0.740  -5.556  0.00  0.00    -0.007 A 
ATOM      6  C5  UNL d   1       0.318   0.403  -5.037  0.00  0.00     0.039 A 
ENDROOT
BRANCH   4   7
ATOM      7  O   UNL d   1      -0.682  -3.063  -5.489  0.00  0.00    -0.526 OA
ATOM      8  H5  UNL d   1      -0.460  -3.840  -4.949  0.00  0.00     0.418 HD
ENDBRANCH   4   7
TORSDOF 1
ENDMDL
