MODEL 1
REMARK minimizedAffinity 8.28186035
REMARK minimizedRMSD -1
REMARK  1 active torsions:
REMARK  status: ('A' for Active; 'I' for Inactive)
REMARK    1  A    between atoms: C3_4  and  O_7 
ROOT
ATOM      1  C   UNL d   1       3.748   1.361  -5.086  0.00  0.00    -0.033 A 
ATOM      2  C1  UNL d   1       2.921   1.369  -3.961  0.00  0.00     0.039 A 
ATOM      3  C2  UNL d   1       2.017   0.326  -3.750  0.00  0.00    -0.080 A 
ATOM      4  C3  UNL d   1       1.951  -0.717  -4.669  0.00  0.00     0.150 A 
ATOM      5  C4  UNL d   1       2.775  -0.733  -5.790  0.00  0.00    -0.007 A 
ATOM      6  C5  UNL d   1       3.676   0.310  -6.000  0.00  0.00     0.039 A 
ENDROOT
BRANCH   4   7
ATOM      7  O   UNL d   1       1.081  -1.755  -4.508  0.00  0.00    -0.526 OA
ATOM      8  H5  UNL d   1       0.557  -1.595  -3.706  0.00  0.00     0.418 HD
ENDBRANCH   4   7
TORSDOF 1
ENDMDL
