MODEL 1
REMARK minimizedAffinity 3.61189389
REMARK minimizedRMSD -1
REMARK  1 active torsions:
REMARK  status: ('A' for Active; 'I' for Inactive)
REMARK    1  A    between atoms: C3_4  and  O_7 
ROOT
ATOM      1  C   UNL d   1       2.973   4.498  -3.522  0.00  0.00    -0.033 A 
ATOM      2  C1  UNL d   1       2.349   3.281  -3.243  0.00  0.00     0.039 A 
ATOM      3  C2  UNL d   1       2.571   2.175  -4.067  0.00  0.00    -0.080 A 
ATOM      4  C3  UNL d   1       3.419   2.300  -5.164  0.00  0.00     0.150 A 
ATOM      5  C4  UNL d   1       4.047   3.509  -5.446  0.00  0.00    -0.007 A 
ATOM      6  C5  UNL d   1       3.823   4.612  -4.623  0.00  0.00     0.039 A 
ENDROOT
BRANCH   4   7
ATOM      7  O   UNL d   1       3.663   1.251  -5.999  0.00  0.00    -0.526 OA
ATOM      8  H5  UNL d   1       3.140   0.490  -5.698  0.00  0.00     0.418 HD
ENDBRANCH   4   7
TORSDOF 1
ENDMDL
