MODEL 1
REMARK minimizedAffinity 1.4428916
REMARK minimizedRMSD -1
REMARK  1 active torsions:
REMARK  status: ('A' for Active; 'I' for Inactive)
REMARK    1  A    between atoms: C3_4  and  O_7 
ROOT
ATOM      1  C   UNL d   1      -5.618  -1.662  -2.566  0.00  0.00    -0.033 A 
ATOM      2  C1  UNL d   1      -5.982  -3.009  -2.526  0.00  0.00     0.039 A 
ATOM      3  C2  UNL d   1      -5.875  -3.797  -3.674  0.00  0.00    -0.080 A 
ATOM      4  C3  UNL d   1      -5.402  -3.227  -4.852  0.00  0.00     0.150 A 
ATOM      5  C4  UNL d   1      -5.034  -1.886  -4.898  0.00  0.00    -0.007 A 
ATOM      6  C5  UNL d   1      -5.143  -1.101  -3.751  0.00  0.00     0.039 A 
ENDROOT
BRANCH   4   7
ATOM      7  O   UNL d   1      -5.284  -3.954  -5.999  0.00  0.00    -0.526 OA
ATOM      8  H5  UNL d   1      -5.602  -4.856  -5.825  0.00  0.00     0.418 HD
ENDBRANCH   4   7
TORSDOF 1
ENDMDL
