MODEL 1
REMARK minimizedAffinity 3.56549764
REMARK minimizedRMSD -1
REMARK  1 active torsions:
REMARK  status: ('A' for Active; 'I' for Inactive)
REMARK    1  A    between atoms: C3_4  and  O_7 
ROOT
ATOM      1  C   UNL d   1      -0.716  -0.669   3.213  0.00  0.00    -0.033 A 
ATOM      2  C1  UNL d   1      -0.149   0.428   2.562  0.00  0.00     0.039 A 
ATOM      3  C2  UNL d   1      -0.956   1.304   1.833  0.00  0.00    -0.080 A 
ATOM      4  C3  UNL d   1      -2.327   1.073   1.765  0.00  0.00     0.150 A 
ATOM      5  C4  UNL d   1      -2.900  -0.016   2.415  0.00  0.00    -0.007 A 
ATOM      6  C5  UNL d   1      -2.092  -0.890   3.140  0.00  0.00     0.039 A 
ENDROOT
BRANCH   4   7
ATOM      7  O   UNL d   1      -3.154   1.898   1.063  0.00  0.00    -0.526 OA
ATOM      8  H5  UNL d   1      -2.616   2.590   0.644  0.00  0.00     0.418 HD
ENDBRANCH   4   7
TORSDOF 1
ENDMDL
