MODEL 1
REMARK minimizedAffinity 8.87148571
REMARK minimizedRMSD -1
REMARK  1 active torsions:
REMARK  status: ('A' for Active; 'I' for Inactive)
REMARK    1  A    between atoms: C3_4  and  O_7 
ROOT
ATOM      1  C   UNL d   1      -5.358  -1.422   0.866  0.00  0.00    -0.033 A 
ATOM      2  C1  UNL d   1      -5.461  -1.645  -0.509  0.00  0.00     0.039 A 
ATOM      3  C2  UNL d   1      -4.956  -2.822  -1.066  0.00  0.00    -0.080 A 
ATOM      4  C3  UNL d   1      -4.354  -3.766  -0.239  0.00  0.00     0.150 A 
ATOM      5  C4  UNL d   1      -4.252  -3.552   1.131  0.00  0.00    -0.007 A 
ATOM      6  C5  UNL d   1      -4.755  -2.376   1.686  0.00  0.00     0.039 A 
ENDROOT
BRANCH   4   7
ATOM      7  O   UNL d   1      -3.843  -4.927  -0.738  0.00  0.00    -0.526 OA
ATOM      8  H5  UNL d   1      -3.959  -4.925  -1.703  0.00  0.00     0.418 HD
ENDBRANCH   4   7
TORSDOF 1
ENDMDL
