MODEL 1
REMARK minimizedAffinity 4.26231003
REMARK minimizedRMSD -1
REMARK  1 active torsions:
REMARK  status: ('A' for Active; 'I' for Inactive)
REMARK    1  A    between atoms: C3_4  and  O_7 
ROOT
ATOM      1  C   UNL d   1      -0.719   1.653   1.677  0.00  0.00    -0.033 A 
ATOM      2  C1  UNL d   1      -1.033   2.821   2.375  0.00  0.00     0.039 A 
ATOM      3  C2  UNL d   1      -2.228   3.493   2.114  0.00  0.00    -0.080 A 
ATOM      4  C3  UNL d   1      -3.101   2.987   1.154  0.00  0.00     0.150 A 
ATOM      5  C4  UNL d   1      -2.797   1.822   0.457  0.00  0.00    -0.007 A 
ATOM      6  C5  UNL d   1      -1.602   1.153   0.719  0.00  0.00     0.039 A 
ENDROOT
BRANCH   4   7
ATOM      7  O   UNL d   1      -4.277   3.611   0.860  0.00  0.00    -0.526 OA
ATOM      8  H5  UNL d   1      -4.340   4.418   1.398  0.00  0.00     0.418 HD
ENDBRANCH   4   7
TORSDOF 1
ENDMDL
