MODEL 1
REMARK minimizedAffinity 9.14507008
REMARK minimizedRMSD -1
REMARK  1 active torsions:
REMARK  status: ('A' for Active; 'I' for Inactive)
REMARK    1  A    between atoms: C3_4  and  O_7 
ROOT
ATOM      1  C   UNL d   1      -3.995  -1.063   1.015  0.00  0.00    -0.033 A 
ATOM      2  C1  UNL d   1      -2.795  -1.776   0.970  0.00  0.00     0.039 A 
ATOM      3  C2  UNL d   1      -2.782  -3.098   0.522  0.00  0.00    -0.080 A 
ATOM      4  C3  UNL d   1      -3.974  -3.695   0.121  0.00  0.00     0.150 A 
ATOM      5  C4  UNL d   1      -5.173  -2.990   0.159  0.00  0.00    -0.007 A 
ATOM      6  C5  UNL d   1      -5.184  -1.670   0.608  0.00  0.00     0.039 A 
ENDROOT
BRANCH   4   7
ATOM      7  O   UNL d   1      -4.012  -4.985  -0.319  0.00  0.00    -0.526 OA
ATOM      8  H5  UNL d   1      -3.115  -5.355  -0.264  0.00  0.00     0.418 HD
ENDBRANCH   4   7
TORSDOF 1
ENDMDL
