MODEL 1
REMARK minimizedAffinity 4.43232155
REMARK minimizedRMSD -1
REMARK  1 active torsions:
REMARK  status: ('A' for Active; 'I' for Inactive)
REMARK    1  A    between atoms: C3_4  and  O_7 
ROOT
ATOM      1  C   UNL d   1      -1.749   0.693   1.429  0.00  0.00    -0.033 A 
ATOM      2  C1  UNL d   1      -2.960   0.898   0.764  0.00  0.00     0.039 A 
ATOM      3  C2  UNL d   1      -3.737  -0.194   0.373  0.00  0.00    -0.080 A 
ATOM      4  C3  UNL d   1      -3.294  -1.484   0.653  0.00  0.00     0.150 A 
ATOM      5  C4  UNL d   1      -2.091  -1.695   1.318  0.00  0.00    -0.007 A 
ATOM      6  C5  UNL d   1      -1.316  -0.604   1.707  0.00  0.00     0.039 A 
ENDROOT
BRANCH   4   7
ATOM      7  O   UNL d   1      -4.016  -2.580   0.287  0.00  0.00    -0.526 OA
ATOM      8  H5  UNL d   1      -4.809  -2.282  -0.189  0.00  0.00     0.418 HD
ENDBRANCH   4   7
TORSDOF 1
ENDMDL
