MODEL 1
REMARK minimizedAffinity 5.50545692
REMARK minimizedRMSD -1
REMARK  1 active torsions:
REMARK  status: ('A' for Active; 'I' for Inactive)
REMARK    1  A    between atoms: C3_4  and  O_7 
ROOT
ATOM      1  C   UNL d   1      -3.644  -1.741   0.865  0.00  0.00    -0.033 A 
ATOM      2  C1  UNL d   1      -4.849  -1.935   0.185  0.00  0.00     0.039 A 
ATOM      3  C2  UNL d   1      -5.119  -3.163  -0.423  0.00  0.00    -0.080 A 
ATOM      4  C3  UNL d   1      -4.179  -4.186  -0.344  0.00  0.00     0.150 A 
ATOM      5  C4  UNL d   1      -2.979  -4.001   0.335  0.00  0.00    -0.007 A 
ATOM      6  C5  UNL d   1      -2.710  -2.774   0.941  0.00  0.00     0.039 A 
ENDROOT
BRANCH   4   7
ATOM      7  O   UNL d   1      -4.396  -5.400  -0.925  0.00  0.00    -0.526 OA
ATOM      8  H5  UNL d   1      -5.253  -5.373  -1.383  0.00  0.00     0.418 HD
ENDBRANCH   4   7
TORSDOF 1
ENDMDL
