MODEL 1
REMARK minimizedAffinity 5.98571301
REMARK minimizedRMSD -1
REMARK  1 active torsions:
REMARK  status: ('A' for Active; 'I' for Inactive)
REMARK    1  A    between atoms: C3_4  and  O_7 
ROOT
ATOM      1  C   UNL d   1      -6.000   4.714   6.000  0.00  0.00    -0.033 A 
ATOM      2  C1  UNL d   1      -5.673   3.398   5.664  0.00  0.00     0.039 A 
ATOM      3  C2  UNL d   1      -5.300   3.083   4.356  0.00  0.00    -0.080 A 
ATOM      4  C3  UNL d   1      -5.255   4.090   3.396  0.00  0.00     0.150 A 
ATOM      5  C4  UNL d   1      -5.575   5.403   3.725  0.00  0.00    -0.007 A 
ATOM      6  C5  UNL d   1      -5.949   5.716   5.031  0.00  0.00     0.039 A 
ENDROOT
BRANCH   4   7
ATOM      7  O   UNL d   1      -4.901   3.829   2.105  0.00  0.00    -0.526 OA
ATOM      8  H5  UNL d   1      -4.735   2.875   2.019  0.00  0.00     0.418 HD
ENDBRANCH   4   7
TORSDOF 1
ENDMDL
