MODEL 1
REMARK minimizedAffinity -1.54299271
REMARK minimizedRMSD -1
REMARK  0 active torsions:
REMARK  status: ('A' for Active; 'I' for Inactive)
ROOT
ATOM      1  C   UNL d   1       0.741   4.027   0.116  0.00  0.00     0.078 C 
ATOM      2  C1  UNL d   1       0.653   2.598   0.562  0.00  0.00    -0.077 A 
ATOM      3  C2  UNL d   1       0.712   2.261   1.920  0.00  0.00    -0.001 A 
ATOM      4  C3  UNL d   1       0.639   0.926   2.320  0.00  0.00     0.003 A 
ATOM      5  C4  UNL d   1       0.508  -0.083   1.369  0.00  0.00    -0.005 A 
ATOM      6  C5  UNL d   1       0.452   0.242   0.015  0.00  0.00     0.003 A 
ATOM      7  C6  UNL d   1       0.525   1.576  -0.387  0.00  0.00    -0.001 A 
ENDROOT
TORSDOF 0
ENDMDL
