MODEL 1
REMARK minimizedAffinity 1.33516514
REMARK minimizedRMSD -1
REMARK  0 active torsions:
REMARK  status: ('A' for Active; 'I' for Inactive)
ROOT
ATOM      1  C   UNL d   1       1.086  -1.104   2.116  0.00  0.00     0.078 C 
ATOM      2  C1  UNL d   1       0.394  -0.544   0.909  0.00  0.00    -0.077 A 
ATOM      3  C2  UNL d   1       0.522  -1.154  -0.344  0.00  0.00    -0.001 A 
ATOM      4  C3  UNL d   1      -0.121  -0.616  -1.460  0.00  0.00     0.003 A 
ATOM      5  C4  UNL d   1      -0.894   0.536  -1.334  0.00  0.00    -0.005 A 
ATOM      6  C5  UNL d   1      -1.026   1.152  -0.091  0.00  0.00     0.003 A 
ATOM      7  C6  UNL d   1      -0.384   0.615   1.026  0.00  0.00    -0.001 A 
ENDROOT
TORSDOF 0
ENDMDL
