MODEL 1
REMARK minimizedAffinity -0.458009362
REMARK minimizedRMSD -1
REMARK  0 active torsions:
REMARK  status: ('A' for Active; 'I' for Inactive)
ROOT
ATOM      1  C   UNL d   1      -2.126   1.336  -0.150  0.00  0.00     0.078 C 
ATOM      2  C1  UNL d   1      -3.225   2.067  -0.862  0.00  0.00    -0.077 A 
ATOM      3  C2  UNL d   1      -2.949   3.180  -1.665  0.00  0.00    -0.001 A 
ATOM      4  C3  UNL d   1      -3.983   3.857  -2.314  0.00  0.00     0.003 A 
ATOM      5  C4  UNL d   1      -5.301   3.429  -2.166  0.00  0.00    -0.005 A 
ATOM      6  C5  UNL d   1      -5.586   2.323  -1.366  0.00  0.00     0.003 A 
ATOM      7  C6  UNL d   1      -4.553   1.646  -0.716  0.00  0.00    -0.001 A 
ENDROOT
TORSDOF 0
ENDMDL
