MODEL 1
REMARK minimizedAffinity -1.31994414
REMARK minimizedRMSD -1
REMARK  0 active torsions:
REMARK  status: ('A' for Active; 'I' for Inactive)
ROOT
ATOM      1  C   UNL d   1       4.284  -1.620   3.294  0.00  0.00     0.078 C 
ATOM      2  C1  UNL d   1       2.963  -1.145   2.767  0.00  0.00    -0.077 A 
ATOM      3  C2  UNL d   1       1.812  -1.188   3.563  0.00  0.00    -0.001 A 
ATOM      4  C3  UNL d   1       0.587  -0.751   3.056  0.00  0.00     0.003 A 
ATOM      5  C4  UNL d   1       0.501  -0.270   1.751  0.00  0.00    -0.005 A 
ATOM      6  C5  UNL d   1       1.641  -0.226   0.951  0.00  0.00     0.003 A 
ATOM      7  C6  UNL d   1       2.867  -0.662   1.456  0.00  0.00    -0.001 A 
ENDROOT
TORSDOF 0
ENDMDL
