MODEL 1
REMARK minimizedAffinity -0.836276293
REMARK minimizedRMSD -1
REMARK  0 active torsions:
REMARK  status: ('A' for Active; 'I' for Inactive)
ROOT
ATOM      1  C   UNL d   1       1.049   2.356   2.595  0.00  0.00     0.078 C 
ATOM      2  C1  UNL d   1       1.187   1.273   1.568  0.00  0.00    -0.077 A 
ATOM      3  C2  UNL d   1       2.077   0.208   1.758  0.00  0.00    -0.001 A 
ATOM      4  C3  UNL d   1       2.203  -0.788   0.788  0.00  0.00     0.003 A 
ATOM      5  C4  UNL d   1       1.442  -0.730  -0.378  0.00  0.00    -0.005 A 
ATOM      6  C5  UNL d   1       0.555   0.326  -0.576  0.00  0.00     0.003 A 
ATOM      7  C6  UNL d   1       0.429   1.324   0.392  0.00  0.00    -0.001 A 
ENDROOT
TORSDOF 0
ENDMDL
