MODEL 1
REMARK minimizedAffinity -4.24087667
REMARK minimizedRMSD -1
REMARK  0 active torsions:
REMARK  status: ('A' for Active; 'I' for Inactive)
ROOT
ATOM      1  C   UNL d   1       0.945   4.875   0.366  0.00  0.00     0.078 C 
ATOM      2  C1  UNL d   1       0.737   3.473   0.855  0.00  0.00    -0.077 A 
ATOM      3  C2  UNL d   1       0.882   3.153   2.210  0.00  0.00    -0.001 A 
ATOM      4  C3  UNL d   1       0.695   1.842   2.650  0.00  0.00     0.003 A 
ATOM      5  C4  UNL d   1       0.363   0.839   1.741  0.00  0.00    -0.005 A 
ATOM      6  C5  UNL d   1       0.219   1.148   0.390  0.00  0.00     0.003 A 
ATOM      7  C6  UNL d   1       0.406   2.458  -0.052  0.00  0.00    -0.001 A 
ENDROOT
TORSDOF 0
ENDMDL
