MODEL 1
REMARK minimizedAffinity -4.18797255
REMARK minimizedRMSD -1
REMARK  0 active torsions:
REMARK  status: ('A' for Active; 'I' for Inactive)
ROOT
ATOM      1  C   UNL d   1       1.411   4.501  -0.276  0.00  0.00     0.078 C 
ATOM      2  C1  UNL d   1       0.994   3.357   0.599  0.00  0.00    -0.077 A 
ATOM      3  C2  UNL d   1      -0.052   2.505   0.223  0.00  0.00    -0.001 A 
ATOM      4  C3  UNL d   1      -0.436   1.450   1.052  0.00  0.00     0.003 A 
ATOM      5  C4  UNL d   1       0.219   1.238   2.263  0.00  0.00    -0.005 A 
ATOM      6  C5  UNL d   1       1.259   2.082   2.647  0.00  0.00     0.003 A 
ATOM      7  C6  UNL d   1       1.645   3.138   1.819  0.00  0.00    -0.001 A 
ENDROOT
TORSDOF 0
ENDMDL
