MODEL 1
REMARK minimizedAffinity 0.960449517
REMARK minimizedRMSD -1
REMARK  0 active torsions:
REMARK  status: ('A' for Active; 'I' for Inactive)
ROOT
ATOM      1  C   UNL d   1       0.266   0.737   1.469  0.00  0.00     0.078 C 
ATOM      2  C1  UNL d   1      -1.042   0.564   0.755  0.00  0.00    -0.077 A 
ATOM      3  C2  UNL d   1      -1.082   0.273  -0.614  0.00  0.00    -0.001 A 
ATOM      4  C3  UNL d   1      -2.307   0.125  -1.268  0.00  0.00     0.003 A 
ATOM      5  C4  UNL d   1      -3.499   0.268  -0.561  0.00  0.00    -0.005 A 
ATOM      6  C5  UNL d   1      -3.468   0.560   0.801  0.00  0.00     0.003 A 
ATOM      7  C6  UNL d   1      -2.245   0.708   1.456  0.00  0.00    -0.001 A 
ENDROOT
TORSDOF 0
ENDMDL
