MODEL 1
REMARK minimizedAffinity 14.2824411
REMARK minimizedRMSD -1
REMARK  0 active torsions:
REMARK  status: ('A' for Active; 'I' for Inactive)
ROOT
ATOM      1  C   UNL d   1       4.745  -0.646   1.894  0.00  0.00     0.124 A 
ATOM      2  C1  UNL d   1       3.692  -0.653   2.798  0.00  0.00     0.062 A 
ATOM      3  C2  UNL d   1       2.388  -0.453   2.355  0.00  0.00     0.162 A 
ATOM      4  C3  UNL d   1       2.129  -0.245   1.000  0.00  0.00    -0.034 A 
ATOM      5  C4  UNL d   1       3.194  -0.238   0.097  0.00  0.00     0.162 A 
ATOM      6  C5  UNL d   1       4.495  -0.439   0.545  0.00  0.00     0.062 A 
ATOM      7  F   UNL d   1       5.512  -0.432  -0.330  0.00  0.00    -0.097 F 
ATOM      8  F1  UNL d   1       2.981  -0.041  -1.212  0.00  0.00    -0.096 F 
ATOM      9  I   UNL d   1       0.181   0.056   0.334  0.00  0.00    -0.060 I 
ATOM     10  F2  UNL d   1       1.390  -0.464   3.251  0.00  0.00    -0.096 F 
ATOM     11  F3  UNL d   1       3.931  -0.852   4.102  0.00  0.00    -0.097 F 
ATOM     12  F4  UNL d   1       5.999  -0.838   2.324  0.00  0.00    -0.092 F 
ENDROOT
TORSDOF 0
ENDMDL
