MODEL 1
REMARK minimizedAffinity -0.156583771
REMARK minimizedRMSD -1
REMARK  0 active torsions:
REMARK  status: ('A' for Active; 'I' for Inactive)
ROOT
ATOM      1  C   UNL d   1      -1.359   1.070   0.263  0.00  0.00     0.124 A 
ATOM      2  C1  UNL d   1      -0.927   1.618   1.463  0.00  0.00     0.062 A 
ATOM      3  C2  UNL d   1       0.286   1.219   2.017  0.00  0.00     0.162 A 
ATOM      4  C3  UNL d   1       1.076   0.268   1.371  0.00  0.00    -0.034 A 
ATOM      5  C4  UNL d   1       0.634  -0.278   0.165  0.00  0.00     0.162 A 
ATOM      6  C5  UNL d   1      -0.579   0.123  -0.385  0.00  0.00     0.062 A 
ATOM      7  F   UNL d   1      -0.995  -0.407  -1.544  0.00  0.00    -0.097 F 
ATOM      8  F1  UNL d   1       1.369  -1.195  -0.482  0.00  0.00    -0.096 F 
ATOM      9  I   UNL d   1       2.890  -0.330   2.197  0.00  0.00    -0.060 I 
ATOM     10  F2  UNL d   1       0.679   1.765   3.178  0.00  0.00    -0.096 F 
ATOM     11  F3  UNL d   1      -1.680   2.532   2.091  0.00  0.00    -0.097 F 
ATOM     12  F4  UNL d   1      -2.527   1.455  -0.268  0.00  0.00    -0.092 F 
ENDROOT
TORSDOF 0
ENDMDL
