MODEL 1
REMARK minimizedAffinity -0.776132941
REMARK minimizedRMSD -1
REMARK  0 active torsions:
REMARK  status: ('A' for Active; 'I' for Inactive)
ROOT
ATOM      1  C   UNL d   1      -1.354   2.234   0.307  0.00  0.00     0.124 A 
ATOM      2  C1  UNL d   1      -1.009   1.723  -0.937  0.00  0.00     0.062 A 
ATOM      3  C2  UNL d   1      -0.032   0.738  -1.042  0.00  0.00     0.162 A 
ATOM      4  C3  UNL d   1       0.607   0.255   0.100  0.00  0.00    -0.034 A 
ATOM      5  C4  UNL d   1       0.255   0.774   1.347  0.00  0.00     0.162 A 
ATOM      6  C5  UNL d   1      -0.722   1.759   1.447  0.00  0.00     0.062 A 
ATOM      7  F   UNL d   1      -1.054   2.252   2.650  0.00  0.00    -0.097 F 
ATOM      8  F1  UNL d   1       0.849   0.332   2.466  0.00  0.00    -0.096 F 
ATOM      9  I   UNL d   1       2.068  -1.219  -0.053  0.00  0.00    -0.060 I 
ATOM     10  F2  UNL d   1       0.281   0.262  -2.257  0.00  0.00    -0.096 F 
ATOM     11  F3  UNL d   1      -1.617   2.181  -2.040  0.00  0.00    -0.097 F 
ATOM     12  F4  UNL d   1      -2.293   3.183   0.405  0.00  0.00    -0.092 F 
ENDROOT
TORSDOF 0
ENDMDL
