MODEL 1
REMARK minimizedAffinity -0.75826472
REMARK minimizedRMSD -1
REMARK  0 active torsions:
REMARK  status: ('A' for Active; 'I' for Inactive)
ROOT
ATOM      1  C   UNL d   1      -1.618   2.174   0.477  0.00  0.00     0.124 A 
ATOM      2  C1  UNL d   1      -1.042   1.603   1.603  0.00  0.00     0.062 A 
ATOM      3  C2  UNL d   1       0.017   0.709   1.471  0.00  0.00     0.162 A 
ATOM      4  C3  UNL d   1       0.507   0.381   0.207  0.00  0.00    -0.034 A 
ATOM      5  C4  UNL d   1      -0.078   0.958  -0.921  0.00  0.00     0.162 A 
ATOM      6  C5  UNL d   1      -1.136   1.851  -0.784  0.00  0.00     0.062 A 
ATOM      7  F   UNL d   1      -1.691   2.402  -1.873  0.00  0.00    -0.097 F 
ATOM      8  F1  UNL d   1       0.369   0.665  -2.151  0.00  0.00    -0.096 F 
ATOM      9  I   UNL d   1       2.090  -0.955   0.006  0.00  0.00    -0.060 I 
ATOM     10  F2  UNL d   1       0.554   0.172   2.577  0.00  0.00    -0.096 F 
ATOM     11  F3  UNL d   1      -1.507   1.912   2.822  0.00  0.00    -0.097 F 
ATOM     12  F4  UNL d   1      -2.637   3.033   0.607  0.00  0.00    -0.092 F 
ENDROOT
TORSDOF 0
ENDMDL
