MODEL 1
REMARK minimizedAffinity -0.100249514
REMARK minimizedRMSD -1
REMARK  0 active torsions:
REMARK  status: ('A' for Active; 'I' for Inactive)
ROOT
ATOM      1  C   UNL d   1      -1.586   2.017   0.568  0.00  0.00     0.124 A 
ATOM      2  C1  UNL d   1      -0.819   2.471   1.633  0.00  0.00     0.062 A 
ATOM      3  C2  UNL d   1       0.313   1.766   2.030  0.00  0.00     0.162 A 
ATOM      4  C3  UNL d   1       0.687   0.600   1.363  0.00  0.00    -0.034 A 
ATOM      5  C4  UNL d   1      -0.090   0.149   0.294  0.00  0.00     0.162 A 
ATOM      6  C5  UNL d   1      -1.221   0.857  -0.100  0.00  0.00     0.062 A 
ATOM      7  F   UNL d   1      -1.961   0.417  -1.128  0.00  0.00    -0.097 F 
ATOM      8  F1  UNL d   1       0.240  -0.969  -0.370  0.00  0.00    -0.096 F 
ATOM      9  I   UNL d   1       2.379  -0.457   1.955  0.00  0.00    -0.060 I 
ATOM     10  F2  UNL d   1       1.035   2.228   3.062  0.00  0.00    -0.096 F 
ATOM     11  F3  UNL d   1      -1.170   3.591   2.280  0.00  0.00    -0.097 F 
ATOM     12  F4  UNL d   1      -2.676   2.697   0.188  0.00  0.00    -0.092 F 
ENDROOT
TORSDOF 0
ENDMDL
