MODEL 1
REMARK minimizedAffinity 1.94270563
REMARK minimizedRMSD -1
REMARK  0 active torsions:
REMARK  status: ('A' for Active; 'I' for Inactive)
ROOT
ATOM      1  C   UNL d   1      -0.875   2.201   0.202  0.00  0.00     0.124 A 
ATOM      2  C1  UNL d   1      -0.486   1.589  -0.981  0.00  0.00     0.062 A 
ATOM      3  C2  UNL d   1       0.528   0.636  -0.976  0.00  0.00     0.162 A 
ATOM      4  C3  UNL d   1       1.160   0.288   0.218  0.00  0.00    -0.034 A 
ATOM      5  C4  UNL d   1       0.765   0.909   1.404  0.00  0.00     0.162 A 
ATOM      6  C5  UNL d   1      -0.249   1.861   1.393  0.00  0.00     0.062 A 
ATOM      7  F   UNL d   1      -0.623   2.452   2.538  0.00  0.00    -0.097 F 
ATOM      8  F1  UNL d   1       1.352   0.598   2.569  0.00  0.00    -0.096 F 
ATOM      9  I   UNL d   1       2.677  -1.137   0.230  0.00  0.00    -0.060 I 
ATOM     10  F2  UNL d   1       0.883   0.060  -2.134  0.00  0.00    -0.096 F 
ATOM     11  F3  UNL d   1      -1.089   1.917  -2.133  0.00  0.00    -0.097 F 
ATOM     12  F4  UNL d   1      -1.850   3.119   0.194  0.00  0.00    -0.092 F 
ENDROOT
TORSDOF 0
ENDMDL
