MODEL 1
REMARK minimizedAffinity -0.874018967
REMARK minimizedRMSD -1
REMARK  0 active torsions:
REMARK  status: ('A' for Active; 'I' for Inactive)
ROOT
ATOM      1  C   UNL d   1      -1.323   2.359   0.076  0.00  0.00     0.124 A 
ATOM      2  C1  UNL d   1      -0.914   1.554  -0.979  0.00  0.00     0.062 A 
ATOM      3  C2  UNL d   1       0.093   0.612  -0.790  0.00  0.00     0.162 A 
ATOM      4  C3  UNL d   1       0.698   0.469   0.458  0.00  0.00    -0.034 A 
ATOM      5  C4  UNL d   1       0.282   1.282   1.514  0.00  0.00     0.162 A 
ATOM      6  C5  UNL d   1      -0.725   2.222   1.320  0.00  0.00     0.062 A 
ATOM      7  F   UNL d   1      -1.119   2.999   2.340  0.00  0.00    -0.097 F 
ATOM      8  F1  UNL d   1       0.843   1.171   2.727  0.00  0.00    -0.096 F 
ATOM      9  I   UNL d   1       2.205  -0.938   0.744  0.00  0.00    -0.060 I 
ATOM     10  F2  UNL d   1       0.468  -0.152  -1.827  0.00  0.00    -0.096 F 
ATOM     11  F3  UNL d   1      -1.490   1.685  -2.182  0.00  0.00    -0.097 F 
ATOM     12  F4  UNL d   1      -2.292   3.265  -0.108  0.00  0.00    -0.092 F 
ENDROOT
TORSDOF 0
ENDMDL
