MODEL 1
REMARK minimizedAffinity -3.49556828
REMARK minimizedRMSD -1
REMARK  0 active torsions:
REMARK  status: ('A' for Active; 'I' for Inactive)
ROOT
ATOM      1  C   UNL d   1      -0.643   1.870   0.092  0.00  0.00     0.124 A 
ATOM      2  C1  UNL d   1       0.364   1.267  -0.648  0.00  0.00     0.062 A 
ATOM      3  C2  UNL d   1       1.412   0.615  -0.005  0.00  0.00     0.162 A 
ATOM      4  C3  UNL d   1       1.459   0.563   1.389  0.00  0.00    -0.034 A 
ATOM      5  C4  UNL d   1       0.443   1.173   2.127  0.00  0.00     0.162 A 
ATOM      6  C5  UNL d   1      -0.603   1.823   1.479  0.00  0.00     0.062 A 
ATOM      7  F   UNL d   1      -1.574   2.405   2.196  0.00  0.00    -0.097 F 
ATOM      8  F1  UNL d   1       0.456   1.142   3.468  0.00  0.00    -0.096 F 
ATOM      9  I   UNL d   1       3.024  -0.410   2.355  0.00  0.00    -0.060 I 
ATOM     10  F2  UNL d   1       2.372   0.041  -0.745  0.00  0.00    -0.096 F 
ATOM     11  F3  UNL d   1       0.328   1.312  -1.988  0.00  0.00    -0.097 F 
ATOM     12  F4  UNL d   1      -1.649   2.497  -0.530  0.00  0.00    -0.092 F 
ENDROOT
TORSDOF 0
ENDMDL
