MODEL 1
REMARK minimizedAffinity 3.63558984
REMARK minimizedRMSD -1
REMARK  0 active torsions:
REMARK  status: ('A' for Active; 'I' for Inactive)
ROOT
ATOM      1  C   UNL d   1      -0.119   1.949   2.137  0.00  0.00     0.124 A 
ATOM      2  C1  UNL d   1       0.738   0.945   1.707  0.00  0.00     0.062 A 
ATOM      3  C2  UNL d   1       0.796   0.605   0.358  0.00  0.00     0.162 A 
ATOM      4  C3  UNL d   1      -0.005   1.271  -0.570  0.00  0.00    -0.034 A 
ATOM      5  C4  UNL d   1      -0.865   2.278  -0.129  0.00  0.00     0.162 A 
ATOM      6  C5  UNL d   1      -0.919   2.614   1.220  0.00  0.00     0.062 A 
ATOM      7  F   UNL d   1      -1.747   3.583   1.634  0.00  0.00    -0.097 F 
ATOM      8  F1  UNL d   1      -1.649   2.938  -0.995  0.00  0.00    -0.096 F 
ATOM      9  I   UNL d   1       0.079   0.766  -2.588  0.00  0.00    -0.060 I 
ATOM     10  F2  UNL d   1       1.633  -0.368  -0.030  0.00  0.00    -0.096 F 
ATOM     11  F3  UNL d   1       1.512   0.300   2.592  0.00  0.00    -0.097 F 
ATOM     12  F4  UNL d   1      -0.173   2.273   3.436  0.00  0.00    -0.092 F 
ENDROOT
TORSDOF 0
ENDMDL
