MODEL 1
REMARK minimizedAffinity -0.112158924
REMARK minimizedRMSD -1
REMARK  0 active torsions:
REMARK  status: ('A' for Active; 'I' for Inactive)
ROOT
ATOM      1  C   UNL d   1      -1.694   1.179   0.402  0.00  0.00     0.124 A 
ATOM      2  C1  UNL d   1      -1.308   0.043  -0.295  0.00  0.00     0.062 A 
ATOM      3  C2  UNL d   1      -0.020  -0.465  -0.147  0.00  0.00     0.162 A 
ATOM      4  C3  UNL d   1       0.890   0.162   0.704  0.00  0.00    -0.034 A 
ATOM      5  C4  UNL d   1       0.494   1.304   1.401  0.00  0.00     0.162 A 
ATOM      6  C5  UNL d   1      -0.793   1.808   1.250  0.00  0.00     0.062 A 
ATOM      7  F   UNL d   1      -1.165   2.906   1.925  0.00  0.00    -0.097 F 
ATOM      8  F1  UNL d   1       1.345   1.932   2.227  0.00  0.00    -0.096 F 
ATOM      9  I   UNL d   1       2.816  -0.595   0.928  0.00  0.00    -0.060 I 
ATOM     10  F2  UNL d   1       0.326  -1.564  -0.834  0.00  0.00    -0.096 F 
ATOM     11  F3  UNL d   1      -2.176  -0.566  -1.115  0.00  0.00    -0.097 F 
ATOM     12  F4  UNL d   1      -2.933   1.667   0.257  0.00  0.00    -0.092 F 
ENDROOT
TORSDOF 0
ENDMDL
