MODEL 1
REMARK minimizedAffinity -3.41958642
REMARK minimizedRMSD -1
REMARK  0 active torsions:
REMARK  status: ('A' for Active; 'I' for Inactive)
ROOT
ATOM      1  C   UNL d   1      -1.022   1.447   1.030  0.00  0.00     0.124 A 
ATOM      2  C1  UNL d   1      -0.293   1.559  -0.146  0.00  0.00     0.062 A 
ATOM      3  C2  UNL d   1       0.517   0.510  -0.570  0.00  0.00     0.162 A 
ATOM      4  C3  UNL d   1       0.602  -0.662   0.182  0.00  0.00    -0.034 A 
ATOM      5  C4  UNL d   1      -0.134  -0.767   1.364  0.00  0.00     0.162 A 
ATOM      6  C5  UNL d   1      -0.942   0.285   1.783  0.00  0.00     0.062 A 
ATOM      7  F   UNL d   1      -1.645   0.175   2.920  0.00  0.00    -0.097 F 
ATOM      8  F1  UNL d   1      -0.076  -1.880   2.110  0.00  0.00    -0.096 F 
ATOM      9  I   UNL d   1       1.811  -2.234  -0.449  0.00  0.00    -0.060 I 
ATOM     10  F2  UNL d   1       1.210   0.646  -1.710  0.00  0.00    -0.096 F 
ATOM     11  F3  UNL d   1      -0.368   2.682  -0.875  0.00  0.00    -0.097 F 
ATOM     12  F4  UNL d   1      -1.799   2.459   1.436  0.00  0.00    -0.092 F 
ENDROOT
TORSDOF 0
ENDMDL
