MODEL 1
REMARK minimizedAffinity 0.366567016
REMARK minimizedRMSD -1
REMARK  0 active torsions:
REMARK  status: ('A' for Active; 'I' for Inactive)
ROOT
ATOM      1  C   UNL d   1      -1.561   2.202   1.694  0.00  0.00     0.124 A 
ATOM      2  C1  UNL d   1      -1.725   2.004   0.330  0.00  0.00     0.062 A 
ATOM      3  C2  UNL d   1      -1.088   0.942  -0.305  0.00  0.00     0.162 A 
ATOM      4  C3  UNL d   1      -0.282   0.067   0.424  0.00  0.00    -0.034 A 
ATOM      5  C4  UNL d   1      -0.121   0.272   1.795  0.00  0.00     0.162 A 
ATOM      6  C5  UNL d   1      -0.759   1.336   2.425  0.00  0.00     0.062 A 
ATOM      7  F   UNL d   1      -0.600   1.525   3.743  0.00  0.00    -0.097 F 
ATOM      8  F1  UNL d   1       0.646  -0.549   2.526  0.00  0.00    -0.096 F 
ATOM      9  I   UNL d   1       0.671  -1.523  -0.522  0.00  0.00    -0.060 I 
ATOM     10  F2  UNL d   1      -1.265   0.775  -1.624  0.00  0.00    -0.096 F 
ATOM     11  F3  UNL d   1      -2.497   2.840  -0.379  0.00  0.00    -0.097 F 
ATOM     12  F4  UNL d   1      -2.173   3.225   2.302  0.00  0.00    -0.092 F 
ENDROOT
TORSDOF 0
ENDMDL
