MODEL 1
REMARK minimizedAffinity 0.249458462
REMARK minimizedRMSD -1
REMARK  0 active torsions:
REMARK  status: ('A' for Active; 'I' for Inactive)
ROOT
ATOM      1  C   UNL d   1      -1.358   1.927   0.718  0.00  0.00     0.124 A 
ATOM      2  C1  UNL d   1      -0.590   2.002  -0.436  0.00  0.00     0.062 A 
ATOM      3  C2  UNL d   1       0.262   0.956  -0.779  0.00  0.00     0.162 A 
ATOM      4  C3  UNL d   1       0.351  -0.174   0.033  0.00  0.00    -0.034 A 
ATOM      5  C4  UNL d   1      -0.423  -0.242   1.193  0.00  0.00     0.162 A 
ATOM      6  C5  UNL d   1      -1.274   0.806   1.531  0.00  0.00     0.062 A 
ATOM      7  F   UNL d   1      -2.015   0.732   2.646  0.00  0.00    -0.097 F 
ATOM      8  F1  UNL d   1      -0.363  -1.314   1.996  0.00  0.00    -0.096 F 
ATOM      9  I   UNL d   1       1.624  -1.740  -0.476  0.00  0.00    -0.060 I 
ATOM     10  F2  UNL d   1       0.992   1.056  -1.900  0.00  0.00    -0.096 F 
ATOM     11  F3  UNL d   1      -0.669   3.085  -1.223  0.00  0.00    -0.097 F 
ATOM     12  F4  UNL d   1      -2.176   2.935   1.046  0.00  0.00    -0.092 F 
ENDROOT
TORSDOF 0
ENDMDL
