MODEL 1
REMARK minimizedAffinity -2.40247464
REMARK minimizedRMSD -1
REMARK  0 active torsions:
REMARK  status: ('A' for Active; 'I' for Inactive)
ROOT
ATOM      1  C   UNL d   1      -1.511   1.641   1.243  0.00  0.00     0.124 A 
ATOM      2  C1  UNL d   1      -0.862   0.744   2.080  0.00  0.00     0.062 A 
ATOM      3  C2  UNL d   1      -0.071  -0.267   1.543  0.00  0.00     0.162 A 
ATOM      4  C3  UNL d   1       0.077  -0.387   0.161  0.00  0.00    -0.034 A 
ATOM      5  C4  UNL d   1      -0.580   0.518  -0.674  0.00  0.00     0.162 A 
ATOM      6  C5  UNL d   1      -1.370   1.527  -0.133  0.00  0.00     0.062 A 
ATOM      7  F   UNL d   1      -1.996   2.393  -0.943  0.00  0.00    -0.097 F 
ATOM      8  F1  UNL d   1      -0.460   0.431  -2.007  0.00  0.00    -0.096 F 
ATOM      9  I   UNL d   1       1.259  -1.899  -0.645  0.00  0.00    -0.060 I 
ATOM     10  F2  UNL d   1       0.545  -1.120   2.376  0.00  0.00    -0.096 F 
ATOM     11  F3  UNL d   1      -0.998   0.852   3.409  0.00  0.00    -0.097 F 
ATOM     12  F4  UNL d   1      -2.272   2.613   1.762  0.00  0.00    -0.092 F 
ENDROOT
TORSDOF 0
ENDMDL
