MODEL 1
REMARK minimizedAffinity 0.403380156
REMARK minimizedRMSD -1
REMARK  0 active torsions:
REMARK  status: ('A' for Active; 'I' for Inactive)
ROOT
ATOM      1  C   UNL d   1       1.373  -4.672  -1.419  0.00  0.00     0.124 A 
ATOM      2  C1  UNL d   1       0.704  -4.037  -2.457  0.00  0.00     0.062 A 
ATOM      3  C2  UNL d   1       0.525  -2.657  -2.433  0.00  0.00     0.162 A 
ATOM      4  C3  UNL d   1       1.016  -1.901  -1.368  0.00  0.00    -0.034 A 
ATOM      5  C4  UNL d   1       1.686  -2.547  -0.328  0.00  0.00     0.162 A 
ATOM      6  C5  UNL d   1       1.863  -3.927  -0.356  0.00  0.00     0.062 A 
ATOM      7  F   UNL d   1       2.509  -4.539   0.647  0.00  0.00    -0.097 F 
ATOM      8  F1  UNL d   1       2.172  -1.852   0.711  0.00  0.00    -0.096 F 
ATOM      9  I   UNL d   1       0.750   0.162  -1.329  0.00  0.00    -0.060 I 
ATOM     10  F2  UNL d   1      -0.125  -2.070  -3.449  0.00  0.00    -0.096 F 
ATOM     11  F3  UNL d   1       0.228  -4.754  -3.484  0.00  0.00    -0.097 F 
ATOM     12  F4  UNL d   1       1.543  -6.000  -1.444  0.00  0.00    -0.092 F 
ENDROOT
TORSDOF 0
ENDMDL
