MODEL 1
REMARK minimizedAffinity -0.0532613769
REMARK minimizedRMSD -1
REMARK  0 active torsions:
REMARK  status: ('A' for Active; 'I' for Inactive)
ROOT
ATOM      1  C   UNL d   1       1.610  -1.358  -1.687  0.00  0.00     0.124 A 
ATOM      2  C1  UNL d   1       1.623   0.030  -1.699  0.00  0.00     0.062 A 
ATOM      3  C2  UNL d   1       0.703   0.746  -0.939  0.00  0.00     0.162 A 
ATOM      4  C3  UNL d   1      -0.239   0.074  -0.159  0.00  0.00    -0.034 A 
ATOM      5  C4  UNL d   1      -0.247  -1.322  -0.152  0.00  0.00     0.162 A 
ATOM      6  C5  UNL d   1       0.676  -2.032  -0.914  0.00  0.00     0.062 A 
ATOM      7  F   UNL d   1       0.661  -3.373  -0.901  0.00  0.00    -0.097 F 
ATOM      8  F1  UNL d   1      -1.138  -1.999   0.586  0.00  0.00    -0.096 F 
ATOM      9  I   UNL d   1      -1.617   1.140   0.979  0.00  0.00    -0.060 I 
ATOM     10  F2  UNL d   1       0.738   2.086  -0.970  0.00  0.00    -0.096 F 
ATOM     11  F3  UNL d   1       2.525   0.684  -2.446  0.00  0.00    -0.097 F 
ATOM     12  F4  UNL d   1       2.497  -2.044  -2.420  0.00  0.00    -0.092 F 
ENDROOT
TORSDOF 0
ENDMDL
