MODEL 1
REMARK minimizedAffinity -3.06707263
REMARK minimizedRMSD -1
REMARK  0 active torsions:
REMARK  status: ('A' for Active; 'I' for Inactive)
ROOT
ATOM      1  C   UNL d   1      -1.699   2.207   1.216  0.00  0.00     0.124 A 
ATOM      2  C1  UNL d   1      -1.378   0.957   1.728  0.00  0.00     0.062 A 
ATOM      3  C2  UNL d   1      -0.471   0.139   1.060  0.00  0.00     0.162 A 
ATOM      4  C3  UNL d   1       0.123   0.568  -0.126  0.00  0.00    -0.034 A 
ATOM      5  C4  UNL d   1      -0.205   1.826  -0.635  0.00  0.00     0.162 A 
ATOM      6  C5  UNL d   1      -1.112   2.640   0.035  0.00  0.00     0.062 A 
ATOM      7  F   UNL d   1      -1.421   3.847  -0.461  0.00  0.00    -0.097 F 
ATOM      8  F1  UNL d   1       0.348   2.270  -1.774  0.00  0.00    -0.096 F 
ATOM      9  I   UNL d   1       1.480  -0.652  -1.127  0.00  0.00    -0.060 I 
ATOM     10  F2  UNL d   1      -0.180  -1.064   1.578  0.00  0.00    -0.096 F 
ATOM     11  F3  UNL d   1      -1.944   0.536   2.868  0.00  0.00    -0.097 F 
ATOM     12  F4  UNL d   1      -2.573   2.991   1.859  0.00  0.00    -0.092 F 
ENDROOT
TORSDOF 0
ENDMDL
