MODEL 1
REMARK minimizedAffinity -0.304486722
REMARK minimizedRMSD -1
REMARK  0 active torsions:
REMARK  status: ('A' for Active; 'I' for Inactive)
ROOT
ATOM      1  C   UNL d   1      -1.084   2.523   1.065  0.00  0.00     0.124 A 
ATOM      2  C1  UNL d   1      -1.350   1.264   1.585  0.00  0.00     0.062 A 
ATOM      3  C2  UNL d   1      -0.773   0.134   1.012  0.00  0.00     0.162 A 
ATOM      4  C3  UNL d   1       0.078   0.258  -0.086  0.00  0.00    -0.034 A 
ATOM      5  C4  UNL d   1       0.340   1.528  -0.604  0.00  0.00     0.162 A 
ATOM      6  C5  UNL d   1      -0.240   2.654  -0.029  0.00  0.00     0.062 A 
ATOM      7  F   UNL d   1       0.018   3.870  -0.532  0.00  0.00    -0.097 F 
ATOM      8  F1  UNL d   1       1.152   1.683  -1.660  0.00  0.00    -0.096 F 
ATOM      9  I   UNL d   1       0.943  -1.429  -0.945  0.00  0.00    -0.060 I 
ATOM     10  F2  UNL d   1      -1.047  -1.070   1.535  0.00  0.00    -0.096 F 
ATOM     11  F3  UNL d   1      -2.166   1.134   2.641  0.00  0.00    -0.097 F 
ATOM     12  F4  UNL d   1      -1.642   3.608   1.617  0.00  0.00    -0.092 F 
ENDROOT
TORSDOF 0
ENDMDL
