MODEL 1
REMARK minimizedAffinity -3.44256306
REMARK minimizedRMSD -1
REMARK  0 active torsions:
REMARK  status: ('A' for Active; 'I' for Inactive)
ROOT
ATOM      1  C   UNL d   1      -1.464   3.074   0.817  0.00  0.00     0.124 A 
ATOM      2  C1  UNL d   1      -1.824   1.869   1.405  0.00  0.00     0.062 A 
ATOM      3  C2  UNL d   1      -1.163   0.695   1.057  0.00  0.00     0.162 A 
ATOM      4  C3  UNL d   1      -0.132   0.719   0.117  0.00  0.00    -0.034 A 
ATOM      5  C4  UNL d   1       0.224   1.935  -0.470  0.00  0.00     0.162 A 
ATOM      6  C5  UNL d   1      -0.440   3.105  -0.120  0.00  0.00     0.062 A 
ATOM      7  F   UNL d   1      -0.090   4.268  -0.688  0.00  0.00    -0.097 F 
ATOM      8  F1  UNL d   1       1.210   1.994  -1.378  0.00  0.00    -0.096 F 
ATOM      9  I   UNL d   1       0.859  -1.034  -0.406  0.00  0.00    -0.060 I 
ATOM     10  F2  UNL d   1      -1.532  -0.455   1.641  0.00  0.00    -0.096 F 
ATOM     11  F3  UNL d   1      -2.814   1.835   2.309  0.00  0.00    -0.097 F 
ATOM     12  F4  UNL d   1      -2.103   4.202   1.153  0.00  0.00    -0.092 F 
ENDROOT
TORSDOF 0
ENDMDL
