MODEL 1
REMARK minimizedAffinity 0.404833287
REMARK minimizedRMSD -1
REMARK  0 active torsions:
REMARK  status: ('A' for Active; 'I' for Inactive)
ROOT
ATOM      1  C   UNL d   1      -0.356   2.932  -0.357  0.00  0.00     0.124 A 
ATOM      2  C1  UNL d   1       0.364   1.814  -0.756  0.00  0.00     0.062 A 
ATOM      3  C2  UNL d   1       0.288   0.634  -0.021  0.00  0.00     0.162 A 
ATOM      4  C3  UNL d   1      -0.511   0.565   1.120  0.00  0.00    -0.034 A 
ATOM      5  C4  UNL d   1      -1.231   1.694   1.516  0.00  0.00     0.162 A 
ATOM      6  C5  UNL d   1      -1.152   2.871   0.778  0.00  0.00     0.062 A 
ATOM      7  F   UNL d   1      -1.848   3.950   1.166  0.00  0.00    -0.097 F 
ATOM      8  F1  UNL d   1      -2.009   1.662   2.608  0.00  0.00    -0.096 F 
ATOM      9  I   UNL d   1      -0.626  -1.197   2.221  0.00  0.00    -0.060 I 
ATOM     10  F2  UNL d   1       0.994  -0.431  -0.430  0.00  0.00    -0.096 F 
ATOM     11  F3  UNL d   1       1.134   1.871  -1.851  0.00  0.00    -0.097 F 
ATOM     12  F4  UNL d   1      -0.281   4.066  -1.065  0.00  0.00    -0.092 F 
ENDROOT
TORSDOF 0
ENDMDL
