MODEL 1
REMARK minimizedAffinity -0.308488458
REMARK minimizedRMSD -1
REMARK  0 active torsions:
REMARK  status: ('A' for Active; 'I' for Inactive)
ROOT
ATOM      1  C   UNL d   1      -0.261   1.404   0.467  0.00  0.00     0.124 A 
ATOM      2  C1  UNL d   1      -0.421   0.203   1.145  0.00  0.00     0.062 A 
ATOM      3  C2  UNL d   1      -0.037  -0.994   0.548  0.00  0.00     0.162 A 
ATOM      4  C3  UNL d   1       0.512  -0.997  -0.735  0.00  0.00    -0.034 A 
ATOM      5  C4  UNL d   1       0.669   0.215  -1.410  0.00  0.00     0.162 A 
ATOM      6  C5  UNL d   1       0.284   1.409  -0.809  0.00  0.00     0.062 A 
ATOM      7  F   UNL d   1       0.440   2.568  -1.465  0.00  0.00    -0.097 F 
ATOM      8  F1  UNL d   1       1.194   0.248  -2.644  0.00  0.00    -0.096 F 
ATOM      9  I   UNL d   1       1.087  -2.785  -1.631  0.00  0.00    -0.060 I 
ATOM     10  F2  UNL d   1      -0.204  -2.139   1.226  0.00  0.00    -0.096 F 
ATOM     11  F3  UNL d   1      -0.948   0.196   2.378  0.00  0.00    -0.097 F 
ATOM     12  F4  UNL d   1      -0.632   2.554   1.044  0.00  0.00    -0.092 F 
ENDROOT
TORSDOF 0
ENDMDL
