MODEL 1
REMARK minimizedAffinity 0.544694483
REMARK minimizedRMSD -1
REMARK  0 active torsions:
REMARK  status: ('A' for Active; 'I' for Inactive)
ROOT
ATOM      1  C   UNL d   1      -0.403   2.329   1.221  0.00  0.00     0.124 A 
ATOM      2  C1  UNL d   1      -0.779   1.091   1.722  0.00  0.00     0.062 A 
ATOM      3  C2  UNL d   1      -0.359  -0.077   1.091  0.00  0.00     0.162 A 
ATOM      4  C3  UNL d   1       0.444  -0.011  -0.048  0.00  0.00    -0.034 A 
ATOM      5  C4  UNL d   1       0.817   1.238  -0.546  0.00  0.00     0.162 A 
ATOM      6  C5  UNL d   1       0.395   2.402   0.088  0.00  0.00     0.062 A 
ATOM      7  F   UNL d   1       0.759   3.598  -0.398  0.00  0.00    -0.097 F 
ATOM      8  F1  UNL d   1       1.589   1.337  -1.639  0.00  0.00    -0.096 F 
ATOM      9  I   UNL d   1       1.075  -1.754  -0.994  0.00  0.00    -0.060 I 
ATOM     10  F2  UNL d   1      -0.738  -1.260   1.597  0.00  0.00    -0.096 F 
ATOM     11  F3  UNL d   1      -1.551   1.018   2.816  0.00  0.00    -0.097 F 
ATOM     12  F4  UNL d   1      -0.810   3.451   1.829  0.00  0.00    -0.092 F 
ENDROOT
TORSDOF 0
ENDMDL
