MODEL 1
REMARK minimizedAffinity -2.76008749
REMARK minimizedRMSD -1
REMARK  1 active torsions:
REMARK  status: ('A' for Active; 'I' for Inactive)
REMARK    1  A    between atoms: C1_2  and  C2_3 
ROOT
ATOM      1  C2  UNL d   1      -5.255  -2.819   4.459  0.00  0.00    -0.081 A 
ATOM      2  C3  UNL d   1      -4.523  -2.951   3.273  0.00  0.00     0.006 A 
ATOM      3  C4  UNL d   1      -4.527  -1.928   2.321  0.00  0.00     0.002 A 
ATOM      4  C5  UNL d   1      -5.254  -0.754   2.543  0.00  0.00    -0.080 A 
ATOM      5  C6  UNL d   1      -5.241   0.364   1.544  0.00  0.00     0.076 C 
ATOM      6  C7  UNL d   1      -5.998  -0.629   3.721  0.00  0.00     0.002 A 
ATOM      7  C8  UNL d   1      -5.996  -1.651   4.673  0.00  0.00     0.006 A 
ENDROOT
BRANCH   1   8
ATOM      8  C1  UNL d   1      -5.201  -3.892   5.516  0.00  0.00     0.054 C 
ATOM      9  C   UNL d   1      -3.776  -4.125   5.997  0.00  0.00     0.018 C 
ENDBRANCH   1   8
TORSDOF 1
ENDMDL
