MODEL 1
REMARK minimizedAffinity 2.53056359
REMARK minimizedRMSD -1
REMARK  1 active torsions:
REMARK  status: ('A' for Active; 'I' for Inactive)
REMARK    1  A    between atoms: C1_2  and  C2_3 
ROOT
ATOM      1  C2  UNL d   1      -4.535  -0.041   1.424  0.00  0.00    -0.081 A 
ATOM      2  C3  UNL d   1      -3.996  -1.253   1.873  0.00  0.00     0.006 A 
ATOM      3  C4  UNL d   1      -4.458  -1.840   3.053  0.00  0.00     0.002 A 
ATOM      4  C5  UNL d   1      -5.472  -1.230   3.799  0.00  0.00    -0.080 A 
ATOM      5  C6  UNL d   1      -5.999  -1.866   5.052  0.00  0.00     0.076 C 
ATOM      6  C7  UNL d   1      -6.000  -0.011   3.360  0.00  0.00     0.002 A 
ATOM      7  C8  UNL d   1      -5.537   0.577   2.181  0.00  0.00     0.006 A 
ENDROOT
BRANCH   1   8
ATOM      8  C1  UNL d   1      -4.084   0.562   0.118  0.00  0.00     0.054 C 
ATOM      9  C   UNL d   1      -5.265   0.836  -0.802  0.00  0.00     0.018 C 
ENDBRANCH   1   8
TORSDOF 1
ENDMDL
