MODEL 1
REMARK minimizedAffinity 10.4009895
REMARK minimizedRMSD -1
REMARK  1 active torsions:
REMARK  status: ('A' for Active; 'I' for Inactive)
REMARK    1  A    between atoms: C1_2  and  C2_3 
ROOT
ATOM      1  C2  UNL d   1      -5.369   0.271   1.717  0.00  0.00    -0.081 A 
ATOM      2  C3  UNL d   1      -4.270   1.133   1.619  0.00  0.00     0.006 A 
ATOM      3  C4  UNL d   1      -3.728   1.449   0.371  0.00  0.00     0.002 A 
ATOM      4  C5  UNL d   1      -4.279   0.914  -0.799  0.00  0.00    -0.080 A 
ATOM      5  C6  UNL d   1      -3.725   1.269  -2.147  0.00  0.00     0.076 C 
ATOM      6  C7  UNL d   1      -5.365   0.038  -0.699  0.00  0.00     0.002 A 
ATOM      7  C8  UNL d   1      -5.908  -0.278   0.548  0.00  0.00     0.006 A 
ENDROOT
BRANCH   1   8
ATOM      8  C1  UNL d   1      -5.997  -0.021   3.056  0.00  0.00     0.054 C 
ATOM      9  C   UNL d   1      -5.993  -1.513   3.356  0.00  0.00     0.018 C 
ENDBRANCH   1   8
TORSDOF 1
ENDMDL
