MODEL 1
REMARK minimizedAffinity 5.50378656
REMARK minimizedRMSD -1
REMARK  1 active torsions:
REMARK  status: ('A' for Active; 'I' for Inactive)
REMARK    1  A    between atoms: C1_2  and  C2_3 
ROOT
ATOM      1  C2  UNL d   1      -5.063  -0.172   2.997  0.00  0.00    -0.081 A 
ATOM      2  C3  UNL d   1      -4.449  -1.422   2.850  0.00  0.00     0.006 A 
ATOM      3  C4  UNL d   1      -4.613  -2.410   3.824  0.00  0.00     0.002 A 
ATOM      4  C5  UNL d   1      -5.399  -2.169   4.955  0.00  0.00    -0.080 A 
ATOM      5  C6  UNL d   1      -5.607  -3.232   5.993  0.00  0.00     0.076 C 
ATOM      6  C7  UNL d   1      -5.998  -0.914   5.111  0.00  0.00     0.002 A 
ATOM      7  C8  UNL d   1      -5.834   0.075   4.139  0.00  0.00     0.006 A 
ENDROOT
BRANCH   1   8
ATOM      8  C1  UNL d   1      -4.941   0.873   1.918  0.00  0.00     0.054 C 
ATOM      9  C   UNL d   1      -4.119   0.363   0.744  0.00  0.00     0.018 C 
ENDBRANCH   1   8
TORSDOF 1
ENDMDL
