MODEL 1
REMARK minimizedAffinity 8.75882339
REMARK minimizedRMSD -1
REMARK  1 active torsions:
REMARK  status: ('A' for Active; 'I' for Inactive)
REMARK    1  A    between atoms: C1_2  and  C2_3 
ROOT
ATOM      1  C2  UNL d   1      -3.604  -5.425  -5.377  0.00  0.00    -0.081 A 
ATOM      2  C3  UNL d   1      -2.429  -5.863  -5.999  0.00  0.00     0.006 A 
ATOM      3  C4  UNL d   1      -1.188  -5.662  -5.391  0.00  0.00     0.002 A 
ATOM      4  C5  UNL d   1      -1.101  -5.027  -4.147  0.00  0.00    -0.080 A 
ATOM      5  C6  UNL d   1       0.222  -4.832  -3.469  0.00  0.00     0.076 C 
ATOM      6  C7  UNL d   1      -2.274  -4.573  -3.533  0.00  0.00     0.002 A 
ATOM      7  C8  UNL d   1      -3.515  -4.773  -4.141  0.00  0.00     0.006 A 
ENDROOT
BRANCH   1   8
ATOM      8  C1  UNL d   1      -4.949  -5.697  -6.000  0.00  0.00     0.054 C 
ATOM      9  C   UNL d   1      -5.999  -6.000  -4.940  0.00  0.00     0.018 C 
ENDBRANCH   1   8
TORSDOF 1
ENDMDL
