MODEL 1
REMARK minimizedAffinity 11.9443827
REMARK minimizedRMSD -1
REMARK  1 active torsions:
REMARK  status: ('A' for Active; 'I' for Inactive)
REMARK    1  A    between atoms: C1_2  and  C2_3 
ROOT
ATOM      1  C2  UNL d   1      -1.560   1.734  -0.220  0.00  0.00    -0.081 A 
ATOM      2  C3  UNL d   1      -2.130   1.762  -1.499  0.00  0.00     0.006 A 
ATOM      3  C4  UNL d   1      -3.438   1.316  -1.702  0.00  0.00     0.002 A 
ATOM      4  C5  UNL d   1      -4.200   0.841  -0.629  0.00  0.00    -0.080 A 
ATOM      5  C6  UNL d   1      -5.616   0.387  -0.828  0.00  0.00     0.076 C 
ATOM      6  C7  UNL d   1      -3.625   0.796   0.645  0.00  0.00     0.002 A 
ATOM      7  C8  UNL d   1      -2.317   1.241   0.848  0.00  0.00     0.006 A 
ENDROOT
BRANCH   1   8
ATOM      8  C1  UNL d   1      -0.173   2.275   0.013  0.00  0.00     0.054 C 
ATOM      9  C   UNL d   1       0.112   3.472  -0.882  0.00  0.00     0.018 C 
ENDBRANCH   1   8
TORSDOF 1
ENDMDL
