MODEL 1
REMARK minimizedAffinity 7.30166006
REMARK minimizedRMSD -1
REMARK  0 active torsions:
REMARK  status: ('A' for Active; 'I' for Inactive)
ROOT
ATOM      1  C   UNL d   1      -0.359   2.604   0.941  0.00  0.00     0.023 A 
ATOM      2  C1  UNL d   1       0.594   1.700   0.471  0.00  0.00     0.003 A 
ATOM      3  C2  UNL d   1       0.203   0.428   0.047  0.00  0.00     0.048 A 
ATOM      4  C3  UNL d   1      -1.144   0.067   0.093  0.00  0.00     0.023 A 
ATOM      5  C4  UNL d   1      -2.101   0.969   0.562  0.00  0.00     0.048 A 
ATOM      6  C5  UNL d   1      -1.705   2.239   0.986  0.00  0.00     0.003 A 
ATOM      7  I   UNL d   1      -1.728  -1.824  -0.538  0.00  0.00    -0.146 I 
ENDROOT
TORSDOF 0
ENDMDL
