MODEL 1
REMARK minimizedAffinity 6.5913372
REMARK minimizedRMSD -1
REMARK  0 active torsions:
REMARK  status: ('A' for Active; 'I' for Inactive)
ROOT
ATOM      1  C   UNL d   1      -1.668   2.871   2.472  0.00  0.00     0.023 A 
ATOM      2  C1  UNL d   1      -0.961   3.462   3.519  0.00  0.00     0.003 A 
ATOM      3  C2  UNL d   1       0.316   3.981   3.296  0.00  0.00     0.048 A 
ATOM      4  C3  UNL d   1       0.879   3.907   2.022  0.00  0.00     0.023 A 
ATOM      5  C4  UNL d   1       0.175   3.317   0.971  0.00  0.00     0.048 A 
ATOM      6  C5  UNL d   1      -1.101   2.798   1.200  0.00  0.00     0.003 A 
ATOM      7  I   UNL d   1       2.780   4.679   1.687  0.00  0.00    -0.146 I 
ENDROOT
TORSDOF 0
ENDMDL
