MODEL 1
REMARK minimizedAffinity 6.07037973
REMARK minimizedRMSD -1
REMARK  0 active torsions:
REMARK  status: ('A' for Active; 'I' for Inactive)
ROOT
ATOM      1  C   UNL d   1       1.738   2.159   2.145  0.00  0.00     0.023 A 
ATOM      2  C1  UNL d   1       1.689   1.778   0.804  0.00  0.00     0.003 A 
ATOM      3  C2  UNL d   1       0.491   1.875   0.093  0.00  0.00     0.048 A 
ATOM      4  C3  UNL d   1      -0.654   2.355   0.729  0.00  0.00     0.023 A 
ATOM      5  C4  UNL d   1      -0.609   2.738   2.070  0.00  0.00     0.048 A 
ATOM      6  C5  UNL d   1       0.591   2.638   2.777  0.00  0.00     0.003 A 
ATOM      7  I   UNL d   1      -2.438   2.501  -0.328  0.00  0.00    -0.146 I 
ENDROOT
TORSDOF 0
ENDMDL
