MODEL 1
REMARK minimizedAffinity 2.44023681
REMARK minimizedRMSD -1
REMARK  0 active torsions:
REMARK  status: ('A' for Active; 'I' for Inactive)
ROOT
ATOM      1  C   UNL d   1      -2.752  -0.619  -0.207  0.00  0.00     0.023 A 
ATOM      2  C1  UNL d   1      -3.336   0.642  -0.315  0.00  0.00     0.003 A 
ATOM      3  C2  UNL d   1      -2.914   1.683   0.515  0.00  0.00     0.048 A 
ATOM      4  C3  UNL d   1      -1.905   1.454   1.451  0.00  0.00     0.023 A 
ATOM      5  C4  UNL d   1      -1.317   0.193   1.562  0.00  0.00     0.048 A 
ATOM      6  C5  UNL d   1      -1.743  -0.844   0.731  0.00  0.00     0.003 A 
ATOM      7  I   UNL d   1      -1.275   3.001   2.688  0.00  0.00    -0.146 I 
ENDROOT
TORSDOF 0
ENDMDL
