MODEL 1
REMARK minimizedAffinity 0.131189719
REMARK minimizedRMSD -1
REMARK  0 active torsions:
REMARK  status: ('A' for Active; 'I' for Inactive)
ROOT
ATOM      1  C   UNL d   1      -1.879   1.407   1.323  0.00  0.00     0.023 A 
ATOM      2  C1  UNL d   1      -1.764   0.018   1.365  0.00  0.00     0.003 A 
ATOM      3  C2  UNL d   1      -0.547  -0.593   1.052  0.00  0.00     0.048 A 
ATOM      4  C3  UNL d   1       0.550   0.192   0.701  0.00  0.00     0.023 A 
ATOM      5  C4  UNL d   1       0.440   1.583   0.659  0.00  0.00     0.048 A 
ATOM      6  C5  UNL d   1      -0.779   2.189   0.971  0.00  0.00     0.003 A 
ATOM      7  I   UNL d   1       2.362  -0.714   0.236  0.00  0.00    -0.146 I 
ENDROOT
TORSDOF 0
ENDMDL
