MODEL 1
REMARK minimizedAffinity 2.62232924
REMARK minimizedRMSD -1
REMARK  0 active torsions:
REMARK  status: ('A' for Active; 'I' for Inactive)
ROOT
ATOM      1  C   UNL d   1       1.678   1.494  -2.973  0.00  0.00     0.023 A 
ATOM      2  C1  UNL d   1       0.379   2.002  -2.951  0.00  0.00     0.003 A 
ATOM      3  C2  UNL d   1      -0.485   1.668  -1.906  0.00  0.00     0.048 A 
ATOM      4  C3  UNL d   1      -0.044   0.826  -0.886  0.00  0.00     0.023 A 
ATOM      5  C4  UNL d   1       1.256   0.316  -0.904  0.00  0.00     0.048 A 
ATOM      6  C5  UNL d   1       2.116   0.652  -1.951  0.00  0.00     0.003 A 
ATOM      7  I   UNL d   1      -1.328   0.327   0.670  0.00  0.00    -0.146 I 
ENDROOT
TORSDOF 0
ENDMDL
