MODEL 1
REMARK minimizedAffinity -1.43084276
REMARK minimizedRMSD -1
REMARK  0 active torsions:
REMARK  status: ('A' for Active; 'I' for Inactive)
ROOT
ATOM      1  C   UNL d   1      -3.746   5.314  -5.476  0.00  0.00     0.023 A 
ATOM      2  C1  UNL d   1      -2.443   5.813  -5.490  0.00  0.00     0.003 A 
ATOM      3  C2  UNL d   1      -1.362   4.942  -5.640  0.00  0.00     0.048 A 
ATOM      4  C3  UNL d   1      -1.590   3.573  -5.776  0.00  0.00     0.023 A 
ATOM      5  C4  UNL d   1      -2.892   3.069  -5.764  0.00  0.00     0.048 A 
ATOM      6  C5  UNL d   1      -3.970   3.944  -5.613  0.00  0.00     0.003 A 
ATOM      7  I   UNL d   1       0.017   2.275  -6.000  0.00  0.00    -0.146 I 
ENDROOT
TORSDOF 0
ENDMDL
