MODEL 1
REMARK minimizedAffinity 1.90560269
REMARK minimizedRMSD -1
REMARK  0 active torsions:
REMARK  status: ('A' for Active; 'I' for Inactive)
ROOT
ATOM      1  C   UNL d   1       4.563   3.169  -4.002  0.00  0.00     0.023 A 
ATOM      2  C1  UNL d   1       4.167   3.829  -5.165  0.00  0.00     0.003 A 
ATOM      3  C2  UNL d   1       2.870   3.666  -5.655  0.00  0.00     0.048 A 
ATOM      4  C3  UNL d   1       1.972   2.843  -4.976  0.00  0.00     0.023 A 
ATOM      5  C4  UNL d   1       2.363   2.181  -3.811  0.00  0.00     0.048 A 
ATOM      6  C5  UNL d   1       3.662   2.346  -3.325  0.00  0.00     0.003 A 
ATOM      7  I   UNL d   1       0.041   2.600  -5.704  0.00  0.00    -0.146 I 
ENDROOT
TORSDOF 0
ENDMDL
