MODEL 1
REMARK minimizedAffinity 0.51736778
REMARK minimizedRMSD -1
REMARK  0 active torsions:
REMARK  status: ('A' for Active; 'I' for Inactive)
ROOT
ATOM      1  C   UNL d   1      -1.197   0.846   0.324  0.00  0.00     0.023 A 
ATOM      2  C1  UNL d   1      -1.176   2.092   0.950  0.00  0.00     0.003 A 
ATOM      3  C2  UNL d   1       0.009   2.574   1.510  0.00  0.00     0.048 A 
ATOM      4  C3  UNL d   1       1.170   1.805   1.439  0.00  0.00     0.023 A 
ATOM      5  C4  UNL d   1       1.155   0.558   0.812  0.00  0.00     0.048 A 
ATOM      6  C5  UNL d   1      -0.033   0.080   0.254  0.00  0.00     0.003 A 
ATOM      7  I   UNL d   1       2.935   2.520   2.271  0.00  0.00    -0.146 I 
ENDROOT
TORSDOF 0
ENDMDL
