MODEL 1
REMARK minimizedAffinity 0.375923127
REMARK minimizedRMSD -1
REMARK  0 active torsions:
REMARK  status: ('A' for Active; 'I' for Inactive)
ROOT
ATOM      1  C   UNL d   1      -0.924   0.928   0.459  0.00  0.00     0.023 A 
ATOM      2  C1  UNL d   1      -1.129   2.187   1.023  0.00  0.00     0.003 A 
ATOM      3  C2  UNL d   1      -0.100   2.813   1.730  0.00  0.00     0.048 A 
ATOM      4  C3  UNL d   1       1.131   2.174   1.869  0.00  0.00     0.023 A 
ATOM      5  C4  UNL d   1       1.341   0.914   1.306  0.00  0.00     0.048 A 
ATOM      6  C5  UNL d   1       0.310   0.292   0.600  0.00  0.00     0.003 A 
ATOM      7  I   UNL d   1       2.664   3.103   2.921  0.00  0.00    -0.146 I 
ENDROOT
TORSDOF 0
ENDMDL
