MODEL 1
REMARK minimizedAffinity 2.50389695
REMARK minimizedRMSD -1
REMARK  0 active torsions:
REMARK  status: ('A' for Active; 'I' for Inactive)
ROOT
ATOM      1  C   UNL d   1      -0.381   0.707   0.095  0.00  0.00     0.023 A 
ATOM      2  C1  UNL d   1       0.918   0.199   0.062  0.00  0.00     0.003 A 
ATOM      3  C2  UNL d   1       1.942   0.849   0.754  0.00  0.00     0.048 A 
ATOM      4  C3  UNL d   1       1.660   2.007   1.478  0.00  0.00     0.023 A 
ATOM      5  C4  UNL d   1       0.362   2.519   1.515  0.00  0.00     0.048 A 
ATOM      6  C5  UNL d   1      -0.658   1.866   0.820  0.00  0.00     0.003 A 
ATOM      7  I   UNL d   1       3.182   2.976   2.509  0.00  0.00    -0.146 I 
ENDROOT
TORSDOF 0
ENDMDL
