MODEL 1
REMARK minimizedAffinity 4.79685307
REMARK minimizedRMSD -1
REMARK  0 active torsions:
REMARK  status: ('A' for Active; 'I' for Inactive)
ROOT
ATOM      1  C   UNL d   1       2.441   1.793   2.093  0.00  0.00     0.023 A 
ATOM      2  C1  UNL d   1       1.544   2.716   2.630  0.00  0.00     0.003 A 
ATOM      3  C2  UNL d   1       0.197   2.679   2.262  0.00  0.00     0.048 A 
ATOM      4  C3  UNL d   1      -0.246   1.716   1.357  0.00  0.00     0.023 A 
ATOM      5  C4  UNL d   1       0.648   0.789   0.817  0.00  0.00     0.048 A 
ATOM      6  C5  UNL d   1       1.993   0.830   1.188  0.00  0.00     0.003 A 
ATOM      7  I   UNL d   1      -2.250   1.659   0.808  0.00  0.00    -0.146 I 
ENDROOT
TORSDOF 0
ENDMDL
