MODEL 1
REMARK minimizedAffinity 4.10819149
REMARK minimizedRMSD -1
REMARK  0 active torsions:
REMARK  status: ('A' for Active; 'I' for Inactive)
ROOT
ATOM      1  C1  DEN d   1       1.834  -0.767   3.343  0.00  0.00     0.130 A 
ATOM      2  C2  DEN d   1       1.032  -1.218   4.477  0.00  0.00    -0.031 A 
ATOM      3  C3  DEN d   1      -0.197  -0.401   4.521  0.00  0.00     0.027 A 
ATOM      4  C4  DEN d   1      -0.935   1.505   2.949  0.00  0.00     0.027 A 
ATOM      5  C5  DEN d   1      -0.580   2.254   1.848  0.00  0.00    -0.003 A 
ATOM      6  C6  DEN d   1       0.610   2.073   1.195  0.00  0.00     0.001 A 
ATOM      7  C7  DEN d   1       1.469   1.089   1.609  0.00  0.00     0.017 A 
ATOM      8  C8  DEN d   1       1.121   0.335   2.722  0.00  0.00    -0.094 A 
ATOM      9  C9  DEN d   1      -0.092   0.525   3.362  0.00  0.00    -0.072 A 
ENDROOT
TORSDOF 0
ENDMDL
