MODEL 1
REMARK minimizedAffinity 12.235158
REMARK minimizedRMSD -1
REMARK  0 active torsions:
REMARK  status: ('A' for Active; 'I' for Inactive)
ROOT
ATOM      1  C1  DEN d   1       1.473  -0.771   2.879  0.00  0.00     0.130 A 
ATOM      2  C2  DEN d   1       0.889  -1.062   4.186  0.00  0.00    -0.031 A 
ATOM      3  C3  DEN d   1      -0.052   0.026   4.518  0.00  0.00     0.027 A 
ATOM      4  C4  DEN d   1      -0.662   2.120   3.142  0.00  0.00     0.027 A 
ATOM      5  C5  DEN d   1      -0.416   2.807   1.974  0.00  0.00    -0.003 A 
ATOM      6  C6  DEN d   1       0.495   2.371   1.049  0.00  0.00     0.001 A 
ATOM      7  C7  DEN d   1       1.161   1.191   1.255  0.00  0.00     0.017 A 
ATOM      8  C8  DEN d   1       0.923   0.497   2.434  0.00  0.00    -0.094 A 
ATOM      9  C9  DEN d   1      -0.011   0.948   3.351  0.00  0.00    -0.072 A 
ENDROOT
TORSDOF 0
ENDMDL
