MODEL 1
REMARK minimizedAffinity 7.59989357
REMARK minimizedRMSD -1
REMARK  0 active torsions:
REMARK  status: ('A' for Active; 'I' for Inactive)
ROOT
ATOM      1  C1  DEN d   1      -0.755   2.675  -2.953  0.00  0.00     0.130 A 
ATOM      2  C2  DEN d   1      -0.579   1.355  -2.355  0.00  0.00    -0.031 A 
ATOM      3  C3  DEN d   1      -1.844   0.983  -1.689  0.00  0.00     0.027 A 
ATOM      4  C4  DEN d   1      -4.047   2.315  -1.531  0.00  0.00     0.027 A 
ATOM      5  C5  DEN d   1      -4.673   3.493  -1.874  0.00  0.00    -0.003 A 
ATOM      6  C6  DEN d   1      -4.032   4.487  -2.565  0.00  0.00     0.001 A 
ATOM      7  C7  DEN d   1      -2.738   4.302  -2.976  0.00  0.00     0.017 A 
ATOM      8  C8  DEN d   1      -2.098   3.121  -2.627  0.00  0.00    -0.094 A 
ATOM      9  C9  DEN d   1      -2.767   2.123  -1.939  0.00  0.00    -0.072 A 
ENDROOT
TORSDOF 0
ENDMDL
