MODEL 1
REMARK minimizedAffinity 4.43793011
REMARK minimizedRMSD -1
REMARK  0 active torsions:
REMARK  status: ('A' for Active; 'I' for Inactive)
ROOT
ATOM      1  C1  DEN d   1       4.868  -2.341  -0.334  0.00  0.00     0.130 A 
ATOM      2  C2  DEN d   1       3.766  -1.530  -0.846  0.00  0.00    -0.031 A 
ATOM      3  C3  DEN d   1       3.143  -2.263  -1.967  0.00  0.00     0.027 A 
ATOM      4  C4  DEN d   1       3.770  -4.563  -2.950  0.00  0.00     0.027 A 
ATOM      5  C5  DEN d   1       4.643  -5.625  -2.855  0.00  0.00    -0.003 A 
ATOM      6  C6  DEN d   1       5.664  -5.651  -1.942  0.00  0.00     0.001 A 
ATOM      7  C7  DEN d   1       5.811  -4.615  -1.058  0.00  0.00     0.017 A 
ATOM      8  C8  DEN d   1       4.939  -3.537  -1.153  0.00  0.00    -0.094 A 
ATOM      9  C9  DEN d   1       3.906  -3.535  -2.074  0.00  0.00    -0.072 A 
ENDROOT
TORSDOF 0
ENDMDL
