MODEL 1
REMARK minimizedAffinity 0.922665
REMARK minimizedRMSD -1
REMARK  0 active torsions:
REMARK  status: ('A' for Active; 'I' for Inactive)
ROOT
ATOM      1  C1  DEN d   1      -0.172   1.132  -0.887  0.00  0.00     0.130 A 
ATOM      2  C2  DEN d   1      -0.163  -0.314  -1.090  0.00  0.00    -0.031 A 
ATOM      3  C3  DEN d   1       0.104  -0.957   0.212  0.00  0.00     0.027 A 
ATOM      4  C4  DEN d   1       0.497   0.141   2.513  0.00  0.00     0.027 A 
ATOM      5  C5  DEN d   1       0.596   1.340   3.182  0.00  0.00    -0.003 A 
ATOM      6  C6  DEN d   1       0.480   2.545   2.541  0.00  0.00     0.001 A 
ATOM      7  C7  DEN d   1       0.214   2.577   1.198  0.00  0.00     0.017 A 
ATOM      8  C8  DEN d   1       0.121   1.371   0.515  0.00  0.00    -0.094 A 
ATOM      9  C9  DEN d   1       0.229   0.164   1.183  0.00  0.00    -0.072 A 
ENDROOT
TORSDOF 0
ENDMDL
