MODEL 1
REMARK minimizedAffinity 9.76033115
REMARK minimizedRMSD -1
REMARK  0 active torsions:
REMARK  status: ('A' for Active; 'I' for Inactive)
ROOT
ATOM      1  C1  DEN d   1       1.479  -0.029   3.066  0.00  0.00     0.130 A 
ATOM      2  C2  DEN d   1       0.453   0.709   3.798  0.00  0.00    -0.031 A 
ATOM      3  C3  DEN d   1      -0.478   1.295   2.812  0.00  0.00     0.027 A 
ATOM      4  C4  DEN d   1      -0.435   1.126   0.239  0.00  0.00     0.027 A 
ATOM      5  C5  DEN d   1       0.251   0.615  -0.841  0.00  0.00    -0.003 A 
ATOM      6  C6  DEN d   1       1.403  -0.111  -0.697  0.00  0.00     0.001 A 
ATOM      7  C7  DEN d   1       1.880  -0.386   0.557  0.00  0.00     0.017 A 
ATOM      8  C8  DEN d   1       1.199   0.132   1.650  0.00  0.00    -0.094 A 
ATOM      9  C9  DEN d   1       0.029   0.854   1.485  0.00  0.00    -0.072 A 
ENDROOT
TORSDOF 0
ENDMDL
