MODEL 1
REMARK minimizedAffinity 9.30329514
REMARK minimizedRMSD -1
REMARK  0 active torsions:
REMARK  status: ('A' for Active; 'I' for Inactive)
ROOT
ATOM      1  N1  IND d   1       1.162   3.347   1.097  0.00  0.00    -0.196 N 
ATOM      2  C2  IND d   1      -0.054   3.858   0.740  0.00  0.00     0.054 A 
ATOM      3  C3  IND d   1      -0.630   3.085  -0.207  0.00  0.00    -0.031 A 
ATOM      4  C4  IND d   1       0.198   0.879  -1.245  0.00  0.00     0.051 A 
ATOM      5  C5  IND d   1       1.272   0.034  -1.263  0.00  0.00    -0.031 A 
ATOM      6  C6  IND d   1       2.386   0.253  -0.478  0.00  0.00     0.015 A 
ATOM      7  C7  IND d   1       2.463   1.324   0.367  0.00  0.00    -0.016 A 
ATOM      8  C8  IND d   1       1.377   2.188   0.383  0.00  0.00    -0.047 A 
ATOM      9  C9  IND d   1       0.262   1.994  -0.443  0.00  0.00    -0.096 A 
ATOM     10  HN1 IND d   1       1.703   3.691   1.670  0.00  0.00     0.298 HD
ENDROOT
TORSDOF 0
ENDMDL
