MODEL 1
REMARK minimizedAffinity 8.73518467
REMARK minimizedRMSD -1
REMARK  0 active torsions:
REMARK  status: ('A' for Active; 'I' for Inactive)
ROOT
ATOM      1  N1  IND d   1      -0.704   2.255  -1.199  0.00  0.00    -0.196 N 
ATOM      2  C2  IND d   1      -1.782   1.414  -1.185  0.00  0.00     0.054 A 
ATOM      3  C3  IND d   1      -2.436   1.507  -0.005  0.00  0.00    -0.031 A 
ATOM      4  C4  IND d   1      -1.973   3.047   2.005  0.00  0.00     0.051 A 
ATOM      5  C5  IND d   1      -1.075   3.965   2.474  0.00  0.00    -0.031 A 
ATOM      6  C6  IND d   1       0.013   4.369   1.728  0.00  0.00     0.015 A 
ATOM      7  C7  IND d   1       0.238   3.877   0.473  0.00  0.00    -0.016 A 
ATOM      8  C8  IND d   1      -0.668   2.940  -0.004  0.00  0.00    -0.047 A 
ATOM      9  C9  IND d   1      -1.750   2.495   0.766  0.00  0.00    -0.096 A 
ATOM     10  HN1 IND d   1      -0.143   2.340  -1.844  0.00  0.00     0.298 HD
ENDROOT
TORSDOF 0
ENDMDL
