MODEL 1
REMARK minimizedAffinity 2.62328553
REMARK minimizedRMSD -1
REMARK  0 active torsions:
REMARK  status: ('A' for Active; 'I' for Inactive)
ROOT
ATOM      1  N1  IND d   1       4.925   1.562   0.324  0.00  0.00    -0.196 N 
ATOM      2  C2  IND d   1       3.866   0.886   0.862  0.00  0.00     0.054 A 
ATOM      3  C3  IND d   1       3.178   0.241  -0.108  0.00  0.00    -0.031 A 
ATOM      4  C4  IND d   1       3.672   0.077  -2.629  0.00  0.00     0.051 A 
ATOM      5  C5  IND d   1       4.510   0.556  -3.596  0.00  0.00    -0.031 A 
ATOM      6  C6  IND d   1       5.552   1.410  -3.300  0.00  0.00     0.015 A 
ATOM      7  C7  IND d   1       5.803   1.810  -2.017  0.00  0.00    -0.016 A 
ATOM      8  C8  IND d   1       4.949   1.331  -1.034  0.00  0.00    -0.047 A 
ATOM      9  C9  IND d   1       3.864   0.498  -1.334  0.00  0.00    -0.096 A 
ATOM     10  HN1 IND d   1       5.482   2.051   0.760  0.00  0.00     0.298 HD
ENDROOT
TORSDOF 0
ENDMDL
