MODEL 1
REMARK minimizedAffinity 4.04272223
REMARK minimizedRMSD -1
REMARK  0 active torsions:
REMARK  status: ('A' for Active; 'I' for Inactive)
ROOT
ATOM      1  N1  IND d   1       4.771   1.928  -3.145  0.00  0.00    -0.196 N 
ATOM      2  C2  IND d   1       5.852   2.622  -2.674  0.00  0.00     0.054 A 
ATOM      3  C3  IND d   1       5.907   2.547  -1.325  0.00  0.00    -0.031 A 
ATOM      4  C4  IND d   1       4.388   1.258   0.305  0.00  0.00     0.051 A 
ATOM      5  C5  IND d   1       3.247   0.507   0.349  0.00  0.00    -0.031 A 
ATOM      6  C6  IND d   1       2.543   0.183  -0.792  0.00  0.00     0.015 A 
ATOM      7  C7  IND d   1       2.962   0.590  -2.027  0.00  0.00    -0.016 A 
ATOM      8  C8  IND d   1       4.117   1.358  -2.075  0.00  0.00    -0.047 A 
ATOM      9  C9  IND d   1       4.812   1.726  -0.916  0.00  0.00    -0.096 A 
ATOM     10  HN1 IND d   1       4.540   1.860  -3.970  0.00  0.00     0.298 HD
ENDROOT
TORSDOF 0
ENDMDL
