MODEL 1
REMARK minimizedAffinity 3.99031138
REMARK minimizedRMSD -1
REMARK  0 active torsions:
REMARK  status: ('A' for Active; 'I' for Inactive)
ROOT
ATOM      1  N1  IND d   1       1.428   0.786  -0.967  0.00  0.00    -0.196 N 
ATOM      2  C2  IND d   1       2.510   0.703  -0.135  0.00  0.00     0.054 A 
ATOM      3  C3  IND d   1       2.353   1.526   0.925  0.00  0.00    -0.031 A 
ATOM      4  C4  IND d   1       0.354   3.024   1.550  0.00  0.00     0.051 A 
ATOM      5  C5  IND d   1      -0.852   3.462   1.081  0.00  0.00    -0.031 A 
ATOM      6  C6  IND d   1      -1.373   3.018  -0.118  0.00  0.00     0.015 A 
ATOM      7  C7  IND d   1      -0.707   2.108  -0.890  0.00  0.00    -0.016 A 
ATOM      8  C8  IND d   1       0.522   1.668  -0.420  0.00  0.00    -0.047 A 
ATOM      9  C9  IND d   1       1.074   2.146   0.775  0.00  0.00    -0.096 A 
ATOM     10  HN1 IND d   1       1.330   0.359  -1.707  0.00  0.00     0.298 HD
ENDROOT
TORSDOF 0
ENDMDL
