MODEL 1
REMARK minimizedAffinity -1.96468413
REMARK minimizedRMSD -1
REMARK  0 active torsions:
REMARK  status: ('A' for Active; 'I' for Inactive)
ROOT
ATOM      1  N1  IND d   1      -2.089   1.090  -4.081  0.00  0.00    -0.196 N 
ATOM      2  C2  IND d   1      -1.976   0.089  -3.157  0.00  0.00     0.054 A 
ATOM      3  C3  IND d   1      -3.162  -0.540  -2.997  0.00  0.00    -0.031 A 
ATOM      4  C4  IND d   1      -5.394  -0.159  -4.222  0.00  0.00     0.051 A 
ATOM      5  C5  IND d   1      -5.999   0.669  -5.126  0.00  0.00    -0.031 A 
ATOM      6  C6  IND d   1      -5.317   1.698  -5.743  0.00  0.00     0.015 A 
ATOM      7  C7  IND d   1      -3.996   1.932  -5.485  0.00  0.00    -0.016 A 
ATOM      8  C8  IND d   1      -3.380   1.098  -4.563  0.00  0.00    -0.047 A 
ATOM      9  C9  IND d   1      -4.078   0.079  -3.902  0.00  0.00    -0.096 A 
ATOM     10  HN1 IND d   1      -1.460   1.625  -4.321  0.00  0.00     0.298 HD
ENDROOT
TORSDOF 0
ENDMDL
