MODEL 1
REMARK minimizedAffinity 7.56007767
REMARK minimizedRMSD -1
REMARK  0 active torsions:
REMARK  status: ('A' for Active; 'I' for Inactive)
ROOT
ATOM      1  N1  IND d   1       4.915   1.589  -3.730  0.00  0.00    -0.196 N 
ATOM      2  C2  IND d   1       5.942   2.393  -3.322  0.00  0.00     0.054 A 
ATOM      3  C3  IND d   1       5.877   2.599  -1.987  0.00  0.00    -0.031 A 
ATOM      4  C4  IND d   1       4.231   1.630  -0.261  0.00  0.00     0.051 A 
ATOM      5  C5  IND d   1       3.098   0.874  -0.161  0.00  0.00    -0.031 A 
ATOM      6  C6  IND d   1       2.501   0.303  -1.267  0.00  0.00     0.015 A 
ATOM      7  C7  IND d   1       3.025   0.459  -2.519  0.00  0.00    -0.016 A 
ATOM      8  C8  IND d   1       4.172   1.232  -2.626  0.00  0.00    -0.047 A 
ATOM      9  C9  IND d   1       4.758   1.849  -1.512  0.00  0.00    -0.096 A 
ATOM     10  HN1 IND d   1       4.759   1.346  -4.540  0.00  0.00     0.298 HD
ENDROOT
TORSDOF 0
ENDMDL
