MODEL 1
REMARK minimizedAffinity 10.7831068
REMARK minimizedRMSD -1
REMARK  0 active torsions:
REMARK  status: ('A' for Active; 'I' for Inactive)
ROOT
ATOM      1  N1  IND d   1      -4.491  -3.413  -5.996  0.00  0.00    -0.196 N 
ATOM      2  C2  IND d   1      -5.266  -4.534  -5.899  0.00  0.00     0.054 A 
ATOM      3  C3  IND d   1      -5.938  -4.542  -4.726  0.00  0.00    -0.031 A 
ATOM      4  C4  IND d   1      -5.994  -2.767  -2.862  0.00  0.00     0.051 A 
ATOM      5  C5  IND d   1      -5.421  -1.585  -2.482  0.00  0.00    -0.031 A 
ATOM      6  C6  IND d   1      -4.493  -0.938  -3.272  0.00  0.00     0.015 A 
ATOM      7  C7  IND d   1      -4.109  -1.445  -4.481  0.00  0.00    -0.016 A 
ATOM      8  C8  IND d   1      -4.683  -2.648  -4.866  0.00  0.00    -0.047 A 
ATOM      9  C9  IND d   1      -5.594  -3.331  -4.050  0.00  0.00    -0.096 A 
ATOM     10  HN1 IND d   1      -3.970  -3.218  -6.652  0.00  0.00     0.298 HD
ENDROOT
TORSDOF 0
ENDMDL
