MODEL 1
REMARK minimizedAffinity 4.15483856
REMARK minimizedRMSD -1
REMARK  0 active torsions:
REMARK  status: ('A' for Active; 'I' for Inactive)
ROOT
ATOM      1  N1  IND d   1       2.428   5.945  -2.795  0.00  0.00    -0.196 N 
ATOM      2  C2  IND d   1       2.873   5.909  -1.502  0.00  0.00     0.054 A 
ATOM      3  C3  IND d   1       4.224   5.880  -1.471  0.00  0.00    -0.031 A 
ATOM      4  C4  IND d   1       5.908   5.990  -3.415  0.00  0.00     0.051 A 
ATOM      5  C5  IND d   1       5.979   5.996  -4.779  0.00  0.00    -0.031 A 
ATOM      6  C6  IND d   1       4.847   5.988  -5.568  0.00  0.00     0.015 A 
ATOM      7  C7  IND d   1       3.596   5.985  -5.019  0.00  0.00    -0.016 A 
ATOM      8  C8  IND d   1       3.520   5.972  -3.634  0.00  0.00    -0.047 A 
ATOM      9  C9  IND d   1       4.666   5.937  -2.828  0.00  0.00    -0.096 A 
ATOM     10  HN1 IND d   1       1.605   5.951  -3.042  0.00  0.00     0.298 HD
ENDROOT
TORSDOF 0
ENDMDL
