MODEL 1
REMARK minimizedAffinity 3.85561872
REMARK minimizedRMSD -1
REMARK  0 active torsions:
REMARK  status: ('A' for Active; 'I' for Inactive)
ROOT
ATOM      1  N1  IND d   1       1.054  -2.623   3.123  0.00  0.00    -0.196 N 
ATOM      2  C2  IND d   1       1.508  -1.502   2.486  0.00  0.00     0.054 A 
ATOM      3  C3  IND d   1       2.832  -1.340   2.706  0.00  0.00    -0.031 A 
ATOM      4  C4  IND d   1       4.473  -2.848   3.994  0.00  0.00     0.051 A 
ATOM      5  C5  IND d   1       4.519  -3.965   4.780  0.00  0.00    -0.031 A 
ATOM      6  C6  IND d   1       3.391  -4.709   5.057  0.00  0.00     0.015 A 
ATOM      7  C7  IND d   1       2.170  -4.368   4.546  0.00  0.00    -0.016 A 
ATOM      8  C8  IND d   1       2.118  -3.230   3.754  0.00  0.00    -0.047 A 
ATOM      9  C9  IND d   1       3.253  -2.447   3.505  0.00  0.00    -0.096 A 
ATOM     10  HN1 IND d   1       0.241  -2.903   3.128  0.00  0.00     0.298 HD
ENDROOT
TORSDOF 0
ENDMDL
