MODEL 1
REMARK minimizedAffinity 6.68380308
REMARK minimizedRMSD -1
REMARK  0 active torsions:
REMARK  status: ('A' for Active; 'I' for Inactive)
ROOT
ATOM      1  N1  IND d   1       4.434  -5.757   1.549  0.00  0.00    -0.196 N 
ATOM      2  C2  IND d   1       3.089  -6.000   1.591  0.00  0.00     0.054 A 
ATOM      3  C3  IND d   1       2.533  -5.378   2.655  0.00  0.00    -0.031 A 
ATOM      4  C4  IND d   1       3.623  -3.829   4.399  0.00  0.00     0.051 A 
ATOM      5  C5  IND d   1       4.835  -3.338   4.795  0.00  0.00    -0.031 A 
ATOM      6  C6  IND d   1       5.998  -3.631   4.114  0.00  0.00     0.015 A 
ATOM      7  C7  IND d   1       5.992  -4.422   3.000  0.00  0.00    -0.016 A 
ATOM      8  C8  IND d   1       4.764  -4.928   2.599  0.00  0.00    -0.047 A 
ATOM      9  C9  IND d   1       3.585  -4.668   3.310  0.00  0.00    -0.096 A 
ATOM     10  HN1 IND d   1       4.982  -6.069   0.964  0.00  0.00     0.298 HD
ENDROOT
TORSDOF 0
ENDMDL
