MODEL 1
REMARK minimizedAffinity 5.44069147
REMARK minimizedRMSD -1
REMARK  1 active torsions:
REMARK  status: ('A' for Active; 'I' for Inactive)
REMARK    1  A    between atoms: N_2  and  C1_3 
ROOT
ATOM      1  C1  UNL d   1       0.749   2.278  -3.538  0.00  0.00     0.143 A 
ATOM      2  C2  UNL d   1       0.539   2.636  -2.201  0.00  0.00    -0.057 A 
ATOM      3  C3  UNL d   1       1.272   2.042  -1.167  0.00  0.00     0.033 A 
ATOM      4  C4  UNL d   1       2.210   1.055  -1.449  0.00  0.00    -0.042 A 
ATOM      5  C5  UNL d   1       2.418   0.665  -2.767  0.00  0.00     0.033 A 
ATOM      6  C6  UNL d   1       1.688   1.267  -3.797  0.00  0.00    -0.057 A 
ENDROOT
BRANCH   1   7
ATOM      7  N   UNL d   1      -0.016   2.761  -4.602  0.00  0.00    -0.732 N 
ATOM      8  C   UNL d   1       0.491   3.811  -5.458  0.00  0.00     0.284 C 
ATOM      9  H3  UNL d   1      -0.503   2.018  -5.099  0.00  0.00     0.395 HD
ENDBRANCH   1   7
TORSDOF 1
ENDMDL
