MODEL 1
REMARK minimizedAffinity 16.2866306
REMARK minimizedRMSD -1
REMARK  1 active torsions:
REMARK  status: ('A' for Active; 'I' for Inactive)
REMARK    1  A    between atoms: N_2  and  C1_3 
ROOT
ATOM      1  C1  UNL d   1       1.442   1.569  -0.315  0.00  0.00     0.143 A 
ATOM      2  C2  UNL d   1       1.385   0.651  -1.369  0.00  0.00    -0.057 A 
ATOM      3  C3  UNL d   1       1.833   0.989  -2.651  0.00  0.00     0.033 A 
ATOM      4  C4  UNL d   1       2.321   2.266  -2.910  0.00  0.00    -0.042 A 
ATOM      5  C5  UNL d   1       2.364   3.203  -1.884  0.00  0.00     0.033 A 
ATOM      6  C6  UNL d   1       1.921   2.857  -0.603  0.00  0.00    -0.057 A 
ENDROOT
BRANCH   1   7
ATOM      7  N   UNL d   1       0.921   1.325   0.958  0.00  0.00    -0.732 N 
ATOM      8  C   UNL d   1      -0.508   1.346   1.186  0.00  0.00     0.284 C 
ATOM      9  H3  UNL d   1       1.408   0.573   1.440  0.00  0.00     0.395 HD
ENDBRANCH   1   7
TORSDOF 1
ENDMDL
