MODEL 1
REMARK minimizedAffinity 6.22141886
REMARK minimizedRMSD -1
REMARK  1 active torsions:
REMARK  status: ('A' for Active; 'I' for Inactive)
REMARK    1  A    between atoms: N_2  and  C1_3 
ROOT
ATOM      1  C1  UNL d   1      -2.624  -4.116  -1.170  0.00  0.00     0.143 A 
ATOM      2  C2  UNL d   1      -1.825  -5.057  -0.512  0.00  0.00    -0.057 A 
ATOM      3  C3  UNL d   1      -2.383  -6.000   0.360  0.00  0.00     0.033 A 
ATOM      4  C4  UNL d   1      -3.751  -5.999   0.613  0.00  0.00    -0.042 A 
ATOM      5  C5  UNL d   1      -4.561  -5.057  -0.011  0.00  0.00     0.033 A 
ATOM      6  C6  UNL d   1      -3.999  -4.123  -0.886  0.00  0.00    -0.057 A 
ENDROOT
BRANCH   1   7
ATOM      7  N   UNL d   1      -2.117  -3.091  -1.973  0.00  0.00    -0.732 N 
ATOM      8  C   UNL d   1      -1.476  -1.939  -1.378  0.00  0.00     0.284 C 
ATOM      9  H3  UNL d   1      -1.650  -3.444  -2.805  0.00  0.00     0.395 HD
ENDBRANCH   1   7
TORSDOF 1
ENDMDL
