MODEL 1
REMARK minimizedAffinity 3.84277534
REMARK minimizedRMSD -1
REMARK  1 active torsions:
REMARK  status: ('A' for Active; 'I' for Inactive)
REMARK    1  A    between atoms: N_2  and  C1_3 
ROOT
ATOM      1  C1  UNL d   1       4.844   5.353   3.055  0.00  0.00     0.143 A 
ATOM      2  C2  UNL d   1       5.337   4.045   3.099  0.00  0.00    -0.057 A 
ATOM      3  C3  UNL d   1       5.826   3.414   1.949  0.00  0.00     0.033 A 
ATOM      4  C4  UNL d   1       5.803   4.073   0.724  0.00  0.00    -0.042 A 
ATOM      5  C5  UNL d   1       5.295   5.366   0.652  0.00  0.00     0.033 A 
ATOM      6  C6  UNL d   1       4.814   5.992   1.806  0.00  0.00    -0.057 A 
ENDROOT
BRANCH   1   7
ATOM      7  N   UNL d   1       4.253   5.999   4.145  0.00  0.00    -0.732 N 
ATOM      8  C   UNL d   1       4.895   5.993   5.442  0.00  0.00     0.284 C 
ATOM      9  H3  UNL d   1       3.841   6.893   3.889  0.00  0.00     0.395 HD
ENDBRANCH   1   7
TORSDOF 1
ENDMDL
