MODEL 1
REMARK minimizedAffinity 5.55735922
REMARK minimizedRMSD -1
REMARK  1 active torsions:
REMARK  status: ('A' for Active; 'I' for Inactive)
REMARK    1  A    between atoms: N_2  and  C1_3 
ROOT
ATOM      1  C1  UNL d   1      -1.049   3.498  -5.192  0.00  0.00     0.143 A 
ATOM      2  C2  UNL d   1      -2.384   3.630  -5.589  0.00  0.00    -0.057 A 
ATOM      3  C3  UNL d   1      -2.901   4.865  -5.999  0.00  0.00     0.033 A 
ATOM      4  C4  UNL d   1      -2.096   6.000  -5.991  0.00  0.00    -0.042 A 
ATOM      5  C5  UNL d   1      -0.773   5.897  -5.577  0.00  0.00     0.033 A 
ATOM      6  C6  UNL d   1      -0.261   4.660  -5.175  0.00  0.00    -0.057 A 
ENDROOT
BRANCH   1   7
ATOM      7  N   UNL d   1      -0.502   2.319  -4.681  0.00  0.00    -0.732 N 
ATOM      8  C   UNL d   1       0.696   2.353  -3.870  0.00  0.00     0.284 C 
ATOM      9  H3  UNL d   1      -1.214   1.675  -4.344  0.00  0.00     0.395 HD
ENDBRANCH   1   7
TORSDOF 1
ENDMDL
