MODEL 1
REMARK minimizedAffinity 13.0637798
REMARK minimizedRMSD -1
REMARK  1 active torsions:
REMARK  status: ('A' for Active; 'I' for Inactive)
REMARK    1  A    between atoms: N_2  and  C1_3 
ROOT
ATOM      1  C1  UNL d   1      -1.999   2.180   0.083  0.00  0.00     0.143 A 
ATOM      2  C2  UNL d   1      -2.564   1.445   1.132  0.00  0.00    -0.057 A 
ATOM      3  C3  UNL d   1      -3.948   1.255   1.222  0.00  0.00     0.033 A 
ATOM      4  C4  UNL d   1      -4.797   1.822   0.278  0.00  0.00    -0.042 A 
ATOM      5  C5  UNL d   1      -4.261   2.577  -0.759  0.00  0.00     0.033 A 
ATOM      6  C6  UNL d   1      -2.877   2.758  -0.847  0.00  0.00    -0.057 A 
ENDROOT
BRANCH   1   7
ATOM      7  N   UNL d   1      -0.640   2.487  -0.008  0.00  0.00    -0.732 N 
ATOM      8  C   UNL d   1       0.326   1.815   0.835  0.00  0.00     0.284 C 
ATOM      9  H3  UNL d   1      -0.334   2.616  -0.970  0.00  0.00     0.395 HD
ENDBRANCH   1   7
TORSDOF 1
ENDMDL
