MODEL 1
REMARK minimizedAffinity 8.27829838
REMARK minimizedRMSD -1
REMARK  1 active torsions:
REMARK  status: ('A' for Active; 'I' for Inactive)
REMARK    1  A    between atoms: N_2  and  C1_3 
ROOT
ATOM      1  C1  UNL d   1      -4.767  -5.327  -0.202  0.00  0.00     0.143 A 
ATOM      2  C2  UNL d   1      -4.291  -4.083   0.226  0.00  0.00    -0.057 A 
ATOM      3  C3  UNL d   1      -3.148  -3.508  -0.343  0.00  0.00     0.033 A 
ATOM      4  C4  UNL d   1      -2.443  -4.183  -1.334  0.00  0.00    -0.042 A 
ATOM      5  C5  UNL d   1      -2.884  -5.432  -1.758  0.00  0.00     0.033 A 
ATOM      6  C6  UNL d   1      -4.029  -5.998  -1.190  0.00  0.00    -0.057 A 
ENDROOT
BRANCH   1   7
ATOM      7  N   UNL d   1      -5.840  -5.996   0.393  0.00  0.00    -0.732 N 
ATOM      8  C   UNL d   1      -6.000  -6.000   1.831  0.00  0.00     0.284 C 
ATOM      9  H3  UNL d   1      -6.709  -5.872  -0.122  0.00  0.00     0.395 HD
ENDBRANCH   1   7
TORSDOF 1
ENDMDL
