MODEL 1
REMARK minimizedAffinity 4.61067438
REMARK minimizedRMSD -1
REMARK  1 active torsions:
REMARK  status: ('A' for Active; 'I' for Inactive)
REMARK    1  A    between atoms: N_2  and  C1_3 
ROOT
ATOM      1  C1  UNL d   1      -0.214   3.426  -5.071  0.00  0.00     0.143 A 
ATOM      2  C2  UNL d   1      -1.526   3.715  -5.463  0.00  0.00    -0.057 A 
ATOM      3  C3  UNL d   1      -1.879   4.984  -5.936  0.00  0.00     0.033 A 
ATOM      4  C4  UNL d   1      -0.930   5.999  -6.000  0.00  0.00    -0.042 A 
ATOM      5  C5  UNL d   1       0.374   5.742  -5.592  0.00  0.00     0.033 A 
ATOM      6  C6  UNL d   1       0.723   4.471  -5.126  0.00  0.00    -0.057 A 
ENDROOT
BRANCH   1   7
ATOM      7  N   UNL d   1       0.178   2.214  -4.499  0.00  0.00    -0.732 N 
ATOM      8  C   UNL d   1       1.409   2.118  -3.745  0.00  0.00     0.284 C 
ATOM      9  H3  UNL d   1      -0.603   1.709  -4.086  0.00  0.00     0.395 HD
ENDBRANCH   1   7
TORSDOF 1
ENDMDL
