MODEL 1
REMARK minimizedAffinity 4.87482595
REMARK minimizedRMSD -1
REMARK  1 active torsions:
REMARK  status: ('A' for Active; 'I' for Inactive)
REMARK    1  A    between atoms: N_2  and  C1_3 
ROOT
ATOM      1  C1  UNL d   1       0.853   2.654  -4.495  0.00  0.00     0.143 A 
ATOM      2  C2  UNL d   1      -0.422   2.078  -4.502  0.00  0.00    -0.057 A 
ATOM      3  C3  UNL d   1      -1.464   2.629  -5.258  0.00  0.00     0.033 A 
ATOM      4  C4  UNL d   1      -1.256   3.787  -6.000  0.00  0.00    -0.042 A 
ATOM      5  C5  UNL d   1      -0.003   4.391  -5.989  0.00  0.00     0.033 A 
ATOM      6  C6  UNL d   1       1.035   3.832  -5.237  0.00  0.00    -0.057 A 
ENDROOT
BRANCH   1   7
ATOM      7  N   UNL d   1       1.903   2.211  -3.687  0.00  0.00    -0.732 N 
ATOM      8  C   UNL d   1       2.248   0.806  -3.632  0.00  0.00     0.284 C 
ATOM      9  H3  UNL d   1       2.706   2.835  -3.716  0.00  0.00     0.395 HD
ENDBRANCH   1   7
TORSDOF 1
ENDMDL
