MODEL 1
REMARK minimizedAffinity -0.605632305
REMARK minimizedRMSD -1
REMARK  1 active torsions:
REMARK  status: ('A' for Active; 'I' for Inactive)
REMARK    1  A    between atoms: N_2  and  C1_3 
ROOT
ATOM      1  C1  UNL d   1       1.830   4.161  -4.374  0.00  0.00     0.143 A 
ATOM      2  C2  UNL d   1       1.193   3.259  -3.514  0.00  0.00    -0.057 A 
ATOM      3  C3  UNL d   1       1.805   2.828  -2.331  0.00  0.00     0.033 A 
ATOM      4  C4  UNL d   1       3.082   3.270  -2.000  0.00  0.00    -0.042 A 
ATOM      5  C5  UNL d   1       3.744   4.148  -2.852  0.00  0.00     0.033 A 
ATOM      6  C6  UNL d   1       3.125   4.580  -4.029  0.00  0.00    -0.057 A 
ENDROOT
BRANCH   1   7
ATOM      7  N   UNL d   1       1.315   4.551  -5.612  0.00  0.00    -0.732 N 
ATOM      8  C   UNL d   1      -0.095   4.836  -5.768  0.00  0.00     0.284 C 
ATOM      9  H3  UNL d   1       1.927   5.202  -6.100  0.00  0.00     0.395 HD
ENDBRANCH   1   7
TORSDOF 1
ENDMDL
