MODEL 1
REMARK minimizedAffinity 7.0924449
REMARK minimizedRMSD -1
REMARK  1 active torsions:
REMARK  status: ('A' for Active; 'I' for Inactive)
REMARK    1  A    between atoms: N_2  and  C1_3 
ROOT
ATOM      1  C1  UNL d   1      -2.251  -3.101   4.492  0.00  0.00     0.143 A 
ATOM      2  C2  UNL d   1      -1.320  -4.138   4.610  0.00  0.00    -0.057 A 
ATOM      3  C3  UNL d   1      -0.275  -4.284   3.690  0.00  0.00     0.033 A 
ATOM      4  C4  UNL d   1      -0.160  -3.409   2.614  0.00  0.00    -0.042 A 
ATOM      5  C5  UNL d   1      -1.089  -2.386   2.463  0.00  0.00     0.033 A 
ATOM      6  C6  UNL d   1      -2.126  -2.241   3.389  0.00  0.00    -0.057 A 
ENDROOT
BRANCH   1   7
ATOM      7  N   UNL d   1      -3.369  -2.961   5.318  0.00  0.00    -0.732 N 
ATOM      8  C   UNL d   1      -3.931  -4.109   5.999  0.00  0.00     0.284 C 
ATOM      9  H3  UNL d   1      -3.329  -2.119   5.887  0.00  0.00     0.395 HD
ENDBRANCH   1   7
TORSDOF 1
ENDMDL
