MODEL 1
REMARK minimizedAffinity 7.07302618
REMARK minimizedRMSD -1
REMARK  1 active torsions:
REMARK  status: ('A' for Active; 'I' for Inactive)
REMARK    1  A    between atoms: N_2  and  C1_3 
ROOT
ATOM      1  C1  UNL d   1      -2.690  -5.341  -0.934  0.00  0.00     0.143 A 
ATOM      2  C2  UNL d   1      -3.839  -5.999  -0.484  0.00  0.00    -0.057 A 
ATOM      3  C3  UNL d   1      -4.915  -5.290   0.063  0.00  0.00     0.033 A 
ATOM      4  C4  UNL d   1      -4.848  -3.907   0.196  0.00  0.00    -0.042 A 
ATOM      5  C5  UNL d   1      -3.706  -3.234  -0.222  0.00  0.00     0.033 A 
ATOM      6  C6  UNL d   1      -2.637  -3.947  -0.773  0.00  0.00    -0.057 A 
ENDROOT
BRANCH   1   7
ATOM      7  N   UNL d   1      -1.547  -5.998  -1.396  0.00  0.00    -0.732 N 
ATOM      8  C   UNL d   1      -1.206  -5.984  -2.803  0.00  0.00     0.284 C 
ATOM      9  H3  UNL d   1      -0.751  -5.877  -0.774  0.00  0.00     0.395 HD
ENDBRANCH   1   7
TORSDOF 1
ENDMDL
