MODEL 1
REMARK minimizedAffinity 13.3881226
REMARK minimizedRMSD -1
REMARK  1 active torsions:
REMARK  status: ('A' for Active; 'I' for Inactive)
REMARK    1  A    between atoms: N_2  and  C1_3 
ROOT
ATOM      1  C1  UNL d   1       2.904   1.910  -4.465  0.00  0.00     0.143 A 
ATOM      2  C2  UNL d   1       2.633   2.862  -3.476  0.00  0.00    -0.057 A 
ATOM      3  C3  UNL d   1       2.106   2.489  -2.234  0.00  0.00     0.033 A 
ATOM      4  C4  UNL d   1       1.812   1.155  -1.969  0.00  0.00    -0.042 A 
ATOM      5  C5  UNL d   1       2.049   0.195  -2.946  0.00  0.00     0.033 A 
ATOM      6  C6  UNL d   1       2.582   0.573  -4.182  0.00  0.00    -0.057 A 
ENDROOT
BRANCH   1   7
ATOM      7  N   UNL d   1       3.335   2.230  -5.755  0.00  0.00    -0.732 N 
ATOM      8  C   UNL d   1       4.105   3.430  -5.998  0.00  0.00     0.284 C 
ATOM      9  H3  UNL d   1       3.663   1.414  -6.268  0.00  0.00     0.395 HD
ENDBRANCH   1   7
TORSDOF 1
ENDMDL
