MODEL 1
REMARK minimizedAffinity -0.59485513
REMARK minimizedRMSD -1
REMARK  1 active torsions:
REMARK  status: ('A' for Active; 'I' for Inactive)
REMARK    1  A    between atoms: N_2  and  C1_3 
ROOT
ATOM      1  C1  UNL d   1      -3.166   5.030  -5.926  0.00  0.00     0.143 A 
ATOM      2  C2  UNL d   1      -1.856   5.517  -5.999  0.00  0.00    -0.057 A 
ATOM      3  C3  UNL d   1      -0.756   4.671  -5.817  0.00  0.00     0.033 A 
ATOM      4  C4  UNL d   1      -0.946   3.324  -5.529  0.00  0.00    -0.042 A 
ATOM      5  C5  UNL d   1      -2.239   2.822  -5.428  0.00  0.00     0.033 A 
ATOM      6  C6  UNL d   1      -3.334   3.671  -5.617  0.00  0.00    -0.057 A 
ENDROOT
BRANCH   1   7
ATOM      7  N   UNL d   1      -4.302   5.839  -6.000  0.00  0.00    -0.732 N 
ATOM      8  C   UNL d   1      -5.625   5.254  -5.996  0.00  0.00     0.284 C 
ATOM      9  H3  UNL d   1      -4.218   6.680  -5.433  0.00  0.00     0.395 HD
ENDBRANCH   1   7
TORSDOF 1
ENDMDL
