MODEL 1
REMARK minimizedAffinity 7.85657644
REMARK minimizedRMSD -1
REMARK  1 active torsions:
REMARK  status: ('A' for Active; 'I' for Inactive)
REMARK    1  A    between atoms: N_2  and  C1_3 
ROOT
ATOM      1  C1  UNL d   1      -1.051   4.512  -5.794  0.00  0.00     0.143 A 
ATOM      2  C2  UNL d   1      -0.634   3.268  -5.309  0.00  0.00    -0.057 A 
ATOM      3  C3  UNL d   1      -1.549   2.233  -5.081  0.00  0.00     0.033 A 
ATOM      4  C4  UNL d   1      -2.907   2.435  -5.308  0.00  0.00    -0.042 A 
ATOM      5  C5  UNL d   1      -3.347   3.671  -5.766  0.00  0.00     0.033 A 
ATOM      6  C6  UNL d   1      -2.428   4.698  -5.998  0.00  0.00    -0.057 A 
ENDROOT
BRANCH   1   7
ATOM      7  N   UNL d   1      -0.203   5.611  -5.947  0.00  0.00    -0.732 N 
ATOM      8  C   UNL d   1       1.233   5.437  -5.966  0.00  0.00     0.284 C 
ATOM      9  H3  UNL d   1      -0.550   6.277  -6.634  0.00  0.00     0.395 HD
ENDBRANCH   1   7
TORSDOF 1
ENDMDL
