MODEL 1
REMARK minimizedAffinity 9.81502819
REMARK minimizedRMSD -1
REMARK  0 active torsions:
REMARK  status: ('A' for Active; 'I' for Inactive)
ROOT
ATOM      1  C   UNL d   1       0.347  -0.522   3.532  0.00  0.00     0.077 C 
ATOM      2  C1  UNL d   1      -0.450  -0.405   2.267  0.00  0.00    -0.074 A 
ATOM      3  C2  UNL d   1       0.183  -0.262   1.029  0.00  0.00    -0.005 A 
ATOM      4  C3  UNL d   1      -0.572  -0.164  -0.140  0.00  0.00     0.006 A 
ATOM      5  C4  UNL d   1      -1.965  -0.207  -0.082  0.00  0.00    -0.005 A 
ATOM      6  C5  UNL d   1      -2.616  -0.350   1.147  0.00  0.00    -0.074 A 
ATOM      7  C6  UNL d   1      -4.113  -0.409   1.226  0.00  0.00     0.077 C 
ATOM      8  C7  UNL d   1      -1.850  -0.456   2.316  0.00  0.00    -0.001 A 
ENDROOT
TORSDOF 0
ENDMDL
