MODEL 1
REMARK minimizedAffinity 1.07904494
REMARK minimizedRMSD -1
REMARK  0 active torsions:
REMARK  status: ('A' for Active; 'I' for Inactive)
ROOT
ATOM      1  C   UNL d   1      -1.436  -2.903   3.825  0.00  0.00     0.077 C 
ATOM      2  C1  UNL d   1      -0.380  -2.702   2.779  0.00  0.00    -0.074 A 
ATOM      3  C2  UNL d   1       0.601  -3.673   2.553  0.00  0.00    -0.005 A 
ATOM      4  C3  UNL d   1       1.571  -3.477   1.570  0.00  0.00     0.006 A 
ATOM      5  C4  UNL d   1       1.570  -2.310   0.805  0.00  0.00    -0.005 A 
ATOM      6  C5  UNL d   1       0.596  -1.328   1.016  0.00  0.00    -0.074 A 
ATOM      7  C6  UNL d   1       0.574  -0.073   0.196  0.00  0.00     0.077 C 
ATOM      8  C7  UNL d   1      -0.379  -1.536   2.001  0.00  0.00    -0.001 A 
ENDROOT
TORSDOF 0
ENDMDL
