MODEL 1
REMARK minimizedAffinity 1.85601521
REMARK minimizedRMSD -1
REMARK  0 active torsions:
REMARK  status: ('A' for Active; 'I' for Inactive)
ROOT
ATOM      1  C   UNL d   1       1.683  -3.767   1.804  0.00  0.00     0.077 C 
ATOM      2  C1  UNL d   1       0.762  -2.594   1.644  0.00  0.00    -0.074 A 
ATOM      3  C2  UNL d   1      -0.092  -2.203   2.680  0.00  0.00    -0.005 A 
ATOM      4  C3  UNL d   1      -0.936  -1.104   2.520  0.00  0.00     0.006 A 
ATOM      5  C4  UNL d   1      -0.934  -0.386   1.323  0.00  0.00    -0.005 A 
ATOM      6  C5  UNL d   1      -0.086  -0.761   0.277  0.00  0.00    -0.074 A 
ATOM      7  C6  UNL d   1      -0.065   0.006  -1.012  0.00  0.00     0.077 C 
ATOM      8  C7  UNL d   1       0.764  -1.862   0.448  0.00  0.00    -0.001 A 
ENDROOT
TORSDOF 0
ENDMDL
