MODEL 1
REMARK minimizedAffinity 3.87790465
REMARK minimizedRMSD -1
REMARK  0 active torsions:
REMARK  status: ('A' for Active; 'I' for Inactive)
ROOT
ATOM      1  C   UNL d   1      -3.026   0.091   2.588  0.00  0.00     0.077 C 
ATOM      2  C1  UNL d   1      -1.720  -0.376   2.016  0.00  0.00    -0.074 A 
ATOM      3  C2  UNL d   1      -1.151   0.263   0.910  0.00  0.00    -0.005 A 
ATOM      4  C3  UNL d   1       0.069  -0.176   0.395  0.00  0.00     0.006 A 
ATOM      5  C4  UNL d   1       0.730  -1.257   0.980  0.00  0.00    -0.005 A 
ATOM      6  C5  UNL d   1       0.177  -1.907   2.087  0.00  0.00    -0.074 A 
ATOM      7  C6  UNL d   1       0.879  -3.064   2.734  0.00  0.00     0.077 C 
ATOM      8  C7  UNL d   1      -1.046  -1.456   2.603  0.00  0.00    -0.001 A 
ENDROOT
TORSDOF 0
ENDMDL
