MODEL 1
REMARK minimizedAffinity 7.23030615
REMARK minimizedRMSD -1
REMARK  0 active torsions:
REMARK  status: ('A' for Active; 'I' for Inactive)
ROOT
ATOM      1  C   UNL d   1      -0.159  -0.023   1.298  0.00  0.00     0.077 C 
ATOM      2  C1  UNL d   1      -0.196  -1.374   1.949  0.00  0.00    -0.074 A 
ATOM      3  C2  UNL d   1       0.741  -2.357   1.617  0.00  0.00    -0.005 A 
ATOM      4  C3  UNL d   1       0.700  -3.606   2.239  0.00  0.00     0.006 A 
ATOM      5  C4  UNL d   1      -0.276  -3.882   3.196  0.00  0.00    -0.005 A 
ATOM      6  C5  UNL d   1      -1.221  -2.911   3.541  0.00  0.00    -0.074 A 
ATOM      7  C6  UNL d   1      -2.271  -3.189   4.576  0.00  0.00     0.077 C 
ATOM      8  C7  UNL d   1      -1.169  -1.657   2.918  0.00  0.00    -0.001 A 
ENDROOT
TORSDOF 0
ENDMDL
