MODEL 1
REMARK minimizedAffinity -2.43787336
REMARK minimizedRMSD -1
REMARK  0 active torsions:
REMARK  status: ('A' for Active; 'I' for Inactive)
ROOT
ATOM      1  C   UNL d   1       2.194   5.996   5.999  0.00  0.00     0.077 C 
ATOM      2  C1  UNL d   1       2.729   5.610   4.652  0.00  0.00    -0.074 A 
ATOM      3  C2  UNL d   1       1.929   5.698   3.508  0.00  0.00    -0.005 A 
ATOM      4  C3  UNL d   1       2.444   5.345   2.261  0.00  0.00     0.006 A 
ATOM      5  C4  UNL d   1       3.762   4.902   2.144  0.00  0.00    -0.005 A 
ATOM      6  C5  UNL d   1       4.577   4.809   3.277  0.00  0.00    -0.074 A 
ATOM      7  C6  UNL d   1       5.999   4.343   3.168  0.00  0.00     0.077 C 
ATOM      8  C7  UNL d   1       4.055   5.172   4.526  0.00  0.00    -0.001 A 
ENDROOT
TORSDOF 0
ENDMDL
