MODEL 1
REMARK minimizedAffinity 4.38349342
REMARK minimizedRMSD -1
REMARK  0 active torsions:
REMARK  status: ('A' for Active; 'I' for Inactive)
ROOT
ATOM      1  C   UNL d   1       1.536  -0.708  -0.302  0.00  0.00     0.077 C 
ATOM      2  C1  UNL d   1       1.188  -1.722   0.747  0.00  0.00    -0.074 A 
ATOM      3  C2  UNL d   1       1.847  -2.954   0.802  0.00  0.00    -0.005 A 
ATOM      4  C3  UNL d   1       1.520  -3.884   1.789  0.00  0.00     0.006 A 
ATOM      5  C4  UNL d   1       0.531  -3.592   2.729  0.00  0.00    -0.005 A 
ATOM      6  C5  UNL d   1      -0.139  -2.365   2.690  0.00  0.00    -0.074 A 
ATOM      7  C6  UNL d   1      -1.197  -2.031   3.699  0.00  0.00     0.077 C 
ATOM      8  C7  UNL d   1       0.201  -1.433   1.700  0.00  0.00    -0.001 A 
ENDROOT
TORSDOF 0
ENDMDL
