MODEL 1
REMARK minimizedAffinity 0.311054051
REMARK minimizedRMSD -1
REMARK  0 active torsions:
REMARK  status: ('A' for Active; 'I' for Inactive)
ROOT
ATOM      1  C   UNL d   1       2.299  -3.969   1.193  0.00  0.00     0.077 C 
ATOM      2  C1  UNL d   1       1.234  -2.931   1.381  0.00  0.00    -0.074 A 
ATOM      3  C2  UNL d   1       1.170  -1.807   0.551  0.00  0.00    -0.005 A 
ATOM      4  C3  UNL d   1       0.168  -0.854   0.732  0.00  0.00     0.006 A 
ATOM      5  C4  UNL d   1      -0.780  -1.015   1.743  0.00  0.00    -0.005 A 
ATOM      6  C5  UNL d   1      -0.733  -2.132   2.583  0.00  0.00    -0.074 A 
ATOM      7  C6  UNL d   1      -1.749  -2.325   3.669  0.00  0.00     0.077 C 
ATOM      8  C7  UNL d   1       0.273  -3.089   2.390  0.00  0.00    -0.001 A 
ENDROOT
TORSDOF 0
ENDMDL
