MODEL 1
REMARK minimizedAffinity 2.93333578
REMARK minimizedRMSD -1
REMARK  0 active torsions:
REMARK  status: ('A' for Active; 'I' for Inactive)
ROOT
ATOM      1  C   UNL d   1       1.750  -3.216   1.111  0.00  0.00     0.077 C 
ATOM      2  C1  UNL d   1       0.808  -2.051   1.163  0.00  0.00    -0.074 A 
ATOM      3  C2  UNL d   1       0.770  -1.110   0.129  0.00  0.00    -0.005 A 
ATOM      4  C3  UNL d   1      -0.118  -0.036   0.187  0.00  0.00     0.006 A 
ATOM      5  C4  UNL d   1      -0.975   0.108   1.279  0.00  0.00    -0.005 A 
ATOM      6  C5  UNL d   1      -0.952  -0.823   2.322  0.00  0.00    -0.074 A 
ATOM      7  C6  UNL d   1      -1.874  -0.688   3.498  0.00  0.00     0.077 C 
ATOM      8  C7  UNL d   1      -0.062  -1.903   2.253  0.00  0.00    -0.001 A 
ENDROOT
TORSDOF 0
ENDMDL
