MODEL 1
REMARK minimizedAffinity -5.0158391
REMARK minimizedRMSD -1
REMARK  0 active torsions:
REMARK  status: ('A' for Active; 'I' for Inactive)
ROOT
ATOM      1  N1  IND d   1      -0.855  -0.381  -0.894  0.00  0.00    -0.196 N 
ATOM      2  C2  IND d   1       0.360  -0.819  -1.343  0.00  0.00     0.054 A 
ATOM      3  C3  IND d   1       1.324  -0.542  -0.436  0.00  0.00    -0.031 A 
ATOM      4  C4  IND d   1       1.116   0.531   1.895  0.00  0.00     0.051 A 
ATOM      5  C5  IND d   1       0.214   1.129   2.729  0.00  0.00    -0.031 A 
ATOM      6  C6  IND d   1      -1.119   1.254   2.393  0.00  0.00     0.015 A 
ATOM      7  C7  IND d   1      -1.602   0.774   1.209  0.00  0.00    -0.016 A 
ATOM      8  C8  IND d   1      -0.687   0.172   0.356  0.00  0.00    -0.047 A 
ATOM      9  C9  IND d   1       0.674   0.081   0.674  0.00  0.00    -0.096 A 
ATOM     10  HN1 IND d   1      -1.599  -0.441  -1.322  0.00  0.00     0.298 HD
ENDROOT
TORSDOF 0
ENDMDL
