MODEL 1
REMARK minimizedAffinity -2.25539756
REMARK minimizedRMSD -1
REMARK  0 active torsions:
REMARK  status: ('A' for Active; 'I' for Inactive)
ROOT
ATOM      1  N1  IND d   1       1.037   0.330   0.502  0.00  0.00    -0.196 N 
ATOM      2  C2  IND d   1       0.798  -0.357  -0.655  0.00  0.00     0.054 A 
ATOM      3  C3  IND d   1      -0.493  -0.757  -0.707  0.00  0.00    -0.031 A 
ATOM      4  C4  IND d   1      -2.412  -0.307   0.948  0.00  0.00     0.051 A 
ATOM      5  C5  IND d   1      -2.673   0.245   2.171  0.00  0.00    -0.031 A 
ATOM      6  C6  IND d   1      -1.691   0.868   2.914  0.00  0.00     0.015 A 
ATOM      7  C7  IND d   1      -0.409   0.974   2.454  0.00  0.00    -0.016 A 
ATOM      8  C8  IND d   1      -0.139   0.408   1.216  0.00  0.00    -0.047 A 
ATOM      9  C9  IND d   1      -1.121  -0.263   0.477  0.00  0.00    -0.096 A 
ATOM     10  HN1 IND d   1       1.794   0.658   0.744  0.00  0.00     0.298 HD
ENDROOT
TORSDOF 0
ENDMDL
