MODEL 1
REMARK minimizedAffinity -1.09359884
REMARK minimizedRMSD -1
REMARK  0 active torsions:
REMARK  status: ('A' for Active; 'I' for Inactive)
ROOT
ATOM      1  N1  IND d   1       1.443  -0.835  -0.709  0.00  0.00    -0.196 N 
ATOM      2  C2  IND d   1       0.690  -0.527  -1.808  0.00  0.00     0.054 A 
ATOM      3  C3  IND d   1      -0.368   0.237  -1.455  0.00  0.00    -0.031 A 
ATOM      4  C4  IND d   1      -1.002   1.185   0.853  0.00  0.00     0.051 A 
ATOM      5  C5  IND d   1      -0.639   1.148   2.170  0.00  0.00    -0.031 A 
ATOM      6  C6  IND d   1       0.460   0.435   2.603  0.00  0.00     0.015 A 
ATOM      7  C7  IND d   1       1.247  -0.261   1.729  0.00  0.00    -0.016 A 
ATOM      8  C8  IND d   1       0.878  -0.230   0.392  0.00  0.00    -0.047 A 
ATOM      9  C9  IND d   1      -0.261   0.457  -0.047  0.00  0.00    -0.096 A 
ATOM     10  HN1 IND d   1       2.150  -1.324  -0.706  0.00  0.00     0.298 HD
ENDROOT
TORSDOF 0
ENDMDL
