MODEL 1
REMARK minimizedAffinity -3.06839752
REMARK minimizedRMSD -1
REMARK  0 active torsions:
REMARK  status: ('A' for Active; 'I' for Inactive)
ROOT
ATOM      1  N1  IND d   1      -2.496   0.417   0.935  0.00  0.00    -0.196 N 
ATOM      2  C2  IND d   1      -2.320  -0.280  -0.227  0.00  0.00     0.054 A 
ATOM      3  C3  IND d   1      -1.003  -0.411  -0.502  0.00  0.00    -0.031 A 
ATOM      4  C4  IND d   1       1.038   0.352   0.869  0.00  0.00     0.051 A 
ATOM      5  C5  IND d   1       1.381   1.062   1.986  0.00  0.00    -0.031 A 
ATOM      6  C6  IND d   1       0.430   1.602   2.827  0.00  0.00     0.015 A 
ATOM      7  C7  IND d   1      -0.905   1.441   2.589  0.00  0.00    -0.016 A 
ATOM      8  C8  IND d   1      -1.258   0.727   1.452  0.00  0.00    -0.047 A 
ATOM      9  C9  IND d   1      -0.297   0.214   0.572  0.00  0.00    -0.096 A 
ATOM     10  HN1 IND d   1      -3.253   0.627   1.284  0.00  0.00     0.298 HD
ENDROOT
TORSDOF 0
ENDMDL
