MODEL 1
REMARK minimizedAffinity -4.79109049
REMARK minimizedRMSD -1
REMARK  0 active torsions:
REMARK  status: ('A' for Active; 'I' for Inactive)
ROOT
ATOM      1  N1  IND d   1       1.477  -0.152   0.391  0.00  0.00    -0.196 N 
ATOM      2  C2  IND d   1       1.050  -0.658  -0.805  0.00  0.00     0.054 A 
ATOM      3  C3  IND d   1      -0.292  -0.535  -0.916  0.00  0.00    -0.031 A 
ATOM      4  C4  IND d   1      -1.973   0.557   0.699  0.00  0.00     0.051 A 
ATOM      5  C5  IND d   1      -2.062   1.126   1.939  0.00  0.00    -0.031 A 
ATOM      6  C6  IND d   1      -0.953   1.305   2.741  0.00  0.00     0.015 A 
ATOM      7  C7  IND d   1       0.293   0.929   2.326  0.00  0.00    -0.016 A 
ATOM      8  C8  IND d   1       0.386   0.344   1.071  0.00  0.00    -0.047 A 
ATOM      9  C9  IND d   1      -0.741   0.122   0.271  0.00  0.00    -0.096 A 
ATOM     10  HN1 IND d   1       2.289  -0.145   0.671  0.00  0.00     0.298 HD
ENDROOT
TORSDOF 0
ENDMDL
