MODEL 1
REMARK minimizedAffinity -3.45734644
REMARK minimizedRMSD -1
REMARK  0 active torsions:
REMARK  status: ('A' for Active; 'I' for Inactive)
ROOT
ATOM      1  N1  IND d   1       1.141   0.612   0.270  0.00  0.00    -0.196 N 
ATOM      2  C2  IND d   1       0.810  -0.142  -0.821  0.00  0.00     0.054 A 
ATOM      3  C3  IND d   1      -0.482  -0.534  -0.747  0.00  0.00    -0.031 A 
ATOM      4  C4  IND d   1      -2.264   0.031   1.023  0.00  0.00     0.051 A 
ATOM      5  C5  IND d   1      -2.426   0.658   2.226  0.00  0.00    -0.031 A 
ATOM      6  C6  IND d   1      -1.387   1.318   2.851  0.00  0.00     0.015 A 
ATOM      7  C7  IND d   1      -0.145   1.384   2.286  0.00  0.00    -0.016 A 
ATOM      8  C8  IND d   1       0.025   0.743   1.068  0.00  0.00    -0.047 A 
ATOM      9  C9  IND d   1      -1.014   0.036   0.450  0.00  0.00    -0.096 A 
ATOM     10  HN1 IND d   1       1.916   0.948   0.431  0.00  0.00     0.298 HD
ENDROOT
TORSDOF 0
ENDMDL
