MODEL 1
REMARK minimizedAffinity -5.3940587
REMARK minimizedRMSD -1
REMARK  0 active torsions:
REMARK  status: ('A' for Active; 'I' for Inactive)
ROOT
ATOM      1  N1  IND d   1       1.129   0.342   0.286  0.00  0.00    -0.196 N 
ATOM      2  C2  IND d   1       0.854  -0.420  -0.815  0.00  0.00     0.054 A 
ATOM      3  C3  IND d   1      -0.458  -0.747  -0.845  0.00  0.00    -0.031 A 
ATOM      4  C4  IND d   1      -2.353  -0.057   0.754  0.00  0.00     0.051 A 
ATOM      5  C5  IND d   1      -2.585   0.605   1.928  0.00  0.00    -0.031 A 
ATOM      6  C6  IND d   1      -1.571   1.227   2.626  0.00  0.00     0.015 A 
ATOM      7  C7  IND d   1      -0.283   1.221   2.170  0.00  0.00    -0.016 A 
ATOM      8  C8  IND d   1      -0.043   0.544   0.983  0.00  0.00    -0.047 A 
ATOM      9  C9  IND d   1      -1.060  -0.126   0.291  0.00  0.00    -0.096 A 
ATOM     10  HN1 IND d   1       1.903   0.643   0.507  0.00  0.00     0.298 HD
ENDROOT
TORSDOF 0
ENDMDL
