MODEL 1
REMARK minimizedAffinity 6.52150154
REMARK minimizedRMSD -1
REMARK  1 active torsions:
REMARK  status: ('A' for Active; 'I' for Inactive)
REMARK    1  A    between atoms: C1_2  and  C2_3 
ROOT
ATOM      1  C2  UNL d   1      -0.955   2.632   0.758  0.00  0.00    -0.081 A 
ATOM      2  C3  UNL d   1      -2.294   2.224   0.796  0.00  0.00     0.006 A 
ATOM      3  C4  UNL d   1      -2.680   1.135   1.581  0.00  0.00     0.002 A 
ATOM      4  C5  UNL d   1      -1.737   0.441   2.346  0.00  0.00    -0.080 A 
ATOM      5  C6  UNL d   1      -2.143  -0.711   3.216  0.00  0.00     0.076 C 
ATOM      6  C7  UNL d   1      -0.396   0.838   2.295  0.00  0.00     0.002 A 
ATOM      7  C8  UNL d   1      -0.009   1.927   1.510  0.00  0.00     0.006 A 
ENDROOT
BRANCH   1   8
ATOM      8  C1  UNL d   1      -0.547   3.846  -0.037  0.00  0.00     0.054 C 
ATOM      9  C   UNL d   1       0.252   3.455  -1.272  0.00  0.00     0.018 C 
ENDBRANCH   1   8
TORSDOF 1
ENDMDL
