MODEL 1
REMARK minimizedAffinity 5.5661912
REMARK minimizedRMSD -1
REMARK  1 active torsions:
REMARK  status: ('A' for Active; 'I' for Inactive)
REMARK    1  A    between atoms: C1_2  and  C2_3 
ROOT
ATOM      1  C2  UNL d   1       0.134   3.607   0.683  0.00  0.00    -0.081 A 
ATOM      2  C3  UNL d   1      -1.032   3.087   0.109  0.00  0.00     0.006 A 
ATOM      3  C4  UNL d   1      -1.721   2.041   0.728  0.00  0.00     0.002 A 
ATOM      4  C5  UNL d   1      -1.260   1.504   1.935  0.00  0.00    -0.080 A 
ATOM      5  C6  UNL d   1      -2.006   0.402   2.626  0.00  0.00     0.076 C 
ATOM      6  C7  UNL d   1      -0.085   2.012   2.500  0.00  0.00     0.002 A 
ATOM      7  C8  UNL d   1       0.605   3.057   1.880  0.00  0.00     0.006 A 
ENDROOT
BRANCH   1   8
ATOM      8  C1  UNL d   1       0.844   4.778   0.051  0.00  0.00     0.054 C 
ATOM      9  C   UNL d   1       0.551   4.862  -1.441  0.00  0.00     0.018 C 
ENDBRANCH   1   8
TORSDOF 1
ENDMDL
