MODEL 1
REMARK minimizedAffinity 3.12049484
REMARK minimizedRMSD -1
REMARK  1 active torsions:
REMARK  status: ('A' for Active; 'I' for Inactive)
REMARK    1  A    between atoms: C1_2  and  C2_3 
ROOT
ATOM      1  C2  UNL d   1      -0.738   1.437   1.581  0.00  0.00    -0.081 A 
ATOM      2  C3  UNL d   1      -1.054   2.180   0.437  0.00  0.00     0.006 A 
ATOM      3  C4  UNL d   1      -0.161   2.244  -0.635  0.00  0.00     0.002 A 
ATOM      4  C5  UNL d   1       1.058   1.559  -0.585  0.00  0.00    -0.080 A 
ATOM      5  C6  UNL d   1       2.012   1.594  -1.742  0.00  0.00     0.076 C 
ATOM      6  C7  UNL d   1       1.381   0.830   0.564  0.00  0.00     0.002 A 
ATOM      7  C8  UNL d   1       0.489   0.767   1.637  0.00  0.00     0.006 A 
ENDROOT
BRANCH   1   8
ATOM      8  C1  UNL d   1      -1.727   1.314   2.712  0.00  0.00     0.054 C 
ATOM      9  C   UNL d   1      -2.971   0.552   2.279  0.00  0.00     0.018 C 
ENDBRANCH   1   8
TORSDOF 1
ENDMDL
