MODEL 1
REMARK minimizedAffinity 3.06820726
REMARK minimizedRMSD -1
REMARK  1 active torsions:
REMARK  status: ('A' for Active; 'I' for Inactive)
REMARK    1  A    between atoms: C1_2  and  C2_3 
ROOT
ATOM      1  C2  UNL d   1      -0.897   1.269   1.449  0.00  0.00    -0.081 A 
ATOM      2  C3  UNL d   1      -1.113   2.592   1.045  0.00  0.00     0.006 A 
ATOM      3  C4  UNL d   1      -0.523   3.080  -0.124  0.00  0.00     0.002 A 
ATOM      4  C5  UNL d   1       0.284   2.252  -0.911  0.00  0.00    -0.080 A 
ATOM      5  C6  UNL d   1       0.898   2.755  -2.184  0.00  0.00     0.076 C 
ATOM      6  C7  UNL d   1       0.514   0.935  -0.498  0.00  0.00     0.002 A 
ATOM      7  C8  UNL d   1      -0.075   0.447   0.671  0.00  0.00     0.006 A 
ENDROOT
BRANCH   1   8
ATOM      8  C1  UNL d   1      -1.583   0.721   2.675  0.00  0.00     0.054 C 
ATOM      9  C   UNL d   1      -1.606  -0.801   2.662  0.00  0.00     0.018 C 
ENDBRANCH   1   8
TORSDOF 1
ENDMDL
