MODEL 1
REMARK minimizedAffinity 8.21769524
REMARK minimizedRMSD -1
REMARK  1 active torsions:
REMARK  status: ('A' for Active; 'I' for Inactive)
REMARK    1  A    between atoms: C1_2  and  C2_3 
ROOT
ATOM      1  C2  UNL d   1      -1.455  -3.571   4.841  0.00  0.00    -0.081 A 
ATOM      2  C3  UNL d   1      -1.925  -2.643   3.904  0.00  0.00     0.006 A 
ATOM      3  C4  UNL d   1      -3.212  -2.111   4.018  0.00  0.00     0.002 A 
ATOM      4  C5  UNL d   1      -4.047  -2.493   5.074  0.00  0.00    -0.080 A 
ATOM      5  C6  UNL d   1      -5.420  -1.908   5.225  0.00  0.00     0.076 C 
ATOM      6  C7  UNL d   1      -3.584  -3.434   6.000  0.00  0.00     0.002 A 
ATOM      7  C8  UNL d   1      -2.298  -3.966   5.886  0.00  0.00     0.006 A 
ENDROOT
BRANCH   1   8
ATOM      8  C1  UNL d   1      -0.045  -4.097   4.758  0.00  0.00     0.054 C 
ATOM      9  C   UNL d   1       0.321  -4.897   6.000  0.00  0.00     0.018 C 
ENDBRANCH   1   8
TORSDOF 1
ENDMDL
