MODEL 1
REMARK minimizedAffinity 6.05005884
REMARK minimizedRMSD -1
REMARK  1 active torsions:
REMARK  status: ('A' for Active; 'I' for Inactive)
REMARK    1  A    between atoms: C1_2  and  C2_3 
ROOT
ATOM      1  C2  UNL d   1      -2.155  -1.681   3.466  0.00  0.00    -0.081 A 
ATOM      2  C3  UNL d   1      -2.982  -2.350   4.377  0.00  0.00     0.006 A 
ATOM      3  C4  UNL d   1      -2.467  -3.363   5.189  0.00  0.00     0.002 A 
ATOM      4  C5  UNL d   1      -1.116  -3.719   5.109  0.00  0.00    -0.080 A 
ATOM      5  C6  UNL d   1      -0.544  -4.784   5.997  0.00  0.00     0.076 C 
ATOM      6  C7  UNL d   1      -0.294  -3.063   4.187  0.00  0.00     0.002 A 
ATOM      7  C8  UNL d   1      -0.808  -2.050   3.374  0.00  0.00     0.006 A 
ENDROOT
BRANCH   1   8
ATOM      8  C1  UNL d   1      -2.692  -0.544   2.635  0.00  0.00     0.054 C 
ATOM      9  C   UNL d   1      -1.591   0.439   2.265  0.00  0.00     0.018 C 
ENDBRANCH   1   8
TORSDOF 1
ENDMDL
