MODEL 1
REMARK minimizedAffinity 5.96347618
REMARK minimizedRMSD -1
REMARK  1 active torsions:
REMARK  status: ('A' for Active; 'I' for Inactive)
REMARK    1  A    between atoms: C1_2  and  C2_3 
ROOT
ATOM      1  C2  UNL d   1       0.476   1.148  -0.605  0.00  0.00    -0.081 A 
ATOM      2  C3  UNL d   1       1.128   0.666   0.537  0.00  0.00     0.006 A 
ATOM      3  C4  UNL d   1       0.816   1.176   1.799  0.00  0.00     0.002 A 
ATOM      4  C5  UNL d   1      -0.157   2.171   1.942  0.00  0.00    -0.080 A 
ATOM      5  C6  UNL d   1      -0.523   2.706   3.294  0.00  0.00     0.076 C 
ATOM      6  C7  UNL d   1      -0.796   2.665   0.799  0.00  0.00     0.002 A 
ATOM      7  C8  UNL d   1      -0.484   2.155  -0.463  0.00  0.00     0.006 A 
ENDROOT
BRANCH   1   8
ATOM      8  C1  UNL d   1       0.764   0.554  -1.960  0.00  0.00     0.054 C 
ATOM      9  C   UNL d   1      -0.410  -0.276  -2.461  0.00  0.00     0.018 C 
ENDBRANCH   1   8
TORSDOF 1
ENDMDL
