MODEL 1
REMARK minimizedAffinity 15.3766356
REMARK minimizedRMSD -1
REMARK  1 active torsions:
REMARK  status: ('A' for Active; 'I' for Inactive)
REMARK    1  A    between atoms: C1_2  and  C2_3 
ROOT
ATOM      1  C2  UNL d   1       0.221   2.637   2.189  0.00  0.00    -0.081 A 
ATOM      2  C3  UNL d   1       0.892   1.471   1.801  0.00  0.00     0.006 A 
ATOM      3  C4  UNL d   1       0.287   0.221   1.960  0.00  0.00     0.002 A 
ATOM      4  C5  UNL d   1      -0.999   0.118   2.500  0.00  0.00    -0.080 A 
ATOM      5  C6  UNL d   1      -1.671  -1.215   2.647  0.00  0.00     0.076 C 
ATOM      6  C7  UNL d   1      -1.662   1.282   2.903  0.00  0.00     0.002 A 
ATOM      7  C8  UNL d   1      -1.058   2.532   2.746  0.00  0.00     0.006 A 
ENDROOT
BRANCH   1   8
ATOM      8  C1  UNL d   1       0.844   3.991   1.960  0.00  0.00     0.054 C 
ATOM      9  C   UNL d   1       0.148   4.736   0.830  0.00  0.00     0.018 C 
ENDBRANCH   1   8
TORSDOF 1
ENDMDL
