MODEL 1
REMARK minimizedAffinity -2.03985548
REMARK minimizedRMSD -1
REMARK  2 active torsions:
REMARK  status: ('A' for Active; 'I' for Inactive)
REMARK    1  A    between atoms: C1_2  and  C2_3 
REMARK    2  A    between atoms: C2_3  and  C3_4 
ROOT
ATOM      1  C3  UNL d   1       5.958   1.753   3.630  0.00  0.00    -0.075 A 
ATOM      2  C4  UNL d   1       5.888   0.481   3.044  0.00  0.00     0.002 A 
ATOM      3  C5  UNL d   1       5.836  -0.664   3.840  0.00  0.00     0.002 A 
ATOM      4  C6  UNL d   1       5.863  -0.552   5.228  0.00  0.00    -0.004 A 
ATOM      5  C7  UNL d   1       5.950   0.706   5.821  0.00  0.00     0.002 A 
ATOM      6  C8  UNL d   1       5.998   1.853   5.027  0.00  0.00     0.002 A 
ENDROOT
BRANCH   1   7
ATOM      7  C2  UNL d   1       5.986   2.997   2.774  0.00  0.00     0.056 C 
BRANCH   7   8
ATOM      8  C1  UNL d   1       5.218   4.181   3.371  0.00  0.00     0.007 C 
ATOM      9  C   UNL d   1       5.996   5.489   3.318  0.00  0.00     0.009 C 
ENDBRANCH   7   8
ENDBRANCH   1   7
TORSDOF 2
ENDMDL
