MODEL 1
REMARK minimizedAffinity 6.45247889
REMARK minimizedRMSD -1
REMARK  2 active torsions:
REMARK  status: ('A' for Active; 'I' for Inactive)
REMARK    1  A    between atoms: C1_2  and  C2_3 
REMARK    2  A    between atoms: C2_3  and  C3_4 
ROOT
ATOM      1  C3  UNL d   1       5.942   4.697   2.645  0.00  0.00    -0.075 A 
ATOM      2  C4  UNL d   1       5.965   5.937   3.301  0.00  0.00     0.002 A 
ATOM      3  C5  UNL d   1       5.994   6.000   4.694  0.00  0.00     0.002 A 
ATOM      4  C6  UNL d   1       5.989   4.828   5.448  0.00  0.00    -0.004 A 
ATOM      5  C7  UNL d   1       5.950   3.592   4.807  0.00  0.00     0.002 A 
ATOM      6  C8  UNL d   1       5.926   3.526   3.413  0.00  0.00     0.002 A 
ENDROOT
BRANCH   1   7
ATOM      7  C2  UNL d   1       5.941   4.622   1.137  0.00  0.00     0.056 C 
BRANCH   7   8
ATOM      8  C1  UNL d   1       5.932   5.988   0.443  0.00  0.00     0.007 C 
ATOM      9  C   UNL d   1       5.148   5.994  -0.862  0.00  0.00     0.009 C 
ENDBRANCH   7   8
ENDBRANCH   1   7
TORSDOF 2
ENDMDL
