MODEL 1
REMARK minimizedAffinity -3.97909522
REMARK minimizedRMSD -1
REMARK  2 active torsions:
REMARK  status: ('A' for Active; 'I' for Inactive)
REMARK    1  A    between atoms: C1_2  and  C2_3 
REMARK    2  A    between atoms: C2_3  and  C3_4 
ROOT
ATOM      1  C3  UNL d   1       5.073   2.237   4.402  0.00  0.00    -0.075 A 
ATOM      2  C4  UNL d   1       5.624   1.460   3.373  0.00  0.00     0.002 A 
ATOM      3  C5  UNL d   1       5.996   0.136   3.606  0.00  0.00     0.002 A 
ATOM      4  C6  UNL d   1       5.833  -0.424   4.871  0.00  0.00    -0.004 A 
ATOM      5  C7  UNL d   1       5.303   0.344   5.906  0.00  0.00     0.002 A 
ATOM      6  C8  UNL d   1       4.925   1.668   5.674  0.00  0.00     0.002 A 
ENDROOT
BRANCH   1   7
ATOM      7  C2  UNL d   1       4.641   3.662   4.149  0.00  0.00     0.056 C 
BRANCH   7   8
ATOM      8  C1  UNL d   1       5.762   4.571   3.633  0.00  0.00     0.007 C 
ATOM      9  C   UNL d   1       5.994   5.794   4.510  0.00  0.00     0.009 C 
ENDBRANCH   7   8
ENDBRANCH   1   7
TORSDOF 2
ENDMDL
