MODEL 1
REMARK minimizedAffinity -2.29253888
REMARK minimizedRMSD -1
REMARK  2 active torsions:
REMARK  status: ('A' for Active; 'I' for Inactive)
REMARK    1  A    between atoms: C1_2  and  C2_3 
REMARK    2  A    between atoms: C2_3  and  C3_4 
ROOT
ATOM      1  C3  UNL d   1       5.954   1.620   4.829  0.00  0.00    -0.075 A 
ATOM      2  C4  UNL d   1       5.970   2.891   5.421  0.00  0.00     0.002 A 
ATOM      3  C5  UNL d   1       5.988   4.040   4.630  0.00  0.00     0.002 A 
ATOM      4  C6  UNL d   1       5.999   3.933   3.241  0.00  0.00    -0.004 A 
ATOM      5  C7  UNL d   1       6.000   2.675   2.643  0.00  0.00     0.002 A 
ATOM      6  C8  UNL d   1       5.978   1.524   3.432  0.00  0.00     0.002 A 
ENDROOT
BRANCH   1   7
ATOM      7  C2  UNL d   1       5.906   0.372   5.680  0.00  0.00     0.056 C 
BRANCH   7   8
ATOM      8  C1  UNL d   1       5.367  -0.861   4.947  0.00  0.00     0.007 C 
ATOM      9  C   UNL d   1       5.957  -2.168   5.459  0.00  0.00     0.009 C 
ENDBRANCH   7   8
ENDBRANCH   1   7
TORSDOF 2
ENDMDL
