MODEL 1
REMARK minimizedAffinity -2.55910373
REMARK minimizedRMSD -1
REMARK  2 active torsions:
REMARK  status: ('A' for Active; 'I' for Inactive)
REMARK    1  A    between atoms: C1_2  and  C2_3 
REMARK    2  A    between atoms: C2_3  and  C3_4 
ROOT
ATOM      1  C3  UNL d   1       5.802   0.065   4.020  0.00  0.00    -0.075 A 
ATOM      2  C4  UNL d   1       5.426  -0.006   5.370  0.00  0.00     0.002 A 
ATOM      3  C5  UNL d   1       5.274  -1.242   5.999  0.00  0.00     0.002 A 
ATOM      4  C6  UNL d   1       5.486  -2.420   5.286  0.00  0.00    -0.004 A 
ATOM      5  C7  UNL d   1       5.843  -2.362   3.941  0.00  0.00     0.002 A 
ATOM      6  C8  UNL d   1       6.000  -1.126   3.310  0.00  0.00     0.002 A 
ENDROOT
BRANCH   1   7
ATOM      7  C2  UNL d   1       5.997   1.400   3.342  0.00  0.00     0.056 C 
BRANCH   7   8
ATOM      8  C1  UNL d   1       6.000   2.594   4.303  0.00  0.00     0.007 C 
ATOM      9  C   UNL d   1       5.964   3.939   3.589  0.00  0.00     0.009 C 
ENDBRANCH   7   8
ENDBRANCH   1   7
TORSDOF 2
ENDMDL
