MODEL 1
REMARK minimizedAffinity -2.24150157
REMARK minimizedRMSD -1
REMARK  2 active torsions:
REMARK  status: ('A' for Active; 'I' for Inactive)
REMARK    1  A    between atoms: C1_2  and  C2_3 
REMARK    2  A    between atoms: C2_3  and  C3_4 
ROOT
ATOM      1  C3  UNL d   1       5.822   2.080   4.437  0.00  0.00    -0.075 A 
ATOM      2  C4  UNL d   1       5.640   1.394   5.647  0.00  0.00     0.002 A 
ATOM      3  C5  UNL d   1       5.643  -0.001   5.677  0.00  0.00     0.002 A 
ATOM      4  C6  UNL d   1       5.817  -0.726   4.501  0.00  0.00    -0.004 A 
ATOM      5  C7  UNL d   1       5.982  -0.055   3.291  0.00  0.00     0.002 A 
ATOM      6  C8  UNL d   1       5.984   1.341   3.258  0.00  0.00     0.002 A 
ENDROOT
BRANCH   1   7
ATOM      7  C2  UNL d   1       5.849   3.590   4.402  0.00  0.00     0.056 C 
BRANCH   7   8
ATOM      8  C1  UNL d   1       4.925   4.206   3.346  0.00  0.00     0.007 C 
ATOM      9  C   UNL d   1       5.508   5.451   2.691  0.00  0.00     0.009 C 
ENDBRANCH   7   8
ENDBRANCH   1   7
TORSDOF 2
ENDMDL
