MODEL 1
REMARK minimizedAffinity 0.421675086
REMARK minimizedRMSD -1
REMARK  2 active torsions:
REMARK  status: ('A' for Active; 'I' for Inactive)
REMARK    1  A    between atoms: C1_2  and  C2_3 
REMARK    2  A    between atoms: C2_3  and  C3_4 
ROOT
ATOM      1  C3  UNL d   1       5.983   2.719   4.424  0.00  0.00    -0.075 A 
ATOM      2  C4  UNL d   1       5.967   2.966   3.044  0.00  0.00     0.002 A 
ATOM      3  C5  UNL d   1       5.980   4.274   2.558  0.00  0.00     0.002 A 
ATOM      4  C6  UNL d   1       5.998   5.349   3.444  0.00  0.00    -0.004 A 
ATOM      5  C7  UNL d   1       5.997   5.115   4.817  0.00  0.00     0.002 A 
ATOM      6  C8  UNL d   1       5.989   3.808   5.306  0.00  0.00     0.002 A 
ENDROOT
BRANCH   1   7
ATOM      7  C2  UNL d   1       5.998   1.306   4.956  0.00  0.00     0.056 C 
BRANCH   7   8
ATOM      8  C1  UNL d   1       5.261   0.297   4.069  0.00  0.00     0.007 C 
ATOM      9  C   UNL d   1       5.968  -1.048   3.974  0.00  0.00     0.009 C 
ENDBRANCH   7   8
ENDBRANCH   1   7
TORSDOF 2
ENDMDL
