MODEL 1
REMARK minimizedAffinity 1.68288291
REMARK minimizedRMSD -1
REMARK  2 active torsions:
REMARK  status: ('A' for Active; 'I' for Inactive)
REMARK    1  A    between atoms: C1_2  and  C2_3 
REMARK    2  A    between atoms: C2_3  and  C3_4 
ROOT
ATOM      1  C3  UNL d   1       5.982   0.753   3.709  0.00  0.00    -0.075 A 
ATOM      2  C4  UNL d   1       5.973   0.941   5.098  0.00  0.00     0.002 A 
ATOM      3  C5  UNL d   1       5.987  -0.154   5.962  0.00  0.00     0.002 A 
ATOM      4  C6  UNL d   1       6.000  -1.449   5.449  0.00  0.00    -0.004 A 
ATOM      5  C7  UNL d   1       5.992  -1.649   4.070  0.00  0.00     0.002 A 
ATOM      6  C8  UNL d   1       5.982  -0.555   3.204  0.00  0.00     0.002 A 
ENDROOT
BRANCH   1   7
ATOM      7  C2  UNL d   1       5.996   1.934   2.768  0.00  0.00     0.056 C 
BRANCH   7   8
ATOM      8  C1  UNL d   1       5.523   3.245   3.406  0.00  0.00     0.007 C 
ATOM      9  C   UNL d   1       5.661   4.447   2.482  0.00  0.00     0.009 C 
ENDBRANCH   7   8
ENDBRANCH   1   7
TORSDOF 2
ENDMDL
