MODEL 1
REMARK minimizedAffinity -1.19110596
REMARK minimizedRMSD -1
REMARK  2 active torsions:
REMARK  status: ('A' for Active; 'I' for Inactive)
REMARK    1  A    between atoms: C1_2  and  C2_3 
REMARK    2  A    between atoms: C2_3  and  C3_4 
ROOT
ATOM      1  C3  UNL d   1       5.725   2.215   4.538  0.00  0.00    -0.075 A 
ATOM      2  C4  UNL d   1       5.353   1.714   5.794  0.00  0.00     0.002 A 
ATOM      3  C5  UNL d   1       5.136   0.348   5.976  0.00  0.00     0.002 A 
ATOM      4  C6  UNL d   1       5.278  -0.532   4.905  0.00  0.00    -0.004 A 
ATOM      5  C7  UNL d   1       5.631  -0.044   3.649  0.00  0.00     0.002 A 
ATOM      6  C8  UNL d   1       5.853   1.322   3.465  0.00  0.00     0.002 A 
ENDROOT
BRANCH   1   7
ATOM      7  C2  UNL d   1       5.990   3.688   4.341  0.00  0.00     0.056 C 
BRANCH   7   8
ATOM      8  C1  UNL d   1       4.876   4.427   3.592  0.00  0.00     0.007 C 
ATOM      9  C   UNL d   1       5.236   5.867   3.248  0.00  0.00     0.009 C 
ENDBRANCH   7   8
ENDBRANCH   1   7
TORSDOF 2
ENDMDL
