MODEL 1
REMARK minimizedAffinity -3.3080771
REMARK minimizedRMSD -1
REMARK  2 active torsions:
REMARK  status: ('A' for Active; 'I' for Inactive)
REMARK    1  A    between atoms: C1_2  and  C2_3 
REMARK    2  A    between atoms: C2_3  and  C3_4 
ROOT
ATOM      1  C3  UNL d   1       5.991   2.827   4.480  0.00  0.00    -0.075 A 
ATOM      2  C4  UNL d   1       5.997   4.085   5.101  0.00  0.00     0.002 A 
ATOM      3  C5  UNL d   1       5.990   5.252   4.336  0.00  0.00     0.002 A 
ATOM      4  C6  UNL d   1       5.987   5.177   2.945  0.00  0.00    -0.004 A 
ATOM      5  C7  UNL d   1       5.997   3.932   2.318  0.00  0.00     0.002 A 
ATOM      6  C8  UNL d   1       6.000   2.763   3.081  0.00  0.00     0.002 A 
ENDROOT
BRANCH   1   7
ATOM      7  C2  UNL d   1       5.969   1.560   5.302  0.00  0.00     0.056 C 
BRANCH   7   8
ATOM      8  C1  UNL d   1       5.153   0.424   4.676  0.00  0.00     0.007 C 
ATOM      9  C   UNL d   1       5.936  -0.876   4.545  0.00  0.00     0.009 C 
ENDBRANCH   7   8
ENDBRANCH   1   7
TORSDOF 2
ENDMDL
