MODEL 1
REMARK minimizedAffinity -1.09595597
REMARK minimizedRMSD -1
REMARK  2 active torsions:
REMARK  status: ('A' for Active; 'I' for Inactive)
REMARK    1  A    between atoms: C1_2  and  C2_3 
REMARK    2  A    between atoms: C2_3  and  C3_4 
ROOT
ATOM      1  C3  UNL d   1       5.845   1.592   4.550  0.00  0.00    -0.075 A 
ATOM      2  C4  UNL d   1       5.985   0.732   3.451  0.00  0.00     0.002 A 
ATOM      3  C5  UNL d   1       5.940  -0.652   3.625  0.00  0.00     0.002 A 
ATOM      4  C6  UNL d   1       5.766  -1.192   4.898  0.00  0.00    -0.004 A 
ATOM      5  C7  UNL d   1       5.642  -0.346   5.998  0.00  0.00     0.002 A 
ATOM      6  C8  UNL d   1       5.682   1.038   5.827  0.00  0.00     0.002 A 
ENDROOT
BRANCH   1   7
ATOM      7  C2  UNL d   1       5.862   3.091   4.364  0.00  0.00     0.056 C 
BRANCH   7   8
ATOM      8  C1  UNL d   1       5.143   3.571   3.100  0.00  0.00     0.007 C 
ATOM      9  C   UNL d   1       5.998   4.486   2.233  0.00  0.00     0.009 C 
ENDBRANCH   7   8
ENDBRANCH   1   7
TORSDOF 2
ENDMDL
