MODEL 1
REMARK minimizedAffinity -1.32784259
REMARK minimizedRMSD -1
REMARK  2 active torsions:
REMARK  status: ('A' for Active; 'I' for Inactive)
REMARK    1  A    between atoms: C1_2  and  C2_3 
REMARK    2  A    between atoms: C2_3  and  C3_4 
ROOT
ATOM      1  C3  UNL d   1       5.982   0.944   4.399  0.00  0.00    -0.075 A 
ATOM      2  C4  UNL d   1       5.991   0.206   3.207  0.00  0.00     0.002 A 
ATOM      3  C5  UNL d   1       5.989  -1.189   3.237  0.00  0.00     0.002 A 
ATOM      4  C6  UNL d   1       5.989  -1.863   4.456  0.00  0.00    -0.004 A 
ATOM      5  C7  UNL d   1       5.996  -1.140   5.647  0.00  0.00     0.002 A 
ATOM      6  C8  UNL d   1       5.993   0.256   5.620  0.00  0.00     0.002 A 
ENDROOT
BRANCH   1   7
ATOM      7  C2  UNL d   1       5.953   2.453   4.374  0.00  0.00     0.056 C 
BRANCH   7   8
ATOM      8  C1  UNL d   1       5.227   3.043   3.161  0.00  0.00     0.007 C 
ATOM      9  C   UNL d   1       5.940   4.247   2.561  0.00  0.00     0.009 C 
ENDBRANCH   7   8
ENDBRANCH   1   7
TORSDOF 2
ENDMDL
