MODEL 1
REMARK minimizedAffinity 0.349927813
REMARK minimizedRMSD -1
REMARK  2 active torsions:
REMARK  status: ('A' for Active; 'I' for Inactive)
REMARK    1  A    between atoms: C1_2  and  C2_3 
REMARK    2  A    between atoms: C2_3  and  C3_4 
ROOT
ATOM      1  C3  UNL d   1       1.469  -1.133  -2.317  0.00  0.00    -0.075 A 
ATOM      2  C4  UNL d   1       1.173   0.217  -2.554  0.00  0.00     0.002 A 
ATOM      3  C5  UNL d   1       0.448   0.958  -1.620  0.00  0.00     0.002 A 
ATOM      4  C6  UNL d   1       0.001   0.357  -0.445  0.00  0.00    -0.004 A 
ATOM      5  C7  UNL d   1       0.276  -0.988  -0.207  0.00  0.00     0.002 A 
ATOM      6  C8  UNL d   1       1.005  -1.730  -1.138  0.00  0.00     0.002 A 
ENDROOT
BRANCH   1   7
ATOM      7  C2  UNL d   1       2.279  -1.932  -3.310  0.00  0.00     0.056 C 
BRANCH   7   8
ATOM      8  C1  UNL d   1       1.437  -2.828  -4.224  0.00  0.00     0.007 C 
ATOM      9  C   UNL d   1       1.090  -4.171  -3.594  0.00  0.00     0.009 C 
ENDBRANCH   7   8
ENDBRANCH   1   7
TORSDOF 2
ENDMDL
