MODEL 1
REMARK minimizedAffinity -3.23674083
REMARK minimizedRMSD -1
REMARK  0 active torsions:
REMARK  status: ('A' for Active; 'I' for Inactive)
ROOT
ATOM      1  C1  BNZ d   1       1.222  -1.337   0.886  0.00  0.00     0.000 A 
ATOM      2  C2  BNZ d   1       1.540  -1.260  -0.444  0.00  0.00     0.000 A 
ATOM      3  C3  BNZ d   1       0.671  -0.705  -1.341  0.00  0.00     0.000 A 
ATOM      4  C4  BNZ d   1      -0.530  -0.264  -0.914  0.00  0.00     0.000 A 
ATOM      5  C5  BNZ d   1      -0.869  -0.343   0.422  0.00  0.00     0.000 A 
ATOM      6  C6  BNZ d   1       0.024  -0.867   1.328  0.00  0.00     0.000 A 
ENDROOT
TORSDOF 0
ENDMDL
