MODEL 1
REMARK minimizedAffinity -4.84202957
REMARK minimizedRMSD -1
REMARK  0 active torsions:
REMARK  status: ('A' for Active; 'I' for Inactive)
ROOT
ATOM      1  C1  BNZ d   1      -0.519  -0.376   1.848  0.00  0.00     0.000 A 
ATOM      2  C2  BNZ d   1      -1.330  -0.175   0.763  0.00  0.00     0.000 A 
ATOM      3  C3  BNZ d   1      -0.823  -0.212  -0.506  0.00  0.00     0.000 A 
ATOM      4  C4  BNZ d   1       0.499  -0.409  -0.687  0.00  0.00     0.000 A 
ATOM      5  C5  BNZ d   1       1.331  -0.604   0.398  0.00  0.00     0.000 A 
ATOM      6  C6  BNZ d   1       0.811  -0.606   1.672  0.00  0.00     0.000 A 
ENDROOT
TORSDOF 0
ENDMDL
