MODEL 1
REMARK minimizedAffinity -3.43476486
REMARK minimizedRMSD -1
REMARK  0 active torsions:
REMARK  status: ('A' for Active; 'I' for Inactive)
ROOT
ATOM      1  C1  BNZ d   1       1.125   1.804  -1.592  0.00  0.00     0.000 A 
ATOM      2  C2  BNZ d   1       0.770   2.977  -2.203  0.00  0.00     0.000 A 
ATOM      3  C3  BNZ d   1      -0.496   3.162  -2.683  0.00  0.00     0.000 A 
ATOM      4  C4  BNZ d   1      -1.394   2.160  -2.588  0.00  0.00     0.000 A 
ATOM      5  C5  BNZ d   1      -1.049   0.967  -1.984  0.00  0.00     0.000 A 
ATOM      6  C6  BNZ d   1       0.216   0.800  -1.467  0.00  0.00     0.000 A 
ENDROOT
TORSDOF 0
ENDMDL
