MODEL 1
REMARK minimizedAffinity -4.88252115
REMARK minimizedRMSD -1
REMARK  0 active torsions:
REMARK  status: ('A' for Active; 'I' for Inactive)
ROOT
ATOM      1  C1  BNZ d   1       1.168  -0.302   0.164  0.00  0.00     0.000 A 
ATOM      2  C2  BNZ d   1       0.722  -0.116   1.445  0.00  0.00     0.000 A 
ATOM      3  C3  BNZ d   1       1.263  -0.820   2.484  0.00  0.00     0.000 A 
ATOM      4  C4  BNZ d   1       2.220  -1.737   2.237  0.00  0.00     0.000 A 
ATOM      5  C5  BNZ d   1       2.674  -1.943   0.949  0.00  0.00     0.000 A 
ATOM      6  C6  BNZ d   1       2.154  -1.205  -0.089  0.00  0.00     0.000 A 
ENDROOT
TORSDOF 0
ENDMDL
