MODEL 1
REMARK minimizedAffinity -3.27414536
REMARK minimizedRMSD -1
REMARK  0 active torsions:
REMARK  status: ('A' for Active; 'I' for Inactive)
ROOT
ATOM      1  C1  BNZ d   1       0.304   3.685  -2.832  0.00  0.00     0.000 A 
ATOM      2  C2  BNZ d   1      -0.932   4.132  -3.215  0.00  0.00     0.000 A 
ATOM      3  C3  BNZ d   1      -2.069   3.573  -2.700  0.00  0.00     0.000 A 
ATOM      4  C4  BNZ d   1      -1.969   2.543  -1.836  0.00  0.00     0.000 A 
ATOM      5  C5  BNZ d   1      -0.730   2.075  -1.447  0.00  0.00     0.000 A 
ATOM      6  C6  BNZ d   1       0.413   2.665  -1.937  0.00  0.00     0.000 A 
ENDROOT
TORSDOF 0
ENDMDL
