MODEL 1
REMARK minimizedAffinity -5.43306017
REMARK minimizedRMSD -1
REMARK  0 active torsions:
REMARK  status: ('A' for Active; 'I' for Inactive)
ROOT
ATOM      1  C1  BNZ d   1       1.051  -0.521   0.167  0.00  0.00     0.000 A 
ATOM      2  C2  BNZ d   1       1.868  -0.797   1.230  0.00  0.00     0.000 A 
ATOM      3  C3  BNZ d   1       1.357  -0.922   2.492  0.00  0.00     0.000 A 
ATOM      4  C4  BNZ d   1       0.037  -0.732   2.694  0.00  0.00     0.000 A 
ATOM      5  C5  BNZ d   1      -0.798  -0.444   1.634  0.00  0.00     0.000 A 
ATOM      6  C6  BNZ d   1      -0.286  -0.357   0.360  0.00  0.00     0.000 A 
ENDROOT
TORSDOF 0
ENDMDL
