MODEL 1
REMARK minimizedAffinity -5.55539799
REMARK minimizedRMSD -1
REMARK  0 active torsions:
REMARK  status: ('A' for Active; 'I' for Inactive)
ROOT
ATOM      1  C1  BNZ d   1       2.385  -1.739   2.557  0.00  0.00     0.000 A 
ATOM      2  C2  BNZ d   1       2.544  -2.034   1.229  0.00  0.00     0.000 A 
ATOM      3  C3  BNZ d   1       1.980  -1.246   0.265  0.00  0.00     0.000 A 
ATOM      4  C4  BNZ d   1       1.225  -0.190   0.630  0.00  0.00     0.000 A 
ATOM      5  C5  BNZ d   1       1.047   0.115   1.965  0.00  0.00     0.000 A 
ATOM      6  C6  BNZ d   1       1.648  -0.658   2.932  0.00  0.00     0.000 A 
ENDROOT
TORSDOF 0
ENDMDL
