MODEL 1
REMARK minimizedAffinity -4.54793358
REMARK minimizedRMSD -1
REMARK  0 active torsions:
REMARK  status: ('A' for Active; 'I' for Inactive)
ROOT
ATOM      1  C1  BNZ d   1       2.008  -1.334   0.832  0.00  0.00     0.000 A 
ATOM      2  C2  BNZ d   1       1.085  -0.956  -0.107  0.00  0.00     0.000 A 
ATOM      3  C3  BNZ d   1      -0.087  -0.360   0.265  0.00  0.00     0.000 A 
ATOM      4  C4  BNZ d   1      -0.352  -0.178   1.575  0.00  0.00     0.000 A 
ATOM      5  C5  BNZ d   1       0.564  -0.562   2.533  0.00  0.00     0.000 A 
ATOM      6  C6  BNZ d   1       1.760  -1.127   2.154  0.00  0.00     0.000 A 
ENDROOT
TORSDOF 0
ENDMDL
