MODEL 1
REMARK minimizedAffinity -4.12063503
REMARK minimizedRMSD -1
REMARK  0 active torsions:
REMARK  status: ('A' for Active; 'I' for Inactive)
ROOT
ATOM      1  C1  BNZ d   1       0.929  -1.253  -0.703  0.00  0.00     0.000 A 
ATOM      2  C2  BNZ d   1       1.465  -2.011   0.303  0.00  0.00     0.000 A 
ATOM      3  C3  BNZ d   1       1.012  -1.893   1.587  0.00  0.00     0.000 A 
ATOM      4  C4  BNZ d   1       0.052  -0.989   1.870  0.00  0.00     0.000 A 
ATOM      5  C5  BNZ d   1      -0.493  -0.210   0.868  0.00  0.00     0.000 A 
ATOM      6  C6  BNZ d   1      -0.061  -0.360  -0.429  0.00  0.00     0.000 A 
ENDROOT
TORSDOF 0
ENDMDL
