MODEL 1
REMARK minimizedAffinity -5.52180099
REMARK minimizedRMSD -1
REMARK  0 active torsions:
REMARK  status: ('A' for Active; 'I' for Inactive)
ROOT
ATOM      1  C1  BNZ d   1       1.002  -0.305   0.558  0.00  0.00     0.000 A 
ATOM      2  C2  BNZ d   1       0.650  -0.345   1.880  0.00  0.00     0.000 A 
ATOM      3  C3  BNZ d   1       1.329  -1.139   2.762  0.00  0.00     0.000 A 
ATOM      4  C4  BNZ d   1       2.332  -1.921   2.312  0.00  0.00     0.000 A 
ATOM      5  C5  BNZ d   1       2.692  -1.900   0.980  0.00  0.00     0.000 A 
ATOM      6  C6  BNZ d   1       2.032  -1.070   0.103  0.00  0.00     0.000 A 
ENDROOT
TORSDOF 0
ENDMDL
