MODEL 1
REMARK minimizedAffinity -4.54172754
REMARK minimizedRMSD -1
REMARK  0 active torsions:
REMARK  status: ('A' for Active; 'I' for Inactive)
ROOT
ATOM      1  C1  BNZ d   1      -1.397  -0.070   1.286  0.00  0.00     0.000 A 
ATOM      2  C2  BNZ d   1      -0.598  -0.656   2.232  0.00  0.00     0.000 A 
ATOM      3  C3  BNZ d   1       0.673  -1.055   1.925  0.00  0.00     0.000 A 
ATOM      4  C4  BNZ d   1       1.129  -0.906   0.665  0.00  0.00     0.000 A 
ATOM      5  C5  BNZ d   1       0.332  -0.326  -0.302  0.00  0.00     0.000 A 
ATOM      6  C6  BNZ d   1      -0.932   0.111   0.020  0.00  0.00     0.000 A 
ENDROOT
TORSDOF 0
ENDMDL
