MODEL 1
REMARK minimizedAffinity 8.85712719
REMARK minimizedRMSD -1
REMARK  1 active torsions:
REMARK  status: ('A' for Active; 'I' for Inactive)
REMARK    1  A    between atoms: C1_2  and  C2_3 
ROOT
ATOM      1  C2  UNL d   1       2.413  -2.256   5.597  0.00  0.00    -0.073 A 
ATOM      2  C3  UNL d   1       2.642  -3.636   5.636  0.00  0.00    -0.002 A 
ATOM      3  C4  UNL d   1       3.938  -4.131   5.780  0.00  0.00     0.004 A 
ATOM      4  C5  UNL d   1       5.017  -3.254   5.893  0.00  0.00    -0.004 A 
ATOM      5  C6  UNL d   1       4.807  -1.871   5.868  0.00  0.00    -0.075 A 
ATOM      6  C7  UNL d   1       5.956  -0.914   5.986  0.00  0.00     0.076 C 
ATOM      7  C8  UNL d   1       3.502  -1.381   5.720  0.00  0.00     0.001 A 
ENDROOT
BRANCH   1   8
ATOM      8  C1  UNL d   1       1.014  -1.716   5.448  0.00  0.00     0.053 C 
ATOM      9  C   UNL d   1       0.538  -1.754   4.004  0.00  0.00     0.018 C 
ENDBRANCH   1   8
TORSDOF 1
ENDMDL
