MODEL 1
REMARK minimizedAffinity 5.8016839
REMARK minimizedRMSD -1
REMARK  1 active torsions:
REMARK  status: ('A' for Active; 'I' for Inactive)
REMARK    1  A    between atoms: C1_2  and  C2_3 
ROOT
ATOM      1  C2  UNL d   1       1.051   3.453  -0.563  0.00  0.00    -0.073 A 
ATOM      2  C3  UNL d   1       1.097   2.833   0.691  0.00  0.00    -0.002 A 
ATOM      3  C4  UNL d   1       0.644   1.522   0.845  0.00  0.00     0.004 A 
ATOM      4  C5  UNL d   1       0.149   0.816  -0.251  0.00  0.00    -0.004 A 
ATOM      5  C6  UNL d   1       0.106   1.415  -1.514  0.00  0.00    -0.075 A 
ATOM      6  C7  UNL d   1      -0.426   0.671  -2.704  0.00  0.00     0.076 C 
ATOM      7  C8  UNL d   1       0.560   2.733  -1.661  0.00  0.00     0.001 A 
ENDROOT
BRANCH   1   8
ATOM      8  C1  UNL d   1       1.544   4.867  -0.736  0.00  0.00     0.053 C 
ATOM      9  C   UNL d   1       0.620   5.689  -1.620  0.00  0.00     0.018 C 
ENDBRANCH   1   8
TORSDOF 1
ENDMDL
