MODEL 1
REMARK minimizedAffinity 15.9026737
REMARK minimizedRMSD -1
REMARK  1 active torsions:
REMARK  status: ('A' for Active; 'I' for Inactive)
REMARK    1  A    between atoms: C1_2  and  C2_3 
ROOT
ATOM      1  C2  UNL d   1       0.901   3.423   0.012  0.00  0.00    -0.073 A 
ATOM      2  C3  UNL d   1      -0.441   3.766   0.211  0.00  0.00    -0.002 A 
ATOM      3  C4  UNL d   1      -1.008   4.830  -0.492  0.00  0.00     0.004 A 
ATOM      4  C5  UNL d   1      -0.243   5.556  -1.404  0.00  0.00    -0.004 A 
ATOM      5  C6  UNL d   1       1.097   5.220  -1.626  0.00  0.00    -0.075 A 
ATOM      6  C7  UNL d   1       1.934   5.992  -2.603  0.00  0.00     0.076 C 
ATOM      7  C8  UNL d   1       1.659   4.152  -0.914  0.00  0.00     0.001 A 
ENDROOT
BRANCH   1   8
ATOM      8  C1  UNL d   1       1.516   2.270   0.764  0.00  0.00     0.053 C 
ATOM      9  C   UNL d   1       1.311   0.946   0.045  0.00  0.00     0.018 C 
ENDBRANCH   1   8
TORSDOF 1
ENDMDL
