MODEL 1
REMARK minimizedAffinity 2.76499295
REMARK minimizedRMSD -1
REMARK  1 active torsions:
REMARK  status: ('A' for Active; 'I' for Inactive)
REMARK    1  A    between atoms: C1_2  and  C2_3 
ROOT
ATOM      1  C2  UNL d   1       2.151  -5.300  -3.232  0.00  0.00    -0.073 A 
ATOM      2  C3  UNL d   1       1.429  -5.999  -2.258  0.00  0.00    -0.002 A 
ATOM      3  C4  UNL d   1       0.391  -5.375  -1.566  0.00  0.00     0.004 A 
ATOM      4  C5  UNL d   1       0.059  -4.049  -1.845  0.00  0.00    -0.004 A 
ATOM      5  C6  UNL d   1       0.760  -3.337  -2.824  0.00  0.00    -0.075 A 
ATOM      6  C7  UNL d   1       0.416  -1.910  -3.134  0.00  0.00     0.076 C 
ATOM      7  C8  UNL d   1       1.803  -3.970  -3.512  0.00  0.00     0.001 A 
ENDROOT
BRANCH   1   8
ATOM      8  C1  UNL d   1       3.268  -5.972  -3.987  0.00  0.00     0.053 C 
ATOM      9  C   UNL d   1       4.561  -5.998  -3.187  0.00  0.00     0.018 C 
ENDBRANCH   1   8
TORSDOF 1
ENDMDL
