MODEL 1
REMARK minimizedAffinity 9.04594994
REMARK minimizedRMSD -1
REMARK  1 active torsions:
REMARK  status: ('A' for Active; 'I' for Inactive)
REMARK    1  A    between atoms: C1_2  and  C2_3 
ROOT
ATOM      1  C2  UNL d   1      -5.250   2.512  -3.600  0.00  0.00    -0.073 A 
ATOM      2  C3  UNL d   1      -3.866   2.649  -3.441  0.00  0.00    -0.002 A 
ATOM      3  C4  UNL d   1      -3.177   3.661  -4.110  0.00  0.00     0.004 A 
ATOM      4  C5  UNL d   1      -3.863   4.550  -4.938  0.00  0.00    -0.004 A 
ATOM      5  C6  UNL d   1      -5.247   4.437  -5.100  0.00  0.00    -0.075 A 
ATOM      6  C7  UNL d   1      -6.000   5.383  -5.988  0.00  0.00     0.076 C 
ATOM      7  C8  UNL d   1      -5.933   3.416  -4.427  0.00  0.00     0.001 A 
ENDROOT
BRANCH   1   8
ATOM      8  C1  UNL d   1      -6.000   1.425  -2.875  0.00  0.00     0.053 C 
ATOM      9  C   UNL d   1      -5.068   0.351  -2.337  0.00  0.00     0.018 C 
ENDBRANCH   1   8
TORSDOF 1
ENDMDL
