MODEL 1
REMARK minimizedAffinity 6.20342541
REMARK minimizedRMSD -1
REMARK  1 active torsions:
REMARK  status: ('A' for Active; 'I' for Inactive)
REMARK    1  A    between atoms: C1_2  and  C2_3 
ROOT
ATOM      1  C2  UNL d   1      -5.059   4.009  -4.417  0.00  0.00    -0.073 A 
ATOM      2  C3  UNL d   1      -3.801   4.499  -4.047  0.00  0.00    -0.002 A 
ATOM      3  C4  UNL d   1      -2.930   3.708  -3.296  0.00  0.00     0.004 A 
ATOM      4  C5  UNL d   1      -3.304   2.420  -2.915  0.00  0.00    -0.004 A 
ATOM      5  C6  UNL d   1      -4.552   1.909  -3.285  0.00  0.00    -0.075 A 
ATOM      6  C7  UNL d   1      -4.971   0.526  -2.880  0.00  0.00     0.076 C 
ATOM      7  C8  UNL d   1      -5.422   2.710  -4.037  0.00  0.00     0.001 A 
ENDROOT
BRANCH   1   8
ATOM      8  C1  UNL d   1      -6.000   4.857  -5.234  0.00  0.00     0.053 C 
ATOM      9  C   UNL d   1      -5.269   5.958  -5.986  0.00  0.00     0.018 C 
ENDBRANCH   1   8
TORSDOF 1
ENDMDL
