MODEL 1
REMARK minimizedAffinity 15.9416885
REMARK minimizedRMSD -1
REMARK  1 active torsions:
REMARK  status: ('A' for Active; 'I' for Inactive)
REMARK    1  A    between atoms: C1_2  and  C2_3 
ROOT
ATOM      1  C2  UNL d   1       0.269   4.955  -1.842  0.00  0.00    -0.073 A 
ATOM      2  C3  UNL d   1      -1.111   4.918  -2.072  0.00  0.00    -0.002 A 
ATOM      3  C4  UNL d   1      -1.904   3.953  -1.450  0.00  0.00     0.004 A 
ATOM      4  C5  UNL d   1      -1.327   3.020  -0.588  0.00  0.00    -0.004 A 
ATOM      5  C6  UNL d   1       0.049   3.047  -0.337  0.00  0.00    -0.075 A 
ATOM      6  C7  UNL d   1       0.685   2.049   0.585  0.00  0.00     0.076 C 
ATOM      7  C8  UNL d   1       0.838   4.019  -0.968  0.00  0.00     0.001 A 
ENDROOT
BRANCH   1   8
ATOM      8  C1  UNL d   1       1.128   6.000  -2.507  0.00  0.00     0.053 C 
ATOM      9  C   UNL d   1       0.960   5.999  -4.018  0.00  0.00     0.018 C 
ENDBRANCH   1   8
TORSDOF 1
ENDMDL
