MODEL 1
REMARK minimizedAffinity -1.2998457
REMARK minimizedRMSD -1
REMARK  0 active torsions:
REMARK  status: ('A' for Active; 'I' for Inactive)
ROOT
ATOM      1  C   UNL d   1      -1.365  -1.900   2.384  0.00  0.00    -0.002 A 
ATOM      2  C1  UNL d   1      -1.021  -2.659   1.275  0.00  0.00     0.010 A 
ATOM      3  C2  UNL d   1      -0.459  -2.056   0.148  0.00  0.00     0.041 A 
ATOM      4  C3  UNL d   1      -0.244  -0.664   0.156  0.00  0.00    -0.075 A 
ATOM      5  S   UNL d   1       0.432   0.291  -1.111  0.00  0.00     0.015 SA
ATOM      6  C4  UNL d   1       0.280   1.729  -0.209  0.00  0.00     0.022 A 
ATOM      7  C5  UNL d   1      -0.271   1.505   1.030  0.00  0.00     0.026 A 
ATOM      8  C6  UNL d   1      -0.582   0.122   1.261  0.00  0.00    -0.082 A 
ATOM      9  C7  UNL d   1      -1.151  -0.519   2.388  0.00  0.00     0.045 A 
ENDROOT
TORSDOF 0
ENDMDL
