MODEL 1
REMARK minimizedAffinity -4.06227255
REMARK minimizedRMSD -1
REMARK  0 active torsions:
REMARK  status: ('A' for Active; 'I' for Inactive)
ROOT
ATOM      1  C   UNL d   1      -0.139  -3.659  -0.145  0.00  0.00    -0.002 A 
ATOM      2  C1  UNL d   1      -0.224  -2.959   1.049  0.00  0.00     0.010 A 
ATOM      3  C2  UNL d   1      -0.227  -1.562   1.055  0.00  0.00     0.041 A 
ATOM      4  C3  UNL d   1      -0.144  -0.875  -0.172  0.00  0.00    -0.075 A 
ATOM      5  S   UNL d   1      -0.132   0.832  -0.408  0.00  0.00     0.015 SA
ATOM      6  C4  UNL d   1      -0.014   0.672  -2.101  0.00  0.00     0.022 A 
ATOM      7  C5  UNL d   1       0.016  -0.645  -2.493  0.00  0.00     0.026 A 
ATOM      8  C6  UNL d   1      -0.058  -1.559  -1.388  0.00  0.00    -0.082 A 
ATOM      9  C7  UNL d   1      -0.057  -2.974  -1.361  0.00  0.00     0.045 A 
ENDROOT
TORSDOF 0
ENDMDL
