MODEL 1
REMARK minimizedAffinity -2.59562325
REMARK minimizedRMSD -1
REMARK  0 active torsions:
REMARK  status: ('A' for Active; 'I' for Inactive)
ROOT
ATOM      1  C   UNL d   1       0.474  -2.989  -2.417  0.00  0.00    -0.002 A 
ATOM      2  C1  UNL d   1       0.422  -1.653  -2.788  0.00  0.00     0.010 A 
ATOM      3  C2  UNL d   1      -0.020  -0.683  -1.886  0.00  0.00     0.041 A 
ATOM      4  C3  UNL d   1      -0.411  -1.082  -0.593  0.00  0.00    -0.075 A 
ATOM      5  S   UNL d   1      -0.986  -0.070   0.679  0.00  0.00     0.015 SA
ATOM      6  C4  UNL d   1      -1.174  -1.387   1.744  0.00  0.00     0.022 A 
ATOM      7  C5  UNL d   1      -0.813  -2.578   1.160  0.00  0.00     0.026 A 
ATOM      8  C6  UNL d   1      -0.366  -2.422  -0.196  0.00  0.00    -0.082 A 
ATOM      9  C7  UNL d   1       0.086  -3.382  -1.134  0.00  0.00     0.045 A 
ENDROOT
TORSDOF 0
ENDMDL
