MODEL 1
REMARK minimizedAffinity -3.60287476
REMARK minimizedRMSD -1
REMARK  0 active torsions:
REMARK  status: ('A' for Active; 'I' for Inactive)
ROOT
ATOM      1  C   UNL d   1       0.732  -3.032  -1.809  0.00  0.00    -0.002 A 
ATOM      2  C1  UNL d   1       1.005  -1.743  -2.242  0.00  0.00     0.010 A 
ATOM      3  C2  UNL d   1       0.591  -0.639  -1.494  0.00  0.00     0.041 A 
ATOM      4  C3  UNL d   1      -0.109  -0.855  -0.291  0.00  0.00    -0.075 A 
ATOM      5  S   UNL d   1      -0.713   0.345   0.790  0.00  0.00     0.015 SA
ATOM      6  C4  UNL d   1      -1.348  -0.826   1.853  0.00  0.00     0.022 A 
ATOM      7  C5  UNL d   1      -1.114  -2.107   1.410  0.00  0.00     0.026 A 
ATOM      8  C6  UNL d   1      -0.395  -2.144   0.167  0.00  0.00    -0.082 A 
ATOM      9  C7  UNL d   1       0.038  -3.243  -0.614  0.00  0.00     0.045 A 
ENDROOT
TORSDOF 0
ENDMDL
