MODEL 1
REMARK minimizedAffinity 6.96610308
REMARK minimizedRMSD -1
REMARK  0 active torsions:
REMARK  status: ('A' for Active; 'I' for Inactive)
ROOT
ATOM      1  C   UNL d   1      -2.847  -2.177   1.154  0.00  0.00    -0.002 A 
ATOM      2  C1  UNL d   1      -2.696  -1.129   0.258  0.00  0.00     0.010 A 
ATOM      3  C2  UNL d   1      -1.720  -0.152   0.465  0.00  0.00     0.041 A 
ATOM      4  C3  UNL d   1      -0.888  -0.249   1.598  0.00  0.00    -0.075 A 
ATOM      5  S   UNL d   1       0.376   0.830   2.055  0.00  0.00     0.015 SA
ATOM      6  C4  UNL d   1       0.747  -0.076   3.450  0.00  0.00     0.022 A 
ATOM      7  C5  UNL d   1      -0.065  -1.178   3.580  0.00  0.00     0.026 A 
ATOM      8  C6  UNL d   1      -1.020  -1.297   2.514  0.00  0.00    -0.082 A 
ATOM      9  C7  UNL d   1      -2.020  -2.270   2.277  0.00  0.00     0.045 A 
ENDROOT
TORSDOF 0
ENDMDL
