MODEL 1
REMARK minimizedAffinity -4.7006917
REMARK minimizedRMSD -1
REMARK  0 active torsions:
REMARK  status: ('A' for Active; 'I' for Inactive)
ROOT
ATOM      1  C   UNL d   1      -0.389  -3.648  -0.129  0.00  0.00    -0.002 A 
ATOM      2  C1  UNL d   1       0.307  -3.033  -1.160  0.00  0.00     0.010 A 
ATOM      3  C2  UNL d   1       0.401  -1.642  -1.223  0.00  0.00     0.041 A 
ATOM      4  C3  UNL d   1      -0.221  -0.870  -0.222  0.00  0.00    -0.075 A 
ATOM      5  S   UNL d   1      -0.237   0.849  -0.094  0.00  0.00     0.015 SA
ATOM      6  C4  UNL d   1      -1.168   0.808   1.333  0.00  0.00     0.022 A 
ATOM      7  C5  UNL d   1      -1.468  -0.477   1.717  0.00  0.00     0.026 A 
ATOM      8  C6  UNL d   1      -0.926  -1.466   0.827  0.00  0.00    -0.082 A 
ATOM      9  C7  UNL d   1      -1.005  -2.879   0.863  0.00  0.00     0.045 A 
ENDROOT
TORSDOF 0
ENDMDL
