MODEL 1
REMARK minimizedAffinity -0.379571915
REMARK minimizedRMSD -1
REMARK  0 active torsions:
REMARK  status: ('A' for Active; 'I' for Inactive)
ROOT
ATOM      1  C   UNL d   1      -1.567  -1.983   2.034  0.00  0.00    -0.002 A 
ATOM      2  C1  UNL d   1      -0.901  -2.781   1.115  0.00  0.00     0.010 A 
ATOM      3  C2  UNL d   1      -0.216  -2.208   0.042  0.00  0.00     0.041 A 
ATOM      4  C3  UNL d   1      -0.210  -0.806  -0.093  0.00  0.00    -0.075 A 
ATOM      5  S   UNL d   1       0.562   0.117  -1.327  0.00  0.00     0.015 SA
ATOM      6  C4  UNL d   1       0.027   1.593  -0.663  0.00  0.00     0.022 A 
ATOM      7  C5  UNL d   1      -0.724   1.404   0.473  0.00  0.00     0.026 A 
ATOM      8  C6  UNL d   1      -0.873   0.019   0.821  0.00  0.00    -0.082 A 
ATOM      9  C7  UNL d   1      -1.559  -0.592   1.898  0.00  0.00     0.045 A 
ENDROOT
TORSDOF 0
ENDMDL
