MODEL 1
REMARK minimizedAffinity 8.17463875
REMARK minimizedRMSD -1
REMARK  0 active torsions:
REMARK  status: ('A' for Active; 'I' for Inactive)
ROOT
ATOM      1  C   UNL d   1       2.255   4.115   2.081  0.00  0.00    -0.002 A 
ATOM      2  C1  UNL d   1       0.993   4.484   2.523  0.00  0.00     0.010 A 
ATOM      3  C2  UNL d   1       0.079   5.076   1.649  0.00  0.00     0.041 A 
ATOM      4  C3  UNL d   1       0.458   5.291   0.310  0.00  0.00    -0.075 A 
ATOM      5  S   UNL d   1      -0.495   6.000  -0.940  0.00  0.00     0.015 SA
ATOM      6  C4  UNL d   1       0.750   5.829  -2.090  0.00  0.00     0.022 A 
ATOM      7  C5  UNL d   1       1.874   5.248  -1.551  0.00  0.00     0.026 A 
ATOM      8  C6  UNL d   1       1.724   4.928  -0.159  0.00  0.00    -0.082 A 
ATOM      9  C7  UNL d   1       2.628   4.330   0.752  0.00  0.00     0.045 A 
ENDROOT
TORSDOF 0
ENDMDL
