MODEL 1
REMARK minimizedAffinity 11.896224
REMARK minimizedRMSD -1
REMARK  0 active torsions:
REMARK  status: ('A' for Active; 'I' for Inactive)
ROOT
ATOM      1  C   UNL d   1      -0.061  -0.537   2.985  0.00  0.00    -0.002 A 
ATOM      2  C1  UNL d   1      -1.310  -0.595   2.382  0.00  0.00     0.010 A 
ATOM      3  C2  UNL d   1      -1.454  -0.323   1.020  0.00  0.00     0.041 A 
ATOM      4  C3  UNL d   1      -0.311   0.009   0.267  0.00  0.00    -0.075 A 
ATOM      5  S   UNL d   1      -0.247   0.380  -1.416  0.00  0.00     0.015 SA
ATOM      6  C4  UNL d   1       1.439   0.624  -1.374  0.00  0.00     0.022 A 
ATOM      7  C5  UNL d   1       1.957   0.431  -0.115  0.00  0.00     0.026 A 
ATOM      8  C6  UNL d   1       0.957   0.073   0.851  0.00  0.00    -0.082 A 
ATOM      9  C7  UNL d   1       1.070  -0.207   2.234  0.00  0.00     0.045 A 
ENDROOT
TORSDOF 0
ENDMDL
