MODEL 1
REMARK minimizedAffinity 7.81479311
REMARK minimizedRMSD -1
REMARK  0 active torsions:
REMARK  status: ('A' for Active; 'I' for Inactive)
ROOT
ATOM      1  C   UNL d   1      -2.213  -1.211   2.641  0.00  0.00    -0.002 A 
ATOM      2  C1  UNL d   1      -1.997  -2.377   1.919  0.00  0.00     0.010 A 
ATOM      3  C2  UNL d   1      -1.363  -2.336   0.676  0.00  0.00     0.041 A 
ATOM      4  C3  UNL d   1      -0.944  -1.092   0.166  0.00  0.00    -0.075 A 
ATOM      5  S   UNL d   1      -0.146  -0.799  -1.335  0.00  0.00     0.015 SA
ATOM      6  C4  UNL d   1      -0.072   0.880  -1.053  0.00  0.00     0.022 A 
ATOM      7  C5  UNL d   1      -0.637   1.227   0.151  0.00  0.00     0.026 A 
ATOM      8  C6  UNL d   1      -1.148   0.096   0.874  0.00  0.00    -0.082 A 
ATOM      9  C7  UNL d   1      -1.795   0.021   2.131  0.00  0.00     0.045 A 
ENDROOT
TORSDOF 0
ENDMDL
