MODEL 1
REMARK minimizedAffinity 1.70536602
REMARK minimizedRMSD -1
REMARK  0 active torsions:
REMARK  status: ('A' for Active; 'I' for Inactive)
ROOT
ATOM      1  C   UNL d   1      -3.168   0.064   2.178  0.00  0.00    -0.002 A 
ATOM      2  C1  UNL d   1      -3.225  -0.960   1.243  0.00  0.00     0.010 A 
ATOM      3  C2  UNL d   1      -2.302  -1.018   0.197  0.00  0.00     0.041 A 
ATOM      4  C3  UNL d   1      -1.310  -0.022   0.107  0.00  0.00    -0.075 A 
ATOM      5  S   UNL d   1      -0.074   0.110  -1.088  0.00  0.00     0.015 SA
ATOM      6  C4  UNL d   1       0.558   1.528  -0.386  0.00  0.00     0.022 A 
ATOM      7  C5  UNL d   1      -0.145   1.906   0.734  0.00  0.00     0.026 A 
ATOM      8  C6  UNL d   1      -1.233   1.019   1.036  0.00  0.00    -0.082 A 
ATOM      9  C7  UNL d   1      -2.183   1.051   2.085  0.00  0.00     0.045 A 
ENDROOT
TORSDOF 0
ENDMDL
