MODEL 1
REMARK minimizedAffinity 3.81654143
REMARK minimizedRMSD -1
REMARK  0 active torsions:
REMARK  status: ('A' for Active; 'I' for Inactive)
ROOT
ATOM      1  C   UNL d   1      -1.358  -3.206  -0.773  0.00  0.00    -0.002 A 
ATOM      2  C1  UNL d   1      -0.739  -2.462  -1.767  0.00  0.00     0.010 A 
ATOM      3  C2  UNL d   1      -0.550  -1.087  -1.613  0.00  0.00     0.041 A 
ATOM      4  C3  UNL d   1      -0.996  -0.467  -0.429  0.00  0.00    -0.075 A 
ATOM      5  S   UNL d   1      -0.871   1.203  -0.020  0.00  0.00     0.015 SA
ATOM      6  C4  UNL d   1      -1.635   0.968   1.486  0.00  0.00     0.022 A 
ATOM      7  C5  UNL d   1      -1.984  -0.346   1.687  0.00  0.00     0.026 A 
ATOM      8  C6  UNL d   1      -1.621  -1.195   0.588  0.00  0.00    -0.082 A 
ATOM      9  C7  UNL d   1      -1.799  -2.587   0.400  0.00  0.00     0.045 A 
ENDROOT
TORSDOF 0
ENDMDL
