MODEL 1
REMARK minimizedAffinity 7.10315323
REMARK minimizedRMSD -1
REMARK  0 active torsions:
REMARK  status: ('A' for Active; 'I' for Inactive)
ROOT
ATOM      1  C4' PXY d   1       0.941  -1.926   1.831  0.00  0.00     0.077 C 
ATOM      2  C1' PXY d   1      -3.605   1.047   3.805  0.00  0.00     0.077 C 
ATOM      3  C1  PXY d   1      -2.406   0.278   3.287  0.00  0.00    -0.082 A 
ATOM      4  C2  PXY d   1      -2.588  -0.874   2.664  0.00  0.00     0.003 A 
ATOM      5  C3  PXY d   1      -1.512  -1.598   2.217  0.00  0.00     0.003 A 
ATOM      6  C4  PXY d   1      -0.241  -1.111   2.362  0.00  0.00    -0.082 A 
ATOM      7  C5  PXY d   1      -0.048   0.069   2.988  0.00  0.00     0.003 A 
ATOM      8  C6  PXY d   1      -1.150   0.769   3.470  0.00  0.00     0.003 A 
ENDROOT
TORSDOF 0
ENDMDL
