MODEL 1
REMARK minimizedAffinity 8.17671394
REMARK minimizedRMSD -1
REMARK  0 active torsions:
REMARK  status: ('A' for Active; 'I' for Inactive)
ROOT
ATOM      1  C4' PXY d   1       3.278  -4.132   1.488  0.00  0.00     0.077 C 
ATOM      2  C1' PXY d   1       1.492   0.390  -1.639  0.00  0.00     0.077 C 
ATOM      3  C1  PXY d   1       1.954  -0.791  -0.809  0.00  0.00    -0.082 A 
ATOM      4  C2  PXY d   1       3.032  -1.466  -1.174  0.00  0.00     0.003 A 
ATOM      5  C3  PXY d   1       3.445  -2.556  -0.453  0.00  0.00     0.003 A 
ATOM      6  C4  PXY d   1       2.780  -2.927   0.685  0.00  0.00    -0.082 A 
ATOM      7  C5  PXY d   1       1.686  -2.236   1.071  0.00  0.00     0.003 A 
ATOM      8  C6  PXY d   1       1.259  -1.158   0.302  0.00  0.00     0.003 A 
ENDROOT
TORSDOF 0
ENDMDL
