MODEL 1
REMARK minimizedAffinity 6.30979061
REMARK minimizedRMSD -1
REMARK  0 active torsions:
REMARK  status: ('A' for Active; 'I' for Inactive)
ROOT
ATOM      1  C4' PXY d   1       4.446  -4.219   1.590  0.00  0.00     0.077 C 
ATOM      2  C1' PXY d   1       0.054  -0.676   2.846  0.00  0.00     0.077 C 
ATOM      3  C1  PXY d   1       1.213  -1.599   2.525  0.00  0.00    -0.082 A 
ATOM      4  C2  PXY d   1       1.288  -2.165   1.332  0.00  0.00     0.003 A 
ATOM      5  C3  PXY d   1       2.312  -3.028   1.036  0.00  0.00     0.003 A 
ATOM      6  C4  PXY d   1       3.299  -3.272   1.954  0.00  0.00    -0.082 A 
ATOM      7  C5  PXY d   1       3.235  -2.691   3.170  0.00  0.00     0.003 A 
ATOM      8  C6  PXY d   1       2.165  -1.850   3.465  0.00  0.00     0.003 A 
ENDROOT
TORSDOF 0
ENDMDL
