MODEL 1
REMARK minimizedAffinity 5.13990688
REMARK minimizedRMSD -1
REMARK  0 active torsions:
REMARK  status: ('A' for Active; 'I' for Inactive)
ROOT
ATOM      1  C4' PXY d   1       4.105  -3.931   2.509  0.00  0.00     0.077 C 
ATOM      2  C1' PXY d   1       1.538  -0.320  -1.204  0.00  0.00     0.077 C 
ATOM      3  C1  PXY d   1       2.202  -1.264  -0.221  0.00  0.00    -0.082 A 
ATOM      4  C2  PXY d   1       3.469  -1.603  -0.394  0.00  0.00     0.003 A 
ATOM      5  C3  PXY d   1       4.077  -2.480   0.467  0.00  0.00     0.003 A 
ATOM      6  C4  PXY d   1       3.396  -2.974   1.547  0.00  0.00    -0.082 A 
ATOM      7  C5  PXY d   1       2.106  -2.624   1.737  0.00  0.00     0.003 A 
ATOM      8  C6  PXY d   1       1.496  -1.764   0.828  0.00  0.00     0.003 A 
ENDROOT
TORSDOF 0
ENDMDL
