MODEL 1
REMARK minimizedAffinity 5.39223719
REMARK minimizedRMSD -1
REMARK  0 active torsions:
REMARK  status: ('A' for Active; 'I' for Inactive)
ROOT
ATOM      1  C4' PXY d   1       6.000  -1.123   0.103  0.00  0.00     0.077 C 
ATOM      2  C1' PXY d   1       0.807   0.476  -1.869  0.00  0.00     0.077 C 
ATOM      3  C1  PXY d   1       2.174   0.068  -1.357  0.00  0.00    -0.082 A 
ATOM      4  C2  PXY d   1       2.423  -1.207  -1.104  0.00  0.00     0.003 A 
ATOM      5  C3  PXY d   1       3.644  -1.590  -0.610  0.00  0.00     0.003 A 
ATOM      6  C4  PXY d   1       4.637  -0.666  -0.424  0.00  0.00    -0.082 A 
ATOM      7  C5  PXY d   1       4.394   0.635  -0.691  0.00  0.00     0.003 A 
ATOM      8  C6  PXY d   1       3.135   1.009  -1.152  0.00  0.00     0.003 A 
ENDROOT
TORSDOF 0
ENDMDL
