MODEL 1
REMARK minimizedAffinity -0.00767741865
REMARK minimizedRMSD -1
REMARK  0 active torsions:
REMARK  status: ('A' for Active; 'I' for Inactive)
ROOT
ATOM      1  C4' PXY d   1       0.491  -0.621   1.698  0.00  0.00     0.077 C 
ATOM      2  C1' PXY d   1       4.041  -5.080   0.736  0.00  0.00     0.077 C 
ATOM      3  C1  PXY d   1       3.117  -3.903   0.980  0.00  0.00    -0.082 A 
ATOM      4  C2  PXY d   1       2.405  -3.851   2.095  0.00  0.00     0.003 A 
ATOM      5  C3  PXY d   1       1.541  -2.810   2.317  0.00  0.00     0.003 A 
ATOM      6  C4  PXY d   1       1.443  -1.785   1.414  0.00  0.00    -0.082 A 
ATOM      7  C5  PXY d   1       2.174  -1.826   0.280  0.00  0.00     0.003 A 
ATOM      8  C6  PXY d   1       3.015  -2.912   0.054  0.00  0.00     0.003 A 
ENDROOT
TORSDOF 0
ENDMDL
