MODEL 1
REMARK minimizedAffinity 0.275594383
REMARK minimizedRMSD -1
REMARK  0 active torsions:
REMARK  status: ('A' for Active; 'I' for Inactive)
ROOT
ATOM      1  C4' PXY d   1       5.113  -4.080   0.667  0.00  0.00     0.077 C 
ATOM      2  C1' PXY d   1       3.352   1.164  -1.010  0.00  0.00     0.077 C 
ATOM      3  C1  PXY d   1       3.826  -0.209  -0.576  0.00  0.00    -0.082 A 
ATOM      4  C2  PXY d   1       2.942  -1.174  -0.382  0.00  0.00     0.003 A 
ATOM      5  C3  PXY d   1       3.350  -2.413   0.042  0.00  0.00     0.003 A 
ATOM      6  C4  PXY d   1       4.681  -2.681   0.219  0.00  0.00    -0.082 A 
ATOM      7  C5  PXY d   1       5.590  -1.704   0.012  0.00  0.00     0.003 A 
ATOM      8  C6  PXY d   1       5.152  -0.442  -0.378  0.00  0.00     0.003 A 
ENDROOT
TORSDOF 0
ENDMDL
