MODEL 1
REMARK minimizedAffinity 8.40983963
REMARK minimizedRMSD -1
REMARK  0 active torsions:
REMARK  status: ('A' for Active; 'I' for Inactive)
ROOT
ATOM      1  C4' PXY d   1       2.258  -3.328   1.597  0.00  0.00     0.077 C 
ATOM      2  C1' PXY d   1       6.000  -3.492   6.000  0.00  0.00     0.077 C 
ATOM      3  C1  PXY d   1       5.027  -3.456   4.838  0.00  0.00    -0.082 A 
ATOM      4  C2  PXY d   1       4.122  -2.493   4.772  0.00  0.00     0.003 A 
ATOM      5  C3  PXY d   1       3.214  -2.463   3.745  0.00  0.00     0.003 A 
ATOM      6  C4  PXY d   1       3.267  -3.399   2.747  0.00  0.00    -0.082 A 
ATOM      7  C5  PXY d   1       4.194  -4.378   2.801  0.00  0.00     0.003 A 
ATOM      8  C6  PXY d   1       5.080  -4.414   3.873  0.00  0.00     0.003 A 
ENDROOT
TORSDOF 0
ENDMDL
