MODEL 1
REMARK minimizedAffinity 7.49675512
REMARK minimizedRMSD -1
REMARK  0 active torsions:
REMARK  status: ('A' for Active; 'I' for Inactive)
ROOT
ATOM      1  C4' PXY d   1       2.252  -3.746   1.449  0.00  0.00     0.077 C 
ATOM      2  C1' PXY d   1       5.799  -3.387   5.998  0.00  0.00     0.077 C 
ATOM      3  C1  PXY d   1       4.878  -3.488   4.799  0.00  0.00    -0.082 A 
ATOM      4  C2  PXY d   1       3.936  -2.577   4.619  0.00  0.00     0.003 A 
ATOM      5  C3  PXY d   1       3.074  -2.671   3.557  0.00  0.00     0.003 A 
ATOM      6  C4  PXY d   1       3.211  -3.679   2.640  0.00  0.00    -0.082 A 
ATOM      7  C5  PXY d   1       4.177  -4.606   2.811  0.00  0.00     0.003 A 
ATOM      8  C6  PXY d   1       5.015  -4.516   3.918  0.00  0.00     0.003 A 
ENDROOT
TORSDOF 0
ENDMDL
