MODEL 1
REMARK minimizedAffinity 1.96319759
REMARK minimizedRMSD -1
REMARK  0 active torsions:
REMARK  status: ('A' for Active; 'I' for Inactive)
ROOT
ATOM      1  C4' PXY d   1       1.437  -4.420   2.254  0.00  0.00     0.077 C 
ATOM      2  C1' PXY d   1      -1.783   0.373   1.987  0.00  0.00     0.077 C 
ATOM      3  C1  PXY d   1      -0.941  -0.885   2.070  0.00  0.00    -0.082 A 
ATOM      4  C2  PXY d   1       0.001  -1.102   1.167  0.00  0.00     0.003 A 
ATOM      5  C3  PXY d   1       0.750  -2.250   1.208  0.00  0.00     0.003 A 
ATOM      6  C4  PXY d   1       0.569  -3.159   2.215  0.00  0.00    -0.082 A 
ATOM      7  C5  PXY d   1      -0.383  -2.940   3.147  0.00  0.00     0.003 A 
ATOM      8  C6  PXY d   1      -1.160  -1.789   3.063  0.00  0.00     0.003 A 
ENDROOT
TORSDOF 0
ENDMDL
