MODEL 1
REMARK minimizedAffinity -4.01359844
REMARK minimizedRMSD -1
REMARK  0 active torsions:
REMARK  status: ('A' for Active; 'I' for Inactive)
ROOT
ATOM      1  N1  IND d   1      -0.787   2.698   0.393  0.00  0.00    -0.196 N 
ATOM      2  C2  IND d   1       0.286   3.176  -0.306  0.00  0.00     0.054 A 
ATOM      3  C3  IND d   1       1.073   2.155  -0.715  0.00  0.00    -0.031 A 
ATOM      4  C4  IND d   1       0.737  -0.382  -0.437  0.00  0.00     0.051 A 
ATOM      5  C5  IND d   1      -0.077  -1.301   0.163  0.00  0.00    -0.031 A 
ATOM      6  C6  IND d   1      -1.194  -0.927   0.882  0.00  0.00     0.015 A 
ATOM      7  C7  IND d   1      -1.546   0.386   1.019  0.00  0.00    -0.016 A 
ATOM      8  C8  IND d   1      -0.717   1.323   0.418  0.00  0.00    -0.047 A 
ATOM      9  C9  IND d   1       0.441   0.951  -0.277  0.00  0.00    -0.096 A 
ATOM     10  HN1 IND d   1      -1.403   3.176   0.757  0.00  0.00     0.298 HD
ENDROOT
TORSDOF 0
ENDMDL
