MODEL 1
REMARK minimizedAffinity -2.82098174
REMARK minimizedRMSD -1
REMARK  0 active torsions:
REMARK  status: ('A' for Active; 'I' for Inactive)
ROOT
ATOM      1  N1  IND d   1       1.277   2.591  -0.310  0.00  0.00    -0.196 N 
ATOM      2  C2  IND d   1       0.487   3.695  -0.148  0.00  0.00     0.054 A 
ATOM      3  C3  IND d   1      -0.801   3.328   0.036  0.00  0.00    -0.031 A 
ATOM      4  C4  IND d   1      -1.822   0.971   0.209  0.00  0.00     0.051 A 
ATOM      5  C5  IND d   1      -1.503  -0.352   0.089  0.00  0.00    -0.031 A 
ATOM      6  C6  IND d   1      -0.215  -0.771  -0.174  0.00  0.00     0.015 A 
ATOM      7  C7  IND d   1       0.810   0.122  -0.315  0.00  0.00    -0.016 A 
ATOM      8  C8  IND d   1       0.488   1.467  -0.200  0.00  0.00    -0.047 A 
ATOM      9  C9  IND d   1      -0.825   1.900   0.024  0.00  0.00    -0.096 A 
ATOM     10  HN1 IND d   1       2.124   2.598  -0.457  0.00  0.00     0.298 HD
ENDROOT
TORSDOF 0
ENDMDL
