MODEL 1
REMARK minimizedAffinity -4.84918642
REMARK minimizedRMSD -1
REMARK  0 active torsions:
REMARK  status: ('A' for Active; 'I' for Inactive)
ROOT
ATOM      1  N1  IND d   1      -0.917   2.121   0.277  0.00  0.00    -0.196 N 
ATOM      2  C2  IND d   1      -0.246   3.309   0.194  0.00  0.00     0.054 A 
ATOM      3  C3  IND d   1       1.087   3.104   0.276  0.00  0.00    -0.031 A 
ATOM      4  C4  IND d   1       2.394   0.892   0.447  0.00  0.00     0.051 A 
ATOM      5  C5  IND d   1       2.216  -0.456   0.590  0.00  0.00    -0.031 A 
ATOM      6  C6  IND d   1       0.960  -1.025   0.635  0.00  0.00     0.015 A 
ATOM      7  C7  IND d   1      -0.170  -0.266   0.526  0.00  0.00    -0.016 A 
ATOM      8  C8  IND d   1       0.006   1.104   0.387  0.00  0.00    -0.047 A 
ATOM      9  C9  IND d   1       1.277   1.692   0.384  0.00  0.00    -0.096 A 
ATOM     10  HN1 IND d   1      -1.771   2.025   0.263  0.00  0.00     0.298 HD
ENDROOT
TORSDOF 0
ENDMDL
