MODEL 1
REMARK minimizedAffinity -4.2187376
REMARK minimizedRMSD -1
REMARK  0 active torsions:
REMARK  status: ('A' for Active; 'I' for Inactive)
ROOT
ATOM      1  N1  IND d   1       1.062  -0.331  -1.116  0.00  0.00    -0.196 N 
ATOM      2  C2  IND d   1       0.213  -1.362  -0.827  0.00  0.00     0.054 A 
ATOM      3  C3  IND d   1      -0.842  -0.916  -0.110  0.00  0.00    -0.031 A 
ATOM      4  C4  IND d   1      -1.431   1.483   0.615  0.00  0.00     0.051 A 
ATOM      5  C5  IND d   1      -0.941   2.759   0.616  0.00  0.00    -0.031 A 
ATOM      6  C6  IND d   1       0.265   3.077   0.025  0.00  0.00     0.015 A 
ATOM      7  C7  IND d   1       1.024   2.129  -0.601  0.00  0.00    -0.016 A 
ATOM      8  C8  IND d   1       0.533   0.831  -0.598  0.00  0.00    -0.047 A 
ATOM      9  C9  IND d   1      -0.670   0.494   0.037  0.00  0.00    -0.096 A 
ATOM     10  HN1 IND d   1       1.803  -0.396  -1.548  0.00  0.00     0.298 HD
ENDROOT
TORSDOF 0
ENDMDL
