MODEL 1
REMARK minimizedAffinity -4.40613556
REMARK minimizedRMSD -1
REMARK  0 active torsions:
REMARK  status: ('A' for Active; 'I' for Inactive)
ROOT
ATOM      1  N1  IND d   1       0.473  -0.653  -0.268  0.00  0.00    -0.196 N 
ATOM      2  C2  IND d   1      -0.530  -1.019   0.586  0.00  0.00     0.054 A 
ATOM      3  C3  IND d   1      -1.187   0.073   1.036  0.00  0.00    -0.031 A 
ATOM      4  C4  IND d   1      -0.852   2.551   0.423  0.00  0.00     0.051 A 
ATOM      5  C5  IND d   1      -0.034   3.384  -0.288  0.00  0.00    -0.031 A 
ATOM      6  C6  IND d   1       1.014   2.904  -1.047  0.00  0.00     0.015 A 
ATOM      7  C7  IND d   1       1.277   1.566  -1.132  0.00  0.00    -0.016 A 
ATOM      8  C8  IND d   1       0.453   0.718  -0.405  0.00  0.00    -0.047 A 
ATOM      9  C9  IND d   1      -0.585   1.203   0.400  0.00  0.00    -0.096 A 
ATOM     10  HN1 IND d   1       1.023  -1.188  -0.655  0.00  0.00     0.298 HD
ENDROOT
TORSDOF 0
ENDMDL
