MODEL 1
REMARK minimizedAffinity -3.27117229
REMARK minimizedRMSD -1
REMARK  0 active torsions:
REMARK  status: ('A' for Active; 'I' for Inactive)
ROOT
ATOM      1  N1  IND d   1       1.296  -0.511  -0.518  0.00  0.00    -0.196 N 
ATOM      2  C2  IND d   1       0.580  -1.661  -0.338  0.00  0.00     0.054 A 
ATOM      3  C3  IND d   1      -0.625  -1.385   0.209  0.00  0.00    -0.031 A 
ATOM      4  C4  IND d   1      -1.670   0.893   0.797  0.00  0.00     0.051 A 
ATOM      5  C5  IND d   1      -1.385   2.229   0.846  0.00  0.00    -0.031 A 
ATOM      6  C6  IND d   1      -0.167   2.730   0.432  0.00  0.00     0.015 A 
ATOM      7  C7  IND d   1       0.810   1.912  -0.059  0.00  0.00    -0.016 A 
ATOM      8  C8  IND d   1       0.526   0.554  -0.104  0.00  0.00    -0.047 A 
ATOM      9  C9  IND d   1      -0.692   0.035   0.354  0.00  0.00    -0.096 A 
ATOM     10  HN1 IND d   1       2.093  -0.461  -0.836  0.00  0.00     0.298 HD
ENDROOT
TORSDOF 0
ENDMDL
