MODEL 1
REMARK minimizedAffinity -2.91146159
REMARK minimizedRMSD -1
REMARK  0 active torsions:
REMARK  status: ('A' for Active; 'I' for Inactive)
ROOT
ATOM      1  N1  IND d   1       1.024  -0.836  -0.239  0.00  0.00    -0.196 N 
ATOM      2  C2  IND d   1       0.060  -1.785  -0.040  0.00  0.00     0.054 A 
ATOM      3  C3  IND d   1      -1.102  -1.204   0.335  0.00  0.00    -0.031 A 
ATOM      4  C4  IND d   1      -1.675   1.293   0.584  0.00  0.00     0.051 A 
ATOM      5  C5  IND d   1      -1.111   2.537   0.544  0.00  0.00    -0.031 A 
ATOM      6  C6  IND d   1       0.220   2.724   0.232  0.00  0.00     0.015 A 
ATOM      7  C7  IND d   1       1.038   1.670  -0.064  0.00  0.00    -0.016 A 
ATOM      8  C8  IND d   1       0.470   0.405  -0.017  0.00  0.00    -0.047 A 
ATOM      9  C9  IND d   1      -0.870   0.206   0.340  0.00  0.00    -0.096 A 
ATOM     10  HN1 IND d   1       1.840  -0.989  -0.464  0.00  0.00     0.298 HD
ENDROOT
TORSDOF 0
ENDMDL
