MODEL 1
REMARK minimizedAffinity -2.61987233
REMARK minimizedRMSD -1
REMARK  0 active torsions:
REMARK  status: ('A' for Active; 'I' for Inactive)
ROOT
ATOM      1  N1  IND d   1      -0.012  -0.932  -0.431  0.00  0.00    -0.196 N 
ATOM      2  C2  IND d   1      -1.066  -1.237   0.386  0.00  0.00     0.054 A 
ATOM      3  C3  IND d   1      -1.589  -0.110   0.919  0.00  0.00    -0.031 A 
ATOM      4  C4  IND d   1      -0.941   2.347   0.510  0.00  0.00     0.051 A 
ATOM      5  C5  IND d   1      -0.016   3.125  -0.128  0.00  0.00    -0.031 A 
ATOM      6  C6  IND d   1       0.976   2.580  -0.918  0.00  0.00     0.015 A 
ATOM      7  C7  IND d   1       1.073   1.230  -1.108  0.00  0.00    -0.016 A 
ATOM      8  C8  IND d   1       0.140   0.437  -0.457  0.00  0.00    -0.047 A 
ATOM      9  C9  IND d   1      -0.843   0.982   0.380  0.00  0.00    -0.096 A 
ATOM     10  HN1 IND d   1       0.473  -1.500  -0.856  0.00  0.00     0.298 HD
ENDROOT
TORSDOF 0
ENDMDL
