MODEL 1
REMARK minimizedAffinity -1.45976722
REMARK minimizedRMSD -1
REMARK  0 active torsions:
REMARK  status: ('A' for Active; 'I' for Inactive)
ROOT
ATOM      1  N1  IND d   1      -1.076  -0.044   0.778  0.00  0.00    -0.196 N 
ATOM      2  C2  IND d   1      -0.620  -0.881  -0.202  0.00  0.00     0.054 A 
ATOM      3  C3  IND d   1       0.170  -0.206  -1.066  0.00  0.00    -0.031 A 
ATOM      4  C4  IND d   1       0.933   2.252  -1.007  0.00  0.00     0.051 A 
ATOM      5  C5  IND d   1       0.749   3.421  -0.323  0.00  0.00    -0.031 A 
ATOM      6  C6  IND d   1      -0.068   3.496   0.787  0.00  0.00     0.015 A 
ATOM      7  C7  IND d   1      -0.725   2.396   1.263  0.00  0.00    -0.016 A 
ATOM      8  C8  IND d   1      -0.545   1.209   0.567  0.00  0.00    -0.047 A 
ATOM      9  C9  IND d   1       0.249   1.137  -0.585  0.00  0.00    -0.096 A 
ATOM     10  HN1 IND d   1      -1.606  -0.264   1.419  0.00  0.00     0.298 HD
ENDROOT
TORSDOF 0
ENDMDL
