MODEL 1
REMARK minimizedAffinity -4.46823454
REMARK minimizedRMSD -1
REMARK  0 active torsions:
REMARK  status: ('A' for Active; 'I' for Inactive)
ROOT
ATOM      1  N1  IND d   1      -1.208   2.731   0.022  0.00  0.00    -0.196 N 
ATOM      2  C2  IND d   1      -0.309   3.747  -0.139  0.00  0.00     0.054 A 
ATOM      3  C3  IND d   1       0.955   3.269  -0.093  0.00  0.00    -0.031 A 
ATOM      4  C4  IND d   1       1.777   0.840   0.135  0.00  0.00     0.051 A 
ATOM      5  C5  IND d   1       1.328  -0.434   0.347  0.00  0.00    -0.031 A 
ATOM      6  C6  IND d   1      -0.016  -0.724   0.461  0.00  0.00     0.015 A 
ATOM      7  C7  IND d   1      -0.967   0.252   0.355  0.00  0.00    -0.016 A 
ATOM      8  C8  IND d   1      -0.515   1.547   0.147  0.00  0.00    -0.047 A 
ATOM      9  C9  IND d   1       0.850   1.854   0.073  0.00  0.00    -0.096 A 
ATOM     10  HN1 IND d   1      -2.064   2.816   0.041  0.00  0.00     0.298 HD
ENDROOT
TORSDOF 0
ENDMDL
