MODEL 1
REMARK minimizedAffinity -3.15737677
REMARK minimizedRMSD -1
REMARK  0 active torsions:
REMARK  status: ('A' for Active; 'I' for Inactive)
ROOT
ATOM      1  N1  IND d   1       1.100  -0.396  -0.203  0.00  0.00    -0.196 N 
ATOM      2  C2  IND d   1       0.165  -1.359   0.058  0.00  0.00     0.054 A 
ATOM      3  C3  IND d   1      -1.056  -0.799   0.211  0.00  0.00    -0.031 A 
ATOM      4  C4  IND d   1      -1.768   1.663  -0.028  0.00  0.00     0.051 A 
ATOM      5  C5  IND d   1      -1.261   2.917  -0.223  0.00  0.00    -0.031 A 
ATOM      6  C6  IND d   1       0.086   3.135  -0.428  0.00  0.00     0.015 A 
ATOM      7  C7  IND d   1       0.978   2.101  -0.458  0.00  0.00    -0.016 A 
ATOM      8  C8  IND d   1       0.468   0.827  -0.253  0.00  0.00    -0.047 A 
ATOM      9  C9  IND d   1      -0.892   0.604  -0.001  0.00  0.00    -0.096 A 
ATOM     10  HN1 IND d   1       1.942  -0.531  -0.317  0.00  0.00     0.298 HD
ENDROOT
TORSDOF 0
ENDMDL
