MODEL 1
REMARK minimizedAffinity 9.95747375
REMARK minimizedRMSD -1
REMARK  0 active torsions:
REMARK  status: ('A' for Active; 'I' for Inactive)
ROOT
ATOM      1  N1  IND d   1       2.187   0.777   0.951  0.00  0.00    -0.196 N 
ATOM      2  C2  IND d   1       2.816  -0.172   0.195  0.00  0.00     0.054 A 
ATOM      3  C3  IND d   1       1.909  -0.985  -0.392  0.00  0.00    -0.031 A 
ATOM      4  C4  IND d   1      -0.663  -0.877  -0.331  0.00  0.00     0.051 A 
ATOM      5  C5  IND d   1      -1.699  -0.207   0.256  0.00  0.00    -0.031 A 
ATOM      6  C6  IND d   1      -1.489   0.848   1.119  0.00  0.00     0.015 A 
ATOM      7  C7  IND d   1      -0.230   1.282   1.421  0.00  0.00    -0.016 A 
ATOM      8  C8  IND d   1       0.826   0.600   0.833  0.00  0.00    -0.047 A 
ATOM      9  C9  IND d   1       0.620  -0.500  -0.011  0.00  0.00    -0.096 A 
ATOM     10  HN1 IND d   1       2.575   1.383   1.421  0.00  0.00     0.298 HD
ENDROOT
TORSDOF 0
ENDMDL
