MODEL 1
REMARK minimizedAffinity -5.31591129
REMARK minimizedRMSD -1
REMARK  0 active torsions:
REMARK  status: ('A' for Active; 'I' for Inactive)
ROOT
ATOM      1  N1  IND d   1      -0.984  -0.191   1.219  0.00  0.00    -0.196 N 
ATOM      2  C2  IND d   1      -0.333  -1.276   0.702  0.00  0.00     0.054 A 
ATOM      3  C3  IND d   1       0.638  -0.879  -0.151  0.00  0.00    -0.031 A 
ATOM      4  C4  IND d   1       1.399   1.501  -0.769  0.00  0.00     0.051 A 
ATOM      5  C5  IND d   1       1.082   2.817  -0.580  0.00  0.00    -0.031 A 
ATOM      6  C6  IND d   1       0.040   3.205   0.238  0.00  0.00     0.015 A 
ATOM      7  C7  IND d   1      -0.719   2.288   0.909  0.00  0.00    -0.016 A 
ATOM      8  C8  IND d   1      -0.404   0.951   0.713  0.00  0.00    -0.047 A 
ATOM      9  C9  IND d   1       0.624   0.549  -0.149  0.00  0.00    -0.096 A 
ATOM     10  HN1 IND d   1      -1.646  -0.218   1.768  0.00  0.00     0.298 HD
ENDROOT
TORSDOF 0
ENDMDL
