MODEL 1
REMARK minimizedAffinity 1.4152993
REMARK minimizedRMSD -1
REMARK  0 active torsions:
REMARK  status: ('A' for Active; 'I' for Inactive)
ROOT
ATOM      1  N1  IND d   1       0.746  -0.566  -1.103  0.00  0.00    -0.196 N 
ATOM      2  C2  IND d   1       0.157  -0.132   0.051  0.00  0.00     0.054 A 
ATOM      3  C3  IND d   1      -0.829  -0.979   0.423  0.00  0.00    -0.031 A 
ATOM      4  C4  IND d   1      -1.579  -3.192  -0.657  0.00  0.00     0.051 A 
ATOM      5  C5  IND d   1      -1.363  -3.985  -1.749  0.00  0.00    -0.031 A 
ATOM      6  C6  IND d   1      -0.412  -3.674  -2.699  0.00  0.00     0.015 A 
ATOM      7  C7  IND d   1       0.370  -2.559  -2.586  0.00  0.00    -0.016 A 
ATOM      8  C8  IND d   1       0.149  -1.748  -1.483  0.00  0.00    -0.047 A 
ATOM      9  C9  IND d   1      -0.844  -2.036  -0.537  0.00  0.00    -0.096 A 
ATOM     10  HN1 IND d   1       1.383  -0.168  -1.522  0.00  0.00     0.298 HD
ENDROOT
TORSDOF 0
ENDMDL
