MODEL 1
REMARK minimizedAffinity 1.60449994
REMARK minimizedRMSD -1
REMARK  0 active torsions:
REMARK  status: ('A' for Active; 'I' for Inactive)
ROOT
ATOM      1  N1  IND d   1       0.262  -2.715  -2.923  0.00  0.00    -0.196 N 
ATOM      2  C2  IND d   1      -0.750  -3.633  -2.874  0.00  0.00     0.054 A 
ATOM      3  C3  IND d   1      -1.338  -3.620  -1.656  0.00  0.00    -0.031 A 
ATOM      4  C4  IND d   1      -0.868  -2.105   0.371  0.00  0.00     0.051 A 
ATOM      5  C5  IND d   1      -0.013  -1.136   0.817  0.00  0.00    -0.031 A 
ATOM      6  C6  IND d   1       0.996  -0.632   0.022  0.00  0.00     0.015 A 
ATOM      7  C7  IND d   1       1.181  -1.072  -1.258  0.00  0.00    -0.016 A 
ATOM      8  C8  IND d   1       0.319  -2.061  -1.712  0.00  0.00    -0.047 A 
ATOM      9  C9  IND d   1      -0.680  -2.606  -0.895  0.00  0.00    -0.096 A 
ATOM     10  HN1 IND d   1       0.776  -2.571  -3.597  0.00  0.00     0.298 HD
ENDROOT
TORSDOF 0
ENDMDL
