MODEL 1
REMARK minimizedAffinity -4.67443562
REMARK minimizedRMSD -1
REMARK  1 active torsions:
REMARK  status: ('A' for Active; 'I' for Inactive)
REMARK    1  A    between atoms: C3_4  and  O_7 
ROOT
ATOM      1  C   UNL d   1      -0.730   0.170   0.653  0.00  0.00    -0.033 A 
ATOM      2  C1  UNL d   1       0.338   0.097  -0.244  0.00  0.00     0.039 A 
ATOM      3  C2  UNL d   1       1.245  -0.962  -0.166  0.00  0.00    -0.080 A 
ATOM      4  C3  UNL d   1       1.074  -1.939   0.811  0.00  0.00     0.150 A 
ATOM      5  C4  UNL d   1       0.010  -1.874   1.705  0.00  0.00    -0.007 A 
ATOM      6  C5  UNL d   1      -0.894  -0.815   1.626  0.00  0.00     0.039 A 
ENDROOT
BRANCH   4   7
ATOM      7  O   UNL d   1       1.936  -2.988   0.928  0.00  0.00    -0.526 OA
ATOM      8  H5  UNL d   1       2.637  -2.886   0.263  0.00  0.00     0.418 HD
ENDBRANCH   4   7
TORSDOF 1
ENDMDL
