MODEL 1
REMARK minimizedAffinity -3.09064817
REMARK minimizedRMSD -1
REMARK  1 active torsions:
REMARK  status: ('A' for Active; 'I' for Inactive)
REMARK    1  A    between atoms: C3_4  and  O_7 
ROOT
ATOM      1  C   UNL d   1      -2.457   0.907  -1.668  0.00  0.00    -0.033 A 
ATOM      2  C1  UNL d   1      -2.772   0.617  -2.997  0.00  0.00     0.039 A 
ATOM      3  C2  UNL d   1      -2.033   1.192  -4.033  0.00  0.00    -0.080 A 
ATOM      4  C3  UNL d   1      -0.983   2.054  -3.726  0.00  0.00     0.150 A 
ATOM      5  C4  UNL d   1      -0.661   2.344  -2.405  0.00  0.00    -0.007 A 
ATOM      6  C5  UNL d   1      -1.401   1.769  -1.372  0.00  0.00     0.039 A 
ENDROOT
BRANCH   4   7
ATOM      7  O   UNL d   1      -0.237   2.643  -4.703  0.00  0.00    -0.526 OA
ATOM      8  H5  UNL d   1      -0.592   2.373  -5.567  0.00  0.00     0.418 HD
ENDBRANCH   4   7
TORSDOF 1
ENDMDL
