MODEL 1
REMARK minimizedAffinity -4.94689369
REMARK minimizedRMSD -1
REMARK  1 active torsions:
REMARK  status: ('A' for Active; 'I' for Inactive)
REMARK    1  A    between atoms: C3_4  and  O_7 
ROOT
ATOM      1  C   UNL d   1       0.156   0.808  -0.366  0.00  0.00    -0.033 A 
ATOM      2  C1  UNL d   1      -0.679  -0.124   0.252  0.00  0.00     0.039 A 
ATOM      3  C2  UNL d   1      -0.173  -1.363   0.649  0.00  0.00    -0.080 A 
ATOM      4  C3  UNL d   1       1.169  -1.657   0.423  0.00  0.00     0.150 A 
ATOM      5  C4  UNL d   1       2.008  -0.732  -0.189  0.00  0.00    -0.007 A 
ATOM      6  C5  UNL d   1       1.500   0.505  -0.585  0.00  0.00     0.039 A 
ENDROOT
BRANCH   4   7
ATOM      7  O   UNL d   1       1.707  -2.855   0.787  0.00  0.00    -0.526 OA
ATOM      8  H5  UNL d   1       1.004  -3.405   1.172  0.00  0.00     0.418 HD
ENDBRANCH   4   7
TORSDOF 1
ENDMDL
