MODEL 1
REMARK minimizedAffinity -3.36517572
REMARK minimizedRMSD -1
REMARK  1 active torsions:
REMARK  status: ('A' for Active; 'I' for Inactive)
REMARK    1  A    between atoms: C3_4  and  O_7 
ROOT
ATOM      1  C   UNL d   1      -1.086  -0.708   1.264  0.00  0.00    -0.033 A 
ATOM      2  C1  UNL d   1      -0.102  -0.623   0.277  0.00  0.00     0.039 A 
ATOM      3  C2  UNL d   1       0.988  -1.495   0.298  0.00  0.00    -0.080 A 
ATOM      4  C3  UNL d   1       1.082  -2.447   1.310  0.00  0.00     0.150 A 
ATOM      5  C4  UNL d   1       0.103  -2.540   2.295  0.00  0.00    -0.007 A 
ATOM      6  C5  UNL d   1      -0.984  -1.667   2.272  0.00  0.00     0.039 A 
ENDROOT
BRANCH   4   7
ATOM      7  O   UNL d   1       2.130  -3.316   1.376  0.00  0.00    -0.526 OA
ATOM      8  H5  UNL d   1       2.741  -3.116   0.648  0.00  0.00     0.418 HD
ENDBRANCH   4   7
TORSDOF 1
ENDMDL
