MODEL 1
REMARK minimizedAffinity -4.20090771
REMARK minimizedRMSD -1
REMARK  1 active torsions:
REMARK  status: ('A' for Active; 'I' for Inactive)
REMARK    1  A    between atoms: C3_4  and  O_7 
ROOT
ATOM      1  C   UNL d   1       0.929  -2.557   2.247  0.00  0.00    -0.033 A 
ATOM      2  C1  UNL d   1       1.464  -2.060   1.057  0.00  0.00     0.039 A 
ATOM      3  C2  UNL d   1       0.828  -1.012   0.388  0.00  0.00    -0.080 A 
ATOM      4  C3  UNL d   1      -0.340  -0.471   0.919  0.00  0.00     0.150 A 
ATOM      5  C4  UNL d   1      -0.876  -0.959   2.106  0.00  0.00    -0.007 A 
ATOM      6  C5  UNL d   1      -0.240  -2.006   2.773  0.00  0.00     0.039 A 
ENDROOT
BRANCH   4   7
ATOM      7  O   UNL d   1      -0.999   0.549   0.299  0.00  0.00    -0.526 OA
ATOM      8  H5  UNL d   1      -0.529   0.763  -0.524  0.00  0.00     0.418 HD
ENDBRANCH   4   7
TORSDOF 1
ENDMDL
