MODEL 1
REMARK minimizedAffinity -3.48016429
REMARK minimizedRMSD -1
REMARK  1 active torsions:
REMARK  status: ('A' for Active; 'I' for Inactive)
REMARK    1  A    between atoms: C3_4  and  O_7 
ROOT
ATOM      1  C   UNL d   1      -2.250   1.676  -3.496  0.00  0.00    -0.033 A 
ATOM      2  C1  UNL d   1      -1.232   2.552  -3.112  0.00  0.00     0.039 A 
ATOM      3  C2  UNL d   1      -0.639   2.428  -1.854  0.00  0.00    -0.080 A 
ATOM      4  C3  UNL d   1      -1.071   1.424  -0.991  0.00  0.00     0.150 A 
ATOM      5  C4  UNL d   1      -2.081   0.546  -1.368  0.00  0.00    -0.007 A 
ATOM      6  C5  UNL d   1      -2.673   0.672  -2.625  0.00  0.00     0.039 A 
ENDROOT
BRANCH   4   7
ATOM      7  O   UNL d   1      -0.526   1.267   0.248  0.00  0.00    -0.526 OA
ATOM      8  H5  UNL d   1       0.140   1.962   0.383  0.00  0.00     0.418 HD
ENDBRANCH   4   7
TORSDOF 1
ENDMDL
