MODEL 1
REMARK minimizedAffinity -5.0740428
REMARK minimizedRMSD -1
REMARK  1 active torsions:
REMARK  status: ('A' for Active; 'I' for Inactive)
REMARK    1  A    between atoms: C3_4  and  O_7 
ROOT
ATOM      1  C   UNL d   1      -0.352   0.151   0.849  0.00  0.00    -0.033 A 
ATOM      2  C1  UNL d   1      -0.694  -0.808   1.805  0.00  0.00     0.039 A 
ATOM      3  C2  UNL d   1      -0.010  -2.024   1.852  0.00  0.00    -0.080 A 
ATOM      4  C3  UNL d   1       1.013  -2.268   0.940  0.00  0.00     0.150 A 
ATOM      5  C4  UNL d   1       1.362  -1.316  -0.012  0.00  0.00    -0.007 A 
ATOM      6  C5  UNL d   1       0.677  -0.103  -0.058  0.00  0.00     0.039 A 
ENDROOT
BRANCH   4   7
ATOM      7  O   UNL d   1       1.707  -3.442   0.944  0.00  0.00    -0.526 OA
ATOM      8  H5  UNL d   1       1.337  -4.015   1.637  0.00  0.00     0.418 HD
ENDBRANCH   4   7
TORSDOF 1
ENDMDL
