MODEL 1
REMARK minimizedAffinity -2.173347
REMARK minimizedRMSD -1
REMARK  1 active torsions:
REMARK  status: ('A' for Active; 'I' for Inactive)
REMARK    1  A    between atoms: C3_4  and  O_7 
ROOT
ATOM      1  C   UNL d   1       1.693  -2.237   1.913  0.00  0.00    -0.033 A 
ATOM      2  C1  UNL d   1       0.425  -1.840   2.342  0.00  0.00     0.039 A 
ATOM      3  C2  UNL d   1      -0.303  -0.906   1.603  0.00  0.00    -0.080 A 
ATOM      4  C3  UNL d   1       0.246  -0.379   0.437  0.00  0.00     0.150 A 
ATOM      5  C4  UNL d   1       1.507  -0.773   0.002  0.00  0.00    -0.007 A 
ATOM      6  C5  UNL d   1       2.233  -1.705   0.742  0.00  0.00     0.039 A 
ENDROOT
BRANCH   4   7
ATOM      7  O   UNL d   1      -0.425   0.539  -0.315  0.00  0.00    -0.526 OA
ATOM      8  H5  UNL d   1      -1.269   0.738   0.123  0.00  0.00     0.418 HD
ENDBRANCH   4   7
TORSDOF 1
ENDMDL
