MODEL 1
REMARK minimizedAffinity -5.7623229
REMARK minimizedRMSD -1
REMARK  1 active torsions:
REMARK  status: ('A' for Active; 'I' for Inactive)
REMARK    1  A    between atoms: C3_4  and  O_7 
ROOT
ATOM      1  C   UNL d   1       1.178  -2.606   1.796  0.00  0.00    -0.033 A 
ATOM      2  C1  UNL d   1      -0.014  -2.103   2.322  0.00  0.00     0.039 A 
ATOM      3  C2  UNL d   1      -0.589  -0.953   1.777  0.00  0.00    -0.080 A 
ATOM      4  C3  UNL d   1       0.037  -0.316   0.709  0.00  0.00     0.150 A 
ATOM      5  C4  UNL d   1       1.223  -0.814   0.178  0.00  0.00    -0.007 A 
ATOM      6  C5  UNL d   1       1.796  -1.962   0.724  0.00  0.00     0.039 A 
ENDROOT
BRANCH   4   7
ATOM      7  O   UNL d   1      -0.484   0.812   0.147  0.00  0.00    -0.526 OA
ATOM      8  H5  UNL d   1      -1.288   1.055   0.635  0.00  0.00     0.418 HD
ENDBRANCH   4   7
TORSDOF 1
ENDMDL
