MODEL 1
REMARK minimizedAffinity -3.01718807
REMARK minimizedRMSD -1
REMARK  1 active torsions:
REMARK  status: ('A' for Active; 'I' for Inactive)
REMARK    1  A    between atoms: C3_4  and  O_7 
ROOT
ATOM      1  C   UNL d   1       0.705   0.506  -0.374  0.00  0.00    -0.033 A 
ATOM      2  C1  UNL d   1       2.007   0.023  -0.512  0.00  0.00     0.039 A 
ATOM      3  C2  UNL d   1       2.334  -1.253  -0.048  0.00  0.00    -0.080 A 
ATOM      4  C3  UNL d   1       1.350  -2.036   0.549  0.00  0.00     0.150 A 
ATOM      5  C4  UNL d   1       0.049  -1.563   0.686  0.00  0.00    -0.007 A 
ATOM      6  C5  UNL d   1      -0.275  -0.288   0.224  0.00  0.00     0.039 A 
ENDROOT
BRANCH   4   7
ATOM      7  O   UNL d   1       1.622  -3.285   1.021  0.00  0.00    -0.526 OA
ATOM      8  H5  UNL d   1       2.566  -3.467   0.884  0.00  0.00     0.418 HD
ENDBRANCH   4   7
TORSDOF 1
ENDMDL
