MODEL 1
REMARK minimizedAffinity -4.09487104
REMARK minimizedRMSD -1
REMARK  1 active torsions:
REMARK  status: ('A' for Active; 'I' for Inactive)
REMARK    1  A    between atoms: C3_4  and  O_7 
ROOT
ATOM      1  C   UNL d   1       1.594  -2.314   2.068  0.00  0.00    -0.033 A 
ATOM      2  C1  UNL d   1       0.293  -1.985   2.455  0.00  0.00     0.039 A 
ATOM      3  C2  UNL d   1      -0.467  -1.108   1.679  0.00  0.00    -0.080 A 
ATOM      4  C3  UNL d   1       0.083  -0.568   0.520  0.00  0.00     0.150 A 
ATOM      5  C4  UNL d   1       1.376  -0.895   0.126  0.00  0.00    -0.007 A 
ATOM      6  C5  UNL d   1       2.135  -1.770   0.902  0.00  0.00     0.039 A 
ENDROOT
BRANCH   4   7
ATOM      7  O   UNL d   1      -0.620   0.295  -0.267  0.00  0.00    -0.526 OA
ATOM      8  H5  UNL d   1      -1.486   0.451   0.144  0.00  0.00     0.418 HD
ENDBRANCH   4   7
TORSDOF 1
ENDMDL
