MODEL 1
REMARK minimizedAffinity -1.08100319
REMARK minimizedRMSD -1
REMARK  1 active torsions:
REMARK  status: ('A' for Active; 'I' for Inactive)
REMARK    1  A    between atoms: C3_4  and  O_7 
ROOT
ATOM      1  C   UNL d   1      -0.714   0.674  -0.049  0.00  0.00    -0.033 A 
ATOM      2  C1  UNL d   1       0.481   0.801  -0.760  0.00  0.00     0.039 A 
ATOM      3  C2  UNL d   1       1.522  -0.105  -0.547  0.00  0.00    -0.080 A 
ATOM      4  C3  UNL d   1       1.355  -1.133   0.377  0.00  0.00     0.150 A 
ATOM      5  C4  UNL d   1       0.166  -1.268   1.085  0.00  0.00    -0.007 A 
ATOM      6  C5  UNL d   1      -0.872  -0.362   0.872  0.00  0.00     0.039 A 
ENDROOT
BRANCH   4   7
ATOM      7  O   UNL d   1       2.345  -2.038   0.622  0.00  0.00    -0.526 OA
ATOM      8  H5  UNL d   1       3.117  -1.803   0.082  0.00  0.00     0.418 HD
ENDBRANCH   4   7
TORSDOF 1
ENDMDL
