MODEL 1
REMARK minimizedAffinity -2.20874572
REMARK minimizedRMSD -1
REMARK  1 active torsions:
REMARK  status: ('A' for Active; 'I' for Inactive)
REMARK    1  A    between atoms: N_2  and  C1_3 
ROOT
ATOM      1  C1  UNL d   1       0.159   0.128  -0.076  0.00  0.00     0.143 A 
ATOM      2  C2  UNL d   1       0.059   0.161   1.320  0.00  0.00    -0.057 A 
ATOM      3  C3  UNL d   1      -0.287   1.338   1.995  0.00  0.00     0.033 A 
ATOM      4  C4  UNL d   1      -0.511   2.513   1.286  0.00  0.00    -0.042 A 
ATOM      5  C5  UNL d   1      -0.393   2.510  -0.099  0.00  0.00     0.033 A 
ATOM      6  C6  UNL d   1      -0.054   1.330  -0.768  0.00  0.00    -0.057 A 
ENDROOT
BRANCH   1   7
ATOM      7  N   UNL d   1       0.595  -0.985  -0.798  0.00  0.00    -0.732 N 
ATOM      8  C   UNL d   1      -0.231  -2.169  -0.897  0.00  0.00     0.284 C 
ATOM      9  H3  UNL d   1       1.058  -0.728  -1.666  0.00  0.00     0.395 HD
ENDBRANCH   1   7
TORSDOF 1
ENDMDL
