MODEL 1
REMARK minimizedAffinity -4.64874458
REMARK minimizedRMSD -1
REMARK  1 active torsions:
REMARK  status: ('A' for Active; 'I' for Inactive)
REMARK    1  A    between atoms: N_2  and  C1_3 
ROOT
ATOM      1  C1  UNL d   1      -0.395   1.474  -0.185  0.00  0.00     0.143 A 
ATOM      2  C2  UNL d   1       0.141   0.426   0.571  0.00  0.00    -0.057 A 
ATOM      3  C3  UNL d   1       0.024   0.403   1.966  0.00  0.00     0.033 A 
ATOM      4  C4  UNL d   1      -0.608   1.447   2.634  0.00  0.00    -0.042 A 
ATOM      5  C5  UNL d   1      -1.126   2.511   1.906  0.00  0.00     0.033 A 
ATOM      6  C6  UNL d   1      -1.012   2.525   0.512  0.00  0.00    -0.057 A 
ENDROOT
BRANCH   1   7
ATOM      7  N   UNL d   1      -0.225   1.604  -1.565  0.00  0.00    -0.732 N 
ATOM      8  C   UNL d   1      -0.627   2.815  -2.247  0.00  0.00     0.284 C 
ATOM      9  H3  UNL d   1       0.662   1.222  -1.885  0.00  0.00     0.395 HD
ENDBRANCH   1   7
TORSDOF 1
ENDMDL
