MODEL 1
REMARK minimizedAffinity -5.00592518
REMARK minimizedRMSD -1
REMARK  1 active torsions:
REMARK  status: ('A' for Active; 'I' for Inactive)
REMARK    1  A    between atoms: N_2  and  C1_3 
ROOT
ATOM      1  C1  UNL d   1      -0.370   0.835   0.449  0.00  0.00     0.143 A 
ATOM      2  C2  UNL d   1      -0.526   1.672   1.559  0.00  0.00    -0.057 A 
ATOM      3  C3  UNL d   1      -0.845   3.027   1.408  0.00  0.00     0.033 A 
ATOM      4  C4  UNL d   1      -0.983   3.577   0.138  0.00  0.00    -0.042 A 
ATOM      5  C5  UNL d   1      -0.807   2.770  -0.981  0.00  0.00     0.033 A 
ATOM      6  C6  UNL d   1      -0.496   1.416  -0.823  0.00  0.00    -0.057 A 
ENDROOT
BRANCH   1   7
ATOM      7  N   UNL d   1       0.043  -0.497   0.531  0.00  0.00    -0.732 N 
ATOM      8  C   UNL d   1       0.097  -1.326  -0.654  0.00  0.00     0.284 C 
ATOM      9  H3  UNL d   1       0.832  -0.621   1.162  0.00  0.00     0.395 HD
ENDBRANCH   1   7
TORSDOF 1
ENDMDL
