MODEL 1
REMARK minimizedAffinity -4.5926528
REMARK minimizedRMSD -1
REMARK  1 active torsions:
REMARK  status: ('A' for Active; 'I' for Inactive)
REMARK    1  A    between atoms: N_2  and  C1_3 
ROOT
ATOM      1  C1  UNL d   1      -0.910   2.028   0.585  0.00  0.00     0.143 A 
ATOM      2  C2  UNL d   1      -0.353   0.904  -0.035  0.00  0.00    -0.057 A 
ATOM      3  C3  UNL d   1       0.161  -0.160   0.717  0.00  0.00     0.033 A 
ATOM      4  C4  UNL d   1       0.153  -0.105   2.107  0.00  0.00    -0.042 A 
ATOM      5  C5  UNL d   1      -0.374   1.013   2.744  0.00  0.00     0.033 A 
ATOM      6  C6  UNL d   1      -0.891   2.069   1.988  0.00  0.00    -0.057 A 
ENDROOT
BRANCH   1   7
ATOM      7  N   UNL d   1      -1.347   3.160  -0.106  0.00  0.00    -0.732 N 
ATOM      8  C   UNL d   1      -0.820   3.473  -1.417  0.00  0.00     0.284 C 
ATOM      9  H3  UNL d   1      -2.350   3.307  -0.016  0.00  0.00     0.395 HD
ENDBRANCH   1   7
TORSDOF 1
ENDMDL
