MODEL 1
REMARK minimizedAffinity -5.51268005
REMARK minimizedRMSD -1
REMARK  1 active torsions:
REMARK  status: ('A' for Active; 'I' for Inactive)
REMARK    1  A    between atoms: N_2  and  C1_3 
ROOT
ATOM      1  C1  UNL d   1      -0.401   1.041   0.497  0.00  0.00     0.143 A 
ATOM      2  C2  UNL d   1      -0.338   1.692   1.734  0.00  0.00    -0.057 A 
ATOM      3  C3  UNL d   1      -0.740   3.026   1.874  0.00  0.00     0.033 A 
ATOM      4  C4  UNL d   1      -1.188   3.743   0.769  0.00  0.00    -0.042 A 
ATOM      5  C5  UNL d   1      -1.236   3.124  -0.475  0.00  0.00     0.033 A 
ATOM      6  C6  UNL d   1      -0.838   1.790  -0.607  0.00  0.00    -0.057 A 
ENDROOT
BRANCH   1   7
ATOM      7  N   UNL d   1       0.077  -0.252   0.273  0.00  0.00    -0.732 N 
ATOM      8  C   UNL d   1       0.304  -0.731  -1.073  0.00  0.00     0.284 C 
ATOM      9  H3  UNL d   1       0.801  -0.519   0.937  0.00  0.00     0.395 HD
ENDBRANCH   1   7
TORSDOF 1
ENDMDL
