MODEL 1
REMARK minimizedAffinity 10.9965191
REMARK minimizedRMSD -1
REMARK  0 active torsions:
REMARK  status: ('A' for Active; 'I' for Inactive)
ROOT
ATOM      1  C   UNL d   1       3.353   3.005   6.000  0.00  0.00     0.023 A 
ATOM      2  C1  UNL d   1       3.234   3.892   4.930  0.00  0.00     0.003 A 
ATOM      3  C2  UNL d   1       2.985   3.408   3.644  0.00  0.00     0.048 A 
ATOM      4  C3  UNL d   1       2.855   2.036   3.435  0.00  0.00     0.023 A 
ATOM      5  C4  UNL d   1       2.973   1.144   4.502  0.00  0.00     0.048 A 
ATOM      6  C5  UNL d   1       3.223   1.632   5.786  0.00  0.00     0.003 A 
ATOM      7  I   UNL d   1       2.485   1.313   1.522  0.00  0.00    -0.146 I 
ENDROOT
TORSDOF 0
ENDMDL
