MODEL 1
REMARK minimizedAffinity 11.38587
REMARK minimizedRMSD -1
REMARK  0 active torsions:
REMARK  status: ('A' for Active; 'I' for Inactive)
ROOT
ATOM      1  C   UNL d   1       1.460  -3.187  -1.635  0.00  0.00     0.023 A 
ATOM      2  C1  UNL d   1       0.864  -1.955  -1.907  0.00  0.00     0.003 A 
ATOM      3  C2  UNL d   1       1.494  -0.772  -1.518  0.00  0.00     0.048 A 
ATOM      4  C3  UNL d   1       2.722  -0.827  -0.858  0.00  0.00     0.023 A 
ATOM      5  C4  UNL d   1       3.322  -2.056  -0.584  0.00  0.00     0.048 A 
ATOM      6  C5  UNL d   1       2.688  -3.237  -0.975  0.00  0.00     0.003 A 
ATOM      7  I   UNL d   1       3.662   0.934  -0.277  0.00  0.00    -0.146 I 
ENDROOT
TORSDOF 0
ENDMDL
