MODEL 1
REMARK minimizedAffinity 13.5716009
REMARK minimizedRMSD -1
REMARK  0 active torsions:
REMARK  status: ('A' for Active; 'I' for Inactive)
ROOT
ATOM      1  C   UNL d   1       3.855   1.203  -0.678  0.00  0.00     0.023 A 
ATOM      2  C1  UNL d   1       2.734   1.511  -1.449  0.00  0.00     0.003 A 
ATOM      3  C2  UNL d   1       1.724   0.562  -1.625  0.00  0.00     0.048 A 
ATOM      4  C3  UNL d   1       1.842  -0.692  -1.027  0.00  0.00     0.023 A 
ATOM      5  C4  UNL d   1       2.961  -1.004  -0.254  0.00  0.00     0.048 A 
ATOM      6  C5  UNL d   1       3.969  -0.053  -0.082  0.00  0.00     0.003 A 
ATOM      7  I   UNL d   1       0.340  -2.105  -1.287  0.00  0.00    -0.146 I 
ENDROOT
TORSDOF 0
ENDMDL
