MODEL 1
REMARK minimizedAffinity 3.80630732
REMARK minimizedRMSD -1
REMARK  0 active torsions:
REMARK  status: ('A' for Active; 'I' for Inactive)
ROOT
ATOM      1  C   UNL d   1       1.882   0.974   1.703  0.00  0.00     0.023 A 
ATOM      2  C1  UNL d   1       2.591   2.175   1.757  0.00  0.00     0.003 A 
ATOM      3  C2  UNL d   1       2.858   2.774   2.989  0.00  0.00     0.048 A 
ATOM      4  C3  UNL d   1       2.415   2.168   4.164  0.00  0.00     0.023 A 
ATOM      5  C4  UNL d   1       1.706   0.966   4.115  0.00  0.00     0.048 A 
ATOM      6  C5  UNL d   1       1.440   0.371   2.881  0.00  0.00     0.003 A 
ATOM      7  I   UNL d   1       2.812   3.058   6.000  0.00  0.00    -0.146 I 
ENDROOT
TORSDOF 0
ENDMDL
