MODEL 1
REMARK minimizedAffinity 9.35132217
REMARK minimizedRMSD -1
REMARK  0 active torsions:
REMARK  status: ('A' for Active; 'I' for Inactive)
ROOT
ATOM      1  C   UNL d   1       2.405   0.146  -1.752  0.00  0.00     0.023 A 
ATOM      2  C1  UNL d   1       1.516   0.137  -2.827  0.00  0.00     0.003 A 
ATOM      3  C2  UNL d   1       0.751  -1.001  -3.093  0.00  0.00     0.048 A 
ATOM      4  C3  UNL d   1       0.879  -2.125  -2.278  0.00  0.00     0.023 A 
ATOM      5  C4  UNL d   1       1.766  -2.120  -1.200  0.00  0.00     0.048 A 
ATOM      6  C5  UNL d   1       2.530  -0.981  -0.940  0.00  0.00     0.003 A 
ATOM      7  I   UNL d   1      -0.259  -3.820  -2.670  0.00  0.00    -0.146 I 
ENDROOT
TORSDOF 0
ENDMDL
