MODEL 1
REMARK minimizedAffinity 3.2186501
REMARK minimizedRMSD -1
REMARK  0 active torsions:
REMARK  status: ('A' for Active; 'I' for Inactive)
ROOT
ATOM      1  C   UNL d   1       2.844   0.374  -1.256  0.00  0.00     0.023 A 
ATOM      2  C1  UNL d   1       1.935   0.493  -2.307  0.00  0.00     0.003 A 
ATOM      3  C2  UNL d   1       0.941  -0.472  -2.486  0.00  0.00     0.048 A 
ATOM      4  C3  UNL d   1       0.862  -1.553  -1.608  0.00  0.00     0.023 A 
ATOM      5  C4  UNL d   1       1.769  -1.676  -0.555  0.00  0.00     0.048 A 
ATOM      6  C5  UNL d   1       2.761  -0.709  -0.381  0.00  0.00     0.003 A 
ATOM      7  I   UNL d   1      -0.616  -2.990  -1.872  0.00  0.00    -0.146 I 
ENDROOT
TORSDOF 0
ENDMDL
