MODEL 1
REMARK minimizedAffinity 13.0056686
REMARK minimizedRMSD -1
REMARK  0 active torsions:
REMARK  status: ('A' for Active; 'I' for Inactive)
ROOT
ATOM      1  C   UNL d   1       0.332   0.553  -3.473  0.00  0.00     0.023 A 
ATOM      2  C1  UNL d   1       0.966  -0.615  -3.051  0.00  0.00     0.003 A 
ATOM      3  C2  UNL d   1       2.086  -0.541  -2.220  0.00  0.00     0.048 A 
ATOM      4  C3  UNL d   1       2.566   0.704  -1.815  0.00  0.00     0.023 A 
ATOM      5  C4  UNL d   1       1.933   1.875  -2.234  0.00  0.00     0.048 A 
ATOM      6  C5  UNL d   1       0.815   1.797  -3.065  0.00  0.00     0.003 A 
ATOM      7  I   UNL d   1       4.232   0.816  -0.578  0.00  0.00    -0.146 I 
ENDROOT
TORSDOF 0
ENDMDL
