MODEL 1
REMARK minimizedAffinity 15.3114681
REMARK minimizedRMSD -1
REMARK  0 active torsions:
REMARK  status: ('A' for Active; 'I' for Inactive)
ROOT
ATOM      1  C   UNL d   1       3.070   2.673   1.142  0.00  0.00     0.023 A 
ATOM      2  C1  UNL d   1       2.015   1.936   1.680  0.00  0.00     0.003 A 
ATOM      3  C2  UNL d   1       1.557   0.791   1.026  0.00  0.00     0.048 A 
ATOM      4  C3  UNL d   1       2.159   0.387  -0.165  0.00  0.00     0.023 A 
ATOM      5  C4  UNL d   1       3.216   1.121  -0.707  0.00  0.00     0.048 A 
ATOM      6  C5  UNL d   1       3.670   2.266  -0.050  0.00  0.00     0.003 A 
ATOM      7  I   UNL d   1       1.479  -1.318  -1.140  0.00  0.00    -0.146 I 
ENDROOT
TORSDOF 0
ENDMDL
