MODEL 1
REMARK minimizedAffinity 7.8444438
REMARK minimizedRMSD -1
REMARK  0 active torsions:
REMARK  status: ('A' for Active; 'I' for Inactive)
ROOT
ATOM      1  C   UNL d   1       2.266   0.821   1.517  0.00  0.00     0.023 A 
ATOM      2  C1  UNL d   1       3.464   1.288   0.976  0.00  0.00     0.003 A 
ATOM      3  C2  UNL d   1       3.818   2.632   1.117  0.00  0.00     0.048 A 
ATOM      4  C3  UNL d   1       2.969   3.502   1.800  0.00  0.00     0.023 A 
ATOM      5  C4  UNL d   1       1.770   3.039   2.344  0.00  0.00     0.048 A 
ATOM      6  C5  UNL d   1       1.420   1.695   2.200  0.00  0.00     0.003 A 
ATOM      7  I   UNL d   1       3.494   5.502   2.011  0.00  0.00    -0.146 I 
ENDROOT
TORSDOF 0
ENDMDL
