MODEL 1
REMARK minimizedAffinity 14.016983
REMARK minimizedRMSD -1
REMARK  0 active torsions:
REMARK  status: ('A' for Active; 'I' for Inactive)
ROOT
ATOM      1  C   UNL d   1      -1.783  -1.137  -2.254  0.00  0.00     0.023 A 
ATOM      2  C1  UNL d   1      -0.648  -1.702  -1.669  0.00  0.00     0.003 A 
ATOM      3  C2  UNL d   1      -0.504  -3.090  -1.621  0.00  0.00     0.048 A 
ATOM      4  C3  UNL d   1      -1.496  -3.908  -2.159  0.00  0.00     0.023 A 
ATOM      5  C4  UNL d   1      -2.633  -3.348  -2.745  0.00  0.00     0.048 A 
ATOM      6  C5  UNL d   1      -2.773  -1.959  -2.791  0.00  0.00     0.003 A 
ATOM      7  I   UNL d   1      -1.283  -5.974  -2.088  0.00  0.00    -0.146 I 
ENDROOT
TORSDOF 0
ENDMDL
