MODEL 1
REMARK minimizedAffinity 2.27352262
REMARK minimizedRMSD -1
REMARK  0 active torsions:
REMARK  status: ('A' for Active; 'I' for Inactive)
ROOT
ATOM      1  C   UNL d   1      -2.616  -3.687  -3.739  0.00  0.00     0.023 A 
ATOM      2  C1  UNL d   1      -2.574  -2.441  -3.114  0.00  0.00     0.003 A 
ATOM      3  C2  UNL d   1      -1.461  -2.077  -2.353  0.00  0.00     0.048 A 
ATOM      4  C3  UNL d   1      -0.394  -2.964  -2.221  0.00  0.00     0.023 A 
ATOM      5  C4  UNL d   1      -0.431  -4.212  -2.845  0.00  0.00     0.048 A 
ATOM      6  C5  UNL d   1      -1.546  -4.572  -3.605  0.00  0.00     0.003 A 
ATOM      7  I   UNL d   1       1.264  -2.426  -1.089  0.00  0.00    -0.146 I 
ENDROOT
TORSDOF 0
ENDMDL
