MODEL 1
REMARK minimizedAffinity 7.92301989
REMARK minimizedRMSD -1
REMARK  0 active torsions:
REMARK  status: ('A' for Active; 'I' for Inactive)
ROOT
ATOM      1  C   UNL d   1      -0.267  -3.580  -1.866  0.00  0.00     0.023 A 
ATOM      2  C1  UNL d   1      -0.028  -2.513  -2.732  0.00  0.00     0.003 A 
ATOM      3  C2  UNL d   1       0.825  -1.477  -2.346  0.00  0.00     0.048 A 
ATOM      4  C3  UNL d   1       1.437  -1.515  -1.094  0.00  0.00     0.023 A 
ATOM      5  C4  UNL d   1       1.201  -2.581  -0.225  0.00  0.00     0.048 A 
ATOM      6  C5  UNL d   1       0.347  -3.614  -0.614  0.00  0.00     0.003 A 
ATOM      7  I   UNL d   1       2.707   0.026  -0.518  0.00  0.00    -0.146 I 
ENDROOT
TORSDOF 0
ENDMDL
