MODEL 1
REMARK minimizedAffinity 14.0126963
REMARK minimizedRMSD -1
REMARK  0 active torsions:
REMARK  status: ('A' for Active; 'I' for Inactive)
ROOT
ATOM      1  C   UNL d   1       0.533   2.423  -3.359  0.00  0.00     0.023 A 
ATOM      2  C1  UNL d   1       0.808   1.056  -3.298  0.00  0.00     0.003 A 
ATOM      3  C2  UNL d   1       1.658   0.557  -2.309  0.00  0.00     0.048 A 
ATOM      4  C3  UNL d   1       2.228   1.430  -1.383  0.00  0.00     0.023 A 
ATOM      5  C4  UNL d   1       1.955   2.798  -1.440  0.00  0.00     0.048 A 
ATOM      6  C5  UNL d   1       1.106   3.292  -2.431  0.00  0.00     0.003 A 
ATOM      7  I   UNL d   1       3.493   0.690   0.091  0.00  0.00    -0.146 I 
ENDROOT
TORSDOF 0
ENDMDL
