MODEL 1
REMARK minimizedAffinity 17.5000839
REMARK minimizedRMSD -1
REMARK  0 active torsions:
REMARK  status: ('A' for Active; 'I' for Inactive)
ROOT
ATOM      1  C   UNL d   1       0.735   1.087  -3.713  0.00  0.00     0.023 A 
ATOM      2  C1  UNL d   1       1.192   2.318  -3.243  0.00  0.00     0.003 A 
ATOM      3  C2  UNL d   1       2.115   2.368  -2.197  0.00  0.00     0.048 A 
ATOM      4  C3  UNL d   1       2.579   1.183  -1.627  0.00  0.00     0.023 A 
ATOM      5  C4  UNL d   1       2.126  -0.051  -2.095  0.00  0.00     0.048 A 
ATOM      6  C5  UNL d   1       1.201  -0.096  -3.140  0.00  0.00     0.003 A 
ATOM      7  I   UNL d   1       3.954   1.256  -0.070  0.00  0.00    -0.146 I 
ENDROOT
TORSDOF 0
ENDMDL
