MODEL 1
REMARK minimizedAffinity 6.58573246
REMARK minimizedRMSD -1
REMARK  0 active torsions:
REMARK  status: ('A' for Active; 'I' for Inactive)
ROOT
ATOM      1  N1  IND d   1       0.301  -1.981   0.281  0.00  0.00    -0.196 N 
ATOM      2  C2  IND d   1       0.723  -2.392   1.515  0.00  0.00     0.054 A 
ATOM      3  C3  IND d   1       1.551  -1.472   2.060  0.00  0.00    -0.031 A 
ATOM      4  C4  IND d   1       2.270   0.825   1.147  0.00  0.00     0.051 A 
ATOM      5  C5  IND d   1       2.172   1.624   0.043  0.00  0.00    -0.031 A 
ATOM      6  C6  IND d   1       1.428   1.256  -1.060  0.00  0.00     0.015 A 
ATOM      7  C7  IND d   1       0.742   0.075  -1.094  0.00  0.00    -0.016 A 
ATOM      8  C8  IND d   1       0.845  -0.742   0.022  0.00  0.00    -0.047 A 
ATOM      9  C9  IND d   1       1.633  -0.393   1.127  0.00  0.00    -0.096 A 
ATOM     10  HN1 IND d   1      -0.216  -2.422  -0.244  0.00  0.00     0.298 HD
ENDROOT
TORSDOF 0
ENDMDL
