MODEL 1
REMARK minimizedAffinity 6.83242655
REMARK minimizedRMSD -1
REMARK  0 active torsions:
REMARK  status: ('A' for Active; 'I' for Inactive)
ROOT
ATOM      1  N1  IND d   1       1.760  -4.543   1.222  0.00  0.00    -0.196 N 
ATOM      2  C2  IND d   1       1.617  -3.361   1.894  0.00  0.00     0.054 A 
ATOM      3  C3  IND d   1       2.814  -2.747   2.027  0.00  0.00    -0.031 A 
ATOM      4  C4  IND d   1       5.122  -3.453   1.131  0.00  0.00     0.051 A 
ATOM      5  C5  IND d   1       5.761  -4.475   0.487  0.00  0.00    -0.031 A 
ATOM      6  C6  IND d   1       5.085  -5.594   0.044  0.00  0.00     0.015 A 
ATOM      7  C7  IND d   1       3.736  -5.727   0.220  0.00  0.00    -0.016 A 
ATOM      8  C8  IND d   1       3.085  -4.694   0.879  0.00  0.00    -0.047 A 
ATOM      9  C9  IND d   1       3.773  -3.576   1.368  0.00  0.00    -0.096 A 
ATOM     10  HN1 IND d   1       1.128  -5.098   1.044  0.00  0.00     0.298 HD
ENDROOT
TORSDOF 0
ENDMDL
