MODEL 1
REMARK minimizedAffinity 16.9970837
REMARK minimizedRMSD -1
REMARK  0 active torsions:
REMARK  status: ('A' for Active; 'I' for Inactive)
ROOT
ATOM      1  N1  IND d   1      -3.116   0.538   4.184  0.00  0.00    -0.196 N 
ATOM      2  C2  IND d   1      -4.275   0.423   3.467  0.00  0.00     0.054 A 
ATOM      3  C3  IND d   1      -4.178  -0.590   2.577  0.00  0.00    -0.031 A 
ATOM      4  C4  IND d   1      -2.251  -2.254   2.195  0.00  0.00     0.051 A 
ATOM      5  C5  IND d   1      -0.970  -2.526   2.584  0.00  0.00    -0.031 A 
ATOM      6  C6  IND d   1      -0.327  -1.778   3.549  0.00  0.00     0.015 A 
ATOM      7  C7  IND d   1      -0.947  -0.731   4.170  0.00  0.00    -0.016 A 
ATOM      8  C8  IND d   1      -2.246  -0.447   3.772  0.00  0.00    -0.047 A 
ATOM      9  C9  IND d   1      -2.889  -1.177   2.764  0.00  0.00    -0.096 A 
ATOM     10  HN1 IND d   1      -2.958   1.126   4.791  0.00  0.00     0.298 HD
ENDROOT
TORSDOF 0
ENDMDL
