MODEL 1
REMARK minimizedAffinity 16.0217247
REMARK minimizedRMSD -1
REMARK  0 active torsions:
REMARK  status: ('A' for Active; 'I' for Inactive)
ROOT
ATOM      1  N1  IND d   1      -3.753  -2.406  -3.735  0.00  0.00    -0.196 N 
ATOM      2  C2  IND d   1      -4.722  -2.073  -4.640  0.00  0.00     0.054 A 
ATOM      3  C3  IND d   1      -5.483  -1.063  -4.164  0.00  0.00    -0.031 A 
ATOM      4  C4  IND d   1      -5.256   0.261  -1.968  0.00  0.00     0.051 A 
ATOM      5  C5  IND d   1      -4.544   0.299  -0.801  0.00  0.00    -0.031 A 
ATOM      6  C6  IND d   1      -3.510  -0.579  -0.549  0.00  0.00     0.015 A 
ATOM      7  C7  IND d   1      -3.140  -1.524  -1.463  0.00  0.00    -0.016 A 
ATOM      8  C8  IND d   1      -3.865  -1.570  -2.646  0.00  0.00    -0.047 A 
ATOM      9  C9  IND d   1      -4.943  -0.710  -2.889  0.00  0.00    -0.096 A 
ATOM     10  HN1 IND d   1      -3.172  -3.033  -3.830  0.00  0.00     0.298 HD
ENDROOT
TORSDOF 0
ENDMDL
