MODEL 1
REMARK minimizedAffinity 9.77668571
REMARK minimizedRMSD -1
REMARK  0 active torsions:
REMARK  status: ('A' for Active; 'I' for Inactive)
ROOT
ATOM      1  N1  IND d   1       3.806  -5.357  -1.322  0.00  0.00    -0.196 N 
ATOM      2  C2  IND d   1       5.001  -5.824  -1.793  0.00  0.00     0.054 A 
ATOM      3  C3  IND d   1       5.999  -5.510  -0.937  0.00  0.00    -0.031 A 
ATOM      4  C4  IND d   1       5.884  -4.326   1.346  0.00  0.00     0.051 A 
ATOM      5  C5  IND d   1       5.016  -3.683   2.183  0.00  0.00    -0.031 A 
ATOM      6  C6  IND d   1       3.672  -3.565   1.891  0.00  0.00     0.015 A 
ATOM      7  C7  IND d   1       3.143  -4.098   0.750  0.00  0.00    -0.016 A 
ATOM      8  C8  IND d   1       4.022  -4.746  -0.106  0.00  0.00    -0.047 A 
ATOM      9  C9  IND d   1       5.394  -4.831   0.165  0.00  0.00    -0.096 A 
ATOM     10  HN1 IND d   1       3.046  -5.432  -1.718  0.00  0.00     0.298 HD
ENDROOT
TORSDOF 0
ENDMDL
