MODEL 1
REMARK minimizedAffinity 14.7041235
REMARK minimizedRMSD -1
REMARK  0 active torsions:
REMARK  status: ('A' for Active; 'I' for Inactive)
ROOT
ATOM      1  N1  IND d   1      -2.882  -1.874  -1.874  0.00  0.00    -0.196 N 
ATOM      2  C2  IND d   1      -2.682  -0.837  -1.007  0.00  0.00     0.054 A 
ATOM      3  C3  IND d   1      -3.549   0.167  -1.266  0.00  0.00    -0.031 A 
ATOM      4  C4  IND d   1      -5.449   0.280  -3.000  0.00  0.00     0.051 A 
ATOM      5  C5  IND d   1      -5.998  -0.412  -4.043  0.00  0.00    -0.031 A 
ATOM      6  C6  IND d   1      -5.529  -1.653  -4.422  0.00  0.00     0.015 A 
ATOM      7  C7  IND d   1      -4.496  -2.256  -3.762  0.00  0.00    -0.016 A 
ATOM      8  C8  IND d   1      -3.931  -1.553  -2.707  0.00  0.00    -0.047 A 
ATOM      9  C9  IND d   1      -4.375  -0.275  -2.345  0.00  0.00    -0.096 A 
ATOM     10  HN1 IND d   1      -2.429  -2.605  -1.895  0.00  0.00     0.298 HD
ENDROOT
TORSDOF 0
ENDMDL
