MODEL 1
REMARK minimizedAffinity 11.0586777
REMARK minimizedRMSD -1
REMARK  0 active torsions:
REMARK  status: ('A' for Active; 'I' for Inactive)
ROOT
ATOM      1  N1  IND d   1      -4.021  -2.930  -3.766  0.00  0.00    -0.196 N 
ATOM      2  C2  IND d   1      -5.075  -2.708  -4.609  0.00  0.00     0.054 A 
ATOM      3  C3  IND d   1      -5.695  -1.549  -4.292  0.00  0.00    -0.031 A 
ATOM      4  C4  IND d   1      -5.088   0.192  -2.496  0.00  0.00     0.051 A 
ATOM      5  C5  IND d   1      -4.229   0.413  -1.456  0.00  0.00    -0.031 A 
ATOM      6  C6  IND d   1      -3.235  -0.486  -1.129  0.00  0.00     0.015 A 
ATOM      7  C7  IND d   1      -3.055  -1.639  -1.839  0.00  0.00    -0.016 A 
ATOM      8  C8  IND d   1      -3.930  -1.870  -2.891  0.00  0.00    -0.047 A 
ATOM      9  C9  IND d   1      -4.968  -0.982  -3.201  0.00  0.00    -0.096 A 
ATOM     10  HN1 IND d   1      -3.503  -3.616  -3.781  0.00  0.00     0.298 HD
ENDROOT
TORSDOF 0
ENDMDL
