MODEL 1
REMARK minimizedAffinity -1.37017
REMARK minimizedRMSD -1
REMARK  1 active torsions:
REMARK  status: ('A' for Active; 'I' for Inactive)
REMARK    1  A    between atoms: C1_2  and  C2_3 
ROOT
ATOM      1  C2  UNL d   1      -0.284  -0.512  -0.776  0.00  0.00    -0.076 A 
ATOM      2  C3  UNL d   1      -0.847  -1.795  -0.670  0.00  0.00     0.004 A 
ATOM      3  C4  UNL d   1      -1.273  -2.292   0.561  0.00  0.00    -0.003 A 
ATOM      4  C5  UNL d   1      -1.144  -1.512   1.705  0.00  0.00     0.000 A 
ATOM      5  C6  UNL d   1      -0.604  -0.230   1.615  0.00  0.00     0.000 A 
ATOM      6  C7  UNL d   1      -0.184   0.292   0.379  0.00  0.00    -0.073 A 
ATOM      7  C8  UNL d   1       0.397   1.679   0.341  0.00  0.00     0.078 C 
ENDROOT
BRANCH   1   8
ATOM      8  C1  UNL d   1       0.186  -0.037  -2.133  0.00  0.00     0.053 C 
ATOM      9  C   UNL d   1       0.474  -1.188  -3.085  0.00  0.00     0.018 C 
ENDBRANCH   1   8
TORSDOF 1
ENDMDL
