MODEL 1
REMARK minimizedAffinity -2.72561765
REMARK minimizedRMSD -1
REMARK  1 active torsions:
REMARK  status: ('A' for Active; 'I' for Inactive)
REMARK    1  A    between atoms: C1_2  and  C2_3 
ROOT
ATOM      1  C2  UNL d   1       0.632   1.478   0.262  0.00  0.00    -0.076 A 
ATOM      2  C3  UNL d   1       0.043   2.736   0.478  0.00  0.00     0.004 A 
ATOM      3  C4  UNL d   1       0.782   3.795   1.002  0.00  0.00    -0.003 A 
ATOM      4  C5  UNL d   1       2.124   3.614   1.318  0.00  0.00     0.000 A 
ATOM      5  C6  UNL d   1       2.730   2.378   1.093  0.00  0.00     0.000 A 
ATOM      6  C7  UNL d   1       2.003   1.305   0.551  0.00  0.00    -0.073 A 
ATOM      7  C8  UNL d   1       2.705  -0.008   0.336  0.00  0.00     0.078 C 
ENDROOT
BRANCH   1   8
ATOM      8  C1  UNL d   1      -0.227   0.359  -0.282  0.00  0.00     0.053 C 
ATOM      9  C   UNL d   1      -0.622  -0.645   0.789  0.00  0.00     0.018 C 
ENDBRANCH   1   8
TORSDOF 1
ENDMDL
