MODEL 1
REMARK minimizedAffinity -3.60673189
REMARK minimizedRMSD -1
REMARK  1 active torsions:
REMARK  status: ('A' for Active; 'I' for Inactive)
REMARK    1  A    between atoms: C1_2  and  C2_3 
ROOT
ATOM      1  C2  UNL d   1      -0.131   0.004   0.088  0.00  0.00    -0.076 A 
ATOM      2  C3  UNL d   1      -0.582  -0.227   1.400  0.00  0.00     0.004 A 
ATOM      3  C4  UNL d   1      -0.943  -1.506   1.819  0.00  0.00    -0.003 A 
ATOM      4  C5  UNL d   1      -0.859  -2.575   0.934  0.00  0.00     0.000 A 
ATOM      5  C6  UNL d   1      -0.397  -2.367  -0.365  0.00  0.00     0.000 A 
ATOM      6  C7  UNL d   1      -0.013  -1.087  -0.799  0.00  0.00    -0.073 A 
ATOM      7  C8  UNL d   1       0.472  -0.919  -2.213  0.00  0.00     0.078 C 
ENDROOT
BRANCH   1   8
ATOM      8  C1  UNL d   1       0.221   1.418  -0.318  0.00  0.00     0.053 C 
ATOM      9  C   UNL d   1       1.319   2.016   0.547  0.00  0.00     0.018 C 
ENDBRANCH   1   8
TORSDOF 1
ENDMDL
