MODEL 1
REMARK minimizedAffinity -0.521104395
REMARK minimizedRMSD -1
REMARK  1 active torsions:
REMARK  status: ('A' for Active; 'I' for Inactive)
REMARK    1  A    between atoms: C1_2  and  C2_3 
ROOT
ATOM      1  C2  UNL d   1       0.398   1.389   0.660  0.00  0.00    -0.076 A 
ATOM      2  C3  UNL d   1       0.151   2.571   1.379  0.00  0.00     0.004 A 
ATOM      3  C4  UNL d   1       1.167   3.497   1.609  0.00  0.00    -0.003 A 
ATOM      4  C5  UNL d   1       2.447   3.257   1.122  0.00  0.00     0.000 A 
ATOM      5  C6  UNL d   1       2.706   2.098   0.391  0.00  0.00     0.000 A 
ATOM      6  C7  UNL d   1       1.689   1.161   0.137  0.00  0.00    -0.073 A 
ATOM      7  C8  UNL d   1       2.027  -0.074  -0.652  0.00  0.00     0.078 C 
ENDROOT
BRANCH   1   8
ATOM      8  C1  UNL d   1      -0.736   0.408   0.465  0.00  0.00     0.053 C 
ATOM      9  C   UNL d   1      -0.807  -0.628   1.576  0.00  0.00     0.018 C 
ENDBRANCH   1   8
TORSDOF 1
ENDMDL
