MODEL 1
REMARK minimizedAffinity -2.15895796
REMARK minimizedRMSD -1
REMARK  1 active torsions:
REMARK  status: ('A' for Active; 'I' for Inactive)
REMARK    1  A    between atoms: C1_2  and  C2_3 
ROOT
ATOM      1  C2  UNL d   1       0.831   1.673   0.247  0.00  0.00    -0.076 A 
ATOM      2  C3  UNL d   1       0.357   2.985   0.419  0.00  0.00     0.004 A 
ATOM      3  C4  UNL d   1       1.152   3.962   1.017  0.00  0.00    -0.003 A 
ATOM      4  C5  UNL d   1       2.433   3.643   1.452  0.00  0.00     0.000 A 
ATOM      5  C6  UNL d   1       2.926   2.350   1.274  0.00  0.00     0.000 A 
ATOM      6  C7  UNL d   1       2.144   1.358   0.658  0.00  0.00    -0.073 A 
ATOM      7  C8  UNL d   1       2.723  -0.021   0.497  0.00  0.00     0.078 C 
ENDROOT
BRANCH   1   8
ATOM      8  C1  UNL d   1      -0.086   0.649  -0.383  0.00  0.00     0.053 C 
ATOM      9  C   UNL d   1      -0.982  -0.036   0.636  0.00  0.00     0.018 C 
ENDBRANCH   1   8
TORSDOF 1
ENDMDL
