MODEL 1
REMARK minimizedAffinity -3.7689209
REMARK minimizedRMSD -1
REMARK  1 active torsions:
REMARK  status: ('A' for Active; 'I' for Inactive)
REMARK    1  A    between atoms: C1_2  and  C2_3 
ROOT
ATOM      1  C2  UNL d   1      -1.082  -2.945  -0.318  0.00  0.00    -0.076 A 
ATOM      2  C3  UNL d   1      -2.096  -3.084   0.645  0.00  0.00     0.004 A 
ATOM      3  C4  UNL d   1      -3.299  -3.716   0.334  0.00  0.00    -0.003 A 
ATOM      4  C5  UNL d   1      -3.508  -4.219  -0.945  0.00  0.00     0.000 A 
ATOM      5  C6  UNL d   1      -2.506  -4.105  -1.908  0.00  0.00     0.000 A 
ATOM      6  C7  UNL d   1      -1.281  -3.486  -1.606  0.00  0.00    -0.073 A 
ATOM      7  C8  UNL d   1      -0.237  -3.385  -2.685  0.00  0.00     0.078 C 
ENDROOT
BRANCH   1   8
ATOM      8  C1  UNL d   1       0.191  -2.227   0.069  0.00  0.00     0.053 C 
ATOM      9  C   UNL d   1       0.074  -0.717  -0.072  0.00  0.00     0.018 C 
ENDBRANCH   1   8
TORSDOF 1
ENDMDL
