MODEL 1
REMARK minimizedAffinity -2.44891572
REMARK minimizedRMSD -1
REMARK  1 active torsions:
REMARK  status: ('A' for Active; 'I' for Inactive)
REMARK    1  A    between atoms: C1_2  and  C2_3 
ROOT
ATOM      1  C2  UNL d   1      -0.602  -1.266  -1.039  0.00  0.00    -0.076 A 
ATOM      2  C3  UNL d   1      -0.652  -2.300  -0.088  0.00  0.00     0.004 A 
ATOM      3  C4  UNL d   1      -0.724  -2.017   1.275  0.00  0.00    -0.003 A 
ATOM      4  C5  UNL d   1      -0.748  -0.696   1.709  0.00  0.00     0.000 A 
ATOM      5  C6  UNL d   1      -0.717   0.342   0.778  0.00  0.00     0.000 A 
ATOM      6  C7  UNL d   1      -0.661   0.074  -0.601  0.00  0.00    -0.073 A 
ATOM      7  C8  UNL d   1      -0.624   1.232  -1.560  0.00  0.00     0.078 C 
ENDROOT
BRANCH   1   8
ATOM      8  C1  UNL d   1      -0.497  -1.634  -2.502  0.00  0.00     0.053 C 
ATOM      9  C   UNL d   1      -0.763  -3.110  -2.753  0.00  0.00     0.018 C 
ENDBRANCH   1   8
TORSDOF 1
ENDMDL
