MODEL 1
REMARK minimizedAffinity -2.26664996
REMARK minimizedRMSD -1
REMARK  1 active torsions:
REMARK  status: ('A' for Active; 'I' for Inactive)
REMARK    1  A    between atoms: C1_2  and  C2_3 
ROOT
ATOM      1  C2  UNL d   1       0.105   1.058   0.047  0.00  0.00    -0.076 A 
ATOM      2  C3  UNL d   1      -0.110   0.614   1.363  0.00  0.00     0.004 A 
ATOM      3  C4  UNL d   1      -0.844  -0.543   1.620  0.00  0.00    -0.003 A 
ATOM      4  C5  UNL d   1      -1.374  -1.276   0.564  0.00  0.00     0.000 A 
ATOM      5  C6  UNL d   1      -1.155  -0.860  -0.750  0.00  0.00     0.000 A 
ATOM      6  C7  UNL d   1      -0.404   0.295  -1.026  0.00  0.00    -0.073 A 
ATOM      7  C8  UNL d   1      -0.205   0.700  -2.461  0.00  0.00     0.078 C 
ENDROOT
BRANCH   1   8
ATOM      8  C1  UNL d   1       0.885   2.335  -0.169  0.00  0.00     0.053 C 
ATOM      9  C   UNL d   1       1.551   2.833   1.104  0.00  0.00     0.018 C 
ENDBRANCH   1   8
TORSDOF 1
ENDMDL
