MODEL 1
REMARK minimizedAffinity -5.31648731
REMARK minimizedRMSD -1
REMARK  1 active torsions:
REMARK  status: ('A' for Active; 'I' for Inactive)
REMARK    1  A    between atoms: C1_2  and  C2_3 
ROOT
ATOM      1  C2  UNL d   1      -0.005  -1.657  -0.144  0.00  0.00    -0.076 A 
ATOM      2  C3  UNL d   1       0.065  -2.938   0.431  0.00  0.00     0.004 A 
ATOM      3  C4  UNL d   1       0.171  -4.077  -0.364  0.00  0.00    -0.003 A 
ATOM      4  C5  UNL d   1       0.210  -3.955  -1.749  0.00  0.00     0.000 A 
ATOM      5  C6  UNL d   1       0.159  -2.691  -2.336  0.00  0.00     0.000 A 
ATOM      6  C7  UNL d   1       0.068  -1.531  -1.548  0.00  0.00    -0.073 A 
ATOM      7  C8  UNL d   1       0.011  -0.194  -2.235  0.00  0.00     0.078 C 
ENDROOT
BRANCH   1   8
ATOM      8  C1  UNL d   1      -0.147  -0.460   0.768  0.00  0.00     0.053 C 
ATOM      9  C   UNL d   1      -1.597  -0.160   1.114  0.00  0.00     0.018 C 
ENDBRANCH   1   8
TORSDOF 1
ENDMDL
