MODEL 1
REMARK minimizedAffinity -3.74713469
REMARK minimizedRMSD -1
REMARK  1 active torsions:
REMARK  status: ('A' for Active; 'I' for Inactive)
REMARK    1  A    between atoms: C1_2  and  C2_3 
ROOT
ATOM      1  C2  UNL d   1      -0.618  -1.024  -0.469  0.00  0.00    -0.076 A 
ATOM      2  C3  UNL d   1      -1.043  -2.155   0.251  0.00  0.00     0.004 A 
ATOM      3  C4  UNL d   1      -1.372  -2.062   1.603  0.00  0.00    -0.003 A 
ATOM      4  C5  UNL d   1      -1.282  -0.838   2.256  0.00  0.00     0.000 A 
ATOM      5  C6  UNL d   1      -0.879   0.297   1.553  0.00  0.00     0.000 A 
ATOM      6  C7  UNL d   1      -0.560   0.224   0.186  0.00  0.00    -0.073 A 
ATOM      7  C8  UNL d   1      -0.126   1.479  -0.521  0.00  0.00     0.078 C 
ENDROOT
BRANCH   1   8
ATOM      8  C1  UNL d   1      -0.249  -1.191  -1.926  0.00  0.00     0.053 C 
ATOM      9  C   UNL d   1      -0.343  -2.636  -2.389  0.00  0.00     0.018 C 
ENDBRANCH   1   8
TORSDOF 1
ENDMDL
