MODEL 1
REMARK minimizedAffinity 8.99579144
REMARK minimizedRMSD -1
REMARK  0 active torsions:
REMARK  status: ('A' for Active; 'I' for Inactive)
ROOT
ATOM      1  C   UNL d   1      -3.539   1.435   2.196  0.00  0.00    -0.002 A 
ATOM      2  C1  UNL d   1      -2.641   0.943   3.132  0.00  0.00     0.010 A 
ATOM      3  C2  UNL d   1      -1.354   1.477   3.231  0.00  0.00     0.041 A 
ATOM      4  C3  UNL d   1      -0.983   2.525   2.367  0.00  0.00    -0.075 A 
ATOM      5  S   UNL d   1       0.538   3.334   2.308  0.00  0.00     0.015 SA
ATOM      6  C4  UNL d   1       0.031   4.354   1.040  0.00  0.00     0.022 A 
ATOM      7  C5  UNL d   1      -1.264   4.096   0.658  0.00  0.00     0.026 A 
ATOM      8  C6  UNL d   1      -1.870   3.039   1.417  0.00  0.00    -0.082 A 
ATOM      9  C7  UNL d   1      -3.167   2.475   1.340  0.00  0.00     0.045 A 
ENDROOT
TORSDOF 0
ENDMDL
