MODEL 1
REMARK minimizedAffinity 3.90558696
REMARK minimizedRMSD -1
REMARK  0 active torsions:
REMARK  status: ('A' for Active; 'I' for Inactive)
ROOT
ATOM      1  C   UNL d   1      -2.923   2.952   1.774  0.00  0.00    -0.002 A 
ATOM      2  C1  UNL d   1      -2.487   1.796   2.405  0.00  0.00     0.010 A 
ATOM      3  C2  UNL d   1      -1.338   1.136   1.964  0.00  0.00     0.041 A 
ATOM      4  C3  UNL d   1      -0.627   1.664   0.868  0.00  0.00    -0.075 A 
ATOM      5  S   UNL d   1       0.807   1.026   0.155  0.00  0.00     0.015 SA
ATOM      6  C4  UNL d   1       0.875   2.274  -1.004  0.00  0.00     0.022 A 
ATOM      7  C5  UNL d   1      -0.163   3.164  -0.865  0.00  0.00     0.026 A 
ATOM      8  C6  UNL d   1      -1.046   2.827   0.217  0.00  0.00    -0.082 A 
ATOM      9  C7  UNL d   1      -2.215   3.473   0.687  0.00  0.00     0.045 A 
ENDROOT
TORSDOF 0
ENDMDL
