MODEL 1
REMARK minimizedAffinity 6.22880936
REMARK minimizedRMSD -1
REMARK  0 active torsions:
REMARK  status: ('A' for Active; 'I' for Inactive)
ROOT
ATOM      1  C   UNL d   1      -5.988  -3.733   3.918  0.00  0.00    -0.002 A 
ATOM      2  C1  UNL d   1      -6.000  -3.592   5.298  0.00  0.00     0.010 A 
ATOM      3  C2  UNL d   1      -4.814  -3.362   5.999  0.00  0.00     0.041 A 
ATOM      4  C3  UNL d   1      -3.605  -3.273   5.282  0.00  0.00    -0.075 A 
ATOM      5  S   UNL d   1      -2.031  -2.995   5.928  0.00  0.00     0.015 SA
ATOM      6  C4  UNL d   1      -1.306  -3.055   4.387  0.00  0.00     0.022 A 
ATOM      7  C5  UNL d   1      -2.227  -3.281   3.392  0.00  0.00     0.026 A 
ATOM      8  C6  UNL d   1      -3.568  -3.410   3.891  0.00  0.00    -0.082 A 
ATOM      9  C7  UNL d   1      -4.786  -3.644   3.210  0.00  0.00     0.045 A 
ENDROOT
TORSDOF 0
ENDMDL
