MODEL 1
REMARK minimizedAffinity 7.54632521
REMARK minimizedRMSD -1
REMARK  0 active torsions:
REMARK  status: ('A' for Active; 'I' for Inactive)
ROOT
ATOM      1  C   UNL d   1      -1.124   3.860  -0.526  0.00  0.00    -0.002 A 
ATOM      2  C1  UNL d   1      -0.018   3.110  -0.900  0.00  0.00     0.010 A 
ATOM      3  C2  UNL d   1       0.285   1.916  -0.244  0.00  0.00     0.041 A 
ATOM      4  C3  UNL d   1      -0.552   1.482   0.803  0.00  0.00    -0.075 A 
ATOM      5  S   UNL d   1      -0.377   0.051   1.748  0.00  0.00     0.015 SA
ATOM      6  C4  UNL d   1      -1.767   0.401   2.670  0.00  0.00     0.022 A 
ATOM      7  C5  UNL d   1      -2.362   1.577   2.280  0.00  0.00     0.026 A 
ATOM      8  C6  UNL d   1      -1.672   2.219   1.197  0.00  0.00    -0.082 A 
ATOM      9  C7  UNL d   1      -1.952   3.427   0.513  0.00  0.00     0.045 A 
ENDROOT
TORSDOF 0
ENDMDL
