MODEL 1
REMARK minimizedAffinity 9.09810638
REMARK minimizedRMSD -1
REMARK  0 active torsions:
REMARK  status: ('A' for Active; 'I' for Inactive)
ROOT
ATOM      1  C   UNL d   1      -0.998  -0.996   2.918  0.00  0.00    -0.002 A 
ATOM      2  C1  UNL d   1       0.260  -0.890   2.339  0.00  0.00     0.010 A 
ATOM      3  C2  UNL d   1       0.590   0.217   1.555  0.00  0.00     0.041 A 
ATOM      4  C3  UNL d   1      -0.373   1.226   1.361  0.00  0.00    -0.075 A 
ATOM      5  S   UNL d   1      -0.192   2.673   0.441  0.00  0.00     0.015 SA
ATOM      6  C4  UNL d   1      -1.779   3.185   0.794  0.00  0.00     0.022 A 
ATOM      7  C5  UNL d   1      -2.445   2.286   1.594  0.00  0.00     0.026 A 
ATOM      8  C6  UNL d   1      -1.646   1.143   1.934  0.00  0.00    -0.082 A 
ATOM      9  C7  UNL d   1      -1.950   0.008   2.723  0.00  0.00     0.045 A 
ENDROOT
TORSDOF 0
ENDMDL
