MODEL 1
REMARK minimizedAffinity 13.8468866
REMARK minimizedRMSD -1
REMARK  0 active torsions:
REMARK  status: ('A' for Active; 'I' for Inactive)
ROOT
ATOM      1  C   UNL d   1      -1.849  -1.276  -2.895  0.00  0.00    -0.002 A 
ATOM      2  C1  UNL d   1      -2.985  -0.874  -2.207  0.00  0.00     0.010 A 
ATOM      3  C2  UNL d   1      -2.910   0.122  -1.232  0.00  0.00     0.041 A 
ATOM      4  C3  UNL d   1      -1.661   0.714  -0.957  0.00  0.00    -0.075 A 
ATOM      5  S   UNL d   1      -1.328   1.953   0.194  0.00  0.00     0.015 SA
ATOM      6  C4  UNL d   1       0.329   1.978  -0.200  0.00  0.00     0.022 A 
ATOM      7  C5  UNL d   1       0.639   1.069  -1.184  0.00  0.00     0.026 A 
ATOM      8  C6  UNL d   1      -0.503   0.326  -1.637  0.00  0.00    -0.082 A 
ATOM      9  C7  UNL d   1      -0.612  -0.687  -2.620  0.00  0.00     0.045 A 
ENDROOT
TORSDOF 0
ENDMDL
