MODEL 1
REMARK minimizedAffinity 10.3525791
REMARK minimizedRMSD -1
REMARK  0 active torsions:
REMARK  status: ('A' for Active; 'I' for Inactive)
ROOT
ATOM      1  C   UNL d   1      -0.292  -0.240  -4.290  0.00  0.00    -0.002 A 
ATOM      2  C1  UNL d   1      -1.230  -0.861  -3.476  0.00  0.00     0.010 A 
ATOM      3  C2  UNL d   1      -1.555  -0.323  -2.230  0.00  0.00     0.041 A 
ATOM      4  C3  UNL d   1      -0.919   0.862  -1.811  0.00  0.00    -0.075 A 
ATOM      5  S   UNL d   1      -1.160   1.702  -0.325  0.00  0.00     0.015 SA
ATOM      6  C4  UNL d   1      -0.026   2.906  -0.736  0.00  0.00     0.022 A 
ATOM      7  C5  UNL d   1       0.533   2.687  -1.973  0.00  0.00     0.026 A 
ATOM      8  C6  UNL d   1       0.028   1.506  -2.613  0.00  0.00    -0.082 A 
ATOM      9  C7  UNL d   1       0.337   0.935  -3.871  0.00  0.00     0.045 A 
ENDROOT
TORSDOF 0
ENDMDL
