MODEL 1
REMARK minimizedAffinity 17.1619663
REMARK minimizedRMSD -1
REMARK  0 active torsions:
REMARK  status: ('A' for Active; 'I' for Inactive)
ROOT
ATOM      1  C   UNL d   1      -0.922  -1.561  -2.437  0.00  0.00    -0.002 A 
ATOM      2  C1  UNL d   1      -2.036  -1.123  -3.139  0.00  0.00     0.010 A 
ATOM      3  C2  UNL d   1      -2.250   0.240  -3.353  0.00  0.00     0.041 A 
ATOM      4  C3  UNL d   1      -1.315   1.165  -2.846  0.00  0.00    -0.075 A 
ATOM      5  S   UNL d   1      -1.370   2.882  -2.988  0.00  0.00     0.015 SA
ATOM      6  C4  UNL d   1       0.085   3.074  -2.121  0.00  0.00     0.022 A 
ATOM      7  C5  UNL d   1       0.613   1.868  -1.726  0.00  0.00     0.026 A 
ATOM      8  C6  UNL d   1      -0.185   0.748  -2.138  0.00  0.00    -0.082 A 
ATOM      9  C7  UNL d   1       0.003  -0.641  -1.936  0.00  0.00     0.045 A 
ENDROOT
TORSDOF 0
ENDMDL
