MODEL 1
REMARK minimizedAffinity 7.62896013
REMARK minimizedRMSD -1
REMARK  0 active torsions:
REMARK  status: ('A' for Active; 'I' for Inactive)
ROOT
ATOM      1  C   UNL d   1       0.393   0.537  -1.780  0.00  0.00    -0.002 A 
ATOM      2  C1  UNL d   1      -0.473  -0.414  -2.302  0.00  0.00     0.010 A 
ATOM      3  C2  UNL d   1      -1.591  -0.026  -3.042  0.00  0.00     0.041 A 
ATOM      4  C3  UNL d   1      -1.827   1.347  -3.253  0.00  0.00    -0.075 A 
ATOM      5  S   UNL d   1      -3.132   2.055  -4.128  0.00  0.00     0.015 SA
ATOM      6  C4  UNL d   1      -2.571   3.637  -3.831  0.00  0.00     0.022 A 
ATOM      7  C5  UNL d   1      -1.418   3.643  -3.083  0.00  0.00     0.026 A 
ATOM      8  C6  UNL d   1      -0.969   2.323  -2.738  0.00  0.00    -0.082 A 
ATOM      9  C7  UNL d   1       0.156   1.898  -1.991  0.00  0.00     0.045 A 
ENDROOT
TORSDOF 0
ENDMDL
