MODEL 1
REMARK minimizedAffinity 10.9115925
REMARK minimizedRMSD -1
REMARK  0 active torsions:
REMARK  status: ('A' for Active; 'I' for Inactive)
ROOT
ATOM      1  C   UNL d   1      -1.616   3.203   1.839  0.00  0.00    -0.002 A 
ATOM      2  C1  UNL d   1      -1.367   1.841   1.939  0.00  0.00     0.010 A 
ATOM      3  C2  UNL d   1      -0.694   1.166   0.919  0.00  0.00     0.041 A 
ATOM      4  C3  UNL d   1      -0.270   1.889  -0.213  0.00  0.00    -0.075 A 
ATOM      5  S   UNL d   1       0.572   1.272  -1.586  0.00  0.00     0.015 SA
ATOM      6  C4  UNL d   1       0.621   2.802  -2.336  0.00  0.00     0.022 A 
ATOM      7  C5  UNL d   1       0.014   3.771  -1.573  0.00  0.00     0.026 A 
ATOM      8  C6  UNL d   1      -0.509   3.261  -0.336  0.00  0.00    -0.082 A 
ATOM      9  C7  UNL d   1      -1.194   3.917   0.715  0.00  0.00     0.045 A 
ENDROOT
TORSDOF 0
ENDMDL
