MODEL 1
REMARK minimizedAffinity 6.23898268
REMARK minimizedRMSD -1
REMARK  0 active torsions:
REMARK  status: ('A' for Active; 'I' for Inactive)
ROOT
ATOM      1  C   UNL d   1      -0.125   4.166  -1.339  0.00  0.00    -0.002 A 
ATOM      2  C1  UNL d   1      -0.078   5.068  -0.286  0.00  0.00     0.010 A 
ATOM      3  C2  UNL d   1      -0.146   4.622   1.035  0.00  0.00     0.041 A 
ATOM      4  C3  UNL d   1      -0.262   3.240   1.283  0.00  0.00    -0.075 A 
ATOM      5  S   UNL d   1      -0.361   2.463   2.819  0.00  0.00     0.015 SA
ATOM      6  C4  UNL d   1      -0.468   0.916   2.113  0.00  0.00     0.022 A 
ATOM      7  C5  UNL d   1      -0.431   0.971   0.740  0.00  0.00     0.026 A 
ATOM      8  C6  UNL d   1      -0.311   2.312   0.239  0.00  0.00    -0.082 A 
ATOM      9  C7  UNL d   1      -0.241   2.796  -1.090  0.00  0.00     0.045 A 
ENDROOT
TORSDOF 0
ENDMDL
