MODEL 1
REMARK minimizedAffinity 11.4094448
REMARK minimizedRMSD -1
REMARK  0 active torsions:
REMARK  status: ('A' for Active; 'I' for Inactive)
ROOT
ATOM      1  C   UNL d   1      -0.670   2.240   3.807  0.00  0.00    -0.002 A 
ATOM      2  C1  UNL d   1      -1.471   2.220   2.673  0.00  0.00     0.010 A 
ATOM      3  C2  UNL d   1      -1.080   1.504   1.540  0.00  0.00     0.041 A 
ATOM      4  C3  UNL d   1       0.140   0.800   1.566  0.00  0.00    -0.075 A 
ATOM      5  S   UNL d   1       0.821  -0.147   0.296  0.00  0.00     0.015 SA
ATOM      6  C4  UNL d   1       2.190  -0.548   1.228  0.00  0.00     0.022 A 
ATOM      7  C5  UNL d   1       2.145   0.018   2.481  0.00  0.00     0.026 A 
ATOM      8  C6  UNL d   1       0.962   0.803   2.696  0.00  0.00    -0.082 A 
ATOM      9  C7  UNL d   1       0.539   1.540   3.829  0.00  0.00     0.045 A 
ENDROOT
TORSDOF 0
ENDMDL
