MODEL 1
REMARK minimizedAffinity 8.4195509
REMARK minimizedRMSD -1
REMARK  0 active torsions:
REMARK  status: ('A' for Active; 'I' for Inactive)
ROOT
ATOM      1  C   UNL d   1      -0.386   3.614   1.103  0.00  0.00    -0.002 A 
ATOM      2  C1  UNL d   1      -0.023   4.540   0.135  0.00  0.00     0.010 A 
ATOM      3  C2  UNL d   1       0.401   4.119  -1.127  0.00  0.00     0.041 A 
ATOM      4  C3  UNL d   1       0.452   2.739  -1.403  0.00  0.00    -0.075 A 
ATOM      5  S   UNL d   1       0.939   1.991  -2.879  0.00  0.00     0.015 SA
ATOM      6  C4  UNL d   1       0.675   0.425  -2.260  0.00  0.00     0.022 A 
ATOM      7  C5  UNL d   1       0.226   0.453  -0.960  0.00  0.00     0.026 A 
ATOM      8  C6  UNL d   1       0.090   1.787  -0.445  0.00  0.00    -0.082 A 
ATOM      9  C7  UNL d   1      -0.334   2.245   0.825  0.00  0.00     0.045 A 
ENDROOT
TORSDOF 0
ENDMDL
