MODEL 1
REMARK minimizedAffinity -5.44875336
REMARK minimizedRMSD -1
REMARK  2 active torsions:
REMARK  status: ('A' for Active; 'I' for Inactive)
REMARK    1  A    between atoms: C2'_3  and  C1'_4 
REMARK    2  A    between atoms: C1'_4  and  C1_5 
ROOT
ATOM      1  C1  I4B d   1       0.158   0.299   0.380  0.00  0.00    -0.075 A 
ATOM      2  C2  I4B d   1      -0.119  -0.566   1.409  0.00  0.00     0.003 A 
ATOM      3  C3  I4B d   1       0.665  -1.731   1.592  0.00  0.00     0.002 A 
ATOM      4  C4  I4B d   1       1.677  -2.016   0.698  0.00  0.00    -0.004 A 
ATOM      5  C5  I4B d   1       1.972  -1.126  -0.331  0.00  0.00     0.002 A 
ATOM      6  C6  I4B d   1       1.216   0.045  -0.484  0.00  0.00     0.003 A 
ENDROOT
BRANCH   1   7
ATOM      7  C1' I4B d   1      -0.710   1.503   0.197  0.00  0.00     0.060 C 
BRANCH   7   8
ATOM      8  C2' I4B d   1      -0.958   1.678  -1.288  0.00  0.00    -0.013 C 
ATOM      9  C4' I4B d   1      -2.270   1.063  -1.698  0.00  0.00     0.013 C 
ATOM     10  C3' I4B d   1      -0.929   3.146  -1.592  0.00  0.00     0.013 C 
ENDBRANCH   7   8
ENDBRANCH   1   7
TORSDOF 2
ENDMDL
