MODEL 1
REMARK minimizedAffinity -4.78024435
REMARK minimizedRMSD -1
REMARK  2 active torsions:
REMARK  status: ('A' for Active; 'I' for Inactive)
REMARK    1  A    between atoms: C2'_3  and  C1'_4 
REMARK    2  A    between atoms: C1'_4  and  C1_5 
ROOT
ATOM      1  C1  I4B d   1      -0.359   0.347  -0.025  0.00  0.00    -0.075 A 
ATOM      2  C2  I4B d   1       0.937   0.403  -0.473  0.00  0.00     0.003 A 
ATOM      3  C3  I4B d   1       1.828  -0.666  -0.214  0.00  0.00     0.002 A 
ATOM      4  C4  I4B d   1       1.398  -1.743   0.534  0.00  0.00    -0.004 A 
ATOM      5  C5  I4B d   1       0.077  -1.809   0.968  0.00  0.00     0.002 A 
ATOM      6  C6  I4B d   1      -0.811  -0.764   0.676  0.00  0.00     0.003 A 
ENDROOT
BRANCH   1   7
ATOM      7  C1' I4B d   1      -1.264   1.509  -0.287  0.00  0.00     0.060 C 
BRANCH   7   8
ATOM      8  C2' I4B d   1      -1.630   1.493  -1.758  0.00  0.00    -0.013 C 
ATOM      9  C4' I4B d   1      -3.088   1.168  -1.953  0.00  0.00     0.013 C 
ATOM     10  C3' I4B d   1      -1.293   2.835  -2.333  0.00  0.00     0.013 C 
ENDBRANCH   7   8
ENDBRANCH   1   7
TORSDOF 2
ENDMDL
