MODEL 1
REMARK minimizedAffinity -5.42484903
REMARK minimizedRMSD -1
REMARK  2 active torsions:
REMARK  status: ('A' for Active; 'I' for Inactive)
REMARK    1  A    between atoms: C2'_3  and  C1'_4 
REMARK    2  A    between atoms: C1'_4  and  C1_5 
ROOT
ATOM      1  C1  I4B d   1       0.545  -0.531   0.468  0.00  0.00    -0.075 A 
ATOM      2  C2  I4B d   1       1.557  -1.344   0.024  0.00  0.00     0.003 A 
ATOM      3  C3  I4B d   1       1.748  -2.623   0.599  0.00  0.00     0.002 A 
ATOM      4  C4  I4B d   1       0.942  -3.027   1.643  0.00  0.00    -0.004 A 
ATOM      5  C5  I4B d   1      -0.099  -2.210   2.077  0.00  0.00     0.002 A 
ATOM      6  C6  I4B d   1      -0.307  -0.960   1.478  0.00  0.00     0.003 A 
ENDROOT
BRANCH   1   7
ATOM      7  C1' I4B d   1       0.392   0.828  -0.139  0.00  0.00     0.060 C 
BRANCH   7   8
ATOM      8  C2' I4B d   1      -1.078   1.193  -0.102  0.00  0.00    -0.013 C 
ATOM      9  C4' I4B d   1      -1.415   1.975   1.140  0.00  0.00     0.013 C 
ATOM     10  C3' I4B d   1      -1.391   1.981  -1.339  0.00  0.00     0.013 C 
ENDBRANCH   7   8
ENDBRANCH   1   7
TORSDOF 2
ENDMDL
