MODEL 1
REMARK minimizedAffinity -4.72534418
REMARK minimizedRMSD -1
REMARK  2 active torsions:
REMARK  status: ('A' for Active; 'I' for Inactive)
REMARK    1  A    between atoms: C2'_3  and  C1'_4 
REMARK    2  A    between atoms: C1'_4  and  C1_5 
ROOT
ATOM      1  C1  I4B d   1      -0.763   3.322  -3.154  0.00  0.00    -0.075 A 
ATOM      2  C2  I4B d   1      -1.060   2.836  -4.403  0.00  0.00     0.003 A 
ATOM      3  C3  I4B d   1      -0.427   3.377  -5.548  0.00  0.00     0.002 A 
ATOM      4  C4  I4B d   1       0.453   4.430  -5.404  0.00  0.00    -0.004 A 
ATOM      5  C5  I4B d   1       0.770   4.906  -4.135  0.00  0.00     0.002 A 
ATOM      6  C6  I4B d   1       0.168   4.341  -3.002  0.00  0.00     0.003 A 
ENDROOT
BRANCH   1   7
ATOM      7  C1' I4B d   1      -1.475   2.749  -1.970  0.00  0.00     0.060 C 
BRANCH   7   8
ATOM      8  C2' I4B d   1      -1.354   1.240  -2.038  0.00  0.00    -0.013 C 
ATOM      9  C4' I4B d   1      -0.691   0.690  -0.802  0.00  0.00     0.013 C 
ATOM     10  C3' I4B d   1      -2.732   0.673  -2.211  0.00  0.00     0.013 C 
ENDBRANCH   7   8
ENDBRANCH   1   7
TORSDOF 2
ENDMDL
