MODEL 1
REMARK minimizedAffinity -5.16863394
REMARK minimizedRMSD -1
REMARK  2 active torsions:
REMARK  status: ('A' for Active; 'I' for Inactive)
REMARK    1  A    between atoms: C2'_3  and  C1'_4 
REMARK    2  A    between atoms: C1'_4  and  C1_5 
ROOT
ATOM      1  C1  I4B d   1      -0.110  -1.228   0.831  0.00  0.00    -0.075 A 
ATOM      2  C2  I4B d   1       0.961  -2.084   0.752  0.00  0.00     0.003 A 
ATOM      3  C3  I4B d   1       1.358  -2.836   1.884  0.00  0.00     0.002 A 
ATOM      4  C4  I4B d   1       0.693  -2.665   3.081  0.00  0.00    -0.004 A 
ATOM      5  C5  I4B d   1      -0.406  -1.814   3.154  0.00  0.00     0.002 A 
ATOM      6  C6  I4B d   1      -0.818  -1.101   2.019  0.00  0.00     0.003 A 
ENDROOT
BRANCH   1   7
ATOM      7  C1' I4B d   1      -0.481  -0.425  -0.374  0.00  0.00     0.060 C 
BRANCH   7   8
ATOM      8  C2' I4B d   1      -0.322   1.041  -0.026  0.00  0.00    -0.013 C 
ATOM      9  C4' I4B d   1       1.129   1.407   0.143  0.00  0.00     0.013 C 
ATOM     10  C3' I4B d   1      -0.961   1.848  -1.116  0.00  0.00     0.013 C 
ENDBRANCH   7   8
ENDBRANCH   1   7
TORSDOF 2
ENDMDL
