MODEL 1
REMARK minimizedAffinity -3.86558127
REMARK minimizedRMSD -1
REMARK  2 active torsions:
REMARK  status: ('A' for Active; 'I' for Inactive)
REMARK    1  A    between atoms: C2'_3  and  C1'_4 
REMARK    2  A    between atoms: C1'_4  and  C1_5 
ROOT
ATOM      1  C1  I4B d   1      -0.468   0.063   0.441  0.00  0.00    -0.075 A 
ATOM      2  C2  I4B d   1       0.711  -0.318  -0.150  0.00  0.00     0.003 A 
ATOM      3  C3  I4B d   1       1.376  -1.492   0.276  0.00  0.00     0.002 A 
ATOM      4  C4  I4B d   1       0.858  -2.224   1.325  0.00  0.00    -0.004 A 
ATOM      5  C5  I4B d   1      -0.349  -1.850   1.908  0.00  0.00     0.002 A 
ATOM      6  C6  I4B d   1      -1.023  -0.706   1.456  0.00  0.00     0.003 A 
ENDROOT
BRANCH   1   7
ATOM      7  C1' I4B d   1      -1.127   1.327  -0.012  0.00  0.00     0.060 C 
BRANCH   7   8
ATOM      8  C2' I4B d   1      -1.348   1.228  -1.508  0.00  0.00    -0.013 C 
ATOM      9  C4' I4B d   1      -2.768   0.840  -1.825  0.00  0.00     0.013 C 
ATOM     10  C3' I4B d   1      -1.000   2.553  -2.116  0.00  0.00     0.013 C 
ENDBRANCH   7   8
ENDBRANCH   1   7
TORSDOF 2
ENDMDL
