MODEL 1
REMARK minimizedAffinity -6.12745047
REMARK minimizedRMSD -1
REMARK  2 active torsions:
REMARK  status: ('A' for Active; 'I' for Inactive)
REMARK    1  A    between atoms: C2'_3  and  C1'_4 
REMARK    2  A    between atoms: C1'_4  and  C1_5 
ROOT
ATOM      1  C1  I4B d   1      -0.719   2.875  -2.970  0.00  0.00    -0.075 A 
ATOM      2  C2  I4B d   1      -1.552   2.831  -1.880  0.00  0.00     0.003 A 
ATOM      3  C3  I4B d   1      -2.604   1.885  -1.825  0.00  0.00     0.002 A 
ATOM      4  C4  I4B d   1      -2.817   1.042  -2.896  0.00  0.00    -0.004 A 
ATOM      5  C5  I4B d   1      -1.957   1.072  -3.990  0.00  0.00     0.002 A 
ATOM      6  C6  I4B d   1      -0.894   1.986  -4.022  0.00  0.00     0.003 A 
ENDROOT
BRANCH   1   7
ATOM      7  C1' I4B d   1       0.362   3.908  -3.009  0.00  0.00     0.060 C 
BRANCH   7   8
ATOM      8  C2' I4B d   1      -0.054   4.980  -3.996  0.00  0.00    -0.013 C 
ATOM      9  C4' I4B d   1       1.040   5.998  -4.188  0.00  0.00     0.013 C 
ATOM     10  C3' I4B d   1      -0.402   4.309  -5.290  0.00  0.00     0.013 C 
ENDBRANCH   7   8
ENDBRANCH   1   7
TORSDOF 2
ENDMDL
