MODEL 1
REMARK minimizedAffinity -5.05948877
REMARK minimizedRMSD -1
REMARK  2 active torsions:
REMARK  status: ('A' for Active; 'I' for Inactive)
REMARK    1  A    between atoms: C2'_3  and  C1'_4 
REMARK    2  A    between atoms: C1'_4  and  C1_5 
ROOT
ATOM      1  C1  I4B d   1      -1.033   2.225  -1.833  0.00  0.00    -0.075 A 
ATOM      2  C2  I4B d   1      -0.315   2.821  -2.840  0.00  0.00     0.003 A 
ATOM      3  C3  I4B d   1      -0.847   2.892  -4.150  0.00  0.00     0.002 A 
ATOM      4  C4  I4B d   1      -2.070   2.312  -4.419  0.00  0.00    -0.004 A 
ATOM      5  C5  I4B d   1      -2.807   1.728  -3.392  0.00  0.00     0.002 A 
ATOM      6  C6  I4B d   1      -2.291   1.695  -2.089  0.00  0.00     0.003 A 
ENDROOT
BRANCH   1   7
ATOM      7  C1' I4B d   1      -0.427   2.139  -0.469  0.00  0.00     0.060 C 
BRANCH   7   8
ATOM      8  C2' I4B d   1      -0.314   0.674  -0.099  0.00  0.00    -0.013 C 
ATOM      9  C4' I4B d   1       1.126   0.235  -0.042  0.00  0.00     0.013 C 
ATOM     10  C3' I4B d   1      -0.993   0.476   1.223  0.00  0.00     0.013 C 
ENDBRANCH   7   8
ENDBRANCH   1   7
TORSDOF 2
ENDMDL
