MODEL 1
REMARK minimizedAffinity -4.07674074
REMARK minimizedRMSD -1
REMARK  2 active torsions:
REMARK  status: ('A' for Active; 'I' for Inactive)
REMARK    1  A    between atoms: C2'_3  and  C1'_4 
REMARK    2  A    between atoms: C1'_4  and  C1_5 
ROOT
ATOM      1  C1  I4B d   1      -0.794   1.982  -1.745  0.00  0.00    -0.075 A 
ATOM      2  C2  I4B d   1      -0.167   2.756  -2.688  0.00  0.00     0.003 A 
ATOM      3  C3  I4B d   1      -0.695   2.851  -3.999  0.00  0.00     0.002 A 
ATOM      4  C4  I4B d   1      -1.816   2.120  -4.334  0.00  0.00    -0.004 A 
ATOM      5  C5  I4B d   1      -2.464   1.353  -3.370  0.00  0.00     0.002 A 
ATOM      6  C6  I4B d   1      -1.958   1.293  -2.064  0.00  0.00     0.003 A 
ENDROOT
BRANCH   1   7
ATOM      7  C1' I4B d   1      -0.191   1.878  -0.380  0.00  0.00     0.060 C 
BRANCH   7   8
ATOM      8  C2' I4B d   1      -0.130   0.410  -0.007  0.00  0.00    -0.013 C 
ATOM      9  C4' I4B d   1       1.294  -0.067   0.096  0.00  0.00     0.013 C 
ATOM     10  C3' I4B d   1      -0.856   0.233   1.293  0.00  0.00     0.013 C 
ENDBRANCH   7   8
ENDBRANCH   1   7
TORSDOF 2
ENDMDL
