MODEL 1
REMARK minimizedAffinity -2.14912248
REMARK minimizedRMSD -1
REMARK  2 active torsions:
REMARK  status: ('A' for Active; 'I' for Inactive)
REMARK    1  A    between atoms: C2'_3  and  C1'_4 
REMARK    2  A    between atoms: C1'_4  and  C1_5 
ROOT
ATOM      1  C1  I4B d   1      -0.994   3.072  -3.580  0.00  0.00    -0.075 A 
ATOM      2  C2  I4B d   1      -0.422   2.716  -2.384  0.00  0.00     0.003 A 
ATOM      3  C3  I4B d   1      -1.126   1.892  -1.474  0.00  0.00     0.002 A 
ATOM      4  C4  I4B d   1      -2.412   1.490  -1.775  0.00  0.00    -0.004 A 
ATOM      5  C5  I4B d   1      -2.981   1.832  -2.998  0.00  0.00     0.002 A 
ATOM      6  C6  I4B d   1      -2.264   2.618  -3.912  0.00  0.00     0.003 A 
ENDROOT
BRANCH   1   7
ATOM      7  C1' I4B d   1      -0.235   3.971  -4.504  0.00  0.00     0.060 C 
BRANCH   7   8
ATOM      8  C2' I4B d   1       0.246   5.164  -3.703  0.00  0.00    -0.013 C 
ATOM      9  C4' I4B d   1       1.264   5.963  -4.474  0.00  0.00     0.013 C 
ATOM     10  C3' I4B d   1      -0.949   6.000  -3.355  0.00  0.00     0.013 C 
ENDBRANCH   7   8
ENDBRANCH   1   7
TORSDOF 2
ENDMDL
