MODEL 1
REMARK minimizedAffinity -6.02701569
REMARK minimizedRMSD -1
REMARK  2 active torsions:
REMARK  status: ('A' for Active; 'I' for Inactive)
REMARK    1  A    between atoms: C2'_3  and  C1'_4 
REMARK    2  A    between atoms: C1'_4  and  C1_5 
ROOT
ATOM      1  C1  I4B d   1      -1.049   2.508  -2.823  0.00  0.00    -0.075 A 
ATOM      2  C2  I4B d   1      -0.364   3.635  -2.444  0.00  0.00     0.003 A 
ATOM      3  C3  I4B d   1       0.182   4.501  -3.423  0.00  0.00     0.002 A 
ATOM      4  C4  I4B d   1       0.063   4.176  -4.759  0.00  0.00    -0.004 A 
ATOM      5  C5  I4B d   1      -0.652   3.045  -5.142  0.00  0.00     0.002 A 
ATOM      6  C6  I4B d   1      -1.223   2.212  -4.169  0.00  0.00     0.003 A 
ENDROOT
BRANCH   1   7
ATOM      7  C1' I4B d   1      -1.584   1.599  -1.762  0.00  0.00     0.060 C 
BRANCH   7   8
ATOM      8  C2' I4B d   1      -0.434   1.214  -0.854  0.00  0.00    -0.013 C 
ATOM      9  C4' I4B d   1      -0.754   1.512   0.587  0.00  0.00     0.013 C 
ATOM     10  C3' I4B d   1      -0.153  -0.245  -1.056  0.00  0.00     0.013 C 
ENDBRANCH   7   8
ENDBRANCH   1   7
TORSDOF 2
ENDMDL
