MODEL 1
REMARK minimizedAffinity -4.60589457
REMARK minimizedRMSD -1
REMARK  2 active torsions:
REMARK  status: ('A' for Active; 'I' for Inactive)
REMARK    1  A    between atoms: C2'_3  and  C1'_4 
REMARK    2  A    between atoms: C1'_4  and  C1_5 
ROOT
ATOM      1  C1  I4B d   1      -0.591   2.653  -2.900  0.00  0.00    -0.075 A 
ATOM      2  C2  I4B d   1      -0.785   2.222  -1.612  0.00  0.00     0.003 A 
ATOM      3  C3  I4B d   1      -1.915   1.432  -1.287  0.00  0.00     0.002 A 
ATOM      4  C4  I4B d   1      -2.846   1.143  -2.264  0.00  0.00    -0.004 A 
ATOM      5  C5  I4B d   1      -2.635   1.562  -3.574  0.00  0.00     0.002 A 
ATOM      6  C6  I4B d   1      -1.495   2.311  -3.898  0.00  0.00     0.003 A 
ENDROOT
BRANCH   1   7
ATOM      7  C1' I4B d   1       0.596   3.512  -3.201  0.00  0.00     0.060 C 
BRANCH   7   8
ATOM      8  C2' I4B d   1       0.210   4.468  -4.312  0.00  0.00    -0.013 C 
ATOM      9  C4' I4B d   1       0.791   5.838  -4.078  0.00  0.00     0.013 C 
ATOM     10  C3' I4B d   1       0.692   3.890  -5.609  0.00  0.00     0.013 C 
ENDBRANCH   7   8
ENDBRANCH   1   7
TORSDOF 2
ENDMDL
