MODEL 1
REMARK minimizedAffinity -4.7290473
REMARK minimizedRMSD -1
REMARK  2 active torsions:
REMARK  status: ('A' for Active; 'I' for Inactive)
REMARK    1  A    between atoms: C2'_3  and  C1'_4 
REMARK    2  A    between atoms: C1'_4  and  C1_5 
ROOT
ATOM      1  C1  I4B d   1      -0.380   3.077  -3.899  0.00  0.00    -0.075 A 
ATOM      2  C2  I4B d   1      -0.202   3.002  -2.540  0.00  0.00     0.003 A 
ATOM      3  C3  I4B d   1      -1.172   2.365  -1.728  0.00  0.00     0.002 A 
ATOM      4  C4  I4B d   1      -2.320   1.864  -2.307  0.00  0.00    -0.004 A 
ATOM      5  C5  I4B d   1      -2.488   1.921  -3.687  0.00  0.00     0.002 A 
ATOM      6  C6  I4B d   1      -1.506   2.519  -4.490  0.00  0.00     0.003 A 
ENDROOT
BRANCH   1   7
ATOM      7  C1' I4B d   1       0.648   3.785  -4.722  0.00  0.00     0.060 C 
BRANCH   7   8
ATOM      8  C2' I4B d   1       1.017   5.068  -4.005  0.00  0.00    -0.013 C 
ATOM      9  C4' I4B d   1       2.244   5.698  -4.611  0.00  0.00     0.013 C 
ATOM     10  C3' I4B d   1      -0.160   5.995  -4.078  0.00  0.00     0.013 C 
ENDBRANCH   7   8
ENDBRANCH   1   7
TORSDOF 2
ENDMDL
