MODEL 1
REMARK minimizedAffinity -4.85833836
REMARK minimizedRMSD -1
REMARK  2 active torsions:
REMARK  status: ('A' for Active; 'I' for Inactive)
REMARK    1  A    between atoms: C2'_3  and  C1'_4 
REMARK    2  A    between atoms: C1'_4  and  C1_5 
ROOT
ATOM      1  C1  I4B d   1      -0.733   1.761  -1.646  0.00  0.00    -0.075 A 
ATOM      2  C2  I4B d   1       0.234   2.270  -2.477  0.00  0.00     0.003 A 
ATOM      3  C3  I4B d   1      -0.076   2.587  -3.822  0.00  0.00     0.002 A 
ATOM      4  C4  I4B d   1      -1.343   2.334  -4.305  0.00  0.00    -0.004 A 
ATOM      5  C5  I4B d   1      -2.329   1.839  -3.455  0.00  0.00     0.002 A 
ATOM      6  C6  I4B d   1      -2.025   1.562  -2.114  0.00  0.00     0.003 A 
ENDROOT
BRANCH   1   7
ATOM      7  C1' I4B d   1      -0.362   1.406  -0.241  0.00  0.00     0.060 C 
BRANCH   7   8
ATOM      8  C2' I4B d   1       0.518   0.174  -0.287  0.00  0.00    -0.013 C 
ATOM      9  C4' I4B d   1       1.961   0.525  -0.033  0.00  0.00     0.013 C 
ATOM     10  C3' I4B d   1       0.009  -0.798   0.735  0.00  0.00     0.013 C 
ENDBRANCH   7   8
ENDBRANCH   1   7
TORSDOF 2
ENDMDL
