MODEL 1
REMARK minimizedAffinity -6.3845048
REMARK minimizedRMSD -1
REMARK  2 active torsions:
REMARK  status: ('A' for Active; 'I' for Inactive)
REMARK    1  A    between atoms: C2'_3  and  C1'_4 
REMARK    2  A    between atoms: C1'_4  and  C1_5 
ROOT
ATOM      1  C1  I4B d   1      -0.958   2.439  -2.522  0.00  0.00    -0.075 A 
ATOM      2  C2  I4B d   1      -0.362   3.629  -2.186  0.00  0.00     0.003 A 
ATOM      3  C3  I4B d   1       0.054   4.529  -3.198  0.00  0.00     0.002 A 
ATOM      4  C4  I4B d   1      -0.098   4.178  -4.524  0.00  0.00    -0.004 A 
ATOM      5  C5  I4B d   1      -0.723   2.981  -4.862  0.00  0.00     0.002 A 
ATOM      6  C6  I4B d   1      -1.167   2.111  -3.856  0.00  0.00     0.003 A 
ENDROOT
BRANCH   1   7
ATOM      7  C1' I4B d   1      -1.355   1.498  -1.430  0.00  0.00     0.060 C 
BRANCH   7   8
ATOM      8  C2' I4B d   1      -0.266   1.519  -0.377  0.00  0.00    -0.013 C 
ATOM      9  C4' I4B d   1      -0.829   1.836   0.984  0.00  0.00     0.013 C 
ATOM     10  C3' I4B d   1       0.412   0.181  -0.384  0.00  0.00     0.013 C 
ENDBRANCH   7   8
ENDBRANCH   1   7
TORSDOF 2
ENDMDL
