MODEL 1
REMARK minimizedAffinity -3.0144031
REMARK minimizedRMSD -1
REMARK  2 active torsions:
REMARK  status: ('A' for Active; 'I' for Inactive)
REMARK    1  A    between atoms: C2'_3  and  C1'_4 
REMARK    2  A    between atoms: C1'_4  and  C1_5 
ROOT
ATOM      1  C1  I4B d   1       0.423   0.176   0.643  0.00  0.00    -0.075 A 
ATOM      2  C2  I4B d   1      -0.371  -0.179   1.705  0.00  0.00     0.003 A 
ATOM      3  C3  I4B d   1       0.023  -1.230   2.569  0.00  0.00     0.002 A 
ATOM      4  C4  I4B d   1       1.185  -1.926   2.307  0.00  0.00    -0.004 A 
ATOM      5  C5  I4B d   1       2.000  -1.550   1.244  0.00  0.00     0.002 A 
ATOM      6  C6  I4B d   1       1.623  -0.484   0.413  0.00  0.00     0.003 A 
ENDROOT
BRANCH   1   7
ATOM      7  C1' I4B d   1      -0.039   1.268  -0.269  0.00  0.00     0.060 C 
BRANCH   7   8
ATOM      8  C2' I4B d   1      -1.067   0.682  -1.215  0.00  0.00    -0.013 C 
ATOM      9  C4' I4B d   1      -1.630   1.737  -2.130  0.00  0.00     0.013 C 
ATOM     10  C3' I4B d   1      -0.405  -0.415  -1.996  0.00  0.00     0.013 C 
ENDBRANCH   7   8
ENDBRANCH   1   7
TORSDOF 2
ENDMDL
