MODEL 1
REMARK minimizedAffinity -0.493362814
REMARK minimizedRMSD -1
REMARK  2 active torsions:
REMARK  status: ('A' for Active; 'I' for Inactive)
REMARK    1  A    between atoms: C2'_3  and  C1'_4 
REMARK    2  A    between atoms: C1'_4  and  C1_5 
ROOT
ATOM      1  C1  I4B d   1      -0.248   1.537  -0.989  0.00  0.00    -0.075 A 
ATOM      2  C2  I4B d   1       0.974   0.971  -1.254  0.00  0.00     0.003 A 
ATOM      3  C3  I4B d   1       1.462  -0.082  -0.444  0.00  0.00     0.002 A 
ATOM      4  C4  I4B d   1       0.725  -0.501   0.645  0.00  0.00    -0.004 A 
ATOM      5  C5  I4B d   1      -0.524   0.059   0.899  0.00  0.00     0.002 A 
ATOM      6  C6  I4B d   1      -1.020   1.076   0.070  0.00  0.00     0.003 A 
ENDROOT
BRANCH   1   7
ATOM      7  C1' I4B d   1      -0.719   2.670  -1.845  0.00  0.00     0.060 C 
BRANCH   7   8
ATOM      8  C2' I4B d   1      -0.941   2.135  -3.245  0.00  0.00    -0.013 C 
ATOM      9  C4' I4B d   1      -2.409   2.055  -3.572  0.00  0.00     0.013 C 
ATOM     10  C3' I4B d   1      -0.222   3.036  -4.204  0.00  0.00     0.013 C 
ENDBRANCH   7   8
ENDBRANCH   1   7
TORSDOF 2
ENDMDL
