MODEL 1
REMARK minimizedAffinity -2.24833322
REMARK minimizedRMSD -1
REMARK  1 active torsions:
REMARK  status: ('A' for Active; 'I' for Inactive)
REMARK    1  A    between atoms: C3_4  and  O_7 
ROOT
ATOM      1  C   UNL d   1      -0.504  -0.821   0.958  0.00  0.00    -0.033 A 
ATOM      2  C1  UNL d   1      -0.366   0.468   0.439  0.00  0.00     0.039 A 
ATOM      3  C2  UNL d   1       0.027   0.649  -0.888  0.00  0.00    -0.080 A 
ATOM      4  C3  UNL d   1       0.278  -0.464  -1.685  0.00  0.00     0.150 A 
ATOM      5  C4  UNL d   1       0.139  -1.751  -1.175  0.00  0.00    -0.007 A 
ATOM      6  C5  UNL d   1      -0.253  -1.930   0.151  0.00  0.00     0.039 A 
ENDROOT
BRANCH   4   7
ATOM      7  O   UNL d   1       0.668  -0.337  -2.985  0.00  0.00    -0.526 OA
ATOM      8  H5  UNL d   1       0.750   0.609  -3.190  0.00  0.00     0.418 HD
ENDBRANCH   4   7
TORSDOF 1
ENDMDL
