MODEL 1
REMARK minimizedAffinity -0.466883957
REMARK minimizedRMSD -1
REMARK  1 active torsions:
REMARK  status: ('A' for Active; 'I' for Inactive)
REMARK    1  A    between atoms: C3_4  and  O_7 
ROOT
ATOM      1  C   UNL d   1      -0.637  -0.969   0.868  0.00  0.00    -0.033 A 
ATOM      2  C1  UNL d   1      -0.245   0.349   0.621  0.00  0.00     0.039 A 
ATOM      3  C2  UNL d   1       0.617   0.635  -0.439  0.00  0.00    -0.080 A 
ATOM      4  C3  UNL d   1       1.079  -0.403  -1.244  0.00  0.00     0.150 A 
ATOM      5  C4  UNL d   1       0.689  -1.717  -1.006  0.00  0.00    -0.007 A 
ATOM      6  C5  UNL d   1      -0.171  -2.001   0.054  0.00  0.00     0.039 A 
ENDROOT
BRANCH   4   7
ATOM      7  O   UNL d   1       1.925  -0.173  -2.287  0.00  0.00    -0.526 OA
ATOM      8  H5  UNL d   1       2.131   0.777  -2.313  0.00  0.00     0.418 HD
ENDBRANCH   4   7
TORSDOF 1
ENDMDL
