MODEL 1
REMARK minimizedAffinity -2.15994048
REMARK minimizedRMSD -1
REMARK  1 active torsions:
REMARK  status: ('A' for Active; 'I' for Inactive)
REMARK    1  A    between atoms: C3_4  and  O_7 
ROOT
ATOM      1  C   UNL d   1      -6.000   4.258  -5.785  0.00  0.00    -0.033 A 
ATOM      2  C1  UNL d   1      -5.585   2.937  -5.605  0.00  0.00     0.039 A 
ATOM      3  C2  UNL d   1      -4.224   2.622  -5.625  0.00  0.00    -0.080 A 
ATOM      4  C3  UNL d   1      -3.291   3.636  -5.824  0.00  0.00     0.150 A 
ATOM      5  C4  UNL d   1      -3.698   4.954  -6.000  0.00  0.00    -0.007 A 
ATOM      6  C5  UNL d   1      -5.057   5.267  -5.981  0.00  0.00     0.039 A 
ENDROOT
BRANCH   4   7
ATOM      7  O   UNL d   1      -1.953   3.376  -5.857  0.00  0.00    -0.526 OA
ATOM      8  H5  UNL d   1      -1.823   2.419  -5.750  0.00  0.00     0.418 HD
ENDBRANCH   4   7
TORSDOF 1
ENDMDL
