MODEL 1
REMARK minimizedAffinity -2.33915329
REMARK minimizedRMSD -1
REMARK  1 active torsions:
REMARK  status: ('A' for Active; 'I' for Inactive)
REMARK    1  A    between atoms: C3_4  and  O_7 
ROOT
ATOM      1  C   UNL d   1      -3.743   0.761   2.192  0.00  0.00    -0.033 A 
ATOM      2  C1  UNL d   1      -2.857  -0.018   1.446  0.00  0.00     0.039 A 
ATOM      3  C2  UNL d   1      -1.510  -0.084   1.806  0.00  0.00    -0.080 A 
ATOM      4  C3  UNL d   1      -1.062   0.632   2.914  0.00  0.00     0.150 A 
ATOM      5  C4  UNL d   1      -1.941   1.407   3.663  0.00  0.00    -0.007 A 
ATOM      6  C5  UNL d   1      -3.286   1.473   3.302  0.00  0.00     0.039 A 
ENDROOT
BRANCH   4   7
ATOM      7  O   UNL d   1       0.244   0.602   3.301  0.00  0.00    -0.526 OA
ATOM      8  H5  UNL d   1       0.739   0.049   2.673  0.00  0.00     0.418 HD
ENDBRANCH   4   7
TORSDOF 1
ENDMDL
