MODEL 1
REMARK minimizedAffinity -3.30479956
REMARK minimizedRMSD -1
REMARK  1 active torsions:
REMARK  status: ('A' for Active; 'I' for Inactive)
REMARK    1  A    between atoms: C3_4  and  O_7 
ROOT
ATOM      1  C   UNL d   1      -3.981   1.351   3.271  0.00  0.00    -0.033 A 
ATOM      2  C1  UNL d   1      -4.225   0.394   2.284  0.00  0.00     0.039 A 
ATOM      3  C2  UNL d   1      -3.158  -0.220   1.625  0.00  0.00    -0.080 A 
ATOM      4  C3  UNL d   1      -1.854   0.130   1.964  0.00  0.00     0.150 A 
ATOM      5  C4  UNL d   1      -1.603   1.080   2.949  0.00  0.00    -0.007 A 
ATOM      6  C5  UNL d   1      -2.670   1.692   3.605  0.00  0.00     0.039 A 
ENDROOT
BRANCH   4   7
ATOM      7  O   UNL d   1      -0.780  -0.438   1.345  0.00  0.00    -0.526 OA
ATOM      8  H5  UNL d   1      -1.105  -1.054   0.668  0.00  0.00     0.418 HD
ENDBRANCH   4   7
TORSDOF 1
ENDMDL
