MODEL 1
REMARK minimizedAffinity -3.14180684
REMARK minimizedRMSD -1
REMARK  1 active torsions:
REMARK  status: ('A' for Active; 'I' for Inactive)
REMARK    1  A    between atoms: C3_4  and  O_7 
ROOT
ATOM      1  C   UNL d   1      -0.068   0.011   0.673  0.00  0.00    -0.033 A 
ATOM      2  C1  UNL d   1      -0.143  -1.105  -0.163  0.00  0.00     0.039 A 
ATOM      3  C2  UNL d   1       0.456  -1.076  -1.424  0.00  0.00    -0.080 A 
ATOM      4  C3  UNL d   1       1.126   0.073  -1.836  0.00  0.00     0.150 A 
ATOM      5  C4  UNL d   1       1.209   1.186  -1.006  0.00  0.00    -0.007 A 
ATOM      6  C5  UNL d   1       0.609   1.156   0.252  0.00  0.00     0.039 A 
ENDROOT
BRANCH   4   7
ATOM      7  O   UNL d   1       1.722   0.150  -3.059  0.00  0.00    -0.526 OA
ATOM      8  H5  UNL d   1       1.560  -0.682  -3.534  0.00  0.00     0.418 HD
ENDBRANCH   4   7
TORSDOF 1
ENDMDL
