MODEL 1
REMARK minimizedAffinity -2.21568203
REMARK minimizedRMSD -1
REMARK  1 active torsions:
REMARK  status: ('A' for Active; 'I' for Inactive)
REMARK    1  A    between atoms: C3_4  and  O_7 
ROOT
ATOM      1  C   UNL d   1      -2.812   2.151   4.061  0.00  0.00    -0.033 A 
ATOM      2  C1  UNL d   1      -4.144   2.569   4.017  0.00  0.00     0.039 A 
ATOM      3  C2  UNL d   1      -4.936   2.268   2.908  0.00  0.00    -0.080 A 
ATOM      4  C3  UNL d   1      -4.386   1.547   1.851  0.00  0.00     0.150 A 
ATOM      5  C4  UNL d   1      -3.062   1.123   1.890  0.00  0.00    -0.007 A 
ATOM      6  C5  UNL d   1      -2.272   1.426   2.998  0.00  0.00     0.039 A 
ENDROOT
BRANCH   4   7
ATOM      7  O   UNL d   1      -5.119   1.233   0.745  0.00  0.00    -0.526 OA
ATOM      8  H5  UNL d   1      -6.007   1.615   0.846  0.00  0.00     0.418 HD
ENDBRANCH   4   7
TORSDOF 1
ENDMDL
