MODEL 1
REMARK minimizedAffinity -1.61529994
REMARK minimizedRMSD -1
REMARK  1 active torsions:
REMARK  status: ('A' for Active; 'I' for Inactive)
REMARK    1  A    between atoms: C3_4  and  O_7 
ROOT
ATOM      1  C   UNL d   1      -1.003   0.167  -0.447  0.00  0.00    -0.033 A 
ATOM      2  C1  UNL d   1      -0.088  -0.796  -0.016  0.00  0.00     0.039 A 
ATOM      3  C2  UNL d   1       1.263  -0.676  -0.350  0.00  0.00    -0.080 A 
ATOM      4  C3  UNL d   1       1.685   0.409  -1.112  0.00  0.00     0.150 A 
ATOM      5  C4  UNL d   1       0.780   1.374  -1.541  0.00  0.00    -0.007 A 
ATOM      6  C5  UNL d   1      -0.569   1.253  -1.208  0.00  0.00     0.039 A 
ENDROOT
BRANCH   4   7
ATOM      7  O   UNL d   1       2.992   0.566  -1.466  0.00  0.00    -0.526 OA
ATOM      8  H5  UNL d   1       3.496  -0.191  -1.124  0.00  0.00     0.418 HD
ENDBRANCH   4   7
TORSDOF 1
ENDMDL
