MODEL 1
REMARK minimizedAffinity -3.94883561
REMARK minimizedRMSD -1
REMARK  1 active torsions:
REMARK  status: ('A' for Active; 'I' for Inactive)
REMARK    1  A    between atoms: C3_4  and  O_7 
ROOT
ATOM      1  C   UNL d   1       1.561  -0.006  -2.535  0.00  0.00    -0.033 A 
ATOM      2  C1  UNL d   1       1.740   1.067  -1.660  0.00  0.00     0.039 A 
ATOM      3  C2  UNL d   1       1.034   1.115  -0.457  0.00  0.00    -0.080 A 
ATOM      4  C3  UNL d   1       0.153   0.085  -0.141  0.00  0.00     0.150 A 
ATOM      5  C4  UNL d   1      -0.028  -0.990  -1.006  0.00  0.00    -0.007 A 
ATOM      6  C5  UNL d   1       0.678  -1.035  -2.207  0.00  0.00     0.039 A 
ENDROOT
BRANCH   4   7
ATOM      7  O   UNL d   1      -0.563   0.090   1.020  0.00  0.00    -0.526 OA
ATOM      8  H5  UNL d   1      -0.358   0.907   1.504  0.00  0.00     0.418 HD
ENDBRANCH   4   7
TORSDOF 1
ENDMDL
