MODEL 1
REMARK minimizedAffinity -4.73151731
REMARK minimizedRMSD -1
REMARK  1 active torsions:
REMARK  status: ('A' for Active; 'I' for Inactive)
REMARK    1  A    between atoms: C3_4  and  O_7 
ROOT
ATOM      1  C   UNL d   1       0.036  -0.897   0.178  0.00  0.00    -0.033 A 
ATOM      2  C1  UNL d   1       0.141   0.473  -0.066  0.00  0.00     0.039 A 
ATOM      3  C2  UNL d   1       0.727   0.932  -1.247  0.00  0.00    -0.080 A 
ATOM      4  C3  UNL d   1       1.203   0.011  -2.176  0.00  0.00     0.150 A 
ATOM      5  C4  UNL d   1       1.098  -1.357  -1.942  0.00  0.00    -0.007 A 
ATOM      6  C5  UNL d   1       0.513  -1.812  -0.761  0.00  0.00     0.039 A 
ENDROOT
BRANCH   4   7
ATOM      7  O   UNL d   1       1.787   0.410  -3.341  0.00  0.00    -0.526 OA
ATOM      8  H5  UNL d   1       1.817   1.382  -3.353  0.00  0.00     0.418 HD
ENDBRANCH   4   7
TORSDOF 1
ENDMDL
