MODEL 1
REMARK minimizedAffinity -2.21342826
REMARK minimizedRMSD -1
REMARK  1 active torsions:
REMARK  status: ('A' for Active; 'I' for Inactive)
REMARK    1  A    between atoms: C3_4  and  O_7 
ROOT
ATOM      1  C   UNL d   1       1.719   0.617  -3.047  0.00  0.00    -0.033 A 
ATOM      2  C1  UNL d   1       0.428   0.089  -2.971  0.00  0.00     0.039 A 
ATOM      3  C2  UNL d   1      -0.184  -0.087  -1.729  0.00  0.00    -0.080 A 
ATOM      4  C3  UNL d   1       0.503   0.268  -0.572  0.00  0.00     0.150 A 
ATOM      5  C4  UNL d   1       1.787   0.798  -0.640  0.00  0.00    -0.007 A 
ATOM      6  C5  UNL d   1       2.398   0.973  -1.881  0.00  0.00     0.039 A 
ENDROOT
BRANCH   4   7
ATOM      7  O   UNL d   1      -0.052   0.110   0.663  0.00  0.00    -0.526 OA
ATOM      8  H5  UNL d   1      -0.930  -0.292   0.557  0.00  0.00     0.418 HD
ENDBRANCH   4   7
TORSDOF 1
ENDMDL
