MODEL 1
REMARK minimizedAffinity -4.2068224
REMARK minimizedRMSD -1
REMARK  1 active torsions:
REMARK  status: ('A' for Active; 'I' for Inactive)
REMARK    1  A    between atoms: C3_4  and  O_7 
ROOT
ATOM      1  C   UNL d   1      -0.923   0.894   3.438  0.00  0.00    -0.033 A 
ATOM      2  C1  UNL d   1       0.397   1.201   3.103  0.00  0.00     0.039 A 
ATOM      3  C2  UNL d   1       0.860   0.980   1.804  0.00  0.00    -0.080 A 
ATOM      4  C3  UNL d   1      -0.007   0.453   0.851  0.00  0.00     0.150 A 
ATOM      5  C4  UNL d   1      -1.325   0.148   1.176  0.00  0.00    -0.007 A 
ATOM      6  C5  UNL d   1      -1.784   0.369   2.474  0.00  0.00     0.039 A 
ENDROOT
BRANCH   4   7
ATOM      7  O   UNL d   1       0.400   0.216  -0.428  0.00  0.00    -0.526 OA
ATOM      8  H5  UNL d   1       1.341   0.447  -0.500  0.00  0.00     0.418 HD
ENDBRANCH   4   7
TORSDOF 1
ENDMDL
