MODEL 1
REMARK minimizedAffinity -1.7140615
REMARK minimizedRMSD -1
REMARK  1 active torsions:
REMARK  status: ('A' for Active; 'I' for Inactive)
REMARK    1  A    between atoms: C3_4  and  O_7 
ROOT
ATOM      1  C   UNL d   1      -2.988  -4.004  -5.992  0.00  0.00    -0.033 A 
ATOM      2  C1  UNL d   1      -2.562  -4.656  -4.833  0.00  0.00     0.039 A 
ATOM      3  C2  UNL d   1      -2.874  -4.128  -3.578  0.00  0.00    -0.080 A 
ATOM      4  C3  UNL d   1      -3.612  -2.950  -3.497  0.00  0.00     0.150 A 
ATOM      5  C4  UNL d   1      -4.043  -2.298  -4.648  0.00  0.00    -0.007 A 
ATOM      6  C5  UNL d   1      -3.730  -2.826  -5.899  0.00  0.00     0.039 A 
ENDROOT
BRANCH   4   7
ATOM      7  O   UNL d   1      -3.937  -2.394  -2.295  0.00  0.00    -0.526 OA
ATOM      8  H5  UNL d   1      -3.548  -2.938  -1.590  0.00  0.00     0.418 HD
ENDBRANCH   4   7
TORSDOF 1
ENDMDL
