MODEL 1
REMARK minimizedAffinity -0.714797914
REMARK minimizedRMSD -1
REMARK  1 active torsions:
REMARK  status: ('A' for Active; 'I' for Inactive)
REMARK    1  A    between atoms: C3_4  and  O_7 
ROOT
ATOM      1  C   UNL d   1      -5.928   3.854  -5.924  0.00  0.00    -0.033 A 
ATOM      2  C1  UNL d   1      -5.304   2.618  -5.744  0.00  0.00     0.039 A 
ATOM      3  C2  UNL d   1      -3.913   2.545  -5.643  0.00  0.00    -0.080 A 
ATOM      4  C3  UNL d   1      -3.160   3.713  -5.722  0.00  0.00     0.150 A 
ATOM      5  C4  UNL d   1      -3.776   4.948  -5.897  0.00  0.00    -0.007 A 
ATOM      6  C5  UNL d   1      -5.165   5.019  -5.999  0.00  0.00     0.039 A 
ENDROOT
BRANCH   4   7
ATOM      7  O   UNL d   1      -1.800   3.692  -5.634  0.00  0.00    -0.526 OA
ATOM      8  H5  UNL d   1      -1.512   2.768  -5.543  0.00  0.00     0.418 HD
ENDBRANCH   4   7
TORSDOF 1
ENDMDL
