MODEL 1
REMARK minimizedAffinity 9.0410614
REMARK minimizedRMSD -1
REMARK  0 active torsions:
REMARK  status: ('A' for Active; 'I' for Inactive)
ROOT
ATOM      1  C2' OXE d   1       4.171  -0.703   1.502  0.00  0.00     0.078 C 
ATOM      2  C1' OXE d   1       2.602  -1.299  -0.748  0.00  0.00     0.078 C 
ATOM      3  C1  OXE d   1       2.335  -0.001  -0.028  0.00  0.00    -0.078 A 
ATOM      4  C2  OXE d   1       3.076   0.261   1.099  0.00  0.00    -0.078 A 
ATOM      5  C3  OXE d   1       2.907   1.469   1.770  0.00  0.00     0.003 A 
ATOM      6  C4  OXE d   1       1.885   2.350   1.397  0.00  0.00    -0.002 A 
ATOM      7  C5  OXE d   1       1.092   2.084   0.276  0.00  0.00    -0.002 A 
ATOM      8  C6  OXE d   1       1.332   0.936  -0.471  0.00  0.00     0.003 A 
ENDROOT
TORSDOF 0
ENDMDL
