MODEL 1
REMARK minimizedAffinity 19.053709
REMARK minimizedRMSD -1
REMARK  0 active torsions:
REMARK  status: ('A' for Active; 'I' for Inactive)
ROOT
ATOM      1  C2' OXE d   1       5.762   5.828   0.117  0.00  0.00     0.078 C 
ATOM      2  C1' OXE d   1       5.353   3.115  -0.474  0.00  0.00     0.078 C 
ATOM      3  C1  OXE d   1       5.334   3.530   0.976  0.00  0.00    -0.078 A 
ATOM      4  C2  OXE d   1       5.582   4.851   1.259  0.00  0.00    -0.078 A 
ATOM      5  C3  OXE d   1       5.523   5.297   2.576  0.00  0.00     0.003 A 
ATOM      6  C4  OXE d   1       5.365   4.386   3.627  0.00  0.00    -0.002 A 
ATOM      7  C5  OXE d   1       5.151   3.029   3.363  0.00  0.00    -0.002 A 
ATOM      8  C6  OXE d   1       5.091   2.592   2.045  0.00  0.00     0.003 A 
ENDROOT
TORSDOF 0
ENDMDL
