MODEL 1
REMARK minimizedAffinity 6.19680405
REMARK minimizedRMSD -1
REMARK  0 active torsions:
REMARK  status: ('A' for Active; 'I' for Inactive)
ROOT
ATOM      1  C2' OXE d   1       5.307  -1.459   1.559  0.00  0.00     0.078 C 
ATOM      2  C1' OXE d   1       2.631  -2.223   1.928  0.00  0.00     0.078 C 
ATOM      3  C1  OXE d   1       2.907  -1.028   1.050  0.00  0.00    -0.078 A 
ATOM      4  C2  OXE d   1       4.216  -0.633   0.913  0.00  0.00    -0.078 A 
ATOM      5  C3  OXE d   1       4.531   0.429   0.070  0.00  0.00     0.003 A 
ATOM      6  C4  OXE d   1       3.515   1.194  -0.516  0.00  0.00    -0.002 A 
ATOM      7  C5  OXE d   1       2.173   0.833  -0.357  0.00  0.00    -0.002 A 
ATOM      8  C6  OXE d   1       1.855  -0.298   0.386  0.00  0.00     0.003 A 
ENDROOT
TORSDOF 0
ENDMDL
