MODEL 1
REMARK minimizedAffinity 13.2970619
REMARK minimizedRMSD -1
REMARK  0 active torsions:
REMARK  status: ('A' for Active; 'I' for Inactive)
ROOT
ATOM      1  C2' OXE d   1      -4.497  -1.210  -1.129  0.00  0.00     0.078 C 
ATOM      2  C1' OXE d   1      -5.999   0.395  -2.876  0.00  0.00     0.078 C 
ATOM      3  C1  OXE d   1      -5.313   1.070  -1.714  0.00  0.00    -0.078 A 
ATOM      4  C2  OXE d   1      -4.619   0.270  -0.838  0.00  0.00    -0.078 A 
ATOM      5  C3  OXE d   1      -3.923   0.848   0.219  0.00  0.00     0.003 A 
ATOM      6  C4  OXE d   1      -4.049   2.217   0.487  0.00  0.00    -0.002 A 
ATOM      7  C5  OXE d   1      -4.783   3.043  -0.370  0.00  0.00    -0.002 A 
ATOM      8  C6  OXE d   1      -5.385   2.494  -1.497  0.00  0.00     0.003 A 
ENDROOT
TORSDOF 0
ENDMDL
