MODEL 1
REMARK minimizedAffinity 6.85066319
REMARK minimizedRMSD -1
REMARK  0 active torsions:
REMARK  status: ('A' for Active; 'I' for Inactive)
ROOT
ATOM      1  C2' OXE d   1       4.501   2.631  -1.424  0.00  0.00     0.078 C 
ATOM      2  C1' OXE d   1       4.756   1.937   1.284  0.00  0.00     0.078 C 
ATOM      3  C1  OXE d   1       3.635   1.304   0.498  0.00  0.00    -0.078 A 
ATOM      4  C2  OXE d   1       3.489   1.685  -0.814  0.00  0.00    -0.078 A 
ATOM      5  C3  OXE d   1       2.505   1.091  -1.599  0.00  0.00     0.003 A 
ATOM      6  C4  OXE d   1       1.567   0.224  -1.024  0.00  0.00    -0.002 A 
ATOM      7  C5  OXE d   1       1.673  -0.146   0.320  0.00  0.00    -0.002 A 
ATOM      8  C6  OXE d   1       2.724   0.351   1.083  0.00  0.00     0.003 A 
ENDROOT
TORSDOF 0
ENDMDL
