MODEL 1
REMARK minimizedAffinity 12.5200491
REMARK minimizedRMSD -1
REMARK  0 active torsions:
REMARK  status: ('A' for Active; 'I' for Inactive)
ROOT
ATOM      1  C2' OXE d   1       6.000   4.656   0.210  0.00  0.00     0.078 C 
ATOM      2  C1' OXE d   1       5.288   3.335   2.583  0.00  0.00     0.078 C 
ATOM      3  C1  OXE d   1       4.730   2.803   1.287  0.00  0.00    -0.078 A 
ATOM      4  C2  OXE d   1       5.045   3.484   0.136  0.00  0.00    -0.078 A 
ATOM      5  C3  OXE d   1       4.601   3.003  -1.093  0.00  0.00     0.003 A 
ATOM      6  C4  OXE d   1       3.711   1.925  -1.153  0.00  0.00    -0.002 A 
ATOM      7  C5  OXE d   1       3.344   1.241   0.012  0.00  0.00    -0.002 A 
ATOM      8  C6  OXE d   1       3.878   1.641   1.233  0.00  0.00     0.003 A 
ENDROOT
TORSDOF 0
ENDMDL
