MODEL 1
REMARK minimizedAffinity 13.9901457
REMARK minimizedRMSD -1
REMARK  0 active torsions:
REMARK  status: ('A' for Active; 'I' for Inactive)
ROOT
ATOM      1  C2' OXE d   1       2.409  -2.264   0.971  0.00  0.00     0.078 C 
ATOM      2  C1' OXE d   1       1.352  -1.595  -1.542  0.00  0.00     0.078 C 
ATOM      3  C1  OXE d   1       2.103  -0.526  -0.787  0.00  0.00    -0.078 A 
ATOM      4  C2  OXE d   1       2.577  -0.849   0.462  0.00  0.00    -0.078 A 
ATOM      5  C3  OXE d   1       3.323   0.083   1.177  0.00  0.00     0.003 A 
ATOM      6  C4  OXE d   1       3.465   1.393   0.703  0.00  0.00    -0.002 A 
ATOM      7  C5  OXE d   1       2.956   1.754  -0.549  0.00  0.00    -0.002 A 
ATOM      8  C6  OXE d   1       2.311   0.796  -1.324  0.00  0.00     0.003 A 
ENDROOT
TORSDOF 0
ENDMDL
