MODEL 1
REMARK minimizedAffinity 9.21068859
REMARK minimizedRMSD -1
REMARK  0 active torsions:
REMARK  status: ('A' for Active; 'I' for Inactive)
ROOT
ATOM      1  C2' OXE d   1      -3.572   0.331  -1.817  0.00  0.00     0.078 C 
ATOM      2  C1' OXE d   1      -1.677  -0.411  -3.750  0.00  0.00     0.078 C 
ATOM      3  C1  OXE d   1      -3.046   0.001  -4.230  0.00  0.00    -0.078 A 
ATOM      4  C2  OXE d   1      -3.982   0.317  -3.274  0.00  0.00    -0.078 A 
ATOM      5  C3  OXE d   1      -5.244   0.757  -3.664  0.00  0.00     0.003 A 
ATOM      6  C4  OXE d   1      -5.618   0.732  -5.013  0.00  0.00    -0.002 A 
ATOM      7  C5  OXE d   1      -4.692   0.375  -6.000  0.00  0.00    -0.002 A 
ATOM      8  C6  OXE d   1      -3.392   0.049  -5.629  0.00  0.00     0.003 A 
ENDROOT
TORSDOF 0
ENDMDL
