MODEL 1
REMARK minimizedAffinity 12.2694826
REMARK minimizedRMSD -1
REMARK  1 active torsions:
REMARK  status: ('A' for Active; 'I' for Inactive)
REMARK    1  A    between atoms: C1_2  and  C2_3 
ROOT
ATOM      1  C2  UNL d   1       0.841  -2.689  -1.793  0.00  0.00    -0.081 A 
ATOM      2  C3  UNL d   1       1.820  -3.403  -2.495  0.00  0.00     0.006 A 
ATOM      3  C4  UNL d   1       1.458  -4.441  -3.357  0.00  0.00     0.002 A 
ATOM      4  C5  UNL d   1       0.112  -4.777  -3.538  0.00  0.00    -0.080 A 
ATOM      5  C6  UNL d   1      -0.292  -5.869  -4.483  0.00  0.00     0.076 C 
ATOM      6  C7  UNL d   1      -0.865  -4.075  -2.824  0.00  0.00     0.002 A 
ATOM      7  C8  UNL d   1      -0.504  -3.038  -1.961  0.00  0.00     0.006 A 
ENDROOT
BRANCH   1   8
ATOM      8  C1  UNL d   1       1.223  -1.527  -0.912  0.00  0.00     0.054 C 
ATOM      9  C   UNL d   1       1.962  -0.455  -1.701  0.00  0.00     0.018 C 
ENDBRANCH   1   8
TORSDOF 1
ENDMDL
