MODEL 1
REMARK minimizedAffinity 15.5581818
REMARK minimizedRMSD -1
REMARK  1 active torsions:
REMARK  status: ('A' for Active; 'I' for Inactive)
REMARK    1  A    between atoms: C1_2  and  C2_3 
ROOT
ATOM      1  C2  UNL d   1       4.785  -2.495  -5.586  0.00  0.00    -0.081 A 
ATOM      2  C3  UNL d   1       3.652  -3.041  -4.971  0.00  0.00     0.006 A 
ATOM      3  C4  UNL d   1       2.513  -2.260  -4.764  0.00  0.00     0.002 A 
ATOM      4  C5  UNL d   1       2.485  -0.923  -5.176  0.00  0.00    -0.080 A 
ATOM      5  C6  UNL d   1       1.257  -0.082  -4.987  0.00  0.00     0.076 C 
ATOM      6  C7  UNL d   1       3.623  -0.372  -5.774  0.00  0.00     0.002 A 
ATOM      7  C8  UNL d   1       4.763  -1.153  -5.980  0.00  0.00     0.006 A 
ENDROOT
BRANCH   1   8
ATOM      8  C1  UNL d   1       5.992  -3.353  -5.869  0.00  0.00     0.054 C 
ATOM      9  C   UNL d   1       5.695  -4.825  -5.623  0.00  0.00     0.018 C 
ENDBRANCH   1   8
TORSDOF 1
ENDMDL
