MODEL 1
REMARK minimizedAffinity 13.2694674
REMARK minimizedRMSD -1
REMARK  1 active torsions:
REMARK  status: ('A' for Active; 'I' for Inactive)
REMARK    1  A    between atoms: C1_2  and  C2_3 
ROOT
ATOM      1  C2  UNL d   1      -3.521   5.098  -5.238  0.00  0.00    -0.081 A 
ATOM      2  C3  UNL d   1      -2.969   5.344  -3.975  0.00  0.00     0.006 A 
ATOM      3  C4  UNL d   1      -1.935   4.543  -3.485  0.00  0.00     0.002 A 
ATOM      4  C5  UNL d   1      -1.428   3.490  -4.254  0.00  0.00    -0.080 A 
ATOM      5  C6  UNL d   1      -0.297   2.642  -3.753  0.00  0.00     0.076 C 
ATOM      6  C7  UNL d   1      -1.991   3.233  -5.509  0.00  0.00     0.002 A 
ATOM      7  C8  UNL d   1      -3.026   4.033  -5.998  0.00  0.00     0.006 A 
ENDROOT
BRANCH   1   8
ATOM      8  C1  UNL d   1      -4.593   5.999  -5.795  0.00  0.00     0.054 C 
ATOM      9  C   UNL d   1      -5.955   5.321  -5.769  0.00  0.00     0.018 C 
ENDBRANCH   1   8
TORSDOF 1
ENDMDL
