MODEL 1
REMARK minimizedAffinity 10.8741894
REMARK minimizedRMSD -1
REMARK  1 active torsions:
REMARK  status: ('A' for Active; 'I' for Inactive)
REMARK    1  A    between atoms: C1_2  and  C2_3 
ROOT
ATOM      1  C2  UNL d   1      -3.872   1.313   4.772  0.00  0.00    -0.081 A 
ATOM      2  C3  UNL d   1      -4.116   0.591   3.598  0.00  0.00     0.006 A 
ATOM      3  C4  UNL d   1      -4.189  -0.804   3.626  0.00  0.00     0.002 A 
ATOM      4  C5  UNL d   1      -4.026  -1.498   4.829  0.00  0.00    -0.080 A 
ATOM      5  C6  UNL d   1      -4.132  -2.994   4.879  0.00  0.00     0.076 C 
ATOM      6  C7  UNL d   1      -3.764  -0.778   6.000  0.00  0.00     0.002 A 
ATOM      7  C8  UNL d   1      -3.691   0.616   5.972  0.00  0.00     0.006 A 
ENDROOT
BRANCH   1   8
ATOM      8  C1  UNL d   1      -3.857   2.820   4.756  0.00  0.00     0.054 C 
ATOM      9  C   UNL d   1      -4.522   3.394   5.999  0.00  0.00     0.018 C 
ENDBRANCH   1   8
TORSDOF 1
ENDMDL
