MODEL 1
REMARK minimizedAffinity 0.775193334
REMARK minimizedRMSD -1
REMARK  1 active torsions:
REMARK  status: ('A' for Active; 'I' for Inactive)
REMARK    1  A    between atoms: C1_2  and  C2_3 
ROOT
ATOM      1  C2  UNL d   1      -2.211  -5.128  -4.635  0.00  0.00    -0.081 A 
ATOM      2  C3  UNL d   1      -3.145  -5.590  -5.570  0.00  0.00     0.006 A 
ATOM      3  C4  UNL d   1      -4.185  -4.763  -6.000  0.00  0.00     0.002 A 
ATOM      4  C5  UNL d   1      -4.304  -3.458  -5.509  0.00  0.00    -0.080 A 
ATOM      5  C6  UNL d   1      -5.398  -2.549  -5.985  0.00  0.00     0.076 C 
ATOM      6  C7  UNL d   1      -3.381  -3.002  -4.562  0.00  0.00     0.002 A 
ATOM      7  C8  UNL d   1      -2.341  -3.829  -4.131  0.00  0.00     0.006 A 
ENDROOT
BRANCH   1   8
ATOM      8  C1  UNL d   1      -1.051  -5.995  -4.218  0.00  0.00     0.054 C 
ATOM      9  C   UNL d   1      -0.000  -5.190  -3.467  0.00  0.00     0.018 C 
ENDBRANCH   1   8
TORSDOF 1
ENDMDL
