MODEL 1
REMARK minimizedAffinity 9.87619686
REMARK minimizedRMSD -1
REMARK  1 active torsions:
REMARK  status: ('A' for Active; 'I' for Inactive)
REMARK    1  A    between atoms: C1_2  and  C2_3 
ROOT
ATOM      1  C2  UNL d   1      -3.717  -4.202  -5.376  0.00  0.00    -0.081 A 
ATOM      2  C3  UNL d   1      -3.090  -5.386  -5.784  0.00  0.00     0.006 A 
ATOM      3  C4  UNL d   1      -1.914  -5.814  -5.163  0.00  0.00     0.002 A 
ATOM      4  C5  UNL d   1      -1.351  -5.071  -4.121  0.00  0.00    -0.080 A 
ATOM      5  C6  UNL d   1      -0.105  -5.535  -3.426  0.00  0.00     0.076 C 
ATOM      6  C7  UNL d   1      -1.967  -3.879  -3.725  0.00  0.00     0.002 A 
ATOM      7  C8  UNL d   1      -3.143  -3.450  -4.345  0.00  0.00     0.006 A 
ENDROOT
BRANCH   1   8
ATOM      8  C1  UNL d   1      -5.021  -3.771  -5.999  0.00  0.00     0.054 C 
ATOM      9  C   UNL d   1      -5.232  -2.270  -5.859  0.00  0.00     0.018 C 
ENDBRANCH   1   8
TORSDOF 1
ENDMDL
