MODEL 1
REMARK minimizedAffinity 13.6276865
REMARK minimizedRMSD -1
REMARK  1 active torsions:
REMARK  status: ('A' for Active; 'I' for Inactive)
REMARK    1  A    between atoms: C1_2  and  C2_3 
ROOT
ATOM      1  C2  UNL d   1       3.278   1.540  -1.254  0.00  0.00    -0.081 A 
ATOM      2  C3  UNL d   1       4.440   1.314  -0.506  0.00  0.00     0.006 A 
ATOM      3  C4  UNL d   1       4.784   0.021  -0.105  0.00  0.00     0.002 A 
ATOM      4  C5  UNL d   1       3.976  -1.068  -0.451  0.00  0.00    -0.080 A 
ATOM      5  C6  UNL d   1       4.350  -2.465  -0.053  0.00  0.00     0.076 C 
ATOM      6  C7  UNL d   1       2.806  -0.840  -1.184  0.00  0.00     0.002 A 
ATOM      7  C8  UNL d   1       2.462   0.452  -1.584  0.00  0.00     0.006 A 
ENDROOT
BRANCH   1   8
ATOM      8  C1  UNL d   1       2.938   2.925  -1.743  0.00  0.00     0.054 C 
ATOM      9  C   UNL d   1       2.339   3.773  -0.631  0.00  0.00     0.018 C 
ENDBRANCH   1   8
TORSDOF 1
ENDMDL
