MODEL 1
REMARK minimizedAffinity 8.13559818
REMARK minimizedRMSD -1
REMARK  1 active torsions:
REMARK  status: ('A' for Active; 'I' for Inactive)
REMARK    1  A    between atoms: C1_2  and  C2_3 
ROOT
ATOM      1  C2  UNL d   1      -2.118  -4.813  -4.449  0.00  0.00    -0.081 A 
ATOM      2  C3  UNL d   1      -2.213  -3.493  -3.993  0.00  0.00     0.006 A 
ATOM      3  C4  UNL d   1      -3.195  -2.638  -4.501  0.00  0.00     0.002 A 
ATOM      4  C5  UNL d   1      -4.102  -3.091  -5.465  0.00  0.00    -0.080 A 
ATOM      5  C6  UNL d   1      -5.179  -2.193  -5.995  0.00  0.00     0.076 C 
ATOM      6  C7  UNL d   1      -3.995  -4.406  -5.932  0.00  0.00     0.002 A 
ATOM      7  C8  UNL d   1      -3.014  -5.260  -5.426  0.00  0.00     0.006 A 
ENDROOT
BRANCH   1   8
ATOM      8  C1  UNL d   1      -1.102  -5.756  -3.857  0.00  0.00     0.054 C 
ATOM      9  C   UNL d   1       0.004  -4.998  -3.137  0.00  0.00     0.018 C 
ENDBRANCH   1   8
TORSDOF 1
ENDMDL
