MODEL 1
REMARK minimizedAffinity 7.21388817
REMARK minimizedRMSD -1
REMARK  1 active torsions:
REMARK  status: ('A' for Active; 'I' for Inactive)
REMARK    1  A    between atoms: C1_2  and  C2_3 
ROOT
ATOM      1  C2  UNL d   1      -1.372   1.217  -3.991  0.00  0.00    -0.081 A 
ATOM      2  C3  UNL d   1      -1.128   1.458  -5.349  0.00  0.00     0.006 A 
ATOM      3  C4  UNL d   1      -1.746   2.528  -6.000  0.00  0.00     0.002 A 
ATOM      4  C5  UNL d   1      -2.611   3.379  -5.304  0.00  0.00    -0.080 A 
ATOM      5  C6  UNL d   1      -3.257   4.550  -5.983  0.00  0.00     0.076 C 
ATOM      6  C7  UNL d   1      -2.868   3.128  -3.952  0.00  0.00     0.002 A 
ATOM      7  C8  UNL d   1      -2.251   2.057  -3.300  0.00  0.00     0.006 A 
ENDROOT
BRANCH   1   8
ATOM      8  C1  UNL d   1      -0.657   0.103  -3.270  0.00  0.00     0.054 C 
ATOM      9  C   UNL d   1       0.789  -0.017  -3.732  0.00  0.00     0.018 C 
ENDBRANCH   1   8
TORSDOF 1
ENDMDL
