MODEL 1
REMARK minimizedAffinity -2.35502458
REMARK minimizedRMSD -1
REMARK  1 active torsions:
REMARK  status: ('A' for Active; 'I' for Inactive)
REMARK    1  A    between atoms: C1_2  and  C2_3 
ROOT
ATOM      1  C2  UNL d   1      -3.668  -4.193  -5.374  0.00  0.00    -0.081 A 
ATOM      2  C3  UNL d   1      -2.993  -5.416  -5.469  0.00  0.00     0.006 A 
ATOM      3  C4  UNL d   1      -1.760  -5.595  -4.837  0.00  0.00     0.002 A 
ATOM      4  C5  UNL d   1      -1.186  -4.558  -4.095  0.00  0.00    -0.080 A 
ATOM      5  C6  UNL d   1       0.123  -4.747  -3.387  0.00  0.00     0.076 C 
ATOM      6  C7  UNL d   1      -1.852  -3.330  -4.015  0.00  0.00     0.002 A 
ATOM      7  C8  UNL d   1      -3.084  -3.151  -4.646  0.00  0.00     0.006 A 
ENDROOT
BRANCH   1   8
ATOM      8  C1  UNL d   1      -5.028  -4.018  -6.000  0.00  0.00     0.054 C 
ATOM      9  C   UNL d   1      -5.620  -2.656  -5.667  0.00  0.00     0.018 C 
ENDBRANCH   1   8
TORSDOF 1
ENDMDL
