MODEL 1
REMARK minimizedAffinity -0.336578578
REMARK minimizedRMSD -1
REMARK  1 active torsions:
REMARK  status: ('A' for Active; 'I' for Inactive)
REMARK    1  A    between atoms: C1_2  and  C2_3 
ROOT
ATOM      1  C2  UNL d   1      -2.773  -4.056  -5.247  0.00  0.00    -0.081 A 
ATOM      2  C3  UNL d   1      -2.362  -5.355  -5.570  0.00  0.00     0.006 A 
ATOM      3  C4  UNL d   1      -1.346  -5.979  -4.843  0.00  0.00     0.002 A 
ATOM      4  C5  UNL d   1      -0.729  -5.318  -3.775  0.00  0.00    -0.080 A 
ATOM      5  C6  UNL d   1       0.342  -5.987  -2.967  0.00  0.00     0.076 C 
ATOM      6  C7  UNL d   1      -1.127  -4.013  -3.463  0.00  0.00     0.002 A 
ATOM      7  C8  UNL d   1      -2.142  -3.389  -4.191  0.00  0.00     0.006 A 
ENDROOT
BRANCH   1   8
ATOM      8  C1  UNL d   1      -3.912  -3.405  -5.989  0.00  0.00     0.054 C 
ATOM      9  C   UNL d   1      -4.466  -2.216  -5.217  0.00  0.00     0.018 C 
ENDBRANCH   1   8
TORSDOF 1
ENDMDL
