MODEL 1
REMARK minimizedAffinity 4.31326437
REMARK minimizedRMSD -1
REMARK  1 active torsions:
REMARK  status: ('A' for Active; 'I' for Inactive)
REMARK    1  A    between atoms: C1_2  and  C2_3 
ROOT
ATOM      1  C2  UNL d   1      -1.930  -4.557  -4.362  0.00  0.00    -0.081 A 
ATOM      2  C3  UNL d   1      -2.403  -3.357  -3.816  0.00  0.00     0.006 A 
ATOM      3  C4  UNL d   1      -3.533  -2.733  -4.351  0.00  0.00     0.002 A 
ATOM      4  C5  UNL d   1      -4.211  -3.302  -5.435  0.00  0.00    -0.080 A 
ATOM      5  C6  UNL d   1      -5.443  -2.658  -5.999  0.00  0.00     0.076 C 
ATOM      6  C7  UNL d   1      -3.728  -4.491  -5.991  0.00  0.00     0.002 A 
ATOM      7  C8  UNL d   1      -2.599  -5.115  -5.457  0.00  0.00     0.006 A 
ENDROOT
BRANCH   1   8
ATOM      8  C1  UNL d   1      -0.750  -5.266  -3.746  0.00  0.00     0.054 C 
ATOM      9  C   UNL d   1      -0.914  -5.407  -2.240  0.00  0.00     0.018 C 
ENDBRANCH   1   8
TORSDOF 1
ENDMDL
