MODEL 1
REMARK minimizedAffinity 5.98741198
REMARK minimizedRMSD -1
REMARK  1 active torsions:
REMARK  status: ('A' for Active; 'I' for Inactive)
REMARK    1  A    between atoms: C1_2  and  C2_3 
ROOT
ATOM      1  C2  UNL d   1      -2.191  -5.122  -4.282  0.00  0.00    -0.081 A 
ATOM      2  C3  UNL d   1      -3.002  -5.593  -5.322  0.00  0.00     0.006 A 
ATOM      3  C4  UNL d   1      -3.995  -4.778  -5.871  0.00  0.00     0.002 A 
ATOM      4  C5  UNL d   1      -4.188  -3.477  -5.395  0.00  0.00    -0.080 A 
ATOM      5  C6  UNL d   1      -5.231  -2.581  -5.995  0.00  0.00     0.076 C 
ATOM      6  C7  UNL d   1      -3.390  -3.013  -4.344  0.00  0.00     0.002 A 
ATOM      7  C8  UNL d   1      -2.398  -3.827  -3.794  0.00  0.00     0.006 A 
ENDROOT
BRANCH   1   8
ATOM      8  C1  UNL d   1      -1.077  -5.975  -3.732  0.00  0.00     0.054 C 
ATOM      9  C   UNL d   1      -0.204  -5.189  -2.764  0.00  0.00     0.018 C 
ENDBRANCH   1   8
TORSDOF 1
ENDMDL
