MODEL 1
REMARK minimizedAffinity 6.05081511
REMARK minimizedRMSD -1
REMARK  1 active torsions:
REMARK  status: ('A' for Active; 'I' for Inactive)
REMARK    1  A    between atoms: C3_4  and  O_7 
ROOT
ATOM      1  C   UNL d   1       0.463   4.003   1.008  0.00  0.00    -0.033 A 
ATOM      2  C1  UNL d   1      -0.641   3.171   0.813  0.00  0.00     0.039 A 
ATOM      3  C2  UNL d   1      -0.869   2.097   1.676  0.00  0.00    -0.080 A 
ATOM      4  C3  UNL d   1       0.013   1.866   2.728  0.00  0.00     0.150 A 
ATOM      5  C4  UNL d   1       1.113   2.693   2.930  0.00  0.00    -0.007 A 
ATOM      6  C5  UNL d   1       1.340   3.765   2.067  0.00  0.00     0.039 A 
ENDROOT
BRANCH   4   7
ATOM      7  O   UNL d   1      -0.165   0.827   3.592  0.00  0.00    -0.526 OA
ATOM      8  H5  UNL d   1      -0.948   0.325   3.313  0.00  0.00     0.418 HD
ENDBRANCH   4   7
TORSDOF 1
ENDMDL
