MODEL 1
REMARK minimizedAffinity 4.0543704
REMARK minimizedRMSD -1
REMARK  1 active torsions:
REMARK  status: ('A' for Active; 'I' for Inactive)
REMARK    1  A    between atoms: C3_4  and  O_7 
ROOT
ATOM      1  C   UNL d   1      -0.380   3.818  -0.777  0.00  0.00    -0.033 A 
ATOM      2  C1  UNL d   1      -0.055   4.595   0.336  0.00  0.00     0.039 A 
ATOM      3  C2  UNL d   1       0.013   4.011   1.603  0.00  0.00    -0.080 A 
ATOM      4  C3  UNL d   1      -0.244   2.650   1.742  0.00  0.00     0.150 A 
ATOM      5  C4  UNL d   1      -0.565   1.869   0.637  0.00  0.00    -0.007 A 
ATOM      6  C5  UNL d   1      -0.634   2.454  -0.627  0.00  0.00     0.039 A 
ENDROOT
BRANCH   4   7
ATOM      7  O   UNL d   1      -0.194   2.036   2.958  0.00  0.00    -0.526 OA
ATOM      8  H5  UNL d   1       0.011   2.705   3.632  0.00  0.00     0.418 HD
ENDBRANCH   4   7
TORSDOF 1
ENDMDL
