MODEL 1
REMARK minimizedAffinity 11.8902435
REMARK minimizedRMSD -1
REMARK  1 active torsions:
REMARK  status: ('A' for Active; 'I' for Inactive)
REMARK    1  A    between atoms: C3_4  and  O_7 
ROOT
ATOM      1  C   UNL d   1      -1.142  -0.455   5.060  0.00  0.00    -0.033 A 
ATOM      2  C1  UNL d   1      -0.142  -0.200   4.120  0.00  0.00     0.039 A 
ATOM      3  C2  UNL d   1       1.029  -0.962   4.120  0.00  0.00    -0.080 A 
ATOM      4  C3  UNL d   1       1.186  -1.974   5.063  0.00  0.00     0.150 A 
ATOM      5  C4  UNL d   1       0.192  -2.235   6.000  0.00  0.00    -0.007 A 
ATOM      6  C5  UNL d   1      -0.976  -1.474   5.999  0.00  0.00     0.039 A 
ENDROOT
BRANCH   4   7
ATOM      7  O   UNL d   1       2.313  -2.740   5.105  0.00  0.00    -0.526 OA
ATOM      8  H5  UNL d   1       2.923  -2.426   4.417  0.00  0.00     0.418 HD
ENDBRANCH   4   7
TORSDOF 1
ENDMDL
