MODEL 1
REMARK minimizedAffinity 3.23519754
REMARK minimizedRMSD -1
REMARK  1 active torsions:
REMARK  status: ('A' for Active; 'I' for Inactive)
REMARK    1  A    between atoms: C3_4  and  O_7 
ROOT
ATOM      1  C   UNL d   1      -0.354   2.001   2.673  0.00  0.00    -0.033 A 
ATOM      2  C1  UNL d   1       0.935   2.448   2.378  0.00  0.00     0.039 A 
ATOM      3  C2  UNL d   1       1.225   2.963   1.114  0.00  0.00    -0.080 A 
ATOM      4  C3  UNL d   1       0.219   3.027   0.154  0.00  0.00     0.150 A 
ATOM      5  C4  UNL d   1      -1.069   2.587   0.442  0.00  0.00    -0.007 A 
ATOM      6  C5  UNL d   1      -1.357   2.071   1.705  0.00  0.00     0.039 A 
ENDROOT
BRANCH   4   7
ATOM      7  O   UNL d   1       0.456   3.518  -1.096  0.00  0.00    -0.526 OA
ATOM      8  H5  UNL d   1       1.395   3.757  -1.159  0.00  0.00     0.418 HD
ENDBRANCH   4   7
TORSDOF 1
ENDMDL
