MODEL 1
REMARK minimizedAffinity 4.47550392
REMARK minimizedRMSD -1
REMARK  1 active torsions:
REMARK  status: ('A' for Active; 'I' for Inactive)
REMARK    1  A    between atoms: C3_4  and  O_7 
ROOT
ATOM      1  C   UNL d   1       6.000  -3.014  -1.092  0.00  0.00    -0.033 A 
ATOM      2  C1  UNL d   1       5.603  -1.726  -1.459  0.00  0.00     0.039 A 
ATOM      3  C2  UNL d   1       4.356  -1.238  -1.062  0.00  0.00    -0.080 A 
ATOM      4  C3  UNL d   1       3.518  -2.046  -0.299  0.00  0.00     0.150 A 
ATOM      5  C4  UNL d   1       3.908  -3.329   0.073  0.00  0.00    -0.007 A 
ATOM      6  C5  UNL d   1       5.153  -3.814  -0.325  0.00  0.00     0.039 A 
ENDROOT
BRANCH   4   7
ATOM      7  O   UNL d   1       2.290  -1.616   0.107  0.00  0.00    -0.526 OA
ATOM      8  H5  UNL d   1       2.144  -0.723  -0.248  0.00  0.00     0.418 HD
ENDBRANCH   4   7
TORSDOF 1
ENDMDL
