MODEL 1
REMARK minimizedAffinity 3.65798926
REMARK minimizedRMSD -1
REMARK  1 active torsions:
REMARK  status: ('A' for Active; 'I' for Inactive)
REMARK    1  A    between atoms: C3_4  and  O_7 
ROOT
ATOM      1  C   UNL d   1       1.115   2.750   3.684  0.00  0.00    -0.033 A 
ATOM      2  C1  UNL d   1       1.974   3.596   2.979  0.00  0.00     0.039 A 
ATOM      3  C2  UNL d   1       1.581   4.125   1.748  0.00  0.00    -0.080 A 
ATOM      4  C3  UNL d   1       0.329   3.801   1.234  0.00  0.00     0.150 A 
ATOM      5  C4  UNL d   1      -0.534   2.962   1.932  0.00  0.00    -0.007 A 
ATOM      6  C5  UNL d   1      -0.139   2.434   3.161  0.00  0.00     0.039 A 
ENDROOT
BRANCH   4   7
ATOM      7  O   UNL d   1      -0.097   4.289   0.034  0.00  0.00    -0.526 OA
ATOM      8  H5  UNL d   1       0.614   4.830  -0.347  0.00  0.00     0.418 HD
ENDBRANCH   4   7
TORSDOF 1
ENDMDL
