MODEL 1
REMARK minimizedAffinity 5.26530313
REMARK minimizedRMSD -1
REMARK  1 active torsions:
REMARK  status: ('A' for Active; 'I' for Inactive)
REMARK    1  A    between atoms: C3_4  and  O_7 
ROOT
ATOM      1  C   UNL d   1      -0.693   3.326  -1.220  0.00  0.00    -0.033 A 
ATOM      2  C1  UNL d   1      -0.585   1.939  -1.099  0.00  0.00     0.039 A 
ATOM      3  C2  UNL d   1      -0.519   1.350   0.165  0.00  0.00    -0.080 A 
ATOM      4  C3  UNL d   1      -0.561   2.157   1.298  0.00  0.00     0.150 A 
ATOM      5  C4  UNL d   1      -0.672   3.539   1.185  0.00  0.00    -0.007 A 
ATOM      6  C5  UNL d   1      -0.737   4.126  -0.078  0.00  0.00     0.039 A 
ENDROOT
BRANCH   4   7
ATOM      7  O   UNL d   1      -0.495   1.628   2.553  0.00  0.00    -0.526 OA
ATOM      8  H5  UNL d   1      -0.391   0.665   2.475  0.00  0.00     0.418 HD
ENDBRANCH   4   7
TORSDOF 1
ENDMDL
