MODEL 1
REMARK minimizedAffinity -2.50997138
REMARK minimizedRMSD -1
REMARK  1 active torsions:
REMARK  status: ('A' for Active; 'I' for Inactive)
REMARK    1  A    between atoms: C3_4  and  O_7 
ROOT
ATOM      1  C   UNL d   1      -0.396   0.300  -1.172  0.00  0.00    -0.033 A 
ATOM      2  C1  UNL d   1      -1.264   1.394  -1.130  0.00  0.00     0.039 A 
ATOM      3  C2  UNL d   1      -2.645   1.192  -1.117  0.00  0.00    -0.080 A 
ATOM      4  C3  UNL d   1      -3.146  -0.107  -1.146  0.00  0.00     0.150 A 
ATOM      5  C4  UNL d   1      -2.287  -1.201  -1.183  0.00  0.00    -0.007 A 
ATOM      6  C5  UNL d   1      -0.908  -0.997  -1.197  0.00  0.00     0.039 A 
ENDROOT
BRANCH   4   7
ATOM      7  O   UNL d   1      -4.486  -0.354  -1.139  0.00  0.00    -0.526 OA
ATOM      8  H5  UNL d   1      -4.956   0.496  -1.141  0.00  0.00     0.418 HD
ENDBRANCH   4   7
TORSDOF 1
ENDMDL
