MODEL 1
REMARK minimizedAffinity 4.52274466
REMARK minimizedRMSD -1
REMARK  1 active torsions:
REMARK  status: ('A' for Active; 'I' for Inactive)
REMARK    1  A    between atoms: C3_4  and  O_7 
ROOT
ATOM      1  C   UNL d   1       0.067  -1.524  -3.392  0.00  0.00    -0.033 A 
ATOM      2  C1  UNL d   1       0.108  -1.058  -2.076  0.00  0.00     0.039 A 
ATOM      3  C2  UNL d   1      -1.079  -0.827  -1.378  0.00  0.00    -0.080 A 
ATOM      4  C3  UNL d   1      -2.299  -1.066  -2.006  0.00  0.00     0.150 A 
ATOM      5  C4  UNL d   1      -2.347  -1.533  -3.315  0.00  0.00    -0.007 A 
ATOM      6  C5  UNL d   1      -1.160  -1.763  -4.011  0.00  0.00     0.039 A 
ENDROOT
BRANCH   4   7
ATOM      7  O   UNL d   1      -3.483  -0.850  -1.367  0.00  0.00    -0.526 OA
ATOM      8  H5  UNL d   1      -3.295  -0.501  -0.480  0.00  0.00     0.418 HD
ENDBRANCH   4   7
TORSDOF 1
ENDMDL
