MODEL 1
REMARK minimizedAffinity 7.26387453
REMARK minimizedRMSD -1
REMARK  1 active torsions:
REMARK  status: ('A' for Active; 'I' for Inactive)
REMARK    1  A    between atoms: C3_4  and  O_7 
ROOT
ATOM      1  C   UNL d   1      -4.962   0.554   1.256  0.00  0.00    -0.033 A 
ATOM      2  C1  UNL d   1      -5.285   0.697  -0.095  0.00  0.00     0.039 A 
ATOM      3  C2  UNL d   1      -4.558   0.005  -1.065  0.00  0.00    -0.080 A 
ATOM      4  C3  UNL d   1      -3.512  -0.826  -0.673  0.00  0.00     0.150 A 
ATOM      5  C4  UNL d   1      -3.187  -0.975   0.672  0.00  0.00    -0.007 A 
ATOM      6  C5  UNL d   1      -3.914  -0.283   1.639  0.00  0.00     0.039 A 
ENDROOT
BRANCH   4   7
ATOM      7  O   UNL d   1      -2.771  -1.518  -1.584  0.00  0.00    -0.526 OA
ATOM      8  H5  UNL d   1      -3.091  -1.294  -2.474  0.00  0.00     0.418 HD
ENDBRANCH   4   7
TORSDOF 1
ENDMDL
