MODEL 1
REMARK minimizedAffinity 6.03659678
REMARK minimizedRMSD -1
REMARK  1 active torsions:
REMARK  status: ('A' for Active; 'I' for Inactive)
REMARK    1  A    between atoms: C3_4  and  O_7 
ROOT
ATOM      1  C   UNL d   1       6.000  -3.051  -1.728  0.00  0.00    -0.033 A 
ATOM      2  C1  UNL d   1       5.784  -1.672  -1.759  0.00  0.00     0.039 A 
ATOM      3  C2  UNL d   1       4.638  -1.130  -1.176  0.00  0.00    -0.080 A 
ATOM      4  C3  UNL d   1       3.717  -1.975  -0.564  0.00  0.00     0.150 A 
ATOM      5  C4  UNL d   1       3.927  -3.350  -0.526  0.00  0.00    -0.007 A 
ATOM      6  C5  UNL d   1       5.072  -3.890  -1.110  0.00  0.00     0.039 A 
ENDROOT
BRANCH   4   7
ATOM      7  O   UNL d   1       2.581  -1.492   0.015  0.00  0.00    -0.526 OA
ATOM      8  H5  UNL d   1       2.555  -0.529  -0.114  0.00  0.00     0.418 HD
ENDBRANCH   4   7
TORSDOF 1
ENDMDL
