MODEL 1
REMARK minimizedAffinity 6.49288416
REMARK minimizedRMSD -1
REMARK  1 active torsions:
REMARK  status: ('A' for Active; 'I' for Inactive)
REMARK    1  A    between atoms: C1_2  and  C2_3 
ROOT
ATOM      1  C2  UNL d   1      -0.800   2.692  -0.845  0.00  0.00    -0.076 A 
ATOM      2  C3  UNL d   1      -0.960   3.488  -1.993  0.00  0.00     0.004 A 
ATOM      3  C4  UNL d   1      -0.920   4.879  -1.912  0.00  0.00    -0.003 A 
ATOM      4  C5  UNL d   1      -0.719   5.497  -0.683  0.00  0.00     0.000 A 
ATOM      5  C6  UNL d   1      -0.542   4.722   0.463  0.00  0.00     0.000 A 
ATOM      6  C7  UNL d   1      -0.563   3.319   0.397  0.00  0.00    -0.073 A 
ATOM      7  C8  UNL d   1      -0.372   2.533   1.665  0.00  0.00     0.078 C 
ENDROOT
BRANCH   1   8
ATOM      8  C1  UNL d   1      -0.880   1.189  -0.990  0.00  0.00     0.053 C 
ATOM      9  C   UNL d   1      -2.301   0.701  -1.228  0.00  0.00     0.018 C 
ENDBRANCH   1   8
TORSDOF 1
ENDMDL
