MODEL 1
REMARK minimizedAffinity 5.67423153
REMARK minimizedRMSD -1
REMARK  1 active torsions:
REMARK  status: ('A' for Active; 'I' for Inactive)
REMARK    1  A    between atoms: C1_2  and  C2_3 
ROOT
ATOM      1  C2  UNL d   1       0.243   3.286   1.025  0.00  0.00    -0.076 A 
ATOM      2  C3  UNL d   1       1.605   3.522   1.282  0.00  0.00     0.004 A 
ATOM      3  C4  UNL d   1       2.175   3.174   2.505  0.00  0.00    -0.003 A 
ATOM      4  C5  UNL d   1       1.393   2.584   3.491  0.00  0.00     0.000 A 
ATOM      5  C6  UNL d   1       0.045   2.326   3.248  0.00  0.00     0.000 A 
ATOM      6  C7  UNL d   1      -0.542   2.656   2.014  0.00  0.00    -0.073 A 
ATOM      7  C8  UNL d   1      -2.003   2.361   1.808  0.00  0.00     0.078 C 
ENDROOT
BRANCH   1   8
ATOM      8  C1  UNL d   1      -0.327   3.710  -0.310  0.00  0.00     0.053 C 
ATOM      9  C   UNL d   1      -0.587   5.206  -0.384  0.00  0.00     0.018 C 
ENDBRANCH   1   8
TORSDOF 1
ENDMDL
