MODEL 1
REMARK minimizedAffinity 1.6826489
REMARK minimizedRMSD -1
REMARK  1 active torsions:
REMARK  status: ('A' for Active; 'I' for Inactive)
REMARK    1  A    between atoms: C1_2  and  C2_3 
ROOT
ATOM      1  C2  UNL d   1       0.420   2.733   0.959  0.00  0.00    -0.076 A 
ATOM      2  C3  UNL d   1       0.211   4.108   1.160  0.00  0.00     0.004 A 
ATOM      3  C4  UNL d   1      -0.194   4.933   0.112  0.00  0.00    -0.003 A 
ATOM      4  C5  UNL d   1      -0.398   4.395  -1.154  0.00  0.00     0.000 A 
ATOM      5  C6  UNL d   1      -0.214   3.030  -1.367  0.00  0.00     0.000 A 
ATOM      6  C7  UNL d   1       0.179   2.181  -0.318  0.00  0.00    -0.073 A 
ATOM      7  C8  UNL d   1       0.370   0.717  -0.605  0.00  0.00     0.078 C 
ENDROOT
BRANCH   1   8
ATOM      8  C1  UNL d   1       0.886   1.893   2.127  0.00  0.00     0.053 C 
ATOM      9  C   UNL d   1      -0.051   1.985   3.321  0.00  0.00     0.018 C 
ENDBRANCH   1   8
TORSDOF 1
ENDMDL
