MODEL 1
REMARK minimizedAffinity 7.70522738
REMARK minimizedRMSD -1
REMARK  1 active torsions:
REMARK  status: ('A' for Active; 'I' for Inactive)
REMARK    1  A    between atoms: C1_2  and  C2_3 
ROOT
ATOM      1  C2  UNL d   1       3.642  -2.132  -0.707  0.00  0.00    -0.076 A 
ATOM      2  C3  UNL d   1       4.830  -1.655  -1.287  0.00  0.00     0.004 A 
ATOM      3  C4  UNL d   1       6.000  -2.413  -1.254  0.00  0.00    -0.003 A 
ATOM      4  C5  UNL d   1       5.999  -3.661  -0.641  0.00  0.00     0.000 A 
ATOM      5  C6  UNL d   1       4.824  -4.158  -0.076  0.00  0.00     0.000 A 
ATOM      6  C7  UNL d   1       3.633  -3.413  -0.115  0.00  0.00    -0.073 A 
ATOM      7  C8  UNL d   1       2.397  -3.995   0.515  0.00  0.00     0.078 C 
ENDROOT
BRANCH   1   8
ATOM      8  C1  UNL d   1       2.412  -1.254  -0.750  0.00  0.00     0.053 C 
ATOM      9  C   UNL d   1       1.642  -1.393  -2.054  0.00  0.00     0.018 C 
ENDBRANCH   1   8
TORSDOF 1
ENDMDL
