MODEL 1
REMARK minimizedAffinity 13.9258432
REMARK minimizedRMSD -1
REMARK  1 active torsions:
REMARK  status: ('A' for Active; 'I' for Inactive)
REMARK    1  A    between atoms: C1_2  and  C2_3 
ROOT
ATOM      1  C2  UNL d   1       3.686  -2.137  -0.542  0.00  0.00    -0.076 A 
ATOM      2  C3  UNL d   1       4.780  -2.015  -1.416  0.00  0.00     0.004 A 
ATOM      3  C4  UNL d   1       5.756  -3.007  -1.486  0.00  0.00    -0.003 A 
ATOM      4  C5  UNL d   1       5.653  -4.139  -0.684  0.00  0.00     0.000 A 
ATOM      5  C6  UNL d   1       4.565  -4.284   0.175  0.00  0.00     0.000 A 
ATOM      6  C7  UNL d   1       3.564  -3.301   0.246  0.00  0.00    -0.073 A 
ATOM      7  C8  UNL d   1       2.415  -3.507   1.195  0.00  0.00     0.078 C 
ENDROOT
BRANCH   1   8
ATOM      8  C1  UNL d   1       2.672  -1.016  -0.490  0.00  0.00     0.053 C 
ATOM      9  C   UNL d   1       1.557  -1.190  -1.508  0.00  0.00     0.018 C 
ENDBRANCH   1   8
TORSDOF 1
ENDMDL
