MODEL 1
REMARK minimizedAffinity 10.590374
REMARK minimizedRMSD -1
REMARK  1 active torsions:
REMARK  status: ('A' for Active; 'I' for Inactive)
REMARK    1  A    between atoms: C1_2  and  C2_3 
ROOT
ATOM      1  C2  UNL d   1       0.624   0.665   3.085  0.00  0.00    -0.076 A 
ATOM      2  C3  UNL d   1       1.944   1.115   3.262  0.00  0.00     0.004 A 
ATOM      3  C4  UNL d   1       2.298   2.431   2.971  0.00  0.00    -0.003 A 
ATOM      4  C5  UNL d   1       1.338   3.319   2.500  0.00  0.00     0.000 A 
ATOM      5  C6  UNL d   1       0.020   2.895   2.336  0.00  0.00     0.000 A 
ATOM      6  C7  UNL d   1      -0.358   1.576   2.640  0.00  0.00    -0.073 A 
ATOM      7  C8  UNL d   1      -1.792   1.171   2.438  0.00  0.00     0.078 C 
ENDROOT
BRANCH   1   8
ATOM      8  C1  UNL d   1       0.304  -0.781   3.391  0.00  0.00     0.053 C 
ATOM      9  C   UNL d   1       0.762  -1.197   4.781  0.00  0.00     0.018 C 
ENDBRANCH   1   8
TORSDOF 1
ENDMDL
