MODEL 1
REMARK minimizedAffinity 13.2718048
REMARK minimizedRMSD -1
REMARK  1 active torsions:
REMARK  status: ('A' for Active; 'I' for Inactive)
REMARK    1  A    between atoms: C1_2  and  C2_3 
ROOT
ATOM      1  C2  UNL d   1      -0.064   2.870   1.064  0.00  0.00    -0.076 A 
ATOM      2  C3  UNL d   1       1.237   3.350   1.294  0.00  0.00     0.004 A 
ATOM      3  C4  UNL d   1       1.761   3.415   2.584  0.00  0.00    -0.003 A 
ATOM      4  C5  UNL d   1       0.992   3.000   3.665  0.00  0.00     0.000 A 
ATOM      5  C6  UNL d   1      -0.295   2.505   3.455  0.00  0.00     0.000 A 
ATOM      6  C7  UNL d   1      -0.832   2.418   2.159  0.00  0.00    -0.073 A 
ATOM      7  C8  UNL d   1      -2.227   1.881   1.990  0.00  0.00     0.078 C 
ENDROOT
BRANCH   1   8
ATOM      8  C1  UNL d   1      -0.589   2.848  -0.354  0.00  0.00     0.053 C 
ATOM      9  C   UNL d   1      -0.242   4.114  -1.123  0.00  0.00     0.018 C 
ENDBRANCH   1   8
TORSDOF 1
ENDMDL
