MODEL 1
REMARK minimizedAffinity 8.06963634
REMARK minimizedRMSD -1
REMARK  1 active torsions:
REMARK  status: ('A' for Active; 'I' for Inactive)
REMARK    1  A    between atoms: C1_2  and  C2_3 
ROOT
ATOM      1  C2  UNL d   1      -4.017  -3.513   4.992  0.00  0.00    -0.076 A 
ATOM      2  C3  UNL d   1      -3.429  -2.279   4.660  0.00  0.00     0.004 A 
ATOM      3  C4  UNL d   1      -4.097  -1.079   4.897  0.00  0.00    -0.003 A 
ATOM      4  C5  UNL d   1      -5.364  -1.093   5.472  0.00  0.00     0.000 A 
ATOM      5  C6  UNL d   1      -5.954  -2.306   5.824  0.00  0.00     0.000 A 
ATOM      6  C7  UNL d   1      -5.288  -3.524   5.606  0.00  0.00    -0.073 A 
ATOM      7  C8  UNL d   1      -5.974  -4.803   5.999  0.00  0.00     0.078 C 
ENDROOT
BRANCH   1   8
ATOM      8  C1  UNL d   1      -3.257  -4.783   4.686  0.00  0.00     0.053 C 
ATOM      9  C   UNL d   1      -3.642  -5.930   5.608  0.00  0.00     0.018 C 
ENDBRANCH   1   8
TORSDOF 1
ENDMDL
