MODEL 1
REMARK minimizedAffinity 9.23449993
REMARK minimizedRMSD -1
REMARK  1 active torsions:
REMARK  status: ('A' for Active; 'I' for Inactive)
REMARK    1  A    between atoms: C1_2  and  C2_3 
ROOT
ATOM      1  C2  UNL d   1       0.509   2.587   0.245  0.00  0.00    -0.076 A 
ATOM      2  C3  UNL d   1      -0.842   2.925   0.051  0.00  0.00     0.004 A 
ATOM      3  C4  UNL d   1      -1.824   2.496   0.941  0.00  0.00    -0.003 A 
ATOM      4  C5  UNL d   1      -1.472   1.722   2.042  0.00  0.00     0.000 A 
ATOM      5  C6  UNL d   1      -0.135   1.392   2.260  0.00  0.00     0.000 A 
ATOM      6  C7  UNL d   1       0.870   1.830   1.381  0.00  0.00    -0.073 A 
ATOM      7  C8  UNL d   1       2.295   1.440   1.662  0.00  0.00     0.078 C 
ENDROOT
BRANCH   1   8
ATOM      8  C1  UNL d   1       1.527   3.058  -0.769  0.00  0.00     0.053 C 
ATOM      9  C   UNL d   1       1.658   4.572  -0.802  0.00  0.00     0.018 C 
ENDBRANCH   1   8
TORSDOF 1
ENDMDL
