MODEL 1
REMARK minimizedAffinity 7.51143122
REMARK minimizedRMSD -1
REMARK  1 active torsions:
REMARK  status: ('A' for Active; 'I' for Inactive)
REMARK    1  A    between atoms: C1_2  and  C2_3 
ROOT
ATOM      1  C2  UNL d   1       0.586   1.042   2.325  0.00  0.00    -0.076 A 
ATOM      2  C3  UNL d   1      -0.325   0.829   3.375  0.00  0.00     0.004 A 
ATOM      3  C4  UNL d   1      -0.203  -0.275   4.217  0.00  0.00    -0.003 A 
ATOM      4  C5  UNL d   1       0.831  -1.184   4.023  0.00  0.00     0.000 A 
ATOM      5  C6  UNL d   1       1.753  -0.979   2.998  0.00  0.00     0.000 A 
ATOM      6  C7  UNL d   1       1.655   0.137   2.150  0.00  0.00    -0.073 A 
ATOM      7  C8  UNL d   1       2.674   0.306   1.056  0.00  0.00     0.078 C 
ENDROOT
BRANCH   1   8
ATOM      8  C1  UNL d   1       0.388   2.242   1.427  0.00  0.00     0.053 C 
ATOM      9  C   UNL d   1      -1.001   2.847   1.560  0.00  0.00     0.018 C 
ENDBRANCH   1   8
TORSDOF 1
ENDMDL
