MODEL 1
REMARK minimizedAffinity -2.33939624
REMARK minimizedRMSD -1
REMARK  0 active torsions:
REMARK  status: ('A' for Active; 'I' for Inactive)
ROOT
ATOM      1  C   UNL d   1      -0.022   2.991  -0.011  0.00  0.00    -0.002 A 
ATOM      2  C1  UNL d   1      -0.005   2.567   1.310  0.00  0.00     0.010 A 
ATOM      3  C2  UNL d   1      -0.094   1.208   1.621  0.00  0.00     0.041 A 
ATOM      4  C3  UNL d   1      -0.200   0.275   0.571  0.00  0.00    -0.075 A 
ATOM      5  S   UNL d   1      -0.320  -1.439   0.713  0.00  0.00     0.015 SA
ATOM      6  C4  UNL d   1      -0.396  -1.649  -0.976  0.00  0.00     0.022 A 
ATOM      7  C5  UNL d   1      -0.333  -0.451  -1.648  0.00  0.00     0.026 A 
ATOM      8  C6  UNL d   1      -0.218   0.678  -0.767  0.00  0.00    -0.082 A 
ATOM      9  C7  UNL d   1      -0.127   2.062  -1.049  0.00  0.00     0.045 A 
ENDROOT
TORSDOF 0
ENDMDL
