MODEL 1
REMARK minimizedAffinity -3.98097801
REMARK minimizedRMSD -1
REMARK  0 active torsions:
REMARK  status: ('A' for Active; 'I' for Inactive)
ROOT
ATOM      1  C   UNL d   1       0.252   3.400   0.293  0.00  0.00    -0.002 A 
ATOM      2  C1  UNL d   1       1.545   2.976   0.024  0.00  0.00     0.010 A 
ATOM      3  C2  UNL d   1       1.828   1.619  -0.140  0.00  0.00     0.041 A 
ATOM      4  C3  UNL d   1       0.779   0.685  -0.030  0.00  0.00    -0.075 A 
ATOM      5  S   UNL d   1       0.889  -1.027  -0.193  0.00  0.00     0.015 SA
ATOM      6  C4  UNL d   1      -0.778  -1.237   0.090  0.00  0.00     0.022 A 
ATOM      7  C5  UNL d   1      -1.419  -0.040   0.306  0.00  0.00     0.026 A 
ATOM      8  C6  UNL d   1      -0.532   1.088   0.240  0.00  0.00    -0.082 A 
ATOM      9  C7  UNL d   1      -0.787   2.471   0.402  0.00  0.00     0.045 A 
ENDROOT
TORSDOF 0
ENDMDL
