MODEL 1
REMARK minimizedAffinity -2.88549733
REMARK minimizedRMSD -1
REMARK  0 active torsions:
REMARK  status: ('A' for Active; 'I' for Inactive)
ROOT
ATOM      1  C   UNL d   1       0.502   3.759   0.060  0.00  0.00    -0.002 A 
ATOM      2  C1  UNL d   1       1.540   3.120  -0.603  0.00  0.00     0.010 A 
ATOM      3  C2  UNL d   1       1.462   1.757  -0.896  0.00  0.00     0.041 A 
ATOM      4  C3  UNL d   1       0.312   1.041  -0.509  0.00  0.00    -0.075 A 
ATOM      5  S   UNL d   1      -0.003  -0.635  -0.764  0.00  0.00     0.015 SA
ATOM      6  C4  UNL d   1      -1.523  -0.541   0.001  0.00  0.00     0.022 A 
ATOM      7  C5  UNL d   1      -1.800   0.730   0.446  0.00  0.00     0.026 A 
ATOM      8  C6  UNL d   1      -0.746   1.663   0.158  0.00  0.00    -0.082 A 
ATOM      9  C7  UNL d   1      -0.637   3.046   0.442  0.00  0.00     0.045 A 
ENDROOT
TORSDOF 0
ENDMDL
