MODEL 1
REMARK minimizedAffinity -3.31922245
REMARK minimizedRMSD -1
REMARK  0 active torsions:
REMARK  status: ('A' for Active; 'I' for Inactive)
ROOT
ATOM      1  C   UNL d   1       1.264   3.036  -1.016  0.00  0.00    -0.002 A 
ATOM      2  C1  UNL d   1       1.976   1.860  -0.832  0.00  0.00     0.010 A 
ATOM      3  C2  UNL d   1       1.408   0.785  -0.146  0.00  0.00     0.041 A 
ATOM      4  C3  UNL d   1       0.098   0.913   0.356  0.00  0.00    -0.075 A 
ATOM      5  S   UNL d   1      -0.802  -0.272   1.227  0.00  0.00     0.015 SA
ATOM      6  C4  UNL d   1      -2.154   0.756   1.375  0.00  0.00     0.022 A 
ATOM      7  C5  UNL d   1      -1.941   1.977   0.781  0.00  0.00     0.026 A 
ATOM      8  C6  UNL d   1      -0.640   2.088   0.183  0.00  0.00    -0.082 A 
ATOM      9  C7  UNL d   1      -0.035   3.160  -0.516  0.00  0.00     0.045 A 
ENDROOT
TORSDOF 0
ENDMDL
