MODEL 1
REMARK minimizedAffinity -1.11166227
REMARK minimizedRMSD -1
REMARK  0 active torsions:
REMARK  status: ('A' for Active; 'I' for Inactive)
ROOT
ATOM      1  C   UNL d   1      -1.092  -0.738   1.669  0.00  0.00    -0.002 A 
ATOM      2  C1  UNL d   1       0.038  -1.487   1.374  0.00  0.00     0.010 A 
ATOM      3  C2  UNL d   1       1.028  -0.979   0.531  0.00  0.00     0.041 A 
ATOM      4  C3  UNL d   1       0.862   0.309  -0.016  0.00  0.00    -0.075 A 
ATOM      5  S   UNL d   1       1.943   1.136  -1.073  0.00  0.00     0.015 SA
ATOM      6  C4  UNL d   1       0.931   2.505  -1.158  0.00  0.00     0.022 A 
ATOM      7  C5  UNL d   1      -0.208   2.352  -0.404  0.00  0.00     0.026 A 
ATOM      8  C6  UNL d   1      -0.267   1.083   0.267  0.00  0.00    -0.082 A 
ATOM      9  C7  UNL d   1      -1.252   0.540   1.126  0.00  0.00     0.045 A 
ENDROOT
TORSDOF 0
ENDMDL
