MODEL 1
REMARK minimizedAffinity 2.10992455
REMARK minimizedRMSD -1
REMARK  0 active torsions:
REMARK  status: ('A' for Active; 'I' for Inactive)
ROOT
ATOM      1  C   UNL d   1       0.390   3.377  -0.042  0.00  0.00    -0.002 A 
ATOM      2  C1  UNL d   1      -0.618   3.757   0.833  0.00  0.00     0.010 A 
ATOM      3  C2  UNL d   1      -1.329   2.797   1.557  0.00  0.00     0.041 A 
ATOM      4  C3  UNL d   1      -1.005   1.437   1.386  0.00  0.00    -0.075 A 
ATOM      5  S   UNL d   1      -1.741   0.088   2.168  0.00  0.00     0.015 SA
ATOM      6  C4  UNL d   1      -0.734  -1.025   1.360  0.00  0.00     0.022 A 
ATOM      7  C5  UNL d   1       0.148  -0.399   0.511  0.00  0.00     0.026 A 
ATOM      8  C6  UNL d   1       0.006   1.030   0.512  0.00  0.00    -0.082 A 
ATOM      9  C7  UNL d   1       0.708   2.026  -0.208  0.00  0.00     0.045 A 
ENDROOT
TORSDOF 0
ENDMDL
