MODEL 1
REMARK minimizedAffinity -4.410707
REMARK minimizedRMSD -1
REMARK  0 active torsions:
REMARK  status: ('A' for Active; 'I' for Inactive)
ROOT
ATOM      1  C   UNL d   1      -0.038   3.149   0.385  0.00  0.00    -0.002 A 
ATOM      2  C1  UNL d   1       1.268   3.044   0.843  0.00  0.00     0.010 A 
ATOM      3  C2  UNL d   1       1.910   1.805   0.877  0.00  0.00     0.041 A 
ATOM      4  C3  UNL d   1       1.212   0.662   0.438  0.00  0.00    -0.075 A 
ATOM      5  S   UNL d   1       1.797  -0.959   0.390  0.00  0.00     0.015 SA
ATOM      6  C4  UNL d   1       0.328  -1.549  -0.241  0.00  0.00     0.022 A 
ATOM      7  C5  UNL d   1      -0.597  -0.548  -0.416  0.00  0.00     0.026 A 
ATOM      8  C6  UNL d   1      -0.103   0.743  -0.028  0.00  0.00    -0.082 A 
ATOM      9  C7  UNL d   1      -0.727   2.014  -0.050  0.00  0.00     0.045 A 
ENDROOT
TORSDOF 0
ENDMDL
