MODEL 1
REMARK minimizedAffinity -1.18684185
REMARK minimizedRMSD -1
REMARK  0 active torsions:
REMARK  status: ('A' for Active; 'I' for Inactive)
ROOT
ATOM      1  C   UNL d   1      -1.306   2.310   1.476  0.00  0.00    -0.002 A 
ATOM      2  C1  UNL d   1      -0.162   2.865   0.920  0.00  0.00     0.010 A 
ATOM      3  C2  UNL d   1       0.595   2.150  -0.010  0.00  0.00     0.041 A 
ATOM      4  C3  UNL d   1       0.178   0.855  -0.377  0.00  0.00    -0.075 A 
ATOM      5  S   UNL d   1       0.947  -0.206  -1.497  0.00  0.00     0.015 SA
ATOM      6  C4  UNL d   1      -0.225  -1.421  -1.264  0.00  0.00     0.022 A 
ATOM      7  C5  UNL d   1      -1.186  -1.044  -0.357  0.00  0.00     0.026 A 
ATOM      8  C6  UNL d   1      -0.970   0.275   0.169  0.00  0.00    -0.082 A 
ATOM      9  C7  UNL d   1      -1.716   1.025   1.110  0.00  0.00     0.045 A 
ENDROOT
TORSDOF 0
ENDMDL
