MODEL 1
REMARK minimizedAffinity -2.54372525
REMARK minimizedRMSD -1
REMARK  0 active torsions:
REMARK  status: ('A' for Active; 'I' for Inactive)
ROOT
ATOM      1  C   UNL d   1       1.231  -1.463   0.699  0.00  0.00    -0.002 A 
ATOM      2  C1  UNL d   1       2.296  -0.580   0.591  0.00  0.00     0.010 A 
ATOM      3  C2  UNL d   1       2.078   0.799   0.604  0.00  0.00     0.041 A 
ATOM      4  C3  UNL d   1       0.760   1.281   0.731  0.00  0.00    -0.075 A 
ATOM      5  S   UNL d   1       0.255   2.928   0.773  0.00  0.00     0.015 SA
ATOM      6  C4  UNL d   1      -1.387   2.498   0.936  0.00  0.00     0.022 A 
ATOM      7  C5  UNL d   1      -1.563   1.135   0.960  0.00  0.00     0.026 A 
ATOM      8  C6  UNL d   1      -0.328   0.411   0.843  0.00  0.00    -0.082 A 
ATOM      9  C7  UNL d   1      -0.075  -0.982   0.825  0.00  0.00     0.045 A 
ENDROOT
TORSDOF 0
ENDMDL
