MODEL 1
REMARK minimizedAffinity 0.530835807
REMARK minimizedRMSD -1
REMARK  0 active torsions:
REMARK  status: ('A' for Active; 'I' for Inactive)
ROOT
ATOM      1  C   UNL d   1      -1.486   2.645   0.874  0.00  0.00    -0.002 A 
ATOM      2  C1  UNL d   1      -2.229   1.476   0.777  0.00  0.00     0.010 A 
ATOM      3  C2  UNL d   1      -1.594   0.239   0.655  0.00  0.00     0.041 A 
ATOM      4  C3  UNL d   1      -0.186   0.195   0.635  0.00  0.00    -0.075 A 
ATOM      5  S   UNL d   1       0.808  -1.207   0.495  0.00  0.00     0.015 SA
ATOM      6  C4  UNL d   1       2.242  -0.288   0.562  0.00  0.00     0.022 A 
ATOM      7  C5  UNL d   1       1.987   1.057   0.687  0.00  0.00     0.026 A 
ATOM      8  C6  UNL d   1       0.584   1.358   0.732  0.00  0.00    -0.082 A 
ATOM      9  C7  UNL d   1      -0.090   2.597   0.854  0.00  0.00     0.045 A 
ENDROOT
TORSDOF 0
ENDMDL
