MODEL 1
REMARK minimizedAffinity -1.24424565
REMARK minimizedRMSD -1
REMARK  0 active torsions:
REMARK  status: ('A' for Active; 'I' for Inactive)
ROOT
ATOM      1  C   UNL d   1      -0.158   3.324   0.600  0.00  0.00    -0.002 A 
ATOM      2  C1  UNL d   1       0.627   2.911  -0.467  0.00  0.00     0.010 A 
ATOM      3  C2  UNL d   1       0.707   1.559  -0.808  0.00  0.00     0.041 A 
ATOM      4  C3  UNL d   1      -0.023   0.621  -0.053  0.00  0.00    -0.075 A 
ATOM      5  S   UNL d   1      -0.078  -1.086  -0.287  0.00  0.00     0.015 SA
ATOM      6  C4  UNL d   1      -1.146  -1.306   1.023  0.00  0.00     0.022 A 
ATOM      7  C5  UNL d   1      -1.463  -0.117   1.636  0.00  0.00     0.026 A 
ATOM      8  C6  UNL d   1      -0.821   1.014   1.026  0.00  0.00    -0.082 A 
ATOM      9  C7  UNL d   1      -0.881   2.391   1.347  0.00  0.00     0.045 A 
ENDROOT
TORSDOF 0
ENDMDL
