MODEL 1
REMARK minimizedAffinity -2.11231589
REMARK minimizedRMSD -1
REMARK  0 active torsions:
REMARK  status: ('A' for Active; 'I' for Inactive)
ROOT
ATOM      1  C   UNL d   1       2.481   1.112   0.320  0.00  0.00    -0.002 A 
ATOM      2  C1  UNL d   1       2.890  -0.081   0.900  0.00  0.00     0.010 A 
ATOM      3  C2  UNL d   1       1.991  -1.136   1.062  0.00  0.00     0.041 A 
ATOM      4  C3  UNL d   1       0.661  -0.972   0.626  0.00  0.00    -0.075 A 
ATOM      5  S   UNL d   1      -0.615  -2.128   0.722  0.00  0.00     0.015 SA
ATOM      6  C4  UNL d   1      -1.732  -1.066  -0.005  0.00  0.00     0.022 A 
ATOM      7  C5  UNL d   1      -1.163   0.145  -0.319  0.00  0.00     0.026 A 
ATOM      8  C6  UNL d   1       0.226   0.219   0.039  0.00  0.00    -0.082 A 
ATOM      9  C7  UNL d   1       1.161   1.271  -0.111  0.00  0.00     0.045 A 
ENDROOT
TORSDOF 0
ENDMDL
