MODEL 1
REMARK minimizedAffinity -0.42338407
REMARK minimizedRMSD -1
REMARK  0 active torsions:
REMARK  status: ('A' for Active; 'I' for Inactive)
ROOT
ATOM      1  N1  IND d   1      -0.792  -0.336  -2.331  0.00  0.00    -0.196 N 
ATOM      2  C2  IND d   1      -2.110  -0.343  -1.968  0.00  0.00     0.054 A 
ATOM      3  C3  IND d   1      -2.272   0.265  -0.772  0.00  0.00    -0.031 A 
ATOM      4  C4  IND d   1      -0.528   1.433   0.718  0.00  0.00     0.051 A 
ATOM      5  C5  IND d   1       0.814   1.667   0.825  0.00  0.00    -0.031 A 
ATOM      6  C6  IND d   1       1.708   1.239  -0.136  0.00  0.00     0.015 A 
ATOM      7  C7  IND d   1       1.288   0.568  -1.250  0.00  0.00    -0.016 A 
ATOM      8  C8  IND d   1      -0.073   0.322  -1.358  0.00  0.00    -0.047 A 
ATOM      9  C9  IND d   1      -0.979   0.717  -0.365  0.00  0.00    -0.096 A 
ATOM     10  HN1 IND d   1      -0.467  -0.684  -3.047  0.00  0.00     0.298 HD
ENDROOT
TORSDOF 0
ENDMDL
