MODEL 1
REMARK minimizedAffinity 9.14504147
REMARK minimizedRMSD -1
REMARK  0 active torsions:
REMARK  status: ('A' for Active; 'I' for Inactive)
ROOT
ATOM      1  N1  IND d   1      -0.163  -1.231   1.572  0.00  0.00    -0.196 N 
ATOM      2  C2  IND d   1      -1.287  -0.760   0.952  0.00  0.00     0.054 A 
ATOM      3  C3  IND d   1      -1.123   0.535   0.603  0.00  0.00    -0.031 A 
ATOM      4  C4  IND d   1       0.942   2.050   0.861  0.00  0.00     0.051 A 
ATOM      5  C5  IND d   1       2.198   2.078   1.400  0.00  0.00    -0.031 A 
ATOM      6  C6  IND d   1       2.742   0.980   2.035  0.00  0.00     0.015 A 
ATOM      7  C7  IND d   1       2.053  -0.194   2.145  0.00  0.00    -0.016 A 
ATOM      8  C8  IND d   1       0.775  -0.223   1.604  0.00  0.00    -0.047 A 
ATOM      9  C9  IND d   1       0.201   0.900   0.996  0.00  0.00    -0.096 A 
ATOM     10  HN1 IND d   1      -0.060  -2.024   1.889  0.00  0.00     0.298 HD
ENDROOT
TORSDOF 0
ENDMDL
