MODEL 1
REMARK minimizedAffinity -6.3456912
REMARK minimizedRMSD -1
REMARK  0 active torsions:
REMARK  status: ('A' for Active; 'I' for Inactive)
ROOT
ATOM      1  N1  IND d   1      -0.981  -0.905   0.361  0.00  0.00    -0.196 N 
ATOM      2  C2  IND d   1      -1.240   0.382  -0.019  0.00  0.00     0.054 A 
ATOM      3  C3  IND d   1      -0.138   1.150   0.137  0.00  0.00    -0.031 A 
ATOM      4  C4  IND d   1       2.226   0.480   0.904  0.00  0.00     0.051 A 
ATOM      5  C5  IND d   1       2.941  -0.577   1.393  0.00  0.00    -0.031 A 
ATOM      6  C6  IND d   1       2.374  -1.824   1.563  0.00  0.00     0.015 A 
ATOM      7  C7  IND d   1       1.069  -2.063   1.239  0.00  0.00    -0.016 A 
ATOM      8  C8  IND d   1       0.338  -0.990   0.749  0.00  0.00    -0.047 A 
ATOM      9  C9  IND d   1       0.896   0.288   0.614  0.00  0.00    -0.096 A 
ATOM     10  HN1 IND d   1      -1.546  -1.553   0.358  0.00  0.00     0.298 HD
ENDROOT
TORSDOF 0
ENDMDL
