MODEL 1
REMARK minimizedAffinity -0.61850816
REMARK minimizedRMSD -1
REMARK  0 active torsions:
REMARK  status: ('A' for Active; 'I' for Inactive)
ROOT
ATOM      1  N1  IND d   1      -0.770  -0.262  -0.317  0.00  0.00    -0.196 N 
ATOM      2  C2  IND d   1      -0.390   0.948  -0.827  0.00  0.00     0.054 A 
ATOM      3  C3  IND d   1       0.742   1.377  -0.224  0.00  0.00    -0.031 A 
ATOM      4  C4  IND d   1       2.194   0.209   1.551  0.00  0.00     0.051 A 
ATOM      5  C5  IND d   1       2.233  -0.897   2.354  0.00  0.00    -0.031 A 
ATOM      6  C6  IND d   1       1.255  -1.869   2.304  0.00  0.00     0.015 A 
ATOM      7  C7  IND d   1       0.202  -1.776   1.438  0.00  0.00    -0.016 A 
ATOM      8  C8  IND d   1       0.155  -0.651   0.627  0.00  0.00    -0.047 A 
ATOM      9  C9  IND d   1       1.123   0.360   0.703  0.00  0.00    -0.096 A 
ATOM     10  HN1 IND d   1      -1.470  -0.706  -0.546  0.00  0.00     0.298 HD
ENDROOT
TORSDOF 0
ENDMDL
