MODEL 1
REMARK minimizedAffinity -6.07715034
REMARK minimizedRMSD -1
REMARK  0 active torsions:
REMARK  status: ('A' for Active; 'I' for Inactive)
ROOT
ATOM      1  N1  IND d   1       2.850  -0.965   0.912  0.00  0.00    -0.196 N 
ATOM      2  C2  IND d   1       3.242  -1.948   1.778  0.00  0.00     0.054 A 
ATOM      3  C3  IND d   1       2.166  -2.623   2.240  0.00  0.00    -0.031 A 
ATOM      4  C4  IND d   1      -0.321  -2.353   1.632  0.00  0.00     0.051 A 
ATOM      5  C5  IND d   1      -1.174  -1.564   0.913  0.00  0.00    -0.031 A 
ATOM      6  C6  IND d   1      -0.721  -0.516   0.139  0.00  0.00     0.015 A 
ATOM      7  C7  IND d   1       0.611  -0.223   0.046  0.00  0.00    -0.016 A 
ATOM      8  C8  IND d   1       1.480  -1.017   0.781  0.00  0.00    -0.047 A 
ATOM      9  C9  IND d   1       1.021  -2.056   1.601  0.00  0.00    -0.096 A 
ATOM     10  HN1 IND d   1       3.371  -0.407   0.516  0.00  0.00     0.298 HD
ENDROOT
TORSDOF 0
ENDMDL
