MODEL 1
REMARK minimizedAffinity -1.36904573
REMARK minimizedRMSD -1
REMARK  0 active torsions:
REMARK  status: ('A' for Active; 'I' for Inactive)
ROOT
ATOM      1  N1  IND d   1      -1.737  -1.551   0.903  0.00  0.00    -0.196 N 
ATOM      2  C2  IND d   1      -0.999  -2.444   1.629  0.00  0.00     0.054 A 
ATOM      3  C3  IND d   1       0.311  -2.114   1.591  0.00  0.00    -0.031 A 
ATOM      4  C4  IND d   1       1.456  -0.092   0.483  0.00  0.00     0.051 A 
ATOM      5  C5  IND d   1       1.202   0.981  -0.325  0.00  0.00    -0.031 A 
ATOM      6  C6  IND d   1      -0.071   1.272  -0.771  0.00  0.00     0.015 A 
ATOM      7  C7  IND d   1      -1.144   0.504  -0.416  0.00  0.00    -0.016 A 
ATOM      8  C8  IND d   1      -0.888  -0.590   0.398  0.00  0.00    -0.047 A 
ATOM      9  C9  IND d   1       0.408  -0.915   0.820  0.00  0.00    -0.096 A 
ATOM     10  HN1 IND d   1      -2.587  -1.584   0.782  0.00  0.00     0.298 HD
ENDROOT
TORSDOF 0
ENDMDL
