MODEL 1
REMARK minimizedAffinity -2.31959414
REMARK minimizedRMSD -1
REMARK  0 active torsions:
REMARK  status: ('A' for Active; 'I' for Inactive)
ROOT
ATOM      1  N1  IND d   1      -0.862   1.330  -0.773  0.00  0.00    -0.196 N 
ATOM      2  C2  IND d   1      -0.464   0.365   0.110  0.00  0.00     0.054 A 
ATOM      3  C3  IND d   1      -1.236  -0.737  -0.020  0.00  0.00    -0.031 A 
ATOM      4  C4  IND d   1      -3.140  -1.214  -1.686  0.00  0.00     0.051 A 
ATOM      5  C5  IND d   1      -3.888  -0.623  -2.664  0.00  0.00    -0.031 A 
ATOM      6  C6  IND d   1      -3.660   0.676  -3.073  0.00  0.00     0.015 A 
ATOM      7  C7  IND d   1      -2.662   1.430  -2.523  0.00  0.00    -0.016 A 
ATOM      8  C8  IND d   1      -1.905   0.835  -1.524  0.00  0.00    -0.047 A 
ATOM      9  C9  IND d   1      -2.159  -0.468  -1.076  0.00  0.00    -0.096 A 
ATOM     10  HN1 IND d   1      -0.518   2.115  -0.847  0.00  0.00     0.298 HD
ENDROOT
TORSDOF 0
ENDMDL
