MODEL 1
REMARK minimizedAffinity 2.64969254
REMARK minimizedRMSD -1
REMARK  1 active torsions:
REMARK  status: ('A' for Active; 'I' for Inactive)
REMARK    1  A    between atoms: C1_2  and  C2_3 
ROOT
ATOM      1  C2  UNL d   1      -0.319  -2.987  -0.980  0.00  0.00    -0.077 A 
ATOM      2  C3  UNL d   1      -0.598  -1.920  -1.846  0.00  0.00     0.002 A 
ATOM      3  C4  UNL d   1      -0.591  -2.113  -3.229  0.00  0.00     0.002 A 
ATOM      4  C5  UNL d   1      -0.311  -3.371  -3.758  0.00  0.00    -0.004 A 
ATOM      5  C6  UNL d   1      -0.031  -4.438  -2.905  0.00  0.00     0.002 A 
ATOM      6  C7  UNL d   1      -0.036  -4.247  -1.522  0.00  0.00     0.002 A 
ENDROOT
BRANCH   1   7
ATOM      7  C1  UNL d   1      -0.374  -2.793   0.512  0.00  0.00     0.055 C 
ATOM      8  C   UNL d   1      -1.746  -2.307   0.957  0.00  0.00     0.019 C 
ENDBRANCH   1   7
TORSDOF 1
ENDMDL
