MODEL 1
REMARK minimizedAffinity 11.7117395
REMARK minimizedRMSD -1
REMARK  1 active torsions:
REMARK  status: ('A' for Active; 'I' for Inactive)
REMARK    1  A    between atoms: C1_2  and  C2_3 
ROOT
ATOM      1  C2  UNL d   1       4.658  -2.898   5.098  0.00  0.00    -0.077 A 
ATOM      2  C3  UNL d   1       3.933  -1.785   5.547  0.00  0.00     0.002 A 
ATOM      3  C4  UNL d   1       2.973  -1.190   4.726  0.00  0.00     0.002 A 
ATOM      4  C5  UNL d   1       2.727  -1.702   3.454  0.00  0.00    -0.004 A 
ATOM      5  C6  UNL d   1       3.445  -2.807   2.997  0.00  0.00     0.002 A 
ATOM      6  C7  UNL d   1       4.405  -3.403   3.816  0.00  0.00     0.002 A 
ENDROOT
BRANCH   1   7
ATOM      7  C1  UNL d   1       5.659  -3.572   6.000  0.00  0.00     0.055 C 
ATOM      8  C   UNL d   1       5.478  -5.083   5.997  0.00  0.00     0.019 C 
ENDBRANCH   1   7
TORSDOF 1
ENDMDL
