MODEL 1
REMARK minimizedAffinity 6.52356577
REMARK minimizedRMSD -1
REMARK  1 active torsions:
REMARK  status: ('A' for Active; 'I' for Inactive)
REMARK    1  A    between atoms: C1_2  and  C2_3 
ROOT
ATOM      1  C2  UNL d   1      -3.522   3.600   0.538  0.00  0.00    -0.077 A 
ATOM      2  C3  UNL d   1      -3.054   4.785   1.123  0.00  0.00     0.002 A 
ATOM      3  C4  UNL d   1      -3.757   5.980   0.956  0.00  0.00     0.002 A 
ATOM      4  C5  UNL d   1      -4.933   6.000   0.210  0.00  0.00    -0.004 A 
ATOM      5  C6  UNL d   1      -5.405   4.826  -0.377  0.00  0.00     0.002 A 
ATOM      6  C7  UNL d   1      -4.703   3.631  -0.213  0.00  0.00     0.002 A 
ENDROOT
BRANCH   1   7
ATOM      7  C1  UNL d   1      -2.791   2.300   0.758  0.00  0.00     0.055 C 
ATOM      8  C   UNL d   1      -3.752   1.120   0.766  0.00  0.00     0.019 C 
ENDBRANCH   1   7
TORSDOF 1
ENDMDL
