MODEL 1
REMARK minimizedAffinity 5.0848856
REMARK minimizedRMSD -1
REMARK  1 active torsions:
REMARK  status: ('A' for Active; 'I' for Inactive)
REMARK    1  A    between atoms: C1_2  and  C2_3 
ROOT
ATOM      1  C2  UNL d   1       1.661  -4.088  -4.806  0.00  0.00    -0.077 A 
ATOM      2  C3  UNL d   1       1.043  -3.562  -3.663  0.00  0.00     0.002 A 
ATOM      3  C4  UNL d   1      -0.336  -3.341  -3.645  0.00  0.00     0.002 A 
ATOM      4  C5  UNL d   1      -1.107  -3.645  -4.765  0.00  0.00    -0.004 A 
ATOM      5  C6  UNL d   1      -0.501  -4.166  -5.907  0.00  0.00     0.002 A 
ATOM      6  C7  UNL d   1       0.877  -4.387  -5.928  0.00  0.00     0.002 A 
ENDROOT
BRANCH   1   7
ATOM      7  C1  UNL d   1       3.140  -4.374  -4.811  0.00  0.00     0.055 C 
ATOM      8  C   UNL d   1       3.490  -5.493  -3.840  0.00  0.00     0.019 C 
ENDBRANCH   1   7
TORSDOF 1
ENDMDL
