MODEL 1
REMARK minimizedAffinity 6.4940815
REMARK minimizedRMSD -1
REMARK  1 active torsions:
REMARK  status: ('A' for Active; 'I' for Inactive)
REMARK    1  A    between atoms: C1_2  and  C2_3 
ROOT
ATOM      1  C2  UNL d   1      -0.964  -2.621  -0.726  0.00  0.00    -0.077 A 
ATOM      2  C3  UNL d   1      -1.976  -3.171  -1.526  0.00  0.00     0.002 A 
ATOM      3  C4  UNL d   1      -1.760  -3.386  -2.888  0.00  0.00     0.002 A 
ATOM      4  C5  UNL d   1      -0.533  -3.060  -3.461  0.00  0.00    -0.004 A 
ATOM      5  C6  UNL d   1       0.479  -2.510  -2.675  0.00  0.00     0.002 A 
ATOM      6  C7  UNL d   1       0.265  -2.293  -1.313  0.00  0.00     0.002 A 
ENDROOT
BRANCH   1   7
ATOM      7  C1  UNL d   1      -1.178  -2.433   0.753  0.00  0.00     0.055 C 
ATOM      8  C   UNL d   1      -2.656  -2.283   1.085  0.00  0.00     0.019 C 
ENDBRANCH   1   7
TORSDOF 1
ENDMDL
