MODEL 1
REMARK minimizedAffinity 6.33325672
REMARK minimizedRMSD -1
REMARK  1 active torsions:
REMARK  status: ('A' for Active; 'I' for Inactive)
REMARK    1  A    between atoms: C1_2  and  C2_3 
ROOT
ATOM      1  C2  UNL d   1       4.266  -3.137   5.259  0.00  0.00    -0.077 A 
ATOM      2  C3  UNL d   1       3.341  -4.153   4.981  0.00  0.00     0.002 A 
ATOM      3  C4  UNL d   1       3.672  -5.491   5.209  0.00  0.00     0.002 A 
ATOM      4  C5  UNL d   1       4.926  -5.823   5.718  0.00  0.00    -0.004 A 
ATOM      5  C6  UNL d   1       5.853  -4.820   5.996  0.00  0.00     0.002 A 
ATOM      6  C7  UNL d   1       5.525  -3.483   5.768  0.00  0.00     0.002 A 
ENDROOT
BRANCH   1   7
ATOM      7  C1  UNL d   1       3.894  -1.691   5.061  0.00  0.00     0.055 C 
ATOM      8  C   UNL d   1       2.464  -1.422   5.506  0.00  0.00     0.019 C 
ENDBRANCH   1   7
TORSDOF 1
ENDMDL
