MODEL 1
REMARK minimizedAffinity 2.41726136
REMARK minimizedRMSD -1
REMARK  1 active torsions:
REMARK  status: ('A' for Active; 'I' for Inactive)
REMARK    1  A    between atoms: C1_2  and  C2_3 
ROOT
ATOM      1  C2  UNL d   1      -2.322  -5.386  -5.252  0.00  0.00    -0.077 A 
ATOM      2  C3  UNL d   1      -1.298  -5.987  -5.997  0.00  0.00     0.002 A 
ATOM      3  C4  UNL d   1      -0.012  -5.443  -5.997  0.00  0.00     0.002 A 
ATOM      4  C5  UNL d   1       0.262  -4.298  -5.252  0.00  0.00    -0.004 A 
ATOM      5  C6  UNL d   1      -0.751  -3.691  -4.510  0.00  0.00     0.002 A 
ATOM      6  C7  UNL d   1      -2.037  -4.234  -4.509  0.00  0.00     0.002 A 
ENDROOT
BRANCH   1   7
ATOM      7  C1  UNL d   1      -3.697  -6.000  -5.211  0.00  0.00     0.055 C 
ATOM      8  C   UNL d   1      -4.702  -5.063  -4.557  0.00  0.00     0.019 C 
ENDBRANCH   1   7
TORSDOF 1
ENDMDL
