MODEL 1
REMARK minimizedAffinity 7.35707378
REMARK minimizedRMSD -1
REMARK  1 active torsions:
REMARK  status: ('A' for Active; 'I' for Inactive)
REMARK    1  A    between atoms: C1_2  and  C2_3 
ROOT
ATOM      1  C2  UNL d   1       0.633  -3.294  -3.590  0.00  0.00    -0.077 A 
ATOM      2  C3  UNL d   1       1.220  -3.185  -2.321  0.00  0.00     0.002 A 
ATOM      3  C4  UNL d   1       0.440  -2.867  -1.207  0.00  0.00     0.002 A 
ATOM      4  C5  UNL d   1      -0.930  -2.661  -1.350  0.00  0.00    -0.004 A 
ATOM      5  C6  UNL d   1      -1.523  -2.765  -2.608  0.00  0.00     0.002 A 
ATOM      6  C7  UNL d   1      -0.745  -3.081  -3.722  0.00  0.00     0.002 A 
ENDROOT
BRANCH   1   7
ATOM      7  C1  UNL d   1       1.464  -3.685  -4.784  0.00  0.00     0.055 C 
ATOM      8  C   UNL d   1       2.942  -3.757  -4.430  0.00  0.00     0.019 C 
ENDBRANCH   1   7
TORSDOF 1
ENDMDL
