MODEL 1
REMARK minimizedAffinity 9.52829266
REMARK minimizedRMSD -1
REMARK  1 active torsions:
REMARK  status: ('A' for Active; 'I' for Inactive)
REMARK    1  A    between atoms: C1_2  and  C2_3 
ROOT
ATOM      1  C2  UNL d   1      -1.231  -3.158  -3.204  0.00  0.00    -0.077 A 
ATOM      2  C3  UNL d   1       0.135  -3.330  -2.940  0.00  0.00     0.002 A 
ATOM      3  C4  UNL d   1       0.675  -2.924  -1.718  0.00  0.00     0.002 A 
ATOM      4  C5  UNL d   1      -0.143  -2.348  -0.750  0.00  0.00    -0.004 A 
ATOM      5  C6  UNL d   1      -1.503  -2.170  -1.003  0.00  0.00     0.002 A 
ATOM      6  C7  UNL d   1      -2.044  -2.574  -2.224  0.00  0.00     0.002 A 
ENDROOT
BRANCH   1   7
ATOM      7  C1  UNL d   1      -1.824  -3.640  -4.502  0.00  0.00     0.055 C 
ATOM      8  C   UNL d   1      -0.822  -3.534  -5.642  0.00  0.00     0.019 C 
ENDBRANCH   1   7
TORSDOF 1
ENDMDL
