MODEL 1
REMARK minimizedAffinity 5.28820086
REMARK minimizedRMSD -1
REMARK  1 active torsions:
REMARK  status: ('A' for Active; 'I' for Inactive)
REMARK    1  A    between atoms: C1_2  and  C2_3 
ROOT
ATOM      1  C2  UNL d   1      -0.785  -2.618  -3.889  0.00  0.00    -0.077 A 
ATOM      2  C3  UNL d   1       0.516  -2.833  -3.412  0.00  0.00     0.002 A 
ATOM      3  C4  UNL d   1       0.819  -2.618  -2.066  0.00  0.00     0.002 A 
ATOM      4  C5  UNL d   1      -0.173  -2.192  -1.186  0.00  0.00    -0.004 A 
ATOM      5  C6  UNL d   1      -1.469  -1.973  -1.650  0.00  0.00     0.002 A 
ATOM      6  C7  UNL d   1      -1.774  -2.186  -2.995  0.00  0.00     0.002 A 
ENDROOT
BRANCH   1   7
ATOM      7  C1  UNL d   1      -1.126  -2.896  -5.329  0.00  0.00     0.055 C 
ATOM      8  C   UNL d   1      -0.055  -3.745  -5.998  0.00  0.00     0.019 C 
ENDBRANCH   1   7
TORSDOF 1
ENDMDL
