MODEL 1
REMARK minimizedAffinity 13.0330048
REMARK minimizedRMSD -1
REMARK  1 active torsions:
REMARK  status: ('A' for Active; 'I' for Inactive)
REMARK    1  A    between atoms: C1_2  and  C2_3 
ROOT
ATOM      1  C2  UNL d   1      -1.495  -1.861  -0.895  0.00  0.00    -0.077 A 
ATOM      2  C3  UNL d   1      -1.967  -1.844  -2.215  0.00  0.00     0.002 A 
ATOM      3  C4  UNL d   1      -1.152  -2.278  -3.262  0.00  0.00     0.002 A 
ATOM      4  C5  UNL d   1       0.138  -2.736  -2.999  0.00  0.00    -0.004 A 
ATOM      5  C6  UNL d   1       0.617  -2.755  -1.690  0.00  0.00     0.002 A 
ATOM      6  C7  UNL d   1      -0.196  -2.321  -0.642  0.00  0.00     0.002 A 
ENDROOT
BRANCH   1   7
ATOM      7  C1  UNL d   1      -2.390  -1.440   0.241  0.00  0.00     0.055 C 
ATOM      8  C   UNL d   1      -3.778  -2.049   0.107  0.00  0.00     0.019 C 
ENDBRANCH   1   7
TORSDOF 1
ENDMDL
