MODEL 1
REMARK minimizedAffinity 9.65775204
REMARK minimizedRMSD -1
REMARK  0 active torsions:
REMARK  status: ('A' for Active; 'I' for Inactive)
ROOT
ATOM      1  C   UNL d   1      -2.440   2.001   2.337  0.00  0.00    -0.002 A 
ATOM      2  C1  UNL d   1      -1.549   1.122   2.937  0.00  0.00     0.010 A 
ATOM      3  C2  UNL d   1      -0.404   0.700   2.258  0.00  0.00     0.041 A 
ATOM      4  C3  UNL d   1      -0.167   1.181   0.956  0.00  0.00    -0.075 A 
ATOM      5  S   UNL d   1       1.169   0.801  -0.065  0.00  0.00     0.015 SA
ATOM      6  C4  UNL d   1       0.589   1.796  -1.321  0.00  0.00     0.022 A 
ATOM      7  C5  UNL d   1      -0.595   2.411  -0.986  0.00  0.00     0.026 A 
ATOM      8  C6  UNL d   1      -1.049   2.067   0.331  0.00  0.00    -0.082 A 
ATOM      9  C7  UNL d   1      -2.202   2.476   1.045  0.00  0.00     0.045 A 
ENDROOT
TORSDOF 0
ENDMDL
