MODEL 1
REMARK minimizedAffinity 0.819811642
REMARK minimizedRMSD -1
REMARK  0 active torsions:
REMARK  status: ('A' for Active; 'I' for Inactive)
ROOT
ATOM      1  C   UNL d   1      -1.115   0.586   2.353  0.00  0.00    -0.002 A 
ATOM      2  C1  UNL d   1      -2.140   1.498   2.143  0.00  0.00     0.010 A 
ATOM      3  C2  UNL d   1      -2.167   2.283   0.989  0.00  0.00     0.041 A 
ATOM      4  C3  UNL d   1      -1.137   2.134   0.039  0.00  0.00    -0.075 A 
ATOM      5  S   UNL d   1      -0.964   2.988  -1.448  0.00  0.00     0.015 SA
ATOM      6  C4  UNL d   1       0.474   2.162  -1.841  0.00  0.00     0.022 A 
ATOM      7  C5  UNL d   1       0.828   1.254  -0.872  0.00  0.00     0.026 A 
ATOM      8  C6  UNL d   1      -0.095   1.222   0.227  0.00  0.00    -0.082 A 
ATOM      9  C7  UNL d   1      -0.095   0.441   1.408  0.00  0.00     0.045 A 
ENDROOT
TORSDOF 0
ENDMDL
