MODEL 1
REMARK minimizedAffinity 16.406332
REMARK minimizedRMSD -1
REMARK  0 active torsions:
REMARK  status: ('A' for Active; 'I' for Inactive)
ROOT
ATOM      1  C   UNL d   1      -1.487  -2.546   3.885  0.00  0.00    -0.002 A 
ATOM      2  C1  UNL d   1      -0.100  -2.565   3.944  0.00  0.00     0.010 A 
ATOM      3  C2  UNL d   1       0.638  -1.417   3.652  0.00  0.00     0.041 A 
ATOM      4  C3  UNL d   1      -0.046  -0.237   3.301  0.00  0.00    -0.075 A 
ATOM      5  S   UNL d   1       0.649   1.290   2.904  0.00  0.00     0.015 SA
ATOM      6  C4  UNL d   1      -0.877   2.003   2.649  0.00  0.00     0.022 A 
ATOM      7  C5  UNL d   1      -1.904   1.113   2.857  0.00  0.00     0.026 A 
ATOM      8  C6  UNL d   1      -1.442  -0.193   3.236  0.00  0.00    -0.082 A 
ATOM      9  C7  UNL d   1      -2.162  -1.374   3.536  0.00  0.00     0.045 A 
ENDROOT
TORSDOF 0
ENDMDL
