MODEL 1
REMARK minimizedAffinity 2.46224523
REMARK minimizedRMSD -1
REMARK  0 active torsions:
REMARK  status: ('A' for Active; 'I' for Inactive)
ROOT
ATOM      1  C   UNL d   1      -2.127   1.545   2.160  0.00  0.00    -0.002 A 
ATOM      2  C1  UNL d   1      -2.419   2.375   1.088  0.00  0.00     0.010 A 
ATOM      3  C2  UNL d   1      -1.572   2.426  -0.022  0.00  0.00     0.041 A 
ATOM      4  C3  UNL d   1      -0.418   1.619  -0.036  0.00  0.00    -0.075 A 
ATOM      5  S   UNL d   1       0.763   1.516  -1.288  0.00  0.00     0.015 SA
ATOM      6  C4  UNL d   1       1.682   0.366  -0.428  0.00  0.00     0.022 A 
ATOM      7  C5  UNL d   1       1.117   0.057   0.786  0.00  0.00     0.026 A 
ATOM      8  C6  UNL d   1      -0.103   0.774   1.032  0.00  0.00    -0.082 A 
ATOM      9  C7  UNL d   1      -0.981   0.746   2.143  0.00  0.00     0.045 A 
ENDROOT
TORSDOF 0
ENDMDL
