MODEL 1
REMARK minimizedAffinity 14.2600527
REMARK minimizedRMSD -1
REMARK  0 active torsions:
REMARK  status: ('A' for Active; 'I' for Inactive)
ROOT
ATOM      1  C   UNL d   1       5.006  -4.420  -3.179  0.00  0.00    -0.002 A 
ATOM      2  C1  UNL d   1       6.000  -3.467  -3.354  0.00  0.00     0.010 A 
ATOM      3  C2  UNL d   1       5.749  -2.305  -4.086  0.00  0.00     0.041 A 
ATOM      4  C3  UNL d   1       4.469  -2.114  -4.644  0.00  0.00    -0.075 A 
ATOM      5  S   UNL d   1       3.933  -0.768  -5.578  0.00  0.00     0.015 SA
ATOM      6  C4  UNL d   1       2.372  -1.426  -5.766  0.00  0.00     0.022 A 
ATOM      7  C5  UNL d   1       2.246  -2.642  -5.139  0.00  0.00     0.026 A 
ATOM      8  C6  UNL d   1       3.452  -3.059  -4.481  0.00  0.00    -0.082 A 
ATOM      9  C7  UNL d   1       3.738  -4.227  -3.734  0.00  0.00     0.045 A 
ENDROOT
TORSDOF 0
ENDMDL
