MODEL 1
REMARK minimizedAffinity 12.1700773
REMARK minimizedRMSD -1
REMARK  0 active torsions:
REMARK  status: ('A' for Active; 'I' for Inactive)
ROOT
ATOM      1  C   UNL d   1       5.994  -3.104   1.111  0.00  0.00    -0.002 A 
ATOM      2  C1  UNL d   1       5.936  -4.441   1.479  0.00  0.00     0.010 A 
ATOM      3  C2  UNL d   1       5.465  -5.404   0.584  0.00  0.00     0.041 A 
ATOM      4  C3  UNL d   1       5.051  -4.997  -0.700  0.00  0.00    -0.075 A 
ATOM      5  S   UNL d   1       4.440  -6.000  -1.962  0.00  0.00     0.015 SA
ATOM      6  C4  UNL d   1       4.243  -4.677  -3.019  0.00  0.00     0.022 A 
ATOM      7  C5  UNL d   1       4.629  -3.492  -2.439  0.00  0.00     0.026 A 
ATOM      8  C6  UNL d   1       5.102  -3.656  -1.093  0.00  0.00    -0.082 A 
ATOM      9  C7  UNL d   1       5.583  -2.704  -0.163  0.00  0.00     0.045 A 
ENDROOT
TORSDOF 0
ENDMDL
