MODEL 1
REMARK minimizedAffinity 5.25200748
REMARK minimizedRMSD -1
REMARK  0 active torsions:
REMARK  status: ('A' for Active; 'I' for Inactive)
ROOT
ATOM      1  C   UNL d   1       3.038  -5.384   1.190  0.00  0.00    -0.002 A 
ATOM      2  C1  UNL d   1       2.025  -4.453   1.006  0.00  0.00     0.010 A 
ATOM      3  C2  UNL d   1       2.328  -3.116   0.744  0.00  0.00     0.041 A 
ATOM      4  C3  UNL d   1       3.679  -2.725   0.667  0.00  0.00    -0.075 A 
ATOM      5  S   UNL d   1       4.287  -1.142   0.356  0.00  0.00     0.015 SA
ATOM      6  C4  UNL d   1       5.907  -1.664   0.458  0.00  0.00     0.022 A 
ATOM      7  C5  UNL d   1       5.999  -3.010   0.723  0.00  0.00     0.026 A 
ATOM      8  C6  UNL d   1       4.717  -3.644   0.847  0.00  0.00    -0.082 A 
ATOM      9  C7  UNL d   1       4.378  -4.992   1.112  0.00  0.00     0.045 A 
ENDROOT
TORSDOF 0
ENDMDL
