MODEL 1
REMARK minimizedAffinity 13.8337555
REMARK minimizedRMSD -1
REMARK  0 active torsions:
REMARK  status: ('A' for Active; 'I' for Inactive)
ROOT
ATOM      1  C   UNL d   1      -3.181   1.402   1.760  0.00  0.00    -0.002 A 
ATOM      2  C1  UNL d   1      -3.065   2.470   0.882  0.00  0.00     0.010 A 
ATOM      3  C2  UNL d   1      -1.889   3.221   0.828  0.00  0.00     0.041 A 
ATOM      4  C3  UNL d   1      -0.820   2.875   1.678  0.00  0.00    -0.075 A 
ATOM      5  S   UNL d   1       0.716   3.652   1.785  0.00  0.00     0.015 SA
ATOM      6  C4  UNL d   1       1.255   2.582   2.998  0.00  0.00     0.022 A 
ATOM      7  C5  UNL d   1       0.299   1.650   3.325  0.00  0.00     0.026 A 
ATOM      8  C6  UNL d   1      -0.912   1.803   2.570  0.00  0.00    -0.082 A 
ATOM      9  C7  UNL d   1      -2.118   1.062   2.601  0.00  0.00     0.045 A 
ENDROOT
TORSDOF 0
ENDMDL
