MODEL 1
REMARK minimizedAffinity 12.4015694
REMARK minimizedRMSD -1
REMARK  0 active torsions:
REMARK  status: ('A' for Active; 'I' for Inactive)
ROOT
ATOM      1  C   UNL d   1      -1.879  -0.794  -2.462  0.00  0.00    -0.002 A 
ATOM      2  C1  UNL d   1      -0.522  -0.509  -2.410  0.00  0.00     0.010 A 
ATOM      3  C2  UNL d   1      -0.037   0.489  -1.562  0.00  0.00     0.041 A 
ATOM      4  C3  UNL d   1      -0.948   1.201  -0.757  0.00  0.00    -0.075 A 
ATOM      5  S   UNL d   1      -0.583   2.464   0.358  0.00  0.00     0.015 SA
ATOM      6  C4  UNL d   1      -2.220   2.655   0.793  0.00  0.00     0.022 A 
ATOM      7  C5  UNL d   1      -3.039   1.784   0.113  0.00  0.00     0.026 A 
ATOM      8  C6  UNL d   1      -2.319   0.932  -0.791  0.00  0.00    -0.082 A 
ATOM      9  C7  UNL d   1      -2.779  -0.085  -1.662  0.00  0.00     0.045 A 
ENDROOT
TORSDOF 0
ENDMDL
