MODEL 1
REMARK minimizedAffinity 4.13872623
REMARK minimizedRMSD -1
REMARK  1 active torsions:
REMARK  status: ('A' for Active; 'I' for Inactive)
REMARK    1  A    between atoms: C1_2  and  C2_3 
ROOT
ATOM      1  C2  UNL d   1       0.275  -0.310   0.718  0.00  0.00    -0.076 A 
ATOM      2  C3  UNL d   1      -0.367  -0.133  -0.520  0.00  0.00     0.004 A 
ATOM      3  C4  UNL d   1      -1.748   0.037  -0.594  0.00  0.00    -0.003 A 
ATOM      4  C5  UNL d   1      -2.511   0.033   0.569  0.00  0.00     0.000 A 
ATOM      5  C6  UNL d   1      -1.889  -0.123   1.807  0.00  0.00     0.000 A 
ATOM      6  C7  UNL d   1      -0.495  -0.279   1.900  0.00  0.00    -0.073 A 
ATOM      7  C8  UNL d   1       0.123  -0.451   3.261  0.00  0.00     0.078 C 
ENDROOT
BRANCH   1   8
ATOM      8  C1  UNL d   1       1.773  -0.516   0.734  0.00  0.00     0.053 C 
ATOM      9  C   UNL d   1       2.497   0.396  -0.243  0.00  0.00     0.018 C 
ENDBRANCH   1   8
TORSDOF 1
ENDMDL
