MODEL 1
REMARK minimizedAffinity 2.25719976
REMARK minimizedRMSD -1
REMARK  1 active torsions:
REMARK  status: ('A' for Active; 'I' for Inactive)
REMARK    1  A    between atoms: C1_2  and  C2_3 
ROOT
ATOM      1  C2  UNL d   1      -0.757  -0.095  -0.918  0.00  0.00    -0.076 A 
ATOM      2  C3  UNL d   1      -2.126   0.127  -0.687  0.00  0.00     0.004 A 
ATOM      3  C4  UNL d   1      -2.587   0.518   0.569  0.00  0.00    -0.003 A 
ATOM      4  C5  UNL d   1      -1.687   0.696   1.613  0.00  0.00     0.000 A 
ATOM      5  C6  UNL d   1      -0.324   0.498   1.397  0.00  0.00     0.000 A 
ATOM      6  C7  UNL d   1       0.160   0.119   0.133  0.00  0.00    -0.073 A 
ATOM      7  C8  UNL d   1       1.639  -0.087  -0.042  0.00  0.00     0.078 C 
ENDROOT
BRANCH   1   8
ATOM      8  C1  UNL d   1      -0.319  -0.545  -2.293  0.00  0.00     0.053 C 
ATOM      9  C   UNL d   1      -0.347   0.584  -3.312  0.00  0.00     0.018 C 
ENDBRANCH   1   8
TORSDOF 1
ENDMDL
