MODEL 1
REMARK minimizedAffinity 9.43303108
REMARK minimizedRMSD -1
REMARK  1 active torsions:
REMARK  status: ('A' for Active; 'I' for Inactive)
REMARK    1  A    between atoms: C1_2  and  C2_3 
ROOT
ATOM      1  C2  UNL d   1       0.304  -0.068  -2.748  0.00  0.00    -0.076 A 
ATOM      2  C3  UNL d   1       1.451   0.476  -2.143  0.00  0.00     0.004 A 
ATOM      3  C4  UNL d   1       2.339   1.266  -2.870  0.00  0.00    -0.003 A 
ATOM      4  C5  UNL d   1       2.095   1.526  -4.214  0.00  0.00     0.000 A 
ATOM      5  C6  UNL d   1       0.954   1.009  -4.826  0.00  0.00     0.000 A 
ATOM      6  C7  UNL d   1       0.039   0.223  -4.103  0.00  0.00    -0.073 A 
ATOM      7  C8  UNL d   1      -1.172  -0.314  -4.815  0.00  0.00     0.078 C 
ENDROOT
BRANCH   1   8
ATOM      8  C1  UNL d   1      -0.608  -0.941  -1.916  0.00  0.00     0.053 C 
ATOM      9  C   UNL d   1      -0.391  -0.754  -0.422  0.00  0.00     0.018 C 
ENDBRANCH   1   8
TORSDOF 1
ENDMDL
