MODEL 1
REMARK minimizedAffinity 0.493234515
REMARK minimizedRMSD -1
REMARK  1 active torsions:
REMARK  status: ('A' for Active; 'I' for Inactive)
REMARK    1  A    between atoms: C1_2  and  C2_3 
ROOT
ATOM      1  C2  UNL d   1       0.425  -0.077  -0.160  0.00  0.00    -0.076 A 
ATOM      2  C3  UNL d   1      -0.929   0.224  -0.392  0.00  0.00     0.004 A 
ATOM      3  C4  UNL d   1      -1.814   0.409   0.668  0.00  0.00    -0.003 A 
ATOM      4  C5  UNL d   1      -1.361   0.297   1.977  0.00  0.00     0.000 A 
ATOM      5  C6  UNL d   1      -0.018   0.017   2.226  0.00  0.00     0.000 A 
ATOM      6  C7  UNL d   1       0.892  -0.156   1.169  0.00  0.00    -0.073 A 
ATOM      7  C8  UNL d   1       2.328  -0.462   1.495  0.00  0.00     0.078 C 
ENDROOT
BRANCH   1   8
ATOM      8  C1  UNL d   1       1.333  -0.294  -1.350  0.00  0.00     0.053 C 
ATOM      9  C   UNL d   1       1.148   0.766  -2.425  0.00  0.00     0.018 C 
ENDBRANCH   1   8
TORSDOF 1
ENDMDL
