MODEL 1
REMARK minimizedAffinity -4.43844318
REMARK minimizedRMSD -1
REMARK  1 active torsions:
REMARK  status: ('A' for Active; 'I' for Inactive)
REMARK    1  A    between atoms: C1_2  and  C2_3 
ROOT
ATOM      1  C2  UNL d   1       0.295   0.256   0.645  0.00  0.00    -0.076 A 
ATOM      2  C3  UNL d   1       1.374   0.240   1.546  0.00  0.00     0.004 A 
ATOM      3  C4  UNL d   1       1.225   0.706   2.851  0.00  0.00    -0.003 A 
ATOM      4  C5  UNL d   1      -0.005   1.195   3.277  0.00  0.00     0.000 A 
ATOM      5  C6  UNL d   1      -1.091   1.202   2.401  0.00  0.00     0.000 A 
ATOM      6  C7  UNL d   1      -0.962   0.721   1.087  0.00  0.00    -0.073 A 
ATOM      7  C8  UNL d   1      -2.164   0.758   0.184  0.00  0.00     0.078 C 
ENDROOT
BRANCH   1   8
ATOM      8  C1  UNL d   1       0.523  -0.236  -0.766  0.00  0.00     0.053 C 
ATOM      9  C   UNL d   1       1.737  -1.145  -0.877  0.00  0.00     0.018 C 
ENDBRANCH   1   8
TORSDOF 1
ENDMDL
