MODEL 1
REMARK minimizedAffinity -4.07021427
REMARK minimizedRMSD -1
REMARK  1 active torsions:
REMARK  status: ('A' for Active; 'I' for Inactive)
REMARK    1  A    between atoms: C1_2  and  C2_3 
ROOT
ATOM      1  C2  UNL d   1       0.583   0.513   0.770  0.00  0.00    -0.076 A 
ATOM      2  C3  UNL d   1      -0.538   1.361   0.745  0.00  0.00     0.004 A 
ATOM      3  C4  UNL d   1      -0.989   1.987   1.905  0.00  0.00    -0.003 A 
ATOM      4  C5  UNL d   1      -0.326   1.776   3.109  0.00  0.00     0.000 A 
ATOM      5  C6  UNL d   1       0.798   0.952   3.149  0.00  0.00     0.000 A 
ATOM      6  C7  UNL d   1       1.276   0.326   1.985  0.00  0.00    -0.073 A 
ATOM      7  C8  UNL d   1       2.489  -0.557   2.087  0.00  0.00     0.078 C 
ENDROOT
BRANCH   1   8
ATOM      8  C1  UNL d   1       1.010  -0.161  -0.515  0.00  0.00     0.053 C 
ATOM      9  C   UNL d   1      -0.163  -0.756  -1.279  0.00  0.00     0.018 C 
ENDBRANCH   1   8
TORSDOF 1
ENDMDL
