MODEL 1
REMARK minimizedAffinity -2.87133002
REMARK minimizedRMSD -1
REMARK  1 active torsions:
REMARK  status: ('A' for Active; 'I' for Inactive)
REMARK    1  A    between atoms: C1_2  and  C2_3 
ROOT
ATOM      1  C2  UNL d   1       0.534   0.243   1.351  0.00  0.00    -0.076 A 
ATOM      2  C3  UNL d   1       1.762  -0.301   1.766  0.00  0.00     0.004 A 
ATOM      3  C4  UNL d   1       2.390  -1.301   1.026  0.00  0.00    -0.003 A 
ATOM      4  C5  UNL d   1       1.800  -1.774  -0.141  0.00  0.00     0.000 A 
ATOM      5  C6  UNL d   1       0.591  -1.234  -0.577  0.00  0.00     0.000 A 
ATOM      6  C7  UNL d   1      -0.047  -0.214   0.149  0.00  0.00    -0.073 A 
ATOM      7  C8  UNL d   1      -1.354   0.328  -0.364  0.00  0.00     0.078 C 
ENDROOT
BRANCH   1   8
ATOM      8  C1  UNL d   1      -0.114   1.306   2.209  0.00  0.00     0.053 C 
ATOM      9  C   UNL d   1      -1.064   0.723   3.243  0.00  0.00     0.018 C 
ENDBRANCH   1   8
TORSDOF 1
ENDMDL
