MODEL 1
REMARK minimizedAffinity -3.42151213
REMARK minimizedRMSD -1
REMARK  1 active torsions:
REMARK  status: ('A' for Active; 'I' for Inactive)
REMARK    1  A    between atoms: C1_2  and  C2_3 
ROOT
ATOM      1  C2  UNL d   1       0.172  -0.658  -0.088  0.00  0.00    -0.076 A 
ATOM      2  C3  UNL d   1      -1.047  -0.041   0.244  0.00  0.00     0.004 A 
ATOM      3  C4  UNL d   1      -1.402   0.176   1.574  0.00  0.00    -0.003 A 
ATOM      4  C5  UNL d   1      -0.543  -0.218   2.594  0.00  0.00     0.000 A 
ATOM      5  C6  UNL d   1       0.678  -0.814   2.283  0.00  0.00     0.000 A 
ATOM      6  C7  UNL d   1       1.058  -1.026   0.946  0.00  0.00    -0.073 A 
ATOM      7  C8  UNL d   1       2.385  -1.679   0.668  0.00  0.00     0.078 C 
ENDROOT
BRANCH   1   8
ATOM      8  C1  UNL d   1       0.491  -0.892  -1.547  0.00  0.00     0.053 C 
ATOM      9  C   UNL d   1       0.938   0.376  -2.258  0.00  0.00     0.018 C 
ENDBRANCH   1   8
TORSDOF 1
ENDMDL
