MODEL 1
REMARK minimizedAffinity -2.9355557
REMARK minimizedRMSD -1
REMARK  0 active torsions:
REMARK  status: ('A' for Active; 'I' for Inactive)
ROOT
ATOM      1  C1  BNZ d   1       1.204   2.381   0.071  0.00  0.00     0.000 A 
ATOM      2  C2  BNZ d   1       2.062   3.443   0.178  0.00  0.00     0.000 A 
ATOM      3  C3  BNZ d   1       3.096   3.420   1.072  0.00  0.00     0.000 A 
ATOM      4  C4  BNZ d   1       3.247   2.354   1.884  0.00  0.00     0.000 A 
ATOM      5  C5  BNZ d   1       2.384   1.280   1.795  0.00  0.00     0.000 A 
ATOM      6  C6  BNZ d   1       1.368   1.290   0.867  0.00  0.00     0.000 A 
ENDROOT
TORSDOF 0
ENDMDL
