MODEL 1
REMARK minimizedAffinity -3.99697208
REMARK minimizedRMSD -1
REMARK  0 active torsions:
REMARK  status: ('A' for Active; 'I' for Inactive)
ROOT
ATOM      1  C1  BNZ d   1      -0.113   0.283  -0.610  0.00  0.00     0.000 A 
ATOM      2  C2  BNZ d   1      -1.149   0.547  -1.466  0.00  0.00     0.000 A 
ATOM      3  C3  BNZ d   1      -2.259  -0.249  -1.486  0.00  0.00     0.000 A 
ATOM      4  C4  BNZ d   1      -2.315  -1.330  -0.681  0.00  0.00     0.000 A 
ATOM      5  C5  BNZ d   1      -1.275  -1.615   0.180  0.00  0.00     0.000 A 
ATOM      6  C6  BNZ d   1      -0.175  -0.788   0.226  0.00  0.00     0.000 A 
ENDROOT
TORSDOF 0
ENDMDL
