MODEL 1
REMARK minimizedAffinity -2.68723226
REMARK minimizedRMSD -1
REMARK  0 active torsions:
REMARK  status: ('A' for Active; 'I' for Inactive)
ROOT
ATOM      1  C1  BNZ d   1       0.017   0.563  -0.820  0.00  0.00     0.000 A 
ATOM      2  C2  BNZ d   1      -1.043   0.586  -1.686  0.00  0.00     0.000 A 
ATOM      3  C3  BNZ d   1      -2.050  -0.333  -1.586  0.00  0.00     0.000 A 
ATOM      4  C4  BNZ d   1      -1.976  -1.297  -0.646  0.00  0.00     0.000 A 
ATOM      5  C5  BNZ d   1      -0.909  -1.339   0.229  0.00  0.00     0.000 A 
ATOM      6  C6  BNZ d   1       0.083  -0.389   0.150  0.00  0.00     0.000 A 
ENDROOT
TORSDOF 0
ENDMDL
