MODEL 1
REMARK minimizedAffinity -3.45035243
REMARK minimizedRMSD -1
REMARK  0 active torsions:
REMARK  status: ('A' for Active; 'I' for Inactive)
ROOT
ATOM      1  C1  BNZ d   1      -0.049   0.353  -1.014  0.00  0.00     0.000 A 
ATOM      2  C2  BNZ d   1      -1.119   0.099  -1.830  0.00  0.00     0.000 A 
ATOM      3  C3  BNZ d   1      -2.056  -0.834  -1.485  0.00  0.00     0.000 A 
ATOM      4  C4  BNZ d   1      -1.900  -1.540  -0.347  0.00  0.00     0.000 A 
ATOM      5  C5  BNZ d   1      -0.822  -1.303   0.482  0.00  0.00     0.000 A 
ATOM      6  C6  BNZ d   1       0.098  -0.335   0.151  0.00  0.00     0.000 A 
ENDROOT
TORSDOF 0
ENDMDL
