MODEL 1
REMARK minimizedAffinity -2.54827285
REMARK minimizedRMSD -1
REMARK  0 active torsions:
REMARK  status: ('A' for Active; 'I' for Inactive)
ROOT
ATOM      1  C1  BNZ d   1       1.569   1.785   1.473  0.00  0.00     0.000 A 
ATOM      2  C2  BNZ d   1       2.351   1.354   0.435  0.00  0.00     0.000 A 
ATOM      3  C3  BNZ d   1       3.133   2.231  -0.264  0.00  0.00     0.000 A 
ATOM      4  C4  BNZ d   1       3.102   3.542   0.050  0.00  0.00     0.000 A 
ATOM      5  C5  BNZ d   1       2.311   3.994   1.088  0.00  0.00     0.000 A 
ATOM      6  C6  BNZ d   1       1.555   3.103   1.814  0.00  0.00     0.000 A 
ENDROOT
TORSDOF 0
ENDMDL
