MODEL 1
REMARK minimizedAffinity -2.4378016
REMARK minimizedRMSD -1
REMARK  0 active torsions:
REMARK  status: ('A' for Active; 'I' for Inactive)
ROOT
ATOM      1  C1  BNZ d   1       1.393   1.175   0.318  0.00  0.00     0.000 A 
ATOM      2  C2  BNZ d   1       0.284   1.860   0.738  0.00  0.00     0.000 A 
ATOM      3  C3  BNZ d   1       0.405   2.992   1.494  0.00  0.00     0.000 A 
ATOM      4  C4  BNZ d   1       1.631   3.415   1.863  0.00  0.00     0.000 A 
ATOM      5  C5  BNZ d   1       2.758   2.730   1.456  0.00  0.00     0.000 A 
ATOM      6  C6  BNZ d   1       2.635   1.613   0.662  0.00  0.00     0.000 A 
ENDROOT
TORSDOF 0
ENDMDL
