MODEL 1
REMARK minimizedAffinity -3.97545576
REMARK minimizedRMSD -1
REMARK  0 active torsions:
REMARK  status: ('A' for Active; 'I' for Inactive)
ROOT
ATOM      1  C1  BNZ d   1      -1.936  -1.568   0.710  0.00  0.00     0.000 A 
ATOM      2  C2  BNZ d   1      -0.801  -1.736   1.457  0.00  0.00     0.000 A 
ATOM      3  C3  BNZ d   1       0.294  -0.943   1.253  0.00  0.00     0.000 A 
ATOM      4  C4  BNZ d   1       0.267  -0.013   0.277  0.00  0.00     0.000 A 
ATOM      5  C5  BNZ d   1      -0.867   0.161  -0.491  0.00  0.00     0.000 A 
ATOM      6  C6  BNZ d   1      -1.981  -0.612  -0.257  0.00  0.00     0.000 A 
ENDROOT
TORSDOF 0
ENDMDL
