MODEL 1
REMARK minimizedAffinity 3.1767602
REMARK minimizedRMSD -1
REMARK  0 active torsions:
REMARK  status: ('A' for Active; 'I' for Inactive)
ROOT
ATOM      1  C1  BNZ d   1      -0.336  -1.511   0.629  0.00  0.00     0.000 A 
ATOM      2  C2  BNZ d   1      -0.590  -2.650   1.347  0.00  0.00     0.000 A 
ATOM      3  C3  BNZ d   1      -1.814  -3.255   1.290  0.00  0.00     0.000 A 
ATOM      4  C4  BNZ d   1      -2.794  -2.700   0.549  0.00  0.00     0.000 A 
ATOM      5  C5  BNZ d   1      -2.557  -1.547  -0.173  0.00  0.00     0.000 A 
ATOM      6  C6  BNZ d   1      -1.312  -0.962  -0.145  0.00  0.00     0.000 A 
ENDROOT
TORSDOF 0
ENDMDL
