MODEL 1
REMARK minimizedAffinity -5.0019331
REMARK minimizedRMSD -1
REMARK  0 active torsions:
REMARK  status: ('A' for Active; 'I' for Inactive)
ROOT
ATOM      1  C1  BNZ d   1      -3.628  -1.883  -0.141  0.00  0.00     0.000 A 
ATOM      2  C2  BNZ d   1      -2.590  -2.481   0.524  0.00  0.00     0.000 A 
ATOM      3  C3  BNZ d   1      -1.431  -1.799   0.769  0.00  0.00     0.000 A 
ATOM      4  C4  BNZ d   1      -1.295  -0.537   0.314  0.00  0.00     0.000 A 
ATOM      5  C5  BNZ d   1      -2.328   0.076  -0.366  0.00  0.00     0.000 A 
ATOM      6  C6  BNZ d   1      -3.509  -0.600  -0.577  0.00  0.00     0.000 A 
ENDROOT
TORSDOF 0
ENDMDL
