MODEL 1
REMARK minimizedAffinity -2.32728124
REMARK minimizedRMSD -1
REMARK  0 active torsions:
REMARK  status: ('A' for Active; 'I' for Inactive)
ROOT
ATOM      1  C1  BNZ d   1       2.264   3.608   1.064  0.00  0.00     0.000 A 
ATOM      2  C2  BNZ d   1       1.890   2.681   2.001  0.00  0.00     0.000 A 
ATOM      3  C3  BNZ d   1       2.306   1.383   1.905  0.00  0.00     0.000 A 
ATOM      4  C4  BNZ d   1       3.059   1.003   0.853  0.00  0.00     0.000 A 
ATOM      5  C5  BNZ d   1       3.437   1.923  -0.105  0.00  0.00     0.000 A 
ATOM      6  C6  BNZ d   1       3.049   3.238   0.015  0.00  0.00     0.000 A 
ENDROOT
TORSDOF 0
ENDMDL
