MODEL 1
REMARK minimizedAffinity -1.41904902
REMARK minimizedRMSD -1
REMARK  0 active torsions:
REMARK  status: ('A' for Active; 'I' for Inactive)
ROOT
ATOM      1  C1  BNZ d   1       2.888   2.290  -0.076  0.00  0.00     0.000 A 
ATOM      2  C2  BNZ d   1       2.252   1.124  -0.409  0.00  0.00     0.000 A 
ATOM      3  C3  BNZ d   1       1.633   0.367   0.547  0.00  0.00     0.000 A 
ATOM      4  C4  BNZ d   1       1.686   0.756   1.837  0.00  0.00     0.000 A 
ATOM      5  C5  BNZ d   1       2.331   1.925   2.189  0.00  0.00     0.000 A 
ATOM      6  C6  BNZ d   1       2.919   2.704   1.220  0.00  0.00     0.000 A 
ENDROOT
TORSDOF 0
ENDMDL
