MODEL 1
REMARK minimizedAffinity -3.53279638
REMARK minimizedRMSD -1
REMARK  0 active torsions:
REMARK  status: ('A' for Active; 'I' for Inactive)
ROOT
ATOM      1  C1  BNZ d   1      -1.163   0.183  -1.155  0.00  0.00     0.000 A 
ATOM      2  C2  BNZ d   1      -2.245  -0.651  -1.260  0.00  0.00     0.000 A 
ATOM      3  C3  BNZ d   1      -2.431  -1.670  -0.369  0.00  0.00     0.000 A 
ATOM      4  C4  BNZ d   1      -1.517  -1.880   0.601  0.00  0.00     0.000 A 
ATOM      5  C5  BNZ d   1      -0.417  -1.054   0.714  0.00  0.00     0.000 A 
ATOM      6  C6  BNZ d   1      -0.252  -0.004  -0.162  0.00  0.00     0.000 A 
ENDROOT
TORSDOF 0
ENDMDL
