MODEL 1
REMARK minimizedAffinity -1.70839775
REMARK minimizedRMSD -1
REMARK  1 active torsions:
REMARK  status: ('A' for Active; 'I' for Inactive)
REMARK    1  A    between atoms: C1_2  and  C2_3 
ROOT
ATOM      1  C2  UNL d   1      -0.038  -1.117  -1.025  0.00  0.00    -0.073 A 
ATOM      2  C3  UNL d   1       1.144  -1.166  -0.277  0.00  0.00    -0.002 A 
ATOM      3  C4  UNL d   1       1.172  -0.676   1.029  0.00  0.00     0.004 A 
ATOM      4  C5  UNL d   1       0.020  -0.139   1.602  0.00  0.00    -0.004 A 
ATOM      5  C6  UNL d   1      -1.174  -0.091   0.875  0.00  0.00    -0.075 A 
ATOM      6  C7  UNL d   1      -2.422   0.486   1.476  0.00  0.00     0.076 C 
ATOM      7  C8  UNL d   1      -1.194  -0.583  -0.437  0.00  0.00     0.001 A 
ENDROOT
BRANCH   1   8
ATOM      8  C1  UNL d   1      -0.075  -1.650  -2.434  0.00  0.00     0.053 C 
ATOM      9  C   UNL d   1       0.889  -2.810  -2.630  0.00  0.00     0.018 C 
ENDBRANCH   1   8
TORSDOF 1
ENDMDL
