MODEL 1
REMARK minimizedAffinity 7.31772137
REMARK minimizedRMSD -1
REMARK  1 active torsions:
REMARK  status: ('A' for Active; 'I' for Inactive)
REMARK    1  A    between atoms: C1_2  and  C2_3 
ROOT
ATOM      1  C2  UNL d   1      -3.533  -1.457  -0.377  0.00  0.00    -0.073 A 
ATOM      2  C3  UNL d   1      -4.201  -0.233  -0.265  0.00  0.00    -0.002 A 
ATOM      3  C4  UNL d   1      -3.522   0.903   0.177  0.00  0.00     0.004 A 
ATOM      4  C5  UNL d   1      -2.168   0.829   0.504  0.00  0.00    -0.004 A 
ATOM      5  C6  UNL d   1      -1.480  -0.383   0.388  0.00  0.00    -0.075 A 
ATOM      6  C7  UNL d   1      -0.024  -0.481   0.738  0.00  0.00     0.076 C 
ATOM      7  C8  UNL d   1      -2.170  -1.520  -0.054  0.00  0.00     0.001 A 
ENDROOT
BRANCH   1   8
ATOM      8  C1  UNL d   1      -4.261  -2.685  -0.859  0.00  0.00     0.053 C 
ATOM      9  C   UNL d   1      -5.619  -2.347  -1.452  0.00  0.00     0.018 C 
ENDBRANCH   1   8
TORSDOF 1
ENDMDL
