MODEL 1
REMARK minimizedAffinity -2.30644035
REMARK minimizedRMSD -1
REMARK  1 active torsions:
REMARK  status: ('A' for Active; 'I' for Inactive)
REMARK    1  A    between atoms: C1_2  and  C2_3 
ROOT
ATOM      1  C2  UNL d   1      -0.069  -0.236   2.971  0.00  0.00    -0.073 A 
ATOM      2  C3  UNL d   1      -1.335   0.319   3.192  0.00  0.00    -0.002 A 
ATOM      3  C4  UNL d   1      -2.243   0.445   2.140  0.00  0.00     0.004 A 
ATOM      4  C5  UNL d   1      -1.899   0.012   0.860  0.00  0.00    -0.004 A 
ATOM      5  C6  UNL d   1      -0.643  -0.556   0.621  0.00  0.00    -0.075 A 
ATOM      6  C7  UNL d   1      -0.257  -1.025  -0.751  0.00  0.00     0.076 C 
ATOM      7  C8  UNL d   1       0.264  -0.677   1.682  0.00  0.00     0.001 A 
ENDROOT
BRANCH   1   8
ATOM      8  C1  UNL d   1       0.912  -0.379   4.105  0.00  0.00     0.053 C 
ATOM      9  C   UNL d   1       0.972  -1.805   4.630  0.00  0.00     0.018 C 
ENDBRANCH   1   8
TORSDOF 1
ENDMDL
