MODEL 1
REMARK minimizedAffinity 1.52032852
REMARK minimizedRMSD -1
REMARK  1 active torsions:
REMARK  status: ('A' for Active; 'I' for Inactive)
REMARK    1  A    between atoms: C1_2  and  C2_3 
ROOT
ATOM      1  C2  UNL d   1      -0.582  -0.262   0.815  0.00  0.00    -0.073 A 
ATOM      2  C3  UNL d   1      -1.739   0.505   0.634  0.00  0.00    -0.002 A 
ATOM      3  C4  UNL d   1      -2.596   0.750   1.707  0.00  0.00     0.004 A 
ATOM      4  C5  UNL d   1      -2.303   0.239   2.971  0.00  0.00    -0.004 A 
ATOM      5  C6  UNL d   1      -1.146  -0.520   3.174  0.00  0.00    -0.075 A 
ATOM      6  C7  UNL d   1      -0.818  -1.080   4.527  0.00  0.00     0.076 C 
ATOM      7  C8  UNL d   1      -0.292  -0.765   2.091  0.00  0.00     0.001 A 
ENDROOT
BRANCH   1   8
ATOM      8  C1  UNL d   1       0.350  -0.525  -0.340  0.00  0.00     0.053 C 
ATOM      9  C   UNL d   1       0.073  -1.866  -1.002  0.00  0.00     0.018 C 
ENDBRANCH   1   8
TORSDOF 1
ENDMDL
