MODEL 1
REMARK minimizedAffinity 2.37908363
REMARK minimizedRMSD -1
REMARK  1 active torsions:
REMARK  status: ('A' for Active; 'I' for Inactive)
REMARK    1  A    between atoms: C1_2  and  C2_3 
ROOT
ATOM      1  C2  UNL d   1      -2.193  -0.261   1.199  0.00  0.00    -0.073 A 
ATOM      2  C3  UNL d   1      -2.792  -0.673   0.003  0.00  0.00    -0.002 A 
ATOM      3  C4  UNL d   1      -2.019  -0.870  -1.141  0.00  0.00     0.004 A 
ATOM      4  C5  UNL d   1      -0.640  -0.665  -1.101  0.00  0.00    -0.004 A 
ATOM      5  C6  UNL d   1      -0.021  -0.265   0.088  0.00  0.00    -0.075 A 
ATOM      6  C7  UNL d   1       1.461  -0.038   0.148  0.00  0.00     0.076 C 
ATOM      7  C8  UNL d   1      -0.805  -0.066   1.233  0.00  0.00     0.001 A 
ENDROOT
BRANCH   1   8
ATOM      8  C1  UNL d   1      -3.023  -0.053   2.440  0.00  0.00     0.053 C 
ATOM      9  C   UNL d   1      -3.676  -1.343   2.911  0.00  0.00     0.018 C 
ENDBRANCH   1   8
TORSDOF 1
ENDMDL
