MODEL 1
REMARK minimizedAffinity -2.7279644
REMARK minimizedRMSD -1
REMARK  0 active torsions:
REMARK  status: ('A' for Active; 'I' for Inactive)
ROOT
ATOM      1  C   UNL d   1       0.291  -0.654  -0.117  0.00  0.00     0.023 A 
ATOM      2  C1  UNL d   1       0.397   0.314  -1.116  0.00  0.00     0.003 A 
ATOM      3  C2  UNL d   1       0.776   1.618  -0.789  0.00  0.00     0.048 A 
ATOM      4  C3  UNL d   1       1.048   1.947   0.539  0.00  0.00     0.023 A 
ATOM      5  C4  UNL d   1       0.944   0.981   1.541  0.00  0.00     0.048 A 
ATOM      6  C5  UNL d   1       0.564  -0.321   1.210  0.00  0.00     0.003 A 
ATOM      7  I   UNL d   1       1.613   3.886   1.027  0.00  0.00    -0.146 I 
ENDROOT
TORSDOF 0
ENDMDL
