MODEL 1
REMARK minimizedAffinity -1.89744282
REMARK minimizedRMSD -1
REMARK  0 active torsions:
REMARK  status: ('A' for Active; 'I' for Inactive)
ROOT
ATOM      1  C   UNL d   1       0.292  -1.101  -0.924  0.00  0.00     0.023 A 
ATOM      2  C1  UNL d   1       0.863  -1.106   0.349  0.00  0.00     0.003 A 
ATOM      3  C2  UNL d   1       1.370   0.076   0.892  0.00  0.00     0.048 A 
ATOM      4  C3  UNL d   1       1.301   1.260   0.158  0.00  0.00     0.023 A 
ATOM      5  C4  UNL d   1       0.730   1.270  -1.115  0.00  0.00     0.048 A 
ATOM      6  C5  UNL d   1       0.225   0.085  -1.655  0.00  0.00     0.003 A 
ATOM      7  I   UNL d   1       2.055   3.021   0.966  0.00  0.00    -0.146 I 
ENDROOT
TORSDOF 0
ENDMDL
