MODEL 1
REMARK minimizedAffinity -3.21533465
REMARK minimizedRMSD -1
REMARK  0 active torsions:
REMARK  status: ('A' for Active; 'I' for Inactive)
ROOT
ATOM      1  C   UNL d   1      -0.894  -3.010   1.142  0.00  0.00     0.023 A 
ATOM      2  C1  UNL d   1      -1.556  -1.872   1.603  0.00  0.00     0.003 A 
ATOM      3  C2  UNL d   1      -1.107  -0.603   1.233  0.00  0.00     0.048 A 
ATOM      4  C3  UNL d   1       0.005  -0.479   0.401  0.00  0.00     0.023 A 
ATOM      5  C4  UNL d   1       0.671  -1.615  -0.063  0.00  0.00     0.048 A 
ATOM      6  C5  UNL d   1       0.219  -2.881   0.311  0.00  0.00     0.003 A 
ATOM      7  I   UNL d   1       0.676   1.409  -0.151  0.00  0.00    -0.146 I 
ENDROOT
TORSDOF 0
ENDMDL
