MODEL 1
REMARK minimizedAffinity -4.10392761
REMARK minimizedRMSD -1
REMARK  0 active torsions:
REMARK  status: ('A' for Active; 'I' for Inactive)
ROOT
ATOM      1  C   UNL d   1       0.570  -1.991  -0.957  0.00  0.00     0.023 A 
ATOM      2  C1  UNL d   1       0.469  -0.688  -0.471  0.00  0.00     0.003 A 
ATOM      3  C2  UNL d   1      -0.274  -0.427   0.682  0.00  0.00     0.048 A 
ATOM      4  C3  UNL d   1      -0.913  -1.474   1.345  0.00  0.00     0.023 A 
ATOM      5  C4  UNL d   1      -0.814  -2.780   0.863  0.00  0.00     0.048 A 
ATOM      6  C5  UNL d   1      -0.070  -3.036  -0.291  0.00  0.00     0.003 A 
ATOM      7  I   UNL d   1      -2.019  -1.088   3.061  0.00  0.00    -0.146 I 
ENDROOT
TORSDOF 0
ENDMDL
