MODEL 1
REMARK minimizedAffinity -1.68909311
REMARK minimizedRMSD -1
REMARK  0 active torsions:
REMARK  status: ('A' for Active; 'I' for Inactive)
ROOT
ATOM      1  C   UNL d   1      -0.148   1.348  -1.133  0.00  0.00     0.023 A 
ATOM      2  C1  UNL d   1      -0.486   0.958   0.163  0.00  0.00     0.003 A 
ATOM      3  C2  UNL d   1      -0.409  -0.387   0.531  0.00  0.00     0.048 A 
ATOM      4  C3  UNL d   1       0.009  -1.336  -0.401  0.00  0.00     0.023 A 
ATOM      5  C4  UNL d   1       0.348  -0.950  -1.699  0.00  0.00     0.048 A 
ATOM      6  C5  UNL d   1       0.268   0.395  -2.063  0.00  0.00     0.003 A 
ATOM      7  I   UNL d   1       0.125  -3.338   0.144  0.00  0.00    -0.146 I 
ENDROOT
TORSDOF 0
ENDMDL
