MODEL 1
REMARK minimizedAffinity -2.47177029
REMARK minimizedRMSD -1
REMARK  0 active torsions:
REMARK  status: ('A' for Active; 'I' for Inactive)
ROOT
ATOM      1  C   UNL d   1      -0.028  -3.648  -0.539  0.00  0.00     0.023 A 
ATOM      2  C1  UNL d   1       0.369  -2.716  -1.498  0.00  0.00     0.003 A 
ATOM      3  C2  UNL d   1       0.429  -1.360  -1.173  0.00  0.00     0.048 A 
ATOM      4  C3  UNL d   1       0.092  -0.941   0.114  0.00  0.00     0.023 A 
ATOM      5  C4  UNL d   1      -0.305  -1.870   1.077  0.00  0.00     0.048 A 
ATOM      6  C5  UNL d   1      -0.365  -3.225   0.747  0.00  0.00     0.003 A 
ATOM      7  I   UNL d   1       0.181   1.077   0.600  0.00  0.00    -0.146 I 
ENDROOT
TORSDOF 0
ENDMDL
