MODEL 1
REMARK minimizedAffinity -4.48139238
REMARK minimizedRMSD -1
REMARK  0 active torsions:
REMARK  status: ('A' for Active; 'I' for Inactive)
ROOT
ATOM      1  C   UNL d   1      -1.067  -2.365   0.916  0.00  0.00     0.023 A 
ATOM      2  C1  UNL d   1      -0.189  -2.267  -0.163  0.00  0.00     0.003 A 
ATOM      3  C2  UNL d   1       0.475  -1.065  -0.417  0.00  0.00     0.048 A 
ATOM      4  C3  UNL d   1       0.256   0.035   0.412  0.00  0.00     0.023 A 
ATOM      5  C4  UNL d   1      -0.622  -0.059   1.493  0.00  0.00     0.048 A 
ATOM      6  C5  UNL d   1      -1.284  -1.263   1.743  0.00  0.00     0.003 A 
ATOM      7  I   UNL d   1       1.242   1.825   0.035  0.00  0.00    -0.146 I 
ENDROOT
TORSDOF 0
ENDMDL
