MODEL 1
REMARK minimizedAffinity -3.55770922
REMARK minimizedRMSD -1
REMARK  0 active torsions:
REMARK  status: ('A' for Active; 'I' for Inactive)
ROOT
ATOM      1  C   UNL d   1      -0.757  -3.016   0.414  0.00  0.00     0.023 A 
ATOM      2  C1  UNL d   1      -1.610  -1.956   0.720  0.00  0.00     0.003 A 
ATOM      3  C2  UNL d   1      -1.149  -0.641   0.639  0.00  0.00     0.048 A 
ATOM      4  C3  UNL d   1       0.167  -0.393   0.250  0.00  0.00     0.023 A 
ATOM      5  C4  UNL d   1       1.024  -1.450  -0.058  0.00  0.00     0.048 A 
ATOM      6  C5  UNL d   1       0.559  -2.764   0.025  0.00  0.00     0.003 A 
ATOM      7  I   UNL d   1       0.857   1.564   0.128  0.00  0.00    -0.146 I 
ENDROOT
TORSDOF 0
ENDMDL
