MODEL 1
REMARK minimizedAffinity -3.91162062
REMARK minimizedRMSD -1
REMARK  0 active torsions:
REMARK  status: ('A' for Active; 'I' for Inactive)
ROOT
ATOM      1  C   UNL d   1      -0.316  -3.271   0.771  0.00  0.00     0.023 A 
ATOM      2  C1  UNL d   1      -1.434  -2.449   0.912  0.00  0.00     0.003 A 
ATOM      3  C2  UNL d   1      -1.334  -1.081   0.649  0.00  0.00     0.048 A 
ATOM      4  C3  UNL d   1      -0.113  -0.543   0.244  0.00  0.00     0.023 A 
ATOM      5  C4  UNL d   1       1.008  -1.362   0.100  0.00  0.00     0.048 A 
ATOM      6  C5  UNL d   1       0.903  -2.728   0.366  0.00  0.00     0.003 A 
ATOM      7  I   UNL d   1       0.038   1.493  -0.148  0.00  0.00    -0.146 I 
ENDROOT
TORSDOF 0
ENDMDL
