MODEL 1
REMARK minimizedAffinity -0.727271974
REMARK minimizedRMSD -1
REMARK  0 active torsions:
REMARK  status: ('A' for Active; 'I' for Inactive)
ROOT
ATOM      1  C   UNL d   1      -1.519  -1.199   1.645  0.00  0.00     0.023 A 
ATOM      2  C1  UNL d   1      -1.446  -2.242   0.722  0.00  0.00     0.003 A 
ATOM      3  C2  UNL d   1      -0.815  -2.044  -0.508  0.00  0.00     0.048 A 
ATOM      4  C3  UNL d   1      -0.258  -0.801  -0.808  0.00  0.00     0.023 A 
ATOM      5  C4  UNL d   1      -0.328   0.245   0.114  0.00  0.00     0.048 A 
ATOM      6  C5  UNL d   1      -0.960   0.043   1.342  0.00  0.00     0.003 A 
ATOM      7  I   UNL d   1       0.681  -0.504  -2.638  0.00  0.00    -0.146 I 
ENDROOT
TORSDOF 0
ENDMDL
