MODEL 1
REMARK minimizedAffinity -2.15605712
REMARK minimizedRMSD -1
REMARK  0 active torsions:
REMARK  status: ('A' for Active; 'I' for Inactive)
ROOT
ATOM      1  C   UNL d   1      -1.486  -3.243   0.069  0.00  0.00     0.023 A 
ATOM      2  C1  UNL d   1      -1.617  -2.389   1.164  0.00  0.00     0.003 A 
ATOM      3  C2  UNL d   1      -1.177  -1.067   1.077  0.00  0.00     0.048 A 
ATOM      4  C3  UNL d   1      -0.608  -0.604  -0.109  0.00  0.00     0.023 A 
ATOM      5  C4  UNL d   1      -0.476  -1.455  -1.208  0.00  0.00     0.048 A 
ATOM      6  C5  UNL d   1      -0.916  -2.776  -1.116  0.00  0.00     0.003 A 
ATOM      7  I   UNL d   1       0.047   1.364  -0.242  0.00  0.00    -0.146 I 
ENDROOT
TORSDOF 0
ENDMDL
