MODEL 1
REMARK minimizedAffinity -3.22978497
REMARK minimizedRMSD -1
REMARK  0 active torsions:
REMARK  status: ('A' for Active; 'I' for Inactive)
ROOT
ATOM      1  C   UNL d   1      -0.904  -3.121   0.757  0.00  0.00     0.023 A 
ATOM      2  C1  UNL d   1       0.462  -2.902   0.577  0.00  0.00     0.003 A 
ATOM      3  C2  UNL d   1       0.956  -1.599   0.488  0.00  0.00     0.048 A 
ATOM      4  C3  UNL d   1       0.079  -0.519   0.582  0.00  0.00     0.023 A 
ATOM      5  C4  UNL d   1      -1.289  -0.733   0.763  0.00  0.00     0.048 A 
ATOM      6  C5  UNL d   1      -1.778  -2.038   0.850  0.00  0.00     0.003 A 
ATOM      7  I   UNL d   1       0.811   1.421   0.451  0.00  0.00    -0.146 I 
ENDROOT
TORSDOF 0
ENDMDL
