MODEL 1
REMARK minimizedAffinity -4.49600506
REMARK minimizedRMSD -1
REMARK  0 active torsions:
REMARK  status: ('A' for Active; 'I' for Inactive)
ROOT
ATOM      1  C   UNL d   1      -0.991  -2.820   0.529  0.00  0.00     0.023 A 
ATOM      2  C1  UNL d   1       0.159  -2.594  -0.227  0.00  0.00     0.003 A 
ATOM      3  C2  UNL d   1       0.602  -1.289  -0.454  0.00  0.00     0.048 A 
ATOM      4  C3  UNL d   1      -0.110  -0.215   0.080  0.00  0.00     0.023 A 
ATOM      5  C4  UNL d   1      -1.261  -0.437   0.838  0.00  0.00     0.048 A 
ATOM      6  C5  UNL d   1      -1.700  -1.743   1.061  0.00  0.00     0.003 A 
ATOM      7  I   UNL d   1       0.547   1.728  -0.256  0.00  0.00    -0.146 I 
ENDROOT
TORSDOF 0
ENDMDL
