MODEL 1
REMARK minimizedAffinity -3.56389713
REMARK minimizedRMSD -1
REMARK  0 active torsions:
REMARK  status: ('A' for Active; 'I' for Inactive)
ROOT
ATOM      1  C   UNL d   1      -0.805  -2.932   0.701  0.00  0.00     0.023 A 
ATOM      2  C1  UNL d   1       0.408  -2.757   0.035  0.00  0.00     0.003 A 
ATOM      3  C2  UNL d   1       0.949  -1.478  -0.109  0.00  0.00     0.048 A 
ATOM      4  C3  UNL d   1       0.272  -0.378   0.416  0.00  0.00     0.023 A 
ATOM      5  C4  UNL d   1      -0.942  -0.548   1.083  0.00  0.00     0.048 A 
ATOM      6  C5  UNL d   1      -1.479  -1.829   1.224  0.00  0.00     0.003 A 
ATOM      7  I   UNL d   1       1.075   1.527   0.203  0.00  0.00    -0.146 I 
ENDROOT
TORSDOF 0
ENDMDL
