MODEL 1
REMARK minimizedAffinity -1.53663659
REMARK minimizedRMSD -1
REMARK  0 active torsions:
REMARK  status: ('A' for Active; 'I' for Inactive)
ROOT
ATOM      1  C   UNL d   1       1.059  -2.849   0.610  0.00  0.00     0.023 A 
ATOM      2  C1  UNL d   1      -0.174  -3.359   1.019  0.00  0.00     0.003 A 
ATOM      3  C2  UNL d   1      -1.296  -2.529   1.055  0.00  0.00     0.048 A 
ATOM      4  C3  UNL d   1      -1.179  -1.191   0.680  0.00  0.00     0.023 A 
ATOM      5  C4  UNL d   1       0.052  -0.677   0.269  0.00  0.00     0.048 A 
ATOM      6  C5  UNL d   1       1.171  -1.510   0.236  0.00  0.00     0.003 A 
ATOM      7  I   UNL d   1      -2.849   0.046   0.732  0.00  0.00    -0.146 I 
ENDROOT
TORSDOF 0
ENDMDL
