MODEL 1
REMARK minimizedAffinity -4.37097692
REMARK minimizedRMSD -1
REMARK  0 active torsions:
REMARK  status: ('A' for Active; 'I' for Inactive)
ROOT
ATOM      1  C   UNL d   1      -0.154  -2.858   0.033  0.00  0.00     0.023 A 
ATOM      2  C1  UNL d   1      -0.790  -2.006   0.936  0.00  0.00     0.003 A 
ATOM      3  C2  UNL d   1      -0.553  -0.631   0.886  0.00  0.00     0.048 A 
ATOM      4  C3  UNL d   1       0.321  -0.114  -0.070  0.00  0.00     0.023 A 
ATOM      5  C4  UNL d   1       0.959  -0.963  -0.976  0.00  0.00     0.048 A 
ATOM      6  C5  UNL d   1       0.720  -2.338  -0.921  0.00  0.00     0.003 A 
ATOM      7  I   UNL d   1       0.676   1.932  -0.147  0.00  0.00    -0.146 I 
ENDROOT
TORSDOF 0
ENDMDL
