MODEL 1
REMARK minimizedAffinity -3.76122928
REMARK minimizedRMSD -1
REMARK  0 active torsions:
REMARK  status: ('A' for Active; 'I' for Inactive)
ROOT
ATOM      1  C   UNL d   1      -0.109  -2.689   1.180  0.00  0.00     0.023 A 
ATOM      2  C1  UNL d   1      -0.949  -1.655   1.595  0.00  0.00     0.003 A 
ATOM      3  C2  UNL d   1      -0.759  -0.360   1.108  0.00  0.00     0.048 A 
ATOM      4  C3  UNL d   1       0.272  -0.107   0.204  0.00  0.00     0.023 A 
ATOM      5  C4  UNL d   1       1.114  -1.138  -0.215  0.00  0.00     0.048 A 
ATOM      6  C5  UNL d   1       0.921  -2.430   0.276  0.00  0.00     0.003 A 
ATOM      7  I   UNL d   1       0.557   1.819  -0.524  0.00  0.00    -0.146 I 
ENDROOT
TORSDOF 0
ENDMDL
