MODEL 1
REMARK minimizedAffinity 13.0178099
REMARK minimizedRMSD -1
REMARK  0 active torsions:
REMARK  status: ('A' for Active; 'I' for Inactive)
ROOT
ATOM      1  C   UNL d   1       4.562  -4.747  -0.377  0.00  0.00     0.020 A 
ATOM      2  C1  UNL d   1       5.610  -4.738   0.543  0.00  0.00     0.020 A 
ATOM      3  C2  UNL d   1       5.381  -4.324   1.857  0.00  0.00     0.034 A 
ATOM      4  C3  UNL d   1       4.103  -3.917   2.255  0.00  0.00     0.017 A 
ATOM      5  C4  UNL d   1       3.052  -3.926   1.331  0.00  0.00     0.017 A 
ATOM      6  C5  UNL d   1       3.286  -4.342   0.017  0.00  0.00     0.034 A 
ATOM      7 Cl   UNL d   1       1.447  -3.439   1.748  0.00  0.00    -0.070 Cl
ATOM      8 Cl1  UNL d   1       3.893  -3.418   3.896  0.00  0.00    -0.070 Cl
ENDROOT
TORSDOF 0
ENDMDL
