MODEL 1
REMARK minimizedAffinity 6.53424215
REMARK minimizedRMSD -1
REMARK  0 active torsions:
REMARK  status: ('A' for Active; 'I' for Inactive)
ROOT
ATOM      1  C   UNL d   1       0.183  -1.873   0.169  0.00  0.00     0.020 A 
ATOM      2  C1  UNL d   1       0.778  -1.793   1.427  0.00  0.00     0.020 A 
ATOM      3  C2  UNL d   1       1.575  -0.694   1.753  0.00  0.00     0.034 A 
ATOM      4  C3  UNL d   1       1.779   0.329   0.820  0.00  0.00     0.017 A 
ATOM      5  C4  UNL d   1       1.181   0.248  -0.443  0.00  0.00     0.017 A 
ATOM      6  C5  UNL d   1       0.384  -0.855  -0.764  0.00  0.00     0.034 A 
ATOM      7 Cl   UNL d   1       1.387   1.471  -1.646  0.00  0.00    -0.070 Cl
ATOM      8 Cl1  UNL d   1       2.777   1.659   1.291  0.00  0.00    -0.070 Cl
ENDROOT
TORSDOF 0
ENDMDL
