MODEL 1
REMARK minimizedAffinity 9.84300423
REMARK minimizedRMSD -1
REMARK  0 active torsions:
REMARK  status: ('A' for Active; 'I' for Inactive)
ROOT
ATOM      1  C   UNL d   1       0.200  -1.028   3.100  0.00  0.00     0.020 A 
ATOM      2  C1  UNL d   1      -0.102  -1.698   1.915  0.00  0.00     0.020 A 
ATOM      3  C2  UNL d   1       0.741  -2.710   1.451  0.00  0.00     0.034 A 
ATOM      4  C3  UNL d   1       1.890  -3.055   2.172  0.00  0.00     0.017 A 
ATOM      5  C4  UNL d   1       2.193  -2.381   3.361  0.00  0.00     0.017 A 
ATOM      6  C5  UNL d   1       1.345  -1.369   3.821  0.00  0.00     0.034 A 
ATOM      7 Cl   UNL d   1       3.592  -2.751   4.305  0.00  0.00    -0.070 Cl
ATOM      8 Cl1  UNL d   1       2.888  -4.316   1.539  0.00  0.00    -0.070 Cl
ENDROOT
TORSDOF 0
ENDMDL
