MODEL 1
REMARK minimizedAffinity 13.5617361
REMARK minimizedRMSD -1
REMARK  0 active torsions:
REMARK  status: ('A' for Active; 'I' for Inactive)
ROOT
ATOM      1  C   UNL d   1      -4.907  -1.936  -4.114  0.00  0.00     0.020 A 
ATOM      2  C1  UNL d   1      -5.708  -0.801  -3.995  0.00  0.00     0.020 A 
ATOM      3  C2  UNL d   1      -5.408   0.169  -3.036  0.00  0.00     0.034 A 
ATOM      4  C3  UNL d   1      -4.303   0.006  -2.193  0.00  0.00     0.017 A 
ATOM      5  C4  UNL d   1      -3.499  -1.133  -2.313  0.00  0.00     0.017 A 
ATOM      6  C5  UNL d   1      -3.805  -2.101  -3.274  0.00  0.00     0.034 A 
ATOM      7 Cl   UNL d   1      -2.119  -1.404  -1.307  0.00  0.00    -0.070 Cl
ATOM      8 Cl1  UNL d   1      -3.990   1.245  -1.030  0.00  0.00    -0.070 Cl
ENDROOT
TORSDOF 0
ENDMDL
