MODEL 1
REMARK minimizedAffinity 5.7936635
REMARK minimizedRMSD -1
REMARK  0 active torsions:
REMARK  status: ('A' for Active; 'I' for Inactive)
ROOT
ATOM      1  C   UNL d   1      -4.316  -1.747  -3.921  0.00  0.00     0.020 A 
ATOM      2  C1  UNL d   1      -5.266  -0.727  -3.930  0.00  0.00     0.020 A 
ATOM      3  C2  UNL d   1      -5.298   0.207  -2.892  0.00  0.00     0.034 A 
ATOM      4  C3  UNL d   1      -4.378   0.122  -1.841  0.00  0.00     0.017 A 
ATOM      5  C4  UNL d   1      -3.425  -0.903  -1.832  0.00  0.00     0.017 A 
ATOM      6  C5  UNL d   1      -3.398  -1.835  -2.874  0.00  0.00     0.034 A 
ATOM      7 Cl   UNL d   1      -2.258  -1.073  -0.569  0.00  0.00    -0.070 Cl
ATOM      8 Cl1  UNL d   1      -4.475   1.310  -0.590  0.00  0.00    -0.070 Cl
ENDROOT
TORSDOF 0
ENDMDL
