MODEL 1
REMARK minimizedAffinity -3.87016273
REMARK minimizedRMSD -1
REMARK  0 active torsions:
REMARK  status: ('A' for Active; 'I' for Inactive)
ROOT
ATOM      1  C   UNL d   1       5.055  -3.641   1.836  0.00  0.00     0.020 A 
ATOM      2  C1  UNL d   1       5.030  -2.288   2.171  0.00  0.00     0.020 A 
ATOM      3  C2  UNL d   1       4.664  -1.895   3.461  0.00  0.00     0.034 A 
ATOM      4  C3  UNL d   1       4.322  -2.857   4.419  0.00  0.00     0.017 A 
ATOM      5  C4  UNL d   1       4.348  -4.214   4.081  0.00  0.00     0.017 A 
ATOM      6  C5  UNL d   1       4.715  -4.602   2.788  0.00  0.00     0.034 A 
ATOM      7 Cl   UNL d   1       3.939  -5.458   5.209  0.00  0.00    -0.070 Cl
ATOM      8 Cl1  UNL d   1       3.880  -2.300   5.994  0.00  0.00    -0.070 Cl
ENDROOT
TORSDOF 0
ENDMDL
