MODEL 1
REMARK minimizedAffinity 10.1739111
REMARK minimizedRMSD -1
REMARK  0 active torsions:
REMARK  status: ('A' for Active; 'I' for Inactive)
ROOT
ATOM      1  C   UNL d   1      -4.283  -2.268  -4.856  0.00  0.00     0.020 A 
ATOM      2  C1  UNL d   1      -4.287  -2.733  -3.541  0.00  0.00     0.020 A 
ATOM      3  C2  UNL d   1      -4.160  -1.832  -2.482  0.00  0.00     0.034 A 
ATOM      4  C3  UNL d   1      -4.027  -0.462  -2.736  0.00  0.00     0.017 A 
ATOM      5  C4  UNL d   1      -4.023   0.004  -4.056  0.00  0.00     0.017 A 
ATOM      6  C5  UNL d   1      -4.151  -0.903  -5.112  0.00  0.00     0.034 A 
ATOM      7 Cl   UNL d   1      -3.864   1.679  -4.447  0.00  0.00    -0.070 Cl
ATOM      8 Cl1  UNL d   1      -3.874   0.596  -1.378  0.00  0.00    -0.070 Cl
ENDROOT
TORSDOF 0
ENDMDL
