MODEL 1
REMARK minimizedAffinity 2.94074559
REMARK minimizedRMSD -1
REMARK  0 active torsions:
REMARK  status: ('A' for Active; 'I' for Inactive)
ROOT
ATOM      1  C   UNL d   1       1.299  -5.518   6.000  0.00  0.00     0.078 C 
ATOM      2  C1  UNL d   1       1.489  -4.249   5.224  0.00  0.00    -0.077 A 
ATOM      3  C2  UNL d   1       2.049  -3.115   5.823  0.00  0.00    -0.001 A 
ATOM      4  C3  UNL d   1       2.211  -1.937   5.091  0.00  0.00     0.003 A 
ATOM      5  C4  UNL d   1       1.814  -1.882   3.757  0.00  0.00    -0.005 A 
ATOM      6  C5  UNL d   1       1.253  -3.006   3.153  0.00  0.00     0.003 A 
ATOM      7  C6  UNL d   1       1.091  -4.184   3.883  0.00  0.00    -0.001 A 
ENDROOT
TORSDOF 0
ENDMDL
