MODEL 1
REMARK minimizedAffinity 0.360661924
REMARK minimizedRMSD -1
REMARK  0 active torsions:
REMARK  status: ('A' for Active; 'I' for Inactive)
ROOT
ATOM      1  C   UNL d   1       1.316  -1.259   2.394  0.00  0.00     0.078 C 
ATOM      2  C1  UNL d   1       2.039  -2.360   3.111  0.00  0.00    -0.077 A 
ATOM      3  C2  UNL d   1       1.865  -3.699   2.739  0.00  0.00    -0.001 A 
ATOM      4  C3  UNL d   1       2.537  -4.714   3.421  0.00  0.00     0.003 A 
ATOM      5  C4  UNL d   1       3.386  -4.402   4.481  0.00  0.00    -0.005 A 
ATOM      6  C5  UNL d   1       3.564  -3.072   4.860  0.00  0.00     0.003 A 
ATOM      7  C6  UNL d   1       2.893  -2.056   4.178  0.00  0.00    -0.001 A 
ENDROOT
TORSDOF 0
ENDMDL
