MODEL 1
REMARK minimizedAffinity -0.397849321
REMARK minimizedRMSD -1
REMARK  0 active torsions:
REMARK  status: ('A' for Active; 'I' for Inactive)
ROOT
ATOM      1  C   UNL d   1       1.938  -0.751   2.367  0.00  0.00     0.078 C 
ATOM      2  C1  UNL d   1       1.889  -1.900   3.329  0.00  0.00    -0.077 A 
ATOM      3  C2  UNL d   1       2.762  -1.963   4.422  0.00  0.00    -0.001 A 
ATOM      4  C3  UNL d   1       2.712  -3.044   5.304  0.00  0.00     0.003 A 
ATOM      5  C4  UNL d   1       1.792  -4.070   5.101  0.00  0.00    -0.005 A 
ATOM      6  C5  UNL d   1       0.921  -4.018   4.015  0.00  0.00     0.003 A 
ATOM      7  C6  UNL d   1       0.970  -2.938   3.132  0.00  0.00    -0.001 A 
ENDROOT
TORSDOF 0
ENDMDL
