MODEL 1
REMARK minimizedAffinity 6.37206459
REMARK minimizedRMSD -1
REMARK  0 active torsions:
REMARK  status: ('A' for Active; 'I' for Inactive)
ROOT
ATOM      1  C   UNL d   1      -3.378   0.608  -2.987  0.00  0.00     0.078 C 
ATOM      2  C1  UNL d   1      -4.029  -0.678  -2.574  0.00  0.00    -0.077 A 
ATOM      3  C2  UNL d   1      -3.311  -1.880  -2.566  0.00  0.00    -0.001 A 
ATOM      4  C3  UNL d   1      -3.933  -3.071  -2.189  0.00  0.00     0.003 A 
ATOM      5  C4  UNL d   1      -5.276  -3.072  -1.816  0.00  0.00    -0.005 A 
ATOM      6  C5  UNL d   1      -5.999  -1.882  -1.823  0.00  0.00     0.003 A 
ATOM      7  C6  UNL d   1      -5.379  -0.689  -2.200  0.00  0.00    -0.001 A 
ENDROOT
TORSDOF 0
ENDMDL
