MODEL 1
REMARK minimizedAffinity 6.44082975
REMARK minimizedRMSD -1
REMARK  0 active torsions:
REMARK  status: ('A' for Active; 'I' for Inactive)
ROOT
ATOM      1  C   UNL d   1       5.095  -2.559   4.933  0.00  0.00     0.078 C 
ATOM      2  C1  UNL d   1       3.817  -2.672   4.156  0.00  0.00    -0.077 A 
ATOM      3  C2  UNL d   1       3.254  -3.922   3.871  0.00  0.00    -0.001 A 
ATOM      4  C3  UNL d   1       2.069  -4.012   3.139  0.00  0.00     0.003 A 
ATOM      5  C4  UNL d   1       1.437  -2.856   2.685  0.00  0.00    -0.005 A 
ATOM      6  C5  UNL d   1       1.991  -1.608   2.962  0.00  0.00     0.003 A 
ATOM      7  C6  UNL d   1       3.176  -1.515   3.694  0.00  0.00    -0.001 A 
ENDROOT
TORSDOF 0
ENDMDL
