MODEL 1
REMARK minimizedAffinity -1.42255843
REMARK minimizedRMSD -1
REMARK  0 active torsions:
REMARK  status: ('A' for Active; 'I' for Inactive)
ROOT
ATOM      1  C   UNL d   1       5.653  -2.696   4.203  0.00  0.00     0.078 C 
ATOM      2  C1  UNL d   1       4.183  -2.873   3.967  0.00  0.00    -0.077 A 
ATOM      3  C2  UNL d   1       3.495  -3.973   4.493  0.00  0.00    -0.001 A 
ATOM      4  C3  UNL d   1       2.128  -4.129   4.257  0.00  0.00     0.003 A 
ATOM      5  C4  UNL d   1       1.438  -3.190   3.494  0.00  0.00    -0.005 A 
ATOM      6  C5  UNL d   1       2.115  -2.093   2.965  0.00  0.00     0.003 A 
ATOM      7  C6  UNL d   1       3.481  -1.935   3.200  0.00  0.00    -0.001 A 
ENDROOT
TORSDOF 0
ENDMDL
