MODEL 1
REMARK minimizedAffinity 7.05894375
REMARK minimizedRMSD -1
REMARK  0 active torsions:
REMARK  status: ('A' for Active; 'I' for Inactive)
ROOT
ATOM      1  C   UNL d   1       5.586  -5.848  -4.850  0.00  0.00     0.078 C 
ATOM      2  C1  UNL d   1       4.836  -5.893  -3.552  0.00  0.00    -0.077 A 
ATOM      3  C2  UNL d   1       5.515  -5.897  -2.327  0.00  0.00    -0.001 A 
ATOM      4  C3  UNL d   1       4.805  -5.949  -1.127  0.00  0.00     0.003 A 
ATOM      5  C4  UNL d   1       3.413  -5.998  -1.139  0.00  0.00    -0.005 A 
ATOM      6  C5  UNL d   1       2.728  -5.997  -2.353  0.00  0.00     0.003 A 
ATOM      7  C6  UNL d   1       3.437  -5.945  -3.555  0.00  0.00    -0.001 A 
ENDROOT
TORSDOF 0
ENDMDL
