MODEL 1
REMARK minimizedAffinity 4.03883457
REMARK minimizedRMSD -1
REMARK  0 active torsions:
REMARK  status: ('A' for Active; 'I' for Inactive)
ROOT
ATOM      1  C   UNL d   1       1.824  -1.712   2.987  0.00  0.00     0.078 C 
ATOM      2  C1  UNL d   1       2.218  -0.297   2.687  0.00  0.00    -0.077 A 
ATOM      3  C2  UNL d   1       2.785   0.048   1.454  0.00  0.00    -0.001 A 
ATOM      4  C3  UNL d   1       3.156   1.368   1.192  0.00  0.00     0.003 A 
ATOM      5  C4  UNL d   1       2.964   2.354   2.158  0.00  0.00    -0.005 A 
ATOM      6  C5  UNL d   1       2.402   2.020   3.388  0.00  0.00     0.003 A 
ATOM      7  C6  UNL d   1       2.031   0.700   3.652  0.00  0.00    -0.001 A 
ENDROOT
TORSDOF 0
ENDMDL
