MODEL 1
REMARK minimizedAffinity 15.4226952
REMARK minimizedRMSD -1
REMARK  0 active torsions:
REMARK  status: ('A' for Active; 'I' for Inactive)
ROOT
ATOM      1  N1  IND d   1      -5.084   5.010   1.689  0.00  0.00    -0.196 N 
ATOM      2  C2  IND d   1      -4.313   6.000   1.146  0.00  0.00     0.054 A 
ATOM      3  C3  IND d   1      -3.258   5.468   0.490  0.00  0.00    -0.031 A 
ATOM      4  C4  IND d   1      -2.657   2.997   0.090  0.00  0.00     0.051 A 
ATOM      5  C5  IND d   1      -3.041   1.728   0.422  0.00  0.00    -0.031 A 
ATOM      6  C6  IND d   1      -4.150   1.483   1.206  0.00  0.00     0.015 A 
ATOM      7  C7  IND d   1      -4.926   2.502   1.680  0.00  0.00    -0.016 A 
ATOM      8  C8  IND d   1      -4.535   3.792   1.352  0.00  0.00    -0.047 A 
ATOM      9  C9  IND d   1      -3.386   4.049   0.592  0.00  0.00    -0.096 A 
ATOM     10  HN1 IND d   1      -5.793   5.128   2.161  0.00  0.00     0.298 HD
ENDROOT
TORSDOF 0
ENDMDL
