MODEL 1
REMARK minimizedAffinity 13.4790497
REMARK minimizedRMSD -1
REMARK  0 active torsions:
REMARK  status: ('A' for Active; 'I' for Inactive)
ROOT
ATOM      1  N1  IND d   1       1.570   2.693   1.959  0.00  0.00    -0.196 N 
ATOM      2  C2  IND d   1       1.055   2.273   3.154  0.00  0.00     0.054 A 
ATOM      3  C3  IND d   1      -0.257   1.975   3.022  0.00  0.00    -0.031 A 
ATOM      4  C4  IND d   1      -1.738   2.005   0.917  0.00  0.00     0.051 A 
ATOM      5  C5  IND d   1      -1.724   2.353  -0.405  0.00  0.00    -0.031 A 
ATOM      6  C6  IND d   1      -0.588   2.839  -1.019  0.00  0.00     0.015 A 
ATOM      7  C7  IND d   1       0.585   2.985  -0.334  0.00  0.00    -0.016 A 
ATOM      8  C8  IND d   1       0.573   2.640   1.010  0.00  0.00    -0.047 A 
ATOM      9  C9  IND d   1      -0.588   2.186   1.649  0.00  0.00    -0.096 A 
ATOM     10  HN1 IND d   1       2.380   2.947   1.824  0.00  0.00     0.298 HD
ENDROOT
TORSDOF 0
ENDMDL
