MODEL 1
REMARK minimizedAffinity 22.2813721
REMARK minimizedRMSD -1
REMARK  0 active torsions:
REMARK  status: ('A' for Active; 'I' for Inactive)
ROOT
ATOM      1  N1  IND d   1      -5.675   2.600  -4.293  0.00  0.00    -0.196 N 
ATOM      2  C2  IND d   1      -5.452   1.258  -4.425  0.00  0.00     0.054 A 
ATOM      3  C3  IND d   1      -4.125   1.000  -4.426  0.00  0.00    -0.031 A 
ATOM      4  C4  IND d   1      -2.144   2.615  -4.119  0.00  0.00     0.051 A 
ATOM      5  C5  IND d   1      -1.845   3.943  -4.000  0.00  0.00    -0.031 A 
ATOM      6  C6  IND d   1      -2.828   4.911  -3.969  0.00  0.00     0.015 A 
ATOM      7  C7  IND d   1      -4.153   4.584  -4.045  0.00  0.00    -0.016 A 
ATOM      8  C8  IND d   1      -4.459   3.237  -4.173  0.00  0.00    -0.047 A 
ATOM      9  C9  IND d   1      -3.464   2.254  -4.248  0.00  0.00    -0.096 A 
ATOM     10  HN1 IND d   1      -6.445   2.982  -4.285  0.00  0.00     0.298 HD
ENDROOT
TORSDOF 0
ENDMDL
