MODEL 1
REMARK minimizedAffinity 10.0347509
REMARK minimizedRMSD -1
REMARK  0 active torsions:
REMARK  status: ('A' for Active; 'I' for Inactive)
ROOT
ATOM      1  N1  IND d   1      -4.756  -5.443   4.464  0.00  0.00    -0.196 N 
ATOM      2  C2  IND d   1      -5.987  -5.226   5.018  0.00  0.00     0.054 A 
ATOM      3  C3  IND d   1      -5.999  -4.054   5.693  0.00  0.00    -0.031 A 
ATOM      4  C4  IND d   1      -4.142  -2.288   5.936  0.00  0.00     0.051 A 
ATOM      5  C5  IND d   1      -2.828  -2.058   5.637  0.00  0.00    -0.031 A 
ATOM      6  C6  IND d   1      -2.076  -2.961   4.915  0.00  0.00     0.015 A 
ATOM      7  C7  IND d   1      -2.614  -4.129   4.453  0.00  0.00    -0.016 A 
ATOM      8  C8  IND d   1      -3.946  -4.369   4.761  0.00  0.00    -0.047 A 
ATOM      9  C9  IND d   1      -4.703  -3.475   5.530  0.00  0.00    -0.096 A 
ATOM     10  HN1 IND d   1      -4.527  -6.135   4.008  0.00  0.00     0.298 HD
ENDROOT
TORSDOF 0
ENDMDL
