MODEL 1
REMARK minimizedAffinity 7.34564066
REMARK minimizedRMSD -1
REMARK  0 active torsions:
REMARK  status: ('A' for Active; 'I' for Inactive)
ROOT
ATOM      1  N1  IND d   1      -2.115  -3.646   4.148  0.00  0.00    -0.196 N 
ATOM      2  C2  IND d   1      -1.599  -2.758   5.051  0.00  0.00     0.054 A 
ATOM      3  C3  IND d   1      -2.570  -2.313   5.880  0.00  0.00    -0.031 A 
ATOM      4  C4  IND d   1      -5.053  -2.984   6.000  0.00  0.00     0.051 A 
ATOM      5  C5  IND d   1      -5.998  -3.733   5.358  0.00  0.00    -0.031 A 
ATOM      6  C6  IND d   1      -5.691  -4.510   4.260  0.00  0.00     0.015 A 
ATOM      7  C7  IND d   1      -4.419  -4.575   3.767  0.00  0.00    -0.016 A 
ATOM      8  C8  IND d   1      -3.457  -3.809   4.412  0.00  0.00    -0.047 A 
ATOM      9  C9  IND d   1      -3.772  -2.986   5.501  0.00  0.00    -0.096 A 
ATOM     10  HN1 IND d   1      -1.675  -4.036   3.521  0.00  0.00     0.298 HD
ENDROOT
TORSDOF 0
ENDMDL
