MODEL 1
REMARK minimizedAffinity 14.2016582
REMARK minimizedRMSD -1
REMARK  0 active torsions:
REMARK  status: ('A' for Active; 'I' for Inactive)
ROOT
ATOM      1  N1  IND d   1      -2.999   2.374  -3.754  0.00  0.00    -0.196 N 
ATOM      2  C2  IND d   1      -4.002   1.813  -4.495  0.00  0.00     0.054 A 
ATOM      3  C3  IND d   1      -4.436   2.683  -5.434  0.00  0.00    -0.031 A 
ATOM      4  C4  IND d   1      -3.576   5.043  -6.000  0.00  0.00     0.051 A 
ATOM      5  C5  IND d   1      -2.698   6.000  -5.575  0.00  0.00    -0.031 A 
ATOM      6  C6  IND d   1      -1.857   5.792  -4.501  0.00  0.00     0.015 A 
ATOM      7  C7  IND d   1      -1.854   4.610  -3.817  0.00  0.00    -0.016 A 
ATOM      8  C8  IND d   1      -2.749   3.638  -4.241  0.00  0.00    -0.047 A 
ATOM      9  C9  IND d   1      -3.636   3.859  -5.303  0.00  0.00    -0.096 A 
ATOM     10  HN1 IND d   1      -2.593   2.000  -3.095  0.00  0.00     0.298 HD
ENDROOT
TORSDOF 0
ENDMDL
