MODEL 1
REMARK minimizedAffinity -0.242960304
REMARK minimizedRMSD -1
REMARK  0 active torsions:
REMARK  status: ('A' for Active; 'I' for Inactive)
ROOT
ATOM      1  N1  IND d   1      -5.253   3.024  -5.959  0.00  0.00    -0.196 N 
ATOM      2  C2  IND d   1      -5.138   1.839  -5.286  0.00  0.00     0.054 A 
ATOM      3  C3  IND d   1      -4.103   1.890  -4.418  0.00  0.00    -0.031 A 
ATOM      4  C4  IND d   1      -2.527   3.848  -3.864  0.00  0.00     0.051 A 
ATOM      5  C5  IND d   1      -2.217   5.123  -4.246  0.00  0.00    -0.031 A 
ATOM      6  C6  IND d   1      -2.920   5.778  -5.237  0.00  0.00     0.015 A 
ATOM      7  C7  IND d   1      -3.970   5.183  -5.878  0.00  0.00    -0.016 A 
ATOM      8  C8  IND d   1      -4.282   3.886  -5.497  0.00  0.00    -0.047 A 
ATOM      9  C9  IND d   1      -3.546   3.201  -4.522  0.00  0.00    -0.096 A 
ATOM     10  HN1 IND d   1      -5.833   3.201  -6.568  0.00  0.00     0.298 HD
ENDROOT
TORSDOF 0
ENDMDL
