MODEL 1
REMARK minimizedAffinity 2.77796769
REMARK minimizedRMSD -1
REMARK  0 active torsions:
REMARK  status: ('A' for Active; 'I' for Inactive)
ROOT
ATOM      1  N1  IND d   1      -3.758   1.874  -4.586  0.00  0.00    -0.196 N 
ATOM      2  C2  IND d   1      -4.877   1.750  -5.361  0.00  0.00     0.054 A 
ATOM      3  C3  IND d   1      -5.137   2.912  -6.000  0.00  0.00    -0.031 A 
ATOM      4  C4  IND d   1      -3.803   5.114  -6.000  0.00  0.00     0.051 A 
ATOM      5  C5  IND d   1      -2.728   5.722  -5.414  0.00  0.00    -0.031 A 
ATOM      6  C6  IND d   1      -1.923   5.064  -4.507  0.00  0.00     0.015 A 
ATOM      7  C7  IND d   1      -2.158   3.764  -4.158  0.00  0.00    -0.016 A 
ATOM      8  C8  IND d   1      -3.253   3.146  -4.744  0.00  0.00    -0.047 A 
ATOM      9  C9  IND d   1      -4.098   3.822  -5.634  0.00  0.00    -0.096 A 
ATOM     10  HN1 IND d   1      -3.425   1.261  -4.083  0.00  0.00     0.298 HD
ENDROOT
TORSDOF 0
ENDMDL
