MODEL 1
REMARK minimizedAffinity 1.14610887
REMARK minimizedRMSD -1
REMARK  0 active torsions:
REMARK  status: ('A' for Active; 'I' for Inactive)
ROOT
ATOM      1  N1  IND d   1      -0.269   2.115   0.681  0.00  0.00    -0.196 N 
ATOM      2  C2  IND d   1       0.261   3.239   1.252  0.00  0.00     0.054 A 
ATOM      3  C3  IND d   1       0.187   4.281   0.395  0.00  0.00    -0.031 A 
ATOM      4  C4  IND d   1      -0.853   4.394  -1.957  0.00  0.00     0.051 A 
ATOM      5  C5  IND d   1      -1.427   3.612  -2.920  0.00  0.00    -0.031 A 
ATOM      6  C6  IND d   1      -1.651   2.265  -2.727  0.00  0.00     0.015 A 
ATOM      7  C7  IND d   1      -1.319   1.648  -1.554  0.00  0.00    -0.016 A 
ATOM      8  C8  IND d   1      -0.729   2.438  -0.576  0.00  0.00    -0.047 A 
ATOM      9  C9  IND d   1      -0.461   3.797  -0.783  0.00  0.00    -0.096 A 
ATOM     10  HN1 IND d   1      -0.307   1.337   1.046  0.00  0.00     0.298 HD
ENDROOT
TORSDOF 0
ENDMDL
