MODEL 1
REMARK minimizedAffinity 23.4436054
REMARK minimizedRMSD -1
REMARK  0 active torsions:
REMARK  status: ('A' for Active; 'I' for Inactive)
ROOT
ATOM      1  N1  IND d   1       0.797  -5.029  -2.117  0.00  0.00    -0.196 N 
ATOM      2  C2  IND d   1       1.728  -5.993  -2.386  0.00  0.00     0.054 A 
ATOM      3  C3  IND d   1       2.902  -5.693  -1.787  0.00  0.00    -0.031 A 
ATOM      4  C4  IND d   1       3.491  -3.724  -0.237  0.00  0.00     0.051 A 
ATOM      5  C5  IND d   1       2.980  -2.565   0.274  0.00  0.00    -0.031 A 
ATOM      6  C6  IND d   1       1.687  -2.160   0.011  0.00  0.00     0.015 A 
ATOM      7  C7  IND d   1       0.850  -2.910  -0.767  0.00  0.00    -0.016 A 
ATOM      8  C8  IND d   1       1.369  -4.084  -1.293  0.00  0.00    -0.047 A 
ATOM      9  C9  IND d   1       2.694  -4.479  -1.064  0.00  0.00    -0.096 A 
ATOM     10  HN1 IND d   1      -0.011  -5.015  -2.412  0.00  0.00     0.298 HD
ENDROOT
TORSDOF 0
ENDMDL
