MODEL 1
REMARK minimizedAffinity 17.7122841
REMARK minimizedRMSD -1
REMARK  0 active torsions:
REMARK  status: ('A' for Active; 'I' for Inactive)
ROOT
ATOM      1  N1  IND d   1      -2.021   1.104   3.617  0.00  0.00    -0.196 N 
ATOM      2  C2  IND d   1      -2.932   1.266   2.611  0.00  0.00     0.054 A 
ATOM      3  C3  IND d   1      -2.412   2.031   1.625  0.00  0.00    -0.031 A 
ATOM      4  C4  IND d   1      -0.053   3.038   1.407  0.00  0.00     0.051 A 
ATOM      5  C5  IND d   1       1.120   3.191   2.091  0.00  0.00    -0.031 A 
ATOM      6  C6  IND d   1       1.311   2.643   3.343  0.00  0.00     0.015 A 
ATOM      7  C7  IND d   1       0.335   1.908   3.956  0.00  0.00    -0.016 A 
ATOM      8  C8  IND d   1      -0.860   1.757   3.267  0.00  0.00    -0.047 A 
ATOM      9  C9  IND d   1      -1.074   2.346   2.014  0.00  0.00    -0.096 A 
ATOM     10  HN1 IND d   1      -2.151   0.667   4.346  0.00  0.00     0.298 HD
ENDROOT
TORSDOF 0
ENDMDL
