MODEL 1
REMARK minimizedAffinity 26.5204353
REMARK minimizedRMSD -1
REMARK  0 active torsions:
REMARK  status: ('A' for Active; 'I' for Inactive)
ROOT
ATOM      1  N1  IND d   1      -6.000   2.065  -4.369  0.00  0.00    -0.196 N 
ATOM      2  C2  IND d   1      -5.880   0.760  -4.761  0.00  0.00     0.054 A 
ATOM      3  C3  IND d   1      -4.583   0.381  -4.745  0.00  0.00    -0.031 A 
ATOM      4  C4  IND d   1      -2.501   1.706  -4.012  0.00  0.00     0.051 A 
ATOM      5  C5  IND d   1      -2.102   2.950  -3.608  0.00  0.00    -0.031 A 
ATOM      6  C6  IND d   1      -3.001   3.982  -3.431  0.00  0.00     0.015 A 
ATOM      7  C7  IND d   1      -4.339   3.805  -3.642  0.00  0.00    -0.016 A 
ATOM      8  C8  IND d   1      -4.747   2.545  -4.058  0.00  0.00    -0.047 A 
ATOM      9  C9  IND d   1      -3.834   1.506  -4.280  0.00  0.00    -0.096 A 
ATOM     10  HN1 IND d   1      -6.734   2.510  -4.324  0.00  0.00     0.298 HD
ENDROOT
TORSDOF 0
ENDMDL
