MODEL 1
REMARK minimizedAffinity 2.69037223
REMARK minimizedRMSD -1
REMARK  0 active torsions:
REMARK  status: ('A' for Active; 'I' for Inactive)
ROOT
ATOM      1  N1  IND d   1      -5.953  -4.042  -0.331  0.00  0.00    -0.196 N 
ATOM      2  C2  IND d   1      -5.951  -2.676  -0.383  0.00  0.00     0.054 A 
ATOM      3  C3  IND d   1      -5.978  -2.157   0.865  0.00  0.00    -0.031 A 
ATOM      4  C4  IND d   1      -5.927  -3.364   3.139  0.00  0.00     0.051 A 
ATOM      5  C5  IND d   1      -5.962  -4.611   3.698  0.00  0.00    -0.031 A 
ATOM      6  C6  IND d   1      -5.994  -5.755   2.927  0.00  0.00     0.015 A 
ATOM      7  C7  IND d   1      -5.980  -5.694   1.562  0.00  0.00    -0.016 A 
ATOM      8  C8  IND d   1      -5.952  -4.430   0.991  0.00  0.00    -0.047 A 
ATOM      9  C9  IND d   1      -5.962  -3.264   1.768  0.00  0.00    -0.096 A 
ATOM     10  HN1 IND d   1      -5.954  -4.570  -1.009  0.00  0.00     0.298 HD
ENDROOT
TORSDOF 0
ENDMDL
