MODEL 1
REMARK minimizedAffinity 18.9952374
REMARK minimizedRMSD -1
REMARK  0 active torsions:
REMARK  status: ('A' for Active; 'I' for Inactive)
ROOT
ATOM      1  N1  IND d   1      -2.352   1.771  -2.384  0.00  0.00    -0.196 N 
ATOM      2  C2  IND d   1      -1.820   2.221  -3.560  0.00  0.00     0.054 A 
ATOM      3  C3  IND d   1      -0.588   2.738  -3.353  0.00  0.00    -0.031 A 
ATOM      4  C4  IND d   1       0.792   2.854  -1.183  0.00  0.00     0.051 A 
ATOM      5  C5  IND d   1       0.714   2.602   0.158  0.00  0.00    -0.031 A 
ATOM      6  C6  IND d   1      -0.412   2.047   0.732  0.00  0.00     0.015 A 
ATOM      7  C7  IND d   1      -1.502   1.710  -0.020  0.00  0.00    -0.016 A 
ATOM      8  C8  IND d   1      -1.429   1.971  -1.381  0.00  0.00    -0.047 A 
ATOM      9  C9  IND d   1      -0.306   2.574  -1.962  0.00  0.00    -0.096 A 
ATOM     10  HN1 IND d   1      -3.131   1.421  -2.287  0.00  0.00     0.298 HD
ENDROOT
TORSDOF 0
ENDMDL
