MODEL 1
REMARK minimizedAffinity 16.9307079
REMARK minimizedRMSD -1
REMARK  0 active torsions:
REMARK  status: ('A' for Active; 'I' for Inactive)
ROOT
ATOM      1  N1  IND d   1      -2.357  -4.145   4.139  0.00  0.00    -0.196 N 
ATOM      2  C2  IND d   1      -1.661  -3.056   4.587  0.00  0.00     0.054 A 
ATOM      3  C3  IND d   1      -2.465  -2.253   5.319  0.00  0.00    -0.031 A 
ATOM      4  C4  IND d   1      -4.928  -2.579   5.994  0.00  0.00     0.051 A 
ATOM      5  C5  IND d   1      -5.999  -3.403   5.793  0.00  0.00    -0.031 A 
ATOM      6  C6  IND d   1      -5.909  -4.541   5.018  0.00  0.00     0.015 A 
ATOM      7  C7  IND d   1      -4.735  -4.905   4.421  0.00  0.00    -0.016 A 
ATOM      8  C8  IND d   1      -3.647  -4.067   4.616  0.00  0.00    -0.047 A 
ATOM      9  C9  IND d   1      -3.744  -2.888   5.367  0.00  0.00    -0.096 A 
ATOM     10  HN1 IND d   1      -2.042  -4.772   3.643  0.00  0.00     0.298 HD
ENDROOT
TORSDOF 0
ENDMDL
