MODEL 1
REMARK minimizedAffinity 19.9729862
REMARK minimizedRMSD -1
REMARK  0 active torsions:
REMARK  status: ('A' for Active; 'I' for Inactive)
ROOT
ATOM      1  N1  IND d   1       0.420   2.219  -0.238  0.00  0.00    -0.196 N 
ATOM      2  C2  IND d   1       0.767   3.301  -0.997  0.00  0.00     0.054 A 
ATOM      3  C3  IND d   1      -0.262   4.176  -1.066  0.00  0.00    -0.031 A 
ATOM      4  C4  IND d   1      -2.569   4.081   0.073  0.00  0.00     0.051 A 
ATOM      5  C5  IND d   1      -3.361   3.270   0.836  0.00  0.00    -0.031 A 
ATOM      6  C6  IND d   1      -2.923   2.043   1.291  0.00  0.00     0.015 A 
ATOM      7  C7  IND d   1      -1.668   1.585   1.009  0.00  0.00    -0.016 A 
ATOM      8  C8  IND d   1      -0.863   2.403   0.228  0.00  0.00    -0.047 A 
ATOM      9  C9  IND d   1      -1.317   3.630  -0.272  0.00  0.00    -0.096 A 
ATOM     10  HN1 IND d   1       0.919   1.537  -0.079  0.00  0.00     0.298 HD
ENDROOT
TORSDOF 0
ENDMDL
