MODEL 1
REMARK minimizedAffinity -1.14185977
REMARK minimizedRMSD -1
REMARK  1 active torsions:
REMARK  status: ('A' for Active; 'I' for Inactive)
REMARK    1  A    between atoms: C1_2  and  C2_3 
ROOT
ATOM      1  C2  UNL d   1       0.117  -0.136   2.518  0.00  0.00    -0.081 A 
ATOM      2  C3  UNL d   1      -0.662   1.018   2.668  0.00  0.00     0.006 A 
ATOM      3  C4  UNL d   1      -1.158   1.688   1.548  0.00  0.00     0.002 A 
ATOM      4  C5  UNL d   1      -0.891   1.212   0.260  0.00  0.00    -0.080 A 
ATOM      5  C6  UNL d   1      -1.443   1.905  -0.951  0.00  0.00     0.076 C 
ATOM      6  C7  UNL d   1      -0.098   0.069   0.109  0.00  0.00     0.002 A 
ATOM      7  C8  UNL d   1       0.399  -0.601   1.229  0.00  0.00     0.006 A 
ENDROOT
BRANCH   1   8
ATOM      8  C1  UNL d   1       0.600  -0.897   3.726  0.00  0.00     0.054 C 
ATOM      9  C   UNL d   1      -0.559  -1.535   4.478  0.00  0.00     0.018 C 
ENDBRANCH   1   8
TORSDOF 1
ENDMDL
