MODEL 1
REMARK minimizedAffinity -5.42712069
REMARK minimizedRMSD -1
REMARK  1 active torsions:
REMARK  status: ('A' for Active; 'I' for Inactive)
REMARK    1  A    between atoms: C1_2  and  C2_3 
ROOT
ATOM      1  C2  UNL d   1      -0.744   1.064  -0.341  0.00  0.00    -0.081 A 
ATOM      2  C3  UNL d   1      -1.148  -0.276  -0.312  0.00  0.00     0.006 A 
ATOM      3  C4  UNL d   1      -0.256  -1.294  -0.657  0.00  0.00     0.002 A 
ATOM      4  C5  UNL d   1       1.058  -0.989  -1.029  0.00  0.00    -0.080 A 
ATOM      5  C6  UNL d   1       2.035  -2.074  -1.372  0.00  0.00     0.076 C 
ATOM      6  C7  UNL d   1       1.458   0.351  -1.076  0.00  0.00     0.002 A 
ATOM      7  C8  UNL d   1       0.565   1.368  -0.732  0.00  0.00     0.006 A 
ENDROOT
BRANCH   1   8
ATOM      8  C1  UNL d   1      -1.685   2.159   0.092  0.00  0.00     0.054 C 
ATOM      9  C   UNL d   1      -1.595   2.403   1.592  0.00  0.00     0.018 C 
ENDBRANCH   1   8
TORSDOF 1
ENDMDL
