MODEL 1
REMARK minimizedAffinity -2.48367357
REMARK minimizedRMSD -1
REMARK  1 active torsions:
REMARK  status: ('A' for Active; 'I' for Inactive)
REMARK    1  A    between atoms: C1_2  and  C2_3 
ROOT
ATOM      1  C2  UNL d   1       0.049  -1.500  -0.352  0.00  0.00    -0.081 A 
ATOM      2  C3  UNL d   1      -1.000  -0.606  -0.598  0.00  0.00     0.006 A 
ATOM      3  C4  UNL d   1      -1.223   0.478   0.255  0.00  0.00     0.002 A 
ATOM      4  C5  UNL d   1      -0.396   0.690   1.363  0.00  0.00    -0.080 A 
ATOM      5  C6  UNL d   1      -0.605   1.866   2.270  0.00  0.00     0.076 C 
ATOM      6  C7  UNL d   1       0.641  -0.213   1.620  0.00  0.00     0.002 A 
ATOM      7  C8  UNL d   1       0.864  -1.297   0.768  0.00  0.00     0.006 A 
ENDROOT
BRANCH   1   8
ATOM      8  C1  UNL d   1       0.331  -2.632  -1.306  0.00  0.00     0.054 C 
ATOM      9  C   UNL d   1      -0.767  -2.762  -2.351  0.00  0.00     0.018 C 
ENDBRANCH   1   8
TORSDOF 1
ENDMDL
