MODEL 1
REMARK minimizedAffinity -2.86391449
REMARK minimizedRMSD -1
REMARK  1 active torsions:
REMARK  status: ('A' for Active; 'I' for Inactive)
REMARK    1  A    between atoms: C1_2  and  C2_3 
ROOT
ATOM      1  C2  UNL d   1       0.801  -1.013  -0.269  0.00  0.00    -0.081 A 
ATOM      2  C3  UNL d   1       0.394  -1.289   1.042  0.00  0.00     0.006 A 
ATOM      3  C4  UNL d   1      -0.320  -0.340   1.777  0.00  0.00     0.002 A 
ATOM      4  C5  UNL d   1      -0.645   0.898   1.211  0.00  0.00    -0.080 A 
ATOM      5  C6  UNL d   1      -1.438   1.914   1.978  0.00  0.00     0.076 C 
ATOM      6  C7  UNL d   1      -0.223   1.180  -0.093  0.00  0.00     0.002 A 
ATOM      7  C8  UNL d   1       0.491   0.232  -0.828  0.00  0.00     0.006 A 
ENDROOT
BRANCH   1   8
ATOM      8  C1  UNL d   1       1.515  -2.059  -1.086  0.00  0.00     0.054 C 
ATOM      9  C   UNL d   1       0.587  -2.683  -2.119  0.00  0.00     0.018 C 
ENDBRANCH   1   8
TORSDOF 1
ENDMDL
