MODEL 1
REMARK minimizedAffinity -3.79834795
REMARK minimizedRMSD -1
REMARK  1 active torsions:
REMARK  status: ('A' for Active; 'I' for Inactive)
REMARK    1  A    between atoms: C1_2  and  C2_3 
ROOT
ATOM      1  C2  UNL d   1       0.209  -0.453  -0.056  0.00  0.00    -0.081 A 
ATOM      2  C3  UNL d   1      -0.217  -0.487   1.277  0.00  0.00     0.006 A 
ATOM      3  C4  UNL d   1      -0.976   0.559   1.806  0.00  0.00     0.002 A 
ATOM      4  C5  UNL d   1      -1.329   1.653   1.008  0.00  0.00    -0.080 A 
ATOM      5  C6  UNL d   1      -2.169   2.769   1.554  0.00  0.00     0.076 C 
ATOM      6  C7  UNL d   1      -0.889   1.696  -0.319  0.00  0.00     0.002 A 
ATOM      7  C8  UNL d   1      -0.129   0.650  -0.848  0.00  0.00     0.006 A 
ENDROOT
BRANCH   1   8
ATOM      8  C1  UNL d   1       0.972  -1.610  -0.647  0.00  0.00     0.054 C 
ATOM      9  C   UNL d   1       0.106  -2.413  -1.607  0.00  0.00     0.018 C 
ENDBRANCH   1   8
TORSDOF 1
ENDMDL
