MODEL 1
REMARK minimizedAffinity -4.44438124
REMARK minimizedRMSD -1
REMARK  1 active torsions:
REMARK  status: ('A' for Active; 'I' for Inactive)
REMARK    1  A    between atoms: C1_2  and  C2_3 
ROOT
ATOM      1  C2  UNL d   1      -0.586   0.737   1.426  0.00  0.00    -0.081 A 
ATOM      2  C3  UNL d   1      -0.365   1.031   0.075  0.00  0.00     0.006 A 
ATOM      3  C4  UNL d   1       0.499   0.242  -0.689  0.00  0.00     0.002 A 
ATOM      4  C5  UNL d   1       1.150  -0.857  -0.117  0.00  0.00    -0.080 A 
ATOM      5  C6  UNL d   1       2.056  -1.729  -0.933  0.00  0.00     0.076 C 
ATOM      6  C7  UNL d   1       0.942  -1.139   1.238  0.00  0.00     0.002 A 
ATOM      7  C8  UNL d   1       0.079  -0.351   2.002  0.00  0.00     0.006 A 
ENDROOT
BRANCH   1   8
ATOM      8  C1  UNL d   1      -1.567   1.546   2.235  0.00  0.00     0.054 C 
ATOM      9  C   UNL d   1      -2.877   1.741   1.484  0.00  0.00     0.018 C 
ENDBRANCH   1   8
TORSDOF 1
ENDMDL
