MODEL 1
REMARK minimizedAffinity -3.60621858
REMARK minimizedRMSD -1
REMARK  1 active torsions:
REMARK  status: ('A' for Active; 'I' for Inactive)
REMARK    1  A    between atoms: C1_2  and  C2_3 
ROOT
ATOM      1  C2  UNL d   1       0.285  -0.059  -0.066  0.00  0.00    -0.081 A 
ATOM      2  C3  UNL d   1      -0.585   0.678  -0.879  0.00  0.00     0.006 A 
ATOM      3  C4  UNL d   1      -1.569   1.489  -0.310  0.00  0.00     0.002 A 
ATOM      4  C5  UNL d   1      -1.696   1.583   1.080  0.00  0.00    -0.080 A 
ATOM      5  C6  UNL d   1      -2.728   2.474   1.704  0.00  0.00     0.076 C 
ATOM      6  C7  UNL d   1      -0.838   0.833   1.892  0.00  0.00     0.002 A 
ATOM      7  C8  UNL d   1       0.146   0.021   1.324  0.00  0.00     0.006 A 
ENDROOT
BRANCH   1   8
ATOM      8  C1  UNL d   1       1.389  -0.885  -0.676  0.00  0.00     0.054 C 
ATOM      9  C   UNL d   1       2.359  -0.016  -1.463  0.00  0.00     0.018 C 
ENDBRANCH   1   8
TORSDOF 1
ENDMDL
