MODEL 1
REMARK minimizedAffinity -4.10059404
REMARK minimizedRMSD -1
REMARK  1 active torsions:
REMARK  status: ('A' for Active; 'I' for Inactive)
REMARK    1  A    between atoms: C1_2  and  C2_3 
ROOT
ATOM      1  C2  UNL d   1       0.244  -1.237  -0.729  0.00  0.00    -0.081 A 
ATOM      2  C3  UNL d   1      -0.548  -1.562   0.379  0.00  0.00     0.006 A 
ATOM      3  C4  UNL d   1      -0.956  -0.569   1.273  0.00  0.00     0.002 A 
ATOM      4  C5  UNL d   1      -0.585   0.765   1.070  0.00  0.00    -0.080 A 
ATOM      5  C6  UNL d   1      -1.041   1.844   2.006  0.00  0.00     0.076 C 
ATOM      6  C7  UNL d   1       0.221   1.086  -0.027  0.00  0.00     0.002 A 
ATOM      7  C8  UNL d   1       0.629   0.094  -0.921  0.00  0.00     0.006 A 
ENDROOT
BRANCH   1   8
ATOM      8  C1  UNL d   1       0.631  -2.295  -1.731  0.00  0.00     0.054 C 
ATOM      9  C   UNL d   1      -0.368  -3.443  -1.737  0.00  0.00     0.018 C 
ENDBRANCH   1   8
TORSDOF 1
ENDMDL
