MODEL 1
REMARK minimizedAffinity -4.0970788
REMARK minimizedRMSD -1
REMARK  1 active torsions:
REMARK  status: ('A' for Active; 'I' for Inactive)
REMARK    1  A    between atoms: C1_2  and  C2_3 
ROOT
ATOM      1  C2  UNL d   1       0.482  -0.890  -0.115  0.00  0.00    -0.081 A 
ATOM      2  C3  UNL d   1      -0.166  -1.243   1.075  0.00  0.00     0.006 A 
ATOM      3  C4  UNL d   1      -0.923  -0.300   1.775  0.00  0.00     0.002 A 
ATOM      4  C5  UNL d   1      -1.051   1.007   1.294  0.00  0.00    -0.080 A 
ATOM      5  C6  UNL d   1      -1.885   2.020   2.019  0.00  0.00     0.076 C 
ATOM      6  C7  UNL d   1      -0.389   1.364   0.114  0.00  0.00     0.002 A 
ATOM      7  C8  UNL d   1       0.369   0.423  -0.586  0.00  0.00     0.006 A 
ENDROOT
BRANCH   1   8
ATOM      8  C1  UNL d   1       1.246  -1.921  -0.906  0.00  0.00     0.054 C 
ATOM      9  C   UNL d   1       0.410  -2.468  -2.055  0.00  0.00     0.018 C 
ENDBRANCH   1   8
TORSDOF 1
ENDMDL
