MODEL 1
REMARK minimizedAffinity 7.81843805
REMARK minimizedRMSD -1
REMARK  0 active torsions:
REMARK  status: ('A' for Active; 'I' for Inactive)
ROOT
ATOM      1  C2' OXE d   1       0.866  -1.063   0.966  0.00  0.00     0.078 C 
ATOM      2  C1' OXE d   1       3.167   0.289   0.095  0.00  0.00     0.078 C 
ATOM      3  C1  OXE d   1       3.324  -1.134   0.569  0.00  0.00    -0.078 A 
ATOM      4  C2  OXE d   1       2.200  -1.772   1.037  0.00  0.00    -0.078 A 
ATOM      5  C3  OXE d   1       2.279  -3.104   1.435  0.00  0.00     0.003 A 
ATOM      6  C4  OXE d   1       3.520  -3.750   1.508  0.00  0.00    -0.002 A 
ATOM      7  C5  OXE d   1       4.682  -3.105   1.073  0.00  0.00    -0.002 A 
ATOM      8  C6  OXE d   1       4.595  -1.814   0.562  0.00  0.00     0.003 A 
ENDROOT
TORSDOF 0
ENDMDL
