MODEL 1
REMARK minimizedAffinity -3.72403693
REMARK minimizedRMSD -1
REMARK  0 active torsions:
REMARK  status: ('A' for Active; 'I' for Inactive)
ROOT
ATOM      1  C2' OXE d   1       3.246   5.306   4.367  0.00  0.00     0.078 C 
ATOM      2  C1' OXE d   1       1.538   4.003   2.560  0.00  0.00     0.078 C 
ATOM      3  C1  OXE d   1       0.912   4.700   3.742  0.00  0.00    -0.078 A 
ATOM      4  C2  OXE d   1       1.758   5.295   4.646  0.00  0.00    -0.078 A 
ATOM      5  C3  OXE d   1       1.230   5.997   5.726  0.00  0.00     0.003 A 
ATOM      6  C4  OXE d   1      -0.146   5.973   5.982  0.00  0.00    -0.002 A 
ATOM      7  C5  OXE d   1      -1.023   5.340   5.095  0.00  0.00    -0.002 A 
ATOM      8  C6  OXE d   1      -0.515   4.736   3.950  0.00  0.00     0.003 A 
ENDROOT
TORSDOF 0
ENDMDL
