MODEL 1
REMARK minimizedAffinity 9.62604046
REMARK minimizedRMSD -1
REMARK  0 active torsions:
REMARK  status: ('A' for Active; 'I' for Inactive)
ROOT
ATOM      1  C2' OXE d   1       2.845   4.045   2.788  0.00  0.00     0.078 C 
ATOM      2  C1' OXE d   1       5.649   4.015   2.668  0.00  0.00     0.078 C 
ATOM      3  C1  OXE d   1       5.003   4.705   3.842  0.00  0.00    -0.078 A 
ATOM      4  C2  OXE d   1       3.630   4.756   3.869  0.00  0.00    -0.078 A 
ATOM      5  C3  OXE d   1       2.982   5.333   4.957  0.00  0.00     0.003 A 
ATOM      6  C4  OXE d   1       3.715   5.997   5.948  0.00  0.00    -0.002 A 
ATOM      7  C5  OXE d   1       5.114   5.992   5.920  0.00  0.00    -0.002 A 
ATOM      8  C6  OXE d   1       5.772   5.316   4.899  0.00  0.00     0.003 A 
ENDROOT
TORSDOF 0
ENDMDL
