MODEL 1
REMARK minimizedAffinity 10.4157753
REMARK minimizedRMSD -1
REMARK  0 active torsions:
REMARK  status: ('A' for Active; 'I' for Inactive)
ROOT
ATOM      1  C2' OXE d   1       1.689  -1.602   3.059  0.00  0.00     0.078 C 
ATOM      2  C1' OXE d   1      -0.582  -2.868   2.000  0.00  0.00     0.078 C 
ATOM      3  C1  OXE d   1       0.762  -3.236   1.423  0.00  0.00    -0.078 A 
ATOM      4  C2  OXE d   1       1.863  -2.577   1.915  0.00  0.00    -0.078 A 
ATOM      5  C3  OXE d   1       3.132  -2.917   1.455  0.00  0.00     0.003 A 
ATOM      6  C4  OXE d   1       3.284  -3.813   0.390  0.00  0.00    -0.002 A 
ATOM      7  C5  OXE d   1       2.172  -4.465  -0.153  0.00  0.00    -0.002 A 
ATOM      8  C6  OXE d   1       0.911  -4.220   0.379  0.00  0.00     0.003 A 
ENDROOT
TORSDOF 0
ENDMDL
