MODEL 1
REMARK minimizedAffinity 9.37770081
REMARK minimizedRMSD -1
REMARK  0 active torsions:
REMARK  status: ('A' for Active; 'I' for Inactive)
ROOT
ATOM      1  C2' OXE d   1       2.191   4.675   5.998  0.00  0.00     0.078 C 
ATOM      2  C1' OXE d   1       2.396   3.993   3.282  0.00  0.00     0.078 C 
ATOM      3  C1  OXE d   1       3.638   4.491   3.978  0.00  0.00    -0.078 A 
ATOM      4  C2  OXE d   1       3.518   4.867   5.294  0.00  0.00    -0.078 A 
ATOM      5  C3  OXE d   1       4.644   5.282   5.999  0.00  0.00     0.003 A 
ATOM      6  C4  OXE d   1       5.865   5.466   5.338  0.00  0.00    -0.002 A 
ATOM      7  C5  OXE d   1       6.000   5.127   3.988  0.00  0.00    -0.002 A 
ATOM      8  C6  OXE d   1       4.909   4.599   3.305  0.00  0.00     0.003 A 
ENDROOT
TORSDOF 0
ENDMDL
