MODEL 1
REMARK minimizedAffinity 15.0560398
REMARK minimizedRMSD -1
REMARK  0 active torsions:
REMARK  status: ('A' for Active; 'I' for Inactive)
ROOT
ATOM      1  C2' OXE d   1      -2.971   1.345  -1.514  0.00  0.00     0.078 C 
ATOM      2  C1' OXE d   1      -1.597  -1.049  -2.024  0.00  0.00     0.078 C 
ATOM      3  C1  OXE d   1      -3.031  -0.951  -2.479  0.00  0.00    -0.078 A 
ATOM      4  C2  OXE d   1      -3.711   0.207  -2.184  0.00  0.00    -0.078 A 
ATOM      5  C3  OXE d   1      -5.019   0.371  -2.629  0.00  0.00     0.003 A 
ATOM      6  C4  OXE d   1      -5.699  -0.691  -3.238  0.00  0.00    -0.002 A 
ATOM      7  C5  OXE d   1      -5.038  -1.893  -3.513  0.00  0.00    -0.002 A 
ATOM      8  C6  OXE d   1      -3.695  -2.023  -3.179  0.00  0.00     0.003 A 
ENDROOT
TORSDOF 0
ENDMDL
