MODEL 1
REMARK minimizedAffinity 14.7867022
REMARK minimizedRMSD -1
REMARK  0 active torsions:
REMARK  status: ('A' for Active; 'I' for Inactive)
ROOT
ATOM      1  C2' OXE d   1      -3.556   5.823  -4.752  0.00  0.00     0.078 C 
ATOM      2  C1' OXE d   1      -6.000   5.230  -6.000  0.00  0.00     0.078 C 
ATOM      3  C1  OXE d   1      -5.222   4.087  -5.398  0.00  0.00    -0.078 A 
ATOM      4  C2  OXE d   1      -4.005   4.380  -4.831  0.00  0.00    -0.078 A 
ATOM      5  C3  OXE d   1      -3.272   3.371  -4.212  0.00  0.00     0.003 A 
ATOM      6  C4  OXE d   1      -3.689   2.037  -4.298  0.00  0.00    -0.002 A 
ATOM      7  C5  OXE d   1      -4.907   1.712  -4.906  0.00  0.00    -0.002 A 
ATOM      8  C6  OXE d   1      -5.703   2.728  -5.422  0.00  0.00     0.003 A 
ENDROOT
TORSDOF 0
ENDMDL
