MODEL 1
REMARK minimizedAffinity 3.98607159
REMARK minimizedRMSD -1
REMARK  0 active torsions:
REMARK  status: ('A' for Active; 'I' for Inactive)
ROOT
ATOM      1  C2' OXE d   1       0.402   3.854   3.419  0.00  0.00     0.078 C 
ATOM      2  C1' OXE d   1      -0.176   5.125   5.854  0.00  0.00     0.078 C 
ATOM      3  C1  OXE d   1       1.229   5.237   5.318  0.00  0.00    -0.078 A 
ATOM      4  C2  OXE d   1       1.515   4.573   4.150  0.00  0.00    -0.078 A 
ATOM      5  C3  OXE d   1       2.781   4.689   3.583  0.00  0.00     0.003 A 
ATOM      6  C4  OXE d   1       3.808   5.347   4.271  0.00  0.00    -0.002 A 
ATOM      7  C5  OXE d   1       3.548   5.997   5.482  0.00  0.00    -0.002 A 
ATOM      8  C6  OXE d   1       2.257   5.987   5.997  0.00  0.00     0.003 A 
ENDROOT
TORSDOF 0
ENDMDL
