MODEL 1
REMARK minimizedAffinity 11.4633093
REMARK minimizedRMSD -1
REMARK  0 active torsions:
REMARK  status: ('A' for Active; 'I' for Inactive)
ROOT
ATOM      1  C2' OXE d   1       1.402   3.526  -5.669  0.00  0.00     0.078 C 
ATOM      2  C1' OXE d   1       1.016   0.777  -5.250  0.00  0.00     0.078 C 
ATOM      3  C1  OXE d   1      -0.073   1.718  -4.798  0.00  0.00    -0.078 A 
ATOM      4  C2  OXE d   1       0.145   3.064  -4.964  0.00  0.00    -0.078 A 
ATOM      5  C3  OXE d   1      -0.851   3.972  -4.615  0.00  0.00     0.003 A 
ATOM      6  C4  OXE d   1      -2.006   3.538  -3.954  0.00  0.00    -0.002 A 
ATOM      7  C5  OXE d   1      -2.230   2.174  -3.738  0.00  0.00    -0.002 A 
ATOM      8  C6  OXE d   1      -1.295   1.250  -4.192  0.00  0.00     0.003 A 
ENDROOT
TORSDOF 0
ENDMDL
