MODEL 1
REMARK minimizedAffinity 8.82707214
REMARK minimizedRMSD -1
REMARK  0 active torsions:
REMARK  status: ('A' for Active; 'I' for Inactive)
ROOT
ATOM      1  C2' OXE d   1       2.456   4.493   3.195  0.00  0.00     0.078 C 
ATOM      2  C1' OXE d   1       2.633   4.099   5.968  0.00  0.00     0.078 C 
ATOM      3  C1  OXE d   1       3.786   4.785   5.280  0.00  0.00    -0.078 A 
ATOM      4  C2  OXE d   1       3.712   4.932   3.916  0.00  0.00    -0.078 A 
ATOM      5  C3  OXE d   1       4.724   5.606   3.239  0.00  0.00     0.003 A 
ATOM      6  C4  OXE d   1       5.886   6.000   3.912  0.00  0.00    -0.002 A 
ATOM      7  C5  OXE d   1       6.000   5.824   5.296  0.00  0.00    -0.002 A 
ATOM      8  C6  OXE d   1       4.943   5.258   6.000  0.00  0.00     0.003 A 
ENDROOT
TORSDOF 0
ENDMDL
