MODEL 1
REMARK minimizedAffinity 2.67544174
REMARK minimizedRMSD -1
REMARK  0 active torsions:
REMARK  status: ('A' for Active; 'I' for Inactive)
ROOT
ATOM      1  C2' OXE d   1       1.979   5.993   6.000  0.00  0.00     0.078 C 
ATOM      2  C1' OXE d   1       1.970   4.901   3.414  0.00  0.00     0.078 C 
ATOM      3  C1  OXE d   1       3.306   5.188   4.052  0.00  0.00    -0.078 A 
ATOM      4  C2  OXE d   1       3.301   5.765   5.299  0.00  0.00    -0.078 A 
ATOM      5  C3  OXE d   1       4.505   6.000   5.955  0.00  0.00     0.003 A 
ATOM      6  C4  OXE d   1       5.723   5.796   5.295  0.00  0.00    -0.002 A 
ATOM      7  C5  OXE d   1       5.751   5.245   4.009  0.00  0.00    -0.002 A 
ATOM      8  C6  OXE d   1       4.555   4.897   3.392  0.00  0.00     0.003 A 
ENDROOT
TORSDOF 0
ENDMDL
