MODEL 1
REMARK minimizedAffinity 0.598491728
REMARK minimizedRMSD -1
REMARK  0 active torsions:
REMARK  status: ('A' for Active; 'I' for Inactive)
ROOT
ATOM      1  C2' OXE d   1       1.507   2.803   3.005  0.00  0.00     0.078 C 
ATOM      2  C1' OXE d   1      -0.333   4.803   3.708  0.00  0.00     0.078 C 
ATOM      3  C1  OXE d   1       1.064   4.906   4.265  0.00  0.00    -0.078 A 
ATOM      4  C2  OXE d   1       1.945   3.898   3.954  0.00  0.00    -0.078 A 
ATOM      5  C3  OXE d   1       3.263   3.973   4.397  0.00  0.00     0.003 A 
ATOM      6  C4  OXE d   1       3.657   4.984   5.282  0.00  0.00    -0.002 A 
ATOM      7  C5  OXE d   1       2.764   5.999   5.643  0.00  0.00    -0.002 A 
ATOM      8  C6  OXE d   1       1.480   5.998   5.111  0.00  0.00     0.003 A 
ENDROOT
TORSDOF 0
ENDMDL
