MODEL 1
REMARK minimizedAffinity 1.2068845
REMARK minimizedRMSD -1
REMARK  0 active torsions:
REMARK  status: ('A' for Active; 'I' for Inactive)
ROOT
ATOM      1  C2' OXE d   1       2.525   3.054   2.826  0.00  0.00     0.078 C 
ATOM      2  C1' OXE d   1       0.393   4.866   3.057  0.00  0.00     0.078 C 
ATOM      3  C1  OXE d   1       1.524   4.979   4.049  0.00  0.00    -0.078 A 
ATOM      4  C2  OXE d   1       2.540   4.059   3.958  0.00  0.00    -0.078 A 
ATOM      5  C3  OXE d   1       3.634   4.152   4.813  0.00  0.00     0.003 A 
ATOM      6  C4  OXE d   1       3.635   5.078   5.864  0.00  0.00    -0.002 A 
ATOM      7  C5  OXE d   1       2.590   5.999   5.999  0.00  0.00    -0.002 A 
ATOM      8  C6  OXE d   1       1.550   5.990   5.077  0.00  0.00     0.003 A 
ENDROOT
TORSDOF 0
ENDMDL
