MODEL 1
REMARK minimizedAffinity 2.99244761
REMARK minimizedRMSD -1
REMARK  0 active torsions:
REMARK  status: ('A' for Active; 'I' for Inactive)
ROOT
ATOM      1  C2' OXE d   1       3.411   3.397   3.554  0.00  0.00     0.078 C 
ATOM      2  C1' OXE d   1       4.136   5.153   5.620  0.00  0.00     0.078 C 
ATOM      3  C1  OXE d   1       2.697   5.155   5.167  0.00  0.00    -0.078 A 
ATOM      4  C2  OXE d   1       2.362   4.326   4.124  0.00  0.00    -0.078 A 
ATOM      5  C3  OXE d   1       1.037   4.249   3.703  0.00  0.00     0.003 A 
ATOM      6  C4  OXE d   1       0.075   5.119   4.228  0.00  0.00    -0.002 A 
ATOM      7  C5  OXE d   1       0.404   6.000   5.265  0.00  0.00    -0.002 A 
ATOM      8  C6  OXE d   1       1.698   6.000   5.773  0.00  0.00     0.003 A 
ENDROOT
TORSDOF 0
ENDMDL
