MODEL 1
REMARK minimizedAffinity 1.46131957
REMARK minimizedRMSD -1
REMARK  0 active torsions:
REMARK  status: ('A' for Active; 'I' for Inactive)
ROOT
ATOM      1  C2' OXE d   1       2.875   3.113   3.354  0.00  0.00     0.078 C 
ATOM      2  C1' OXE d   1       3.650   5.040   5.242  0.00  0.00     0.078 C 
ATOM      3  C1  OXE d   1       2.218   5.055   4.769  0.00  0.00    -0.078 A 
ATOM      4  C2  OXE d   1       1.859   4.138   3.811  0.00  0.00    -0.078 A 
ATOM      5  C3  OXE d   1       0.537   4.073   3.379  0.00  0.00     0.003 A 
ATOM      6  C4  OXE d   1      -0.394   5.031   3.799  0.00  0.00    -0.002 A 
ATOM      7  C5  OXE d   1      -0.039   5.998   4.746  0.00  0.00    -0.002 A 
ATOM      8  C6  OXE d   1       1.248   5.997   5.271  0.00  0.00     0.003 A 
ENDROOT
TORSDOF 0
ENDMDL
