MODEL 1
REMARK minimizedAffinity 0.330602616
REMARK minimizedRMSD -1
REMARK  0 active torsions:
REMARK  status: ('A' for Active; 'I' for Inactive)
ROOT
ATOM      1  C2' OXE d   1      -0.169   5.203   3.390  0.00  0.00     0.078 C 
ATOM      2  C1' OXE d   1       1.899   3.497   2.558  0.00  0.00     0.078 C 
ATOM      3  C1  OXE d   1       2.138   4.347   3.780  0.00  0.00    -0.078 A 
ATOM      4  C2  OXE d   1       1.138   5.213   4.153  0.00  0.00    -0.078 A 
ATOM      5  C3  OXE d   1       1.285   5.980   5.305  0.00  0.00     0.003 A 
ATOM      6  C4  OXE d   1       2.501   5.991   5.999  0.00  0.00    -0.002 A 
ATOM      7  C5  OXE d   1       3.547   5.146   5.613  0.00  0.00    -0.002 A 
ATOM      8  C6  OXE d   1       3.366   4.288   4.533  0.00  0.00     0.003 A 
ENDROOT
TORSDOF 0
ENDMDL
