MODEL 1
REMARK minimizedAffinity -1.65328264
REMARK minimizedRMSD -1
REMARK  0 active torsions:
REMARK  status: ('A' for Active; 'I' for Inactive)
ROOT
ATOM      1  C2' OXE d   1       1.923   5.764  -6.000  0.00  0.00     0.078 C 
ATOM      2  C1' OXE d   1       4.722   5.973  -5.979  0.00  0.00     0.078 C 
ATOM      3  C1  OXE d   1       4.120   4.590  -5.981  0.00  0.00    -0.078 A 
ATOM      4  C2  OXE d   1       2.750   4.497  -5.944  0.00  0.00    -0.078 A 
ATOM      5  C3  OXE d   1       2.142   3.246  -6.000  0.00  0.00     0.003 A 
ATOM      6  C4  OXE d   1       2.913   2.080  -5.938  0.00  0.00    -0.002 A 
ATOM      7  C5  OXE d   1       4.310   2.152  -5.935  0.00  0.00    -0.002 A 
ATOM      8  C6  OXE d   1       4.928   3.396  -6.000  0.00  0.00     0.003 A 
ENDROOT
TORSDOF 0
ENDMDL
