MODEL 1
REMARK minimizedAffinity 7.14723873
REMARK minimizedRMSD -1
REMARK  0 active torsions:
REMARK  status: ('A' for Active; 'I' for Inactive)
ROOT
ATOM      1  C2' OXE d   1       4.617   1.239  -0.044  0.00  0.00     0.078 C 
ATOM      2  C1' OXE d   1       2.251   1.631   1.416  0.00  0.00     0.078 C 
ATOM      3  C1  OXE d   1       2.546   0.239   0.915  0.00  0.00    -0.078 A 
ATOM      4  C2  OXE d   1       3.682   0.066   0.161  0.00  0.00    -0.078 A 
ATOM      5  C3  OXE d   1       4.030  -1.208  -0.280  0.00  0.00     0.003 A 
ATOM      6  C4  OXE d   1       3.155  -2.285  -0.094  0.00  0.00    -0.002 A 
ATOM      7  C5  OXE d   1       1.973  -2.122   0.636  0.00  0.00    -0.002 A 
ATOM      8  C6  OXE d   1       1.675  -0.879   1.183  0.00  0.00     0.003 A 
ENDROOT
TORSDOF 0
ENDMDL
