MODEL 1
REMARK minimizedAffinity 4.20566273
REMARK minimizedRMSD -1
REMARK  0 active torsions:
REMARK  status: ('A' for Active; 'I' for Inactive)
ROOT
ATOM      1  C2' OXE d   1       3.412   4.505   2.618  0.00  0.00     0.078 C 
ATOM      2  C1' OXE d   1       4.668   5.613   4.870  0.00  0.00     0.078 C 
ATOM      3  C1  OXE d   1       3.161   5.544   4.867  0.00  0.00    -0.078 A 
ATOM      4  C2  OXE d   1       2.554   5.043   3.741  0.00  0.00    -0.078 A 
ATOM      5  C3  OXE d   1       1.169   4.907   3.708  0.00  0.00     0.003 A 
ATOM      6  C4  OXE d   1       0.381   5.416   4.748  0.00  0.00    -0.002 A 
ATOM      7  C5  OXE d   1       0.979   5.967   5.887  0.00  0.00    -0.002 A 
ATOM      8  C6  OXE d   1       2.365   5.999   5.980  0.00  0.00     0.003 A 
ENDROOT
TORSDOF 0
ENDMDL
