MODEL 1
REMARK minimizedAffinity -3.35662293
REMARK minimizedRMSD -1
REMARK  0 active torsions:
REMARK  status: ('A' for Active; 'I' for Inactive)
ROOT
ATOM      1  C2' OXE d   1       5.853   3.038  -5.934  0.00  0.00     0.078 C 
ATOM      2  C1' OXE d   1       5.828   5.845  -5.948  0.00  0.00     0.078 C 
ATOM      3  C1  OXE d   1       4.500   5.130  -5.950  0.00  0.00    -0.078 A 
ATOM      4  C2  OXE d   1       4.522   3.756  -5.990  0.00  0.00    -0.078 A 
ATOM      5  C3  OXE d   1       3.326   3.046  -5.938  0.00  0.00     0.003 A 
ATOM      6  C4  OXE d   1       2.099   3.718  -6.000  0.00  0.00    -0.002 A 
ATOM      7  C5  OXE d   1       2.055   5.116  -5.999  0.00  0.00    -0.002 A 
ATOM      8  C6  OXE d   1       3.243   5.836  -5.932  0.00  0.00     0.003 A 
ENDROOT
TORSDOF 0
ENDMDL
