MODEL 1
REMARK minimizedAffinity -1.41606677
REMARK minimizedRMSD -1
REMARK  0 active torsions:
REMARK  status: ('A' for Active; 'I' for Inactive)
ROOT
ATOM      1  C2' OXE d   1       1.876   4.879   6.000  0.00  0.00     0.078 C 
ATOM      2  C1' OXE d   1       0.289   6.000   3.973  0.00  0.00     0.078 C 
ATOM      3  C1  OXE d   1       1.226   4.880   3.595  0.00  0.00    -0.078 A 
ATOM      4  C2  OXE d   1       2.032   4.369   4.583  0.00  0.00    -0.078 A 
ATOM      5  C3  OXE d   1       2.875   3.299   4.300  0.00  0.00     0.003 A 
ATOM      6  C4  OXE d   1       3.021   2.840   2.986  0.00  0.00    -0.002 A 
ATOM      7  C5  OXE d   1       2.238   3.373   1.956  0.00  0.00    -0.002 A 
ATOM      8  C6  OXE d   1       1.307   4.363   2.251  0.00  0.00     0.003 A 
ENDROOT
TORSDOF 0
ENDMDL
