MODEL 1
REMARK minimizedAffinity 3.23630619
REMARK minimizedRMSD -1
REMARK  0 active torsions:
REMARK  status: ('A' for Active; 'I' for Inactive)
ROOT
ATOM      1  C2' OXE d   1      -0.077   4.597   3.441  0.00  0.00     0.078 C 
ATOM      2  C1' OXE d   1       2.301   3.355   2.613  0.00  0.00     0.078 C 
ATOM      3  C1  OXE d   1       2.363   4.265   3.815  0.00  0.00    -0.078 A 
ATOM      4  C2  OXE d   1       1.205   4.904   4.185  0.00  0.00    -0.078 A 
ATOM      5  C3  OXE d   1       1.194   5.711   5.319  0.00  0.00     0.003 A 
ATOM      6  C4  OXE d   1       2.386   5.999   5.995  0.00  0.00    -0.002 A 
ATOM      7  C5  OXE d   1       3.585   5.389   5.611  0.00  0.00    -0.002 A 
ATOM      8  C6  OXE d   1       3.583   4.488   4.552  0.00  0.00     0.003 A 
ENDROOT
TORSDOF 0
ENDMDL
