MODEL 1
REMARK minimizedAffinity 5.16368055
REMARK minimizedRMSD -1
REMARK  0 active torsions:
REMARK  status: ('A' for Active; 'I' for Inactive)
ROOT
ATOM      1  C2' OXE d   1       5.256   2.206  -5.796  0.00  0.00     0.078 C 
ATOM      2  C1' OXE d   1       4.364   4.868  -5.812  0.00  0.00     0.078 C 
ATOM      3  C1  OXE d   1       3.324   3.777  -5.861  0.00  0.00    -0.078 A 
ATOM      4  C2  OXE d   1       3.771   2.478  -5.900  0.00  0.00    -0.078 A 
ATOM      5  C3  OXE d   1       2.853   1.432  -5.891  0.00  0.00     0.003 A 
ATOM      6  C4  OXE d   1       1.481   1.692  -5.997  0.00  0.00    -0.002 A 
ATOM      7  C5  OXE d   1       1.006   3.008  -5.999  0.00  0.00    -0.002 A 
ATOM      8  C6  OXE d   1       1.910   4.059  -5.889  0.00  0.00     0.003 A 
ENDROOT
TORSDOF 0
ENDMDL
