MODEL 1
REMARK minimizedAffinity -4.16299009
REMARK minimizedRMSD -1
REMARK  0 active torsions:
REMARK  status: ('A' for Active; 'I' for Inactive)
ROOT
ATOM      1  C   UNL d   1      -2.827  -2.370   0.800  0.00  0.00    -0.002 A 
ATOM      2  C1  UNL d   1      -3.325  -1.760  -0.342  0.00  0.00     0.010 A 
ATOM      3  C2  UNL d   1      -2.556  -0.828  -1.043  0.00  0.00     0.041 A 
ATOM      4  C3  UNL d   1      -1.265  -0.518  -0.572  0.00  0.00    -0.075 A 
ATOM      5  S   UNL d   1      -0.144   0.592  -1.267  0.00  0.00     0.015 SA
ATOM      6  C4  UNL d   1       1.023   0.282  -0.064  0.00  0.00     0.022 A 
ATOM      7  C5  UNL d   1       0.584  -0.643   0.854  0.00  0.00     0.026 A 
ATOM      8  C6  UNL d   1      -0.742  -1.120   0.576  0.00  0.00    -0.082 A 
ATOM      9  C7  UNL d   1      -1.546  -2.060   1.264  0.00  0.00     0.045 A 
ENDROOT
TORSDOF 0
ENDMDL
