MODEL 1
REMARK minimizedAffinity -5.49600744
REMARK minimizedRMSD -1
REMARK  0 active torsions:
REMARK  status: ('A' for Active; 'I' for Inactive)
ROOT
ATOM      1  C   UNL d   1      -2.683  -2.612   1.068  0.00  0.00    -0.002 A 
ATOM      2  C1  UNL d   1      -1.463  -2.718   1.722  0.00  0.00     0.010 A 
ATOM      3  C2  UNL d   1      -0.384  -1.915   1.347  0.00  0.00     0.041 A 
ATOM      4  C3  UNL d   1      -0.553  -0.993   0.295  0.00  0.00    -0.075 A 
ATOM      5  S   UNL d   1       0.628   0.094  -0.334  0.00  0.00     0.015 SA
ATOM      6  C4  UNL d   1      -0.459   0.725  -1.485  0.00  0.00     0.022 A 
ATOM      7  C5  UNL d   1      -1.697   0.132  -1.406  0.00  0.00     0.026 A 
ATOM      8  C6  UNL d   1      -1.772  -0.868  -0.378  0.00  0.00    -0.082 A 
ATOM      9  C7  UNL d   1      -2.846  -1.696   0.025  0.00  0.00     0.045 A 
ENDROOT
TORSDOF 0
ENDMDL
