MODEL 1
REMARK minimizedAffinity -2.44101
REMARK minimizedRMSD -1
REMARK  0 active torsions:
REMARK  status: ('A' for Active; 'I' for Inactive)
ROOT
ATOM      1  C   UNL d   1      -3.371  -0.490  -0.484  0.00  0.00    -0.002 A 
ATOM      2  C1  UNL d   1      -3.154  -0.587   0.884  0.00  0.00     0.010 A 
ATOM      3  C2  UNL d   1      -1.860  -0.523   1.403  0.00  0.00     0.041 A 
ATOM      4  C3  UNL d   1      -0.777  -0.355   0.518  0.00  0.00    -0.075 A 
ATOM      5  S   UNL d   1       0.894  -0.248   0.928  0.00  0.00     0.015 SA
ATOM      6  C4  UNL d   1       1.359  -0.069  -0.702  0.00  0.00     0.022 A 
ATOM      7  C5  UNL d   1       0.278  -0.089  -1.552  0.00  0.00     0.026 A 
ATOM      8  C6  UNL d   1      -0.971  -0.253  -0.863  0.00  0.00    -0.082 A 
ATOM      9  C7  UNL d   1      -2.295  -0.324  -1.359  0.00  0.00     0.045 A 
ENDROOT
TORSDOF 0
ENDMDL
