MODEL 1
REMARK minimizedAffinity -0.476971924
REMARK minimizedRMSD -1
REMARK  0 active torsions:
REMARK  status: ('A' for Active; 'I' for Inactive)
ROOT
ATOM      1  C   UNL d   1      -1.907  -0.181  -2.324  0.00  0.00    -0.002 A 
ATOM      2  C1  UNL d   1      -2.723  -0.870  -1.437  0.00  0.00     0.010 A 
ATOM      3  C2  UNL d   1      -2.289  -1.143  -0.139  0.00  0.00     0.041 A 
ATOM      4  C3  UNL d   1      -1.009  -0.707   0.258  0.00  0.00    -0.075 A 
ATOM      5  S   UNL d   1      -0.267  -0.927   1.798  0.00  0.00     0.015 SA
ATOM      6  C4  UNL d   1       1.150  -0.112   1.316  0.00  0.00     0.022 A 
ATOM      7  C5  UNL d   1       1.076   0.324   0.014  0.00  0.00     0.026 A 
ATOM      8  C6  UNL d   1      -0.170  -0.011  -0.617  0.00  0.00    -0.082 A 
ATOM      9  C7  UNL d   1      -0.639   0.250  -1.927  0.00  0.00     0.045 A 
ENDROOT
TORSDOF 0
ENDMDL
