MODEL 1
REMARK minimizedAffinity -2.5885818
REMARK minimizedRMSD -1
REMARK  0 active torsions:
REMARK  status: ('A' for Active; 'I' for Inactive)
ROOT
ATOM      1  C   UNL d   1      -1.565   0.197  -1.753  0.00  0.00    -0.002 A 
ATOM      2  C1  UNL d   1      -0.281   0.534  -1.347  0.00  0.00     0.010 A 
ATOM      3  C2  UNL d   1       0.348  -0.173  -0.321  0.00  0.00     0.041 A 
ATOM      4  C3  UNL d   1      -0.340  -1.237   0.295  0.00  0.00    -0.075 A 
ATOM      5  S   UNL d   1       0.232  -2.244   1.572  0.00  0.00     0.015 SA
ATOM      6  C4  UNL d   1      -1.214  -3.146   1.609  0.00  0.00     0.022 A 
ATOM      7  C5  UNL d   1      -2.122  -2.703   0.677  0.00  0.00     0.026 A 
ATOM      8  C6  UNL d   1      -1.633  -1.595  -0.096  0.00  0.00    -0.082 A 
ATOM      9  C7  UNL d   1      -2.244  -0.858  -1.139  0.00  0.00     0.045 A 
ENDROOT
TORSDOF 0
ENDMDL
