MODEL 1
REMARK minimizedAffinity -4.23732471
REMARK minimizedRMSD -1
REMARK  0 active torsions:
REMARK  status: ('A' for Active; 'I' for Inactive)
ROOT
ATOM      1  C   UNL d   1      -2.446  -2.649   0.581  0.00  0.00    -0.002 A 
ATOM      2  C1  UNL d   1      -1.420  -2.990   1.450  0.00  0.00     0.010 A 
ATOM      3  C2  UNL d   1      -0.197  -2.317   1.404  0.00  0.00     0.041 A 
ATOM      4  C3  UNL d   1      -0.022  -1.286   0.461  0.00  0.00    -0.075 A 
ATOM      5  S   UNL d   1       1.390  -0.324   0.223  0.00  0.00     0.015 SA
ATOM      6  C4  UNL d   1       0.663   0.563  -1.038  0.00  0.00     0.022 A 
ATOM      7  C5  UNL d   1      -0.624   0.148  -1.285  0.00  0.00     0.026 A 
ATOM      8  C6  UNL d   1      -1.040  -0.923  -0.424  0.00  0.00    -0.082 A 
ATOM      9  C7  UNL d   1      -2.268  -1.624  -0.353  0.00  0.00     0.045 A 
ENDROOT
TORSDOF 0
ENDMDL
