MODEL 1
REMARK minimizedAffinity -6.0343442
REMARK minimizedRMSD -1
REMARK  0 active torsions:
REMARK  status: ('A' for Active; 'I' for Inactive)
ROOT
ATOM      1  C   UNL d   1      -3.216  -1.569   0.082  0.00  0.00    -0.002 A 
ATOM      2  C1  UNL d   1      -2.798  -0.513  -0.715  0.00  0.00     0.010 A 
ATOM      3  C2  UNL d   1      -1.466  -0.095  -0.700  0.00  0.00     0.041 A 
ATOM      4  C3  UNL d   1      -0.551  -0.765   0.136  0.00  0.00    -0.075 A 
ATOM      5  S   UNL d   1       1.130  -0.429   0.318  0.00  0.00     0.015 SA
ATOM      6  C4  UNL d   1       1.333  -1.680   1.457  0.00  0.00     0.022 A 
ATOM      7  C5  UNL d   1       0.158  -2.348   1.705  0.00  0.00     0.026 A 
ATOM      8  C6  UNL d   1      -0.948  -1.832   0.947  0.00  0.00    -0.082 A 
ATOM      9  C7  UNL d   1      -2.306  -2.231   0.910  0.00  0.00     0.045 A 
ENDROOT
TORSDOF 0
ENDMDL
