MODEL 1
REMARK minimizedAffinity 3.37931085
REMARK minimizedRMSD -1
REMARK  0 active torsions:
REMARK  status: ('A' for Active; 'I' for Inactive)
ROOT
ATOM      1  C   UNL d   1       3.483   3.547   0.533  0.00  0.00    -0.002 A 
ATOM      2  C1  UNL d   1       3.137   3.432   1.872  0.00  0.00     0.010 A 
ATOM      3  C2  UNL d   1       2.243   2.444   2.292  0.00  0.00     0.041 A 
ATOM      4  C3  UNL d   1       1.701   1.565   1.335  0.00  0.00    -0.075 A 
ATOM      5  S   UNL d   1       0.588   0.278   1.618  0.00  0.00     0.015 SA
ATOM      6  C4  UNL d   1       0.548  -0.149  -0.032  0.00  0.00     0.022 A 
ATOM      7  C5  UNL d   1       1.357   0.659  -0.794  0.00  0.00     0.026 A 
ATOM      8  C6  UNL d   1       2.035   1.660  -0.019  0.00  0.00    -0.082 A 
ATOM      9  C7  UNL d   1       2.943   2.673  -0.414  0.00  0.00     0.045 A 
ENDROOT
TORSDOF 0
ENDMDL
