MODEL 1
REMARK minimizedAffinity -1.59035647
REMARK minimizedRMSD -1
REMARK  0 active torsions:
REMARK  status: ('A' for Active; 'I' for Inactive)
ROOT
ATOM      1  C   UNL d   1       1.363   0.882   0.614  0.00  0.00    -0.002 A 
ATOM      2  C1  UNL d   1       1.631   0.339  -0.635  0.00  0.00     0.010 A 
ATOM      3  C2  UNL d   1       0.621  -0.285  -1.370  0.00  0.00     0.041 A 
ATOM      4  C3  UNL d   1      -0.676  -0.354  -0.824  0.00  0.00    -0.075 A 
ATOM      5  S   UNL d   1      -2.070  -1.070  -1.543  0.00  0.00     0.015 SA
ATOM      6  C4  UNL d   1      -3.054  -0.672  -0.210  0.00  0.00     0.022 A 
ATOM      7  C5  UNL d   1      -2.353  -0.009   0.769  0.00  0.00     0.026 A 
ATOM      8  C6  UNL d   1      -0.971   0.186   0.431  0.00  0.00    -0.082 A 
ATOM      9  C7  UNL d   1       0.075   0.811   1.152  0.00  0.00     0.045 A 
ENDROOT
TORSDOF 0
ENDMDL
