MODEL 1
REMARK minimizedAffinity -4.18530369
REMARK minimizedRMSD -1
REMARK  0 active torsions:
REMARK  status: ('A' for Active; 'I' for Inactive)
ROOT
ATOM      1  C   UNL d   1      -2.360  -2.138   1.126  0.00  0.00    -0.002 A 
ATOM      2  C1  UNL d   1      -3.037  -1.607   0.038  0.00  0.00     0.010 A 
ATOM      3  C2  UNL d   1      -2.393  -0.736  -0.843  0.00  0.00     0.041 A 
ATOM      4  C3  UNL d   1      -1.043  -0.406  -0.610  0.00  0.00    -0.075 A 
ATOM      5  S   UNL d   1      -0.051   0.639  -1.556  0.00  0.00     0.015 SA
ATOM      6  C4  UNL d   1       1.296   0.405  -0.538  0.00  0.00     0.022 A 
ATOM      7  C5  UNL d   1       1.013  -0.447   0.503  0.00  0.00     0.026 A 
ATOM      8  C6  UNL d   1      -0.340  -0.928   0.478  0.00  0.00    -0.082 A 
ATOM      9  C7  UNL d   1      -1.021  -1.808   1.354  0.00  0.00     0.045 A 
ENDROOT
TORSDOF 0
ENDMDL
