MODEL 1
REMARK minimizedAffinity -5.08065939
REMARK minimizedRMSD -1
REMARK  0 active torsions:
REMARK  status: ('A' for Active; 'I' for Inactive)
ROOT
ATOM      1  C   UNL d   1      -3.179  -0.767  -0.431  0.00  0.00    -0.002 A 
ATOM      2  C1  UNL d   1      -2.942  -1.123   0.889  0.00  0.00     0.010 A 
ATOM      3  C2  UNL d   1      -1.674  -0.960   1.451  0.00  0.00     0.041 A 
ATOM      4  C3  UNL d   1      -0.640  -0.427   0.657  0.00  0.00    -0.075 A 
ATOM      5  S   UNL d   1       0.992  -0.136   1.133  0.00  0.00     0.015 SA
ATOM      6  C4  UNL d   1       1.411   0.467  -0.404  0.00  0.00     0.022 A 
ATOM      7  C5  UNL d   1       0.345   0.455  -1.272  0.00  0.00     0.026 A 
ATOM      8  C6  UNL d   1      -0.855  -0.060  -0.674  0.00  0.00    -0.082 A 
ATOM      9  C7  UNL d   1      -2.151  -0.239  -1.215  0.00  0.00     0.045 A 
ENDROOT
TORSDOF 0
ENDMDL
