MODEL 1
REMARK minimizedAffinity -2.66438198
REMARK minimizedRMSD -1
REMARK  0 active torsions:
REMARK  status: ('A' for Active; 'I' for Inactive)
ROOT
ATOM      1  C   UNL d   1      -1.980  -0.223  -1.758  0.00  0.00    -0.002 A 
ATOM      2  C1  UNL d   1      -2.528  -0.618  -0.546  0.00  0.00     0.010 A 
ATOM      3  C2  UNL d   1      -1.791  -0.511   0.635  0.00  0.00     0.041 A 
ATOM      4  C3  UNL d   1      -0.483   0.008   0.577  0.00  0.00    -0.075 A 
ATOM      5  S   UNL d   1       0.605   0.232   1.896  0.00  0.00     0.015 SA
ATOM      6  C4  UNL d   1       1.823   0.859   0.881  0.00  0.00     0.022 A 
ATOM      7  C5  UNL d   1       1.426   0.902  -0.434  0.00  0.00     0.026 A 
ATOM      8  C6  UNL d   1       0.091   0.413  -0.631  0.00  0.00    -0.082 A 
ATOM      9  C7  UNL d   1      -0.681   0.291  -1.812  0.00  0.00     0.045 A 
ENDROOT
TORSDOF 0
ENDMDL
