MODEL 1
REMARK minimizedAffinity -3.68111658
REMARK minimizedRMSD -1
REMARK  0 active torsions:
REMARK  status: ('A' for Active; 'I' for Inactive)
ROOT
ATOM      1  C   UNL d   1      -0.213   1.229   2.491  0.00  0.00     0.020 A 
ATOM      2  C1  UNL d   1      -0.903   2.392   2.151  0.00  0.00     0.020 A 
ATOM      3  C2  UNL d   1      -1.203   2.661   0.814  0.00  0.00     0.034 A 
ATOM      4  C3  UNL d   1      -0.813   1.765  -0.188  0.00  0.00     0.017 A 
ATOM      5  C4  UNL d   1      -0.121   0.598   0.154  0.00  0.00     0.017 A 
ATOM      6  C5  UNL d   1       0.177   0.334   1.494  0.00  0.00     0.034 A 
ATOM      7 Cl   UNL d   1       0.393  -0.555  -1.027  0.00  0.00    -0.070 Cl
ATOM      8 Cl1  UNL d   1      -1.218   2.161  -1.821  0.00  0.00    -0.070 Cl
ENDROOT
TORSDOF 0
ENDMDL
