MODEL 1
REMARK minimizedAffinity 9.1872654
REMARK minimizedRMSD -1
REMARK  0 active torsions:
REMARK  status: ('A' for Active; 'I' for Inactive)
ROOT
ATOM      1  C   UNL d   1      -1.465   3.027   1.611  0.00  0.00     0.020 A 
ATOM      2  C1  UNL d   1      -1.921   3.090   0.294  0.00  0.00     0.020 A 
ATOM      3  C2  UNL d   1      -1.312   2.312  -0.693  0.00  0.00     0.034 A 
ATOM      4  C3  UNL d   1      -0.244   1.469  -0.366  0.00  0.00     0.017 A 
ATOM      5  C4  UNL d   1       0.213   1.406   0.955  0.00  0.00     0.017 A 
ATOM      6  C5  UNL d   1      -0.401   2.187   1.940  0.00  0.00     0.034 A 
ATOM      7 Cl   UNL d   1       1.525   0.389   1.435  0.00  0.00    -0.070 Cl
ATOM      8 Cl1  UNL d   1       0.461   0.535  -1.638  0.00  0.00    -0.070 Cl
ENDROOT
TORSDOF 0
ENDMDL
