MODEL 1
REMARK minimizedAffinity -3.2013092
REMARK minimizedRMSD -1
REMARK  0 active torsions:
REMARK  status: ('A' for Active; 'I' for Inactive)
ROOT
ATOM      1  C   UNL d   1      -0.065   0.313   2.382  0.00  0.00     0.020 A 
ATOM      2  C1  UNL d   1      -0.250   1.655   2.052  0.00  0.00     0.020 A 
ATOM      3  C2  UNL d   1      -0.197   2.059   0.716  0.00  0.00     0.034 A 
ATOM      4  C3  UNL d   1       0.040   1.120  -0.294  0.00  0.00     0.017 A 
ATOM      5  C4  UNL d   1       0.225  -0.227   0.039  0.00  0.00     0.017 A 
ATOM      6  C5  UNL d   1       0.172  -0.626   1.378  0.00  0.00     0.034 A 
ATOM      7 Cl   UNL d   1       0.523  -1.444  -1.153  0.00  0.00    -0.070 Cl
ATOM      8 Cl1  UNL d   1       0.091   1.689  -1.924  0.00  0.00    -0.070 Cl
ENDROOT
TORSDOF 0
ENDMDL
