MODEL 1
REMARK minimizedAffinity -3.71874714
REMARK minimizedRMSD -1
REMARK  0 active torsions:
REMARK  status: ('A' for Active; 'I' for Inactive)
ROOT
ATOM      1  C   UNL d   1       1.088  -0.551  -0.605  0.00  0.00     0.020 A 
ATOM      2  C1  UNL d   1       1.024  -0.591   0.788  0.00  0.00     0.020 A 
ATOM      3  C2  UNL d   1       0.191   0.297   1.473  0.00  0.00     0.034 A 
ATOM      4  C3  UNL d   1      -0.580   1.227   0.767  0.00  0.00     0.017 A 
ATOM      5  C4  UNL d   1      -0.514   1.265  -0.631  0.00  0.00     0.017 A 
ATOM      6  C5  UNL d   1       0.321   0.375  -1.312  0.00  0.00     0.034 A 
ATOM      7 Cl   UNL d   1      -1.436   2.385  -1.571  0.00  0.00    -0.070 Cl
ATOM      8 Cl1  UNL d   1      -1.587   2.293   1.679  0.00  0.00    -0.070 Cl
ENDROOT
TORSDOF 0
ENDMDL
