MODEL 1
REMARK minimizedAffinity -4.6575489
REMARK minimizedRMSD -1
REMARK  0 active torsions:
REMARK  status: ('A' for Active; 'I' for Inactive)
ROOT
ATOM      1  C   UNL d   1      -0.956   3.357   1.344  0.00  0.00     0.020 A 
ATOM      2  C1  UNL d   1      -1.065   3.390  -0.046  0.00  0.00     0.020 A 
ATOM      3  C2  UNL d   1      -0.664   2.289  -0.805  0.00  0.00     0.034 A 
ATOM      4  C3  UNL d   1      -0.153   1.149  -0.174  0.00  0.00     0.017 A 
ATOM      5  C4  UNL d   1      -0.044   1.116   1.221  0.00  0.00     0.017 A 
ATOM      6  C5  UNL d   1      -0.446   2.222   1.975  0.00  0.00     0.034 A 
ATOM      7 Cl   UNL d   1       0.578  -0.255   2.070  0.00  0.00    -0.070 Cl
ATOM      8 Cl1  UNL d   1       0.323  -0.177  -1.175  0.00  0.00    -0.070 Cl
ENDROOT
TORSDOF 0
ENDMDL
