MODEL 1
REMARK minimizedAffinity -2.93391323
REMARK minimizedRMSD -1
REMARK  0 active torsions:
REMARK  status: ('A' for Active; 'I' for Inactive)
ROOT
ATOM      1  C   UNL d   1       0.838  -1.030   0.816  0.00  0.00     0.020 A 
ATOM      2  C1  UNL d   1       0.671  -1.208  -0.557  0.00  0.00     0.020 A 
ATOM      3  C2  UNL d   1      -0.015  -0.249  -1.306  0.00  0.00     0.034 A 
ATOM      4  C3  UNL d   1      -0.536   0.891  -0.683  0.00  0.00     0.017 A 
ATOM      5  C4  UNL d   1      -0.368   1.068   0.695  0.00  0.00     0.017 A 
ATOM      6  C5  UNL d   1       0.320   0.105   1.441  0.00  0.00     0.034 A 
ATOM      7 Cl   UNL d   1      -0.982   2.448   1.534  0.00  0.00    -0.070 Cl
ATOM      8 Cl1  UNL d   1      -1.372   2.035  -1.671  0.00  0.00    -0.070 Cl
ENDROOT
TORSDOF 0
ENDMDL
