MODEL 1
REMARK minimizedAffinity -2.69703078
REMARK minimizedRMSD -1
REMARK  0 active torsions:
REMARK  status: ('A' for Active; 'I' for Inactive)
ROOT
ATOM      1  C   UNL d   1       0.002  -4.054  -2.278  0.00  0.00     0.020 A 
ATOM      2  C1  UNL d   1      -0.044  -4.285  -0.904  0.00  0.00     0.020 A 
ATOM      3  C2  UNL d   1       0.105  -3.222  -0.011  0.00  0.00     0.034 A 
ATOM      4  C3  UNL d   1       0.302  -1.922  -0.492  0.00  0.00     0.017 A 
ATOM      5  C4  UNL d   1       0.349  -1.691  -1.872  0.00  0.00     0.017 A 
ATOM      6  C5  UNL d   1       0.198  -2.760  -2.761  0.00  0.00     0.034 A 
ATOM      7 Cl   UNL d   1       0.588  -0.115  -2.540  0.00  0.00    -0.070 Cl
ATOM      8 Cl1  UNL d   1       0.479  -0.654   0.668  0.00  0.00    -0.070 Cl
ENDROOT
TORSDOF 0
ENDMDL
