MODEL 1
REMARK minimizedAffinity -4.02709961
REMARK minimizedRMSD -1
REMARK  0 active torsions:
REMARK  status: ('A' for Active; 'I' for Inactive)
ROOT
ATOM      1  C   UNL d   1      -0.453   2.257   2.274  0.00  0.00     0.020 A 
ATOM      2  C1  UNL d   1      -1.296   1.621   1.364  0.00  0.00     0.020 A 
ATOM      3  C2  UNL d   1      -1.307   2.021   0.026  0.00  0.00     0.034 A 
ATOM      4  C3  UNL d   1      -0.474   3.060  -0.405  0.00  0.00     0.017 A 
ATOM      5  C4  UNL d   1       0.371   3.698   0.509  0.00  0.00     0.017 A 
ATOM      6  C5  UNL d   1       0.378   3.294   1.848  0.00  0.00     0.034 A 
ATOM      7 Cl   UNL d   1       1.427   4.988   0.052  0.00  0.00    -0.070 Cl
ATOM      8 Cl1  UNL d   1      -0.540   3.502  -2.074  0.00  0.00    -0.070 Cl
ENDROOT
TORSDOF 0
ENDMDL
