MODEL 1
REMARK minimizedAffinity -4.74636889
REMARK minimizedRMSD -1
REMARK  0 active torsions:
REMARK  status: ('A' for Active; 'I' for Inactive)
ROOT
ATOM      1  C   UNL d   1      -1.361   3.175   1.501  0.00  0.00     0.020 A 
ATOM      2  C1  UNL d   1      -0.950   1.989   2.109  0.00  0.00     0.020 A 
ATOM      3  C2  UNL d   1      -0.385   0.970   1.340  0.00  0.00     0.034 A 
ATOM      4  C3  UNL d   1      -0.230   1.133  -0.041  0.00  0.00     0.017 A 
ATOM      5  C4  UNL d   1      -0.643   2.324  -0.650  0.00  0.00     0.017 A 
ATOM      6  C5  UNL d   1      -1.208   3.342   0.124  0.00  0.00     0.034 A 
ATOM      7 Cl   UNL d   1      -0.483   2.600  -2.349  0.00  0.00    -0.070 Cl
ATOM      8 Cl1  UNL d   1       0.477  -0.169  -0.930  0.00  0.00    -0.070 Cl
ENDROOT
TORSDOF 0
ENDMDL
