MODEL 1
REMARK minimizedAffinity -5.16028023
REMARK minimizedRMSD -1
REMARK  1 active torsions:
REMARK  status: ('A' for Active; 'I' for Inactive)
REMARK    1  A    between atoms: C1_2  and  C2_3 
ROOT
ATOM      1  C2  UNL d   1       0.657   0.049  -0.449  0.00  0.00    -0.077 A 
ATOM      2  C3  UNL d   1       1.125  -0.504  -1.648  0.00  0.00     0.002 A 
ATOM      3  C4  UNL d   1       1.966   0.232  -2.486  0.00  0.00     0.002 A 
ATOM      4  C5  UNL d   1       2.349   1.523  -2.130  0.00  0.00    -0.004 A 
ATOM      5  C6  UNL d   1       1.888   2.083  -0.940  0.00  0.00     0.002 A 
ATOM      6  C7  UNL d   1       1.046   1.350  -0.102  0.00  0.00     0.002 A 
ENDROOT
BRANCH   1   7
ATOM      7  C1  UNL d   1      -0.210  -0.761   0.479  0.00  0.00     0.055 C 
ATOM      8  C   UNL d   1      -1.230   0.116   1.190  0.00  0.00     0.019 C 
ENDBRANCH   1   7
TORSDOF 1
ENDMDL
