MODEL 1
REMARK minimizedAffinity -4.11509037
REMARK minimizedRMSD -1
REMARK  1 active torsions:
REMARK  status: ('A' for Active; 'I' for Inactive)
REMARK    1  A    between atoms: C1_2  and  C2_3 
ROOT
ATOM      1  C2  UNL d   1       0.785  -0.180  -0.771  0.00  0.00    -0.077 A 
ATOM      2  C3  UNL d   1       0.422   0.875   0.079  0.00  0.00     0.002 A 
ATOM      3  C4  UNL d   1      -0.262   0.619   1.269  0.00  0.00     0.002 A 
ATOM      4  C5  UNL d   1      -0.585  -0.689   1.622  0.00  0.00    -0.004 A 
ATOM      5  C6  UNL d   1      -0.229  -1.745   0.783  0.00  0.00     0.002 A 
ATOM      6  C7  UNL d   1       0.453  -1.491  -0.407  0.00  0.00     0.002 A 
ENDROOT
BRANCH   1   7
ATOM      7  C1  UNL d   1       1.566   0.089  -2.030  0.00  0.00     0.055 C 
ATOM      8  C   UNL d   1       2.969   0.588  -1.716  0.00  0.00     0.019 C 
ENDBRANCH   1   7
TORSDOF 1
ENDMDL
