MODEL 1
REMARK minimizedAffinity -6.08163691
REMARK minimizedRMSD -1
REMARK  1 active torsions:
REMARK  status: ('A' for Active; 'I' for Inactive)
REMARK    1  A    between atoms: C1_2  and  C2_3 
ROOT
ATOM      1  C2  UNL d   1       1.638  -0.404  -1.592  0.00  0.00    -0.077 A 
ATOM      2  C3  UNL d   1       2.182   0.764  -2.145  0.00  0.00     0.002 A 
ATOM      3  C4  UNL d   1       1.886   2.012  -1.593  0.00  0.00     0.002 A 
ATOM      4  C5  UNL d   1       1.048   2.103  -0.484  0.00  0.00    -0.004 A 
ATOM      5  C6  UNL d   1       0.499   0.948   0.072  0.00  0.00     0.002 A 
ATOM      6  C7  UNL d   1       0.794  -0.300  -0.479  0.00  0.00     0.002 A 
ENDROOT
BRANCH   1   7
ATOM      7  C1  UNL d   1       1.996  -1.754  -2.155  0.00  0.00     0.055 C 
ATOM      8  C   UNL d   1       1.572  -2.875  -1.217  0.00  0.00     0.019 C 
ENDBRANCH   1   7
TORSDOF 1
ENDMDL
