MODEL 1
REMARK minimizedAffinity -4.55383158
REMARK minimizedRMSD -1
REMARK  1 active torsions:
REMARK  status: ('A' for Active; 'I' for Inactive)
REMARK    1  A    between atoms: C1_2  and  C2_3 
ROOT
ATOM      1  C2  UNL d   1       0.172   0.291  -0.813  0.00  0.00    -0.077 A 
ATOM      2  C3  UNL d   1       0.288  -0.273  -2.091  0.00  0.00     0.002 A 
ATOM      3  C4  UNL d   1       1.452  -0.089  -2.841  0.00  0.00     0.002 A 
ATOM      4  C5  UNL d   1       2.508   0.654  -2.319  0.00  0.00    -0.004 A 
ATOM      5  C6  UNL d   1       2.401   1.221  -1.050  0.00  0.00     0.002 A 
ATOM      6  C7  UNL d   1       1.239   1.039  -0.300  0.00  0.00     0.002 A 
ENDROOT
BRANCH   1   7
ATOM      7  C1  UNL d   1      -1.062   0.053   0.017  0.00  0.00     0.055 C 
ATOM      8  C   UNL d   1      -0.746   0.097   1.505  0.00  0.00     0.019 C 
ENDBRANCH   1   7
TORSDOF 1
ENDMDL
