MODEL 1
REMARK minimizedAffinity -4.82372141
REMARK minimizedRMSD -1
REMARK  1 active torsions:
REMARK  status: ('A' for Active; 'I' for Inactive)
REMARK    1  A    between atoms: C1_2  and  C2_3 
ROOT
ATOM      1  C2  UNL d   1       0.682  -0.033  -0.713  0.00  0.00    -0.077 A 
ATOM      2  C3  UNL d   1       0.729  -1.430  -0.600  0.00  0.00     0.002 A 
ATOM      3  C4  UNL d   1       1.554  -2.179  -1.441  0.00  0.00     0.002 A 
ATOM      4  C5  UNL d   1       2.342  -1.540  -2.396  0.00  0.00    -0.004 A 
ATOM      5  C6  UNL d   1       2.301  -0.152  -2.517  0.00  0.00     0.002 A 
ATOM      6  C7  UNL d   1       1.476   0.598  -1.679  0.00  0.00     0.002 A 
ENDROOT
BRANCH   1   7
ATOM      7  C1  UNL d   1      -0.171   0.780   0.226  0.00  0.00     0.055 C 
ATOM      8  C   UNL d   1      -0.899  -0.109   1.223  0.00  0.00     0.019 C 
ENDBRANCH   1   7
TORSDOF 1
ENDMDL
