MODEL 1
REMARK minimizedAffinity -5.04869843
REMARK minimizedRMSD -1
REMARK  1 active torsions:
REMARK  status: ('A' for Active; 'I' for Inactive)
REMARK    1  A    between atoms: C1_2  and  C2_3 
ROOT
ATOM      1  C2  UNL d   1       0.305  -0.117  -0.397  0.00  0.00    -0.077 A 
ATOM      2  C3  UNL d   1      -0.208   0.536   0.733  0.00  0.00     0.002 A 
ATOM      3  C4  UNL d   1      -0.733  -0.201   1.796  0.00  0.00     0.002 A 
ATOM      4  C5  UNL d   1      -0.746  -1.593   1.742  0.00  0.00    -0.004 A 
ATOM      5  C6  UNL d   1      -0.240  -2.252   0.622  0.00  0.00     0.002 A 
ATOM      6  C7  UNL d   1       0.284  -1.517  -0.442  0.00  0.00     0.002 A 
ENDROOT
BRANCH   1   7
ATOM      7  C1  UNL d   1       0.917   0.674  -1.523  0.00  0.00     0.055 C 
ATOM      8  C   UNL d   1       2.229   1.318  -1.099  0.00  0.00     0.019 C 
ENDBRANCH   1   7
TORSDOF 1
ENDMDL
