MODEL 1
REMARK minimizedAffinity -5.46337652
REMARK minimizedRMSD -1
REMARK  1 active torsions:
REMARK  status: ('A' for Active; 'I' for Inactive)
REMARK    1  A    between atoms: C1_2  and  C2_3 
ROOT
ATOM      1  C2  UNL d   1       1.053  -0.506  -1.581  0.00  0.00    -0.077 A 
ATOM      2  C3  UNL d   1       2.141   0.272  -2.000  0.00  0.00     0.002 A 
ATOM      3  C4  UNL d   1       2.487   1.434  -1.308  0.00  0.00     0.002 A 
ATOM      4  C5  UNL d   1       1.753   1.826  -0.190  0.00  0.00    -0.004 A 
ATOM      5  C6  UNL d   1       0.668   1.059   0.234  0.00  0.00     0.002 A 
ATOM      6  C7  UNL d   1       0.320  -0.102  -0.458  0.00  0.00     0.002 A 
ENDROOT
BRANCH   1   7
ATOM      7  C1  UNL d   1       0.709  -1.786  -2.297  0.00  0.00     0.055 C 
ATOM      8  C   UNL d   1       0.805  -2.985  -1.365  0.00  0.00     0.019 C 
ENDBRANCH   1   7
TORSDOF 1
ENDMDL
