MODEL 1
REMARK minimizedAffinity -4.61838293
REMARK minimizedRMSD -1
REMARK  1 active torsions:
REMARK  status: ('A' for Active; 'I' for Inactive)
REMARK    1  A    between atoms: C1_2  and  C2_3 
ROOT
ATOM      1  C2  UNL d   1      -0.147   0.122   0.098  0.00  0.00    -0.077 A 
ATOM      2  C3  UNL d   1       0.282  -0.492  -1.087  0.00  0.00     0.002 A 
ATOM      3  C4  UNL d   1       1.117   0.191  -1.973  0.00  0.00     0.002 A 
ATOM      4  C5  UNL d   1       1.535   1.488  -1.682  0.00  0.00    -0.004 A 
ATOM      5  C6  UNL d   1       1.112   2.107  -0.506  0.00  0.00     0.002 A 
ATOM      6  C7  UNL d   1       0.276   1.428   0.380  0.00  0.00     0.002 A 
ENDROOT
BRANCH   1   7
ATOM      7  C1  UNL d   1      -1.008  -0.630   1.079  0.00  0.00     0.055 C 
ATOM      8  C   UNL d   1      -2.126   0.249   1.622  0.00  0.00     0.019 C 
ENDBRANCH   1   7
TORSDOF 1
ENDMDL
