MODEL 1
REMARK minimizedAffinity -4.66124296
REMARK minimizedRMSD -1
REMARK  1 active torsions:
REMARK  status: ('A' for Active; 'I' for Inactive)
REMARK    1  A    between atoms: C1_2  and  C2_3 
ROOT
ATOM      1  C2  UNL d   1       0.025   0.588   0.233  0.00  0.00    -0.077 A 
ATOM      2  C3  UNL d   1       0.050  -0.361  -0.799  0.00  0.00     0.002 A 
ATOM      3  C4  UNL d   1       0.788  -0.124  -1.959  0.00  0.00     0.002 A 
ATOM      4  C5  UNL d   1       1.511   1.059  -2.098  0.00  0.00    -0.004 A 
ATOM      5  C6  UNL d   1       1.491   2.011  -1.078  0.00  0.00     0.002 A 
ATOM      6  C7  UNL d   1       0.752   1.776   0.082  0.00  0.00     0.002 A 
ENDROOT
BRANCH   1   7
ATOM      7  C1  UNL d   1      -0.732   0.312   1.506  0.00  0.00     0.055 C 
ATOM      8  C   UNL d   1      -2.175  -0.077   1.219  0.00  0.00     0.019 C 
ENDBRANCH   1   7
TORSDOF 1
ENDMDL
