MODEL 1
REMARK minimizedAffinity -5.34051991
REMARK minimizedRMSD -1
REMARK  0 active torsions:
REMARK  status: ('A' for Active; 'I' for Inactive)
ROOT
ATOM      1  C   UNL d   1      -1.614   0.279  -5.193  0.00  0.00     0.077 C 
ATOM      2  C1  UNL d   1      -0.423   0.235  -4.282  0.00  0.00    -0.074 A 
ATOM      3  C2  UNL d   1       0.763   0.895  -4.618  0.00  0.00    -0.005 A 
ATOM      4  C3  UNL d   1       1.859   0.853  -3.756  0.00  0.00     0.006 A 
ATOM      5  C4  UNL d   1       1.780   0.152  -2.552  0.00  0.00    -0.005 A 
ATOM      6  C5  UNL d   1       0.602  -0.513  -2.199  0.00  0.00    -0.074 A 
ATOM      7  C6  UNL d   1       0.497  -1.263  -0.904  0.00  0.00     0.077 C 
ATOM      8  C7  UNL d   1      -0.498  -0.460  -3.067  0.00  0.00    -0.001 A 
ENDROOT
TORSDOF 0
ENDMDL
