MODEL 1
REMARK minimizedAffinity -3.27529621
REMARK minimizedRMSD -1
REMARK  0 active torsions:
REMARK  status: ('A' for Active; 'I' for Inactive)
ROOT
ATOM      1  C   UNL d   1      -2.997  -1.186   2.450  0.00  0.00     0.077 C 
ATOM      2  C1  UNL d   1      -1.862  -0.404   1.859  0.00  0.00    -0.074 A 
ATOM      3  C2  UNL d   1      -1.247   0.626   2.577  0.00  0.00    -0.005 A 
ATOM      4  C3  UNL d   1      -0.186   1.338   2.018  0.00  0.00     0.006 A 
ATOM      5  C4  UNL d   1       0.271   1.026   0.737  0.00  0.00    -0.005 A 
ATOM      6  C5  UNL d   1      -0.330  -0.001   0.004  0.00  0.00    -0.074 A 
ATOM      7  C6  UNL d   1       0.155  -0.355  -1.371  0.00  0.00     0.077 C 
ATOM      8  C7  UNL d   1      -1.392  -0.716   0.575  0.00  0.00    -0.001 A 
ENDROOT
TORSDOF 0
ENDMDL
