MODEL 1
REMARK minimizedAffinity -4.98114061
REMARK minimizedRMSD -1
REMARK  0 active torsions:
REMARK  status: ('A' for Active; 'I' for Inactive)
ROOT
ATOM      1  C   UNL d   1      -1.132   0.563  -4.965  0.00  0.00     0.077 C 
ATOM      2  C1  UNL d   1       0.071   0.320  -4.103  0.00  0.00    -0.074 A 
ATOM      3  C2  UNL d   1       1.332   0.798  -4.475  0.00  0.00    -0.005 A 
ATOM      4  C3  UNL d   1       2.439   0.572  -3.658  0.00  0.00     0.006 A 
ATOM      5  C4  UNL d   1       2.298  -0.134  -2.463  0.00  0.00    -0.005 A 
ATOM      6  C5  UNL d   1       1.045  -0.619  -2.073  0.00  0.00    -0.074 A 
ATOM      7  C6  UNL d   1       0.875  -1.371  -0.787  0.00  0.00     0.077 C 
ATOM      8  C7  UNL d   1      -0.064  -0.381  -2.896  0.00  0.00    -0.001 A 
ENDROOT
TORSDOF 0
ENDMDL
