MODEL 1
REMARK minimizedAffinity -1.78045273
REMARK minimizedRMSD -1
REMARK  0 active torsions:
REMARK  status: ('A' for Active; 'I' for Inactive)
ROOT
ATOM      1  C   UNL d   1       0.364  -0.808  -1.470  0.00  0.00     0.077 C 
ATOM      2  C1  UNL d   1      -0.161  -0.456  -0.110  0.00  0.00    -0.074 A 
ATOM      3  C2  UNL d   1      -1.428   0.116   0.046  0.00  0.00    -0.005 A 
ATOM      4  C3  UNL d   1      -1.906   0.430   1.318  0.00  0.00     0.006 A 
ATOM      5  C4  UNL d   1      -1.124   0.176   2.445  0.00  0.00    -0.005 A 
ATOM      6  C5  UNL d   1       0.145  -0.396   2.309  0.00  0.00    -0.074 A 
ATOM      7  C6  UNL d   1       0.994  -0.685   3.511  0.00  0.00     0.077 C 
ATOM      8  C7  UNL d   1       0.616  -0.715   1.028  0.00  0.00    -0.001 A 
ENDROOT
TORSDOF 0
ENDMDL
