MODEL 1
REMARK minimizedAffinity -4.57853699
REMARK minimizedRMSD -1
REMARK  0 active torsions:
REMARK  status: ('A' for Active; 'I' for Inactive)
ROOT
ATOM      1  C   UNL d   1      -0.718   1.453   1.710  0.00  0.00     0.077 C 
ATOM      2  C1  UNL d   1      -0.274   0.605   0.555  0.00  0.00    -0.074 A 
ATOM      3  C2  UNL d   1       0.137  -0.717   0.750  0.00  0.00    -0.005 A 
ATOM      4  C3  UNL d   1       0.538  -1.496  -0.335  0.00  0.00     0.006 A 
ATOM      5  C4  UNL d   1       0.532  -0.962  -1.624  0.00  0.00    -0.005 A 
ATOM      6  C5  UNL d   1       0.124   0.358  -1.838  0.00  0.00    -0.074 A 
ATOM      7  C6  UNL d   1       0.102   0.945  -3.219  0.00  0.00     0.077 C 
ATOM      8  C7  UNL d   1      -0.285   1.133  -0.744  0.00  0.00    -0.001 A 
ENDROOT
TORSDOF 0
ENDMDL
