MODEL 1
REMARK minimizedAffinity -2.46126509
REMARK minimizedRMSD -1
REMARK  0 active torsions:
REMARK  status: ('A' for Active; 'I' for Inactive)
ROOT
ATOM      1  C   UNL d   1      -1.846  -0.162  -4.915  0.00  0.00     0.077 C 
ATOM      2  C1  UNL d   1      -0.624  -0.016  -4.057  0.00  0.00    -0.074 A 
ATOM      3  C2  UNL d   1       0.541   0.572  -4.560  0.00  0.00    -0.005 A 
ATOM      4  C3  UNL d   1       1.666   0.710  -3.747  0.00  0.00     0.006 A 
ATOM      5  C4  UNL d   1       1.637   0.263  -2.425  0.00  0.00    -0.005 A 
ATOM      6  C5  UNL d   1       0.481  -0.327  -1.905  0.00  0.00    -0.074 A 
ATOM      7  C6  UNL d   1       0.430  -0.805  -0.484  0.00  0.00     0.077 C 
ATOM      8  C7  UNL d   1      -0.648  -0.456  -2.726  0.00  0.00    -0.001 A 
ENDROOT
TORSDOF 0
ENDMDL
