MODEL 1
REMARK minimizedAffinity -5.59104061
REMARK minimizedRMSD -1
REMARK  0 active torsions:
REMARK  status: ('A' for Active; 'I' for Inactive)
ROOT
ATOM      1  C   UNL d   1      -0.784   1.742   3.003  0.00  0.00     0.077 C 
ATOM      2  C1  UNL d   1      -0.477   0.700   1.969  0.00  0.00    -0.074 A 
ATOM      3  C2  UNL d   1      -1.443   0.304   1.039  0.00  0.00    -0.005 A 
ATOM      4  C3  UNL d   1      -1.140  -0.660   0.077  0.00  0.00     0.006 A 
ATOM      5  C4  UNL d   1       0.130  -1.236   0.036  0.00  0.00    -0.005 A 
ATOM      6  C5  UNL d   1       1.109  -0.852   0.957  0.00  0.00    -0.074 A 
ATOM      7  C6  UNL d   1       2.482  -1.455   0.921  0.00  0.00     0.077 C 
ATOM      8  C7  UNL d   1       0.799   0.121   1.916  0.00  0.00    -0.001 A 
ENDROOT
TORSDOF 0
ENDMDL
