MODEL 1
REMARK minimizedAffinity -3.57348061
REMARK minimizedRMSD -1
REMARK  0 active torsions:
REMARK  status: ('A' for Active; 'I' for Inactive)
ROOT
ATOM      1  C   UNL d   1      -2.444  -0.373   1.828  0.00  0.00     0.077 C 
ATOM      2  C1  UNL d   1      -1.027   0.114   1.788  0.00  0.00    -0.074 A 
ATOM      3  C2  UNL d   1      -0.716   1.446   2.083  0.00  0.00    -0.005 A 
ATOM      4  C3  UNL d   1       0.608   1.882   2.051  0.00  0.00     0.006 A 
ATOM      5  C4  UNL d   1       1.634   0.994   1.724  0.00  0.00    -0.005 A 
ATOM      6  C5  UNL d   1       1.342  -0.341   1.427  0.00  0.00    -0.074 A 
ATOM      7  C6  UNL d   1       2.433  -1.311   1.084  0.00  0.00     0.077 C 
ATOM      8  C7  UNL d   1       0.010  -0.774   1.468  0.00  0.00    -0.001 A 
ENDROOT
TORSDOF 0
ENDMDL
