MODEL 1
REMARK minimizedAffinity 2.51551747
REMARK minimizedRMSD -1
REMARK  0 active torsions:
REMARK  status: ('A' for Active; 'I' for Inactive)
ROOT
ATOM      1  C1  BNZ d   1      -5.996  -1.144   0.072  0.00  0.00     0.000 A 
ATOM      2  C2  BNZ d   1      -5.119  -0.514   0.914  0.00  0.00     0.000 A 
ATOM      3  C3  BNZ d   1      -4.227   0.405   0.435  0.00  0.00     0.000 A 
ATOM      4  C4  BNZ d   1      -4.186   0.662  -0.888  0.00  0.00     0.000 A 
ATOM      5  C5  BNZ d   1      -5.058   0.029  -1.751  0.00  0.00     0.000 A 
ATOM      6  C6  BNZ d   1      -5.981  -0.866  -1.260  0.00  0.00     0.000 A 
ENDROOT
TORSDOF 0
ENDMDL
