MODEL 1
REMARK minimizedAffinity 1.34495509
REMARK minimizedRMSD -1
REMARK  0 active torsions:
REMARK  status: ('A' for Active; 'I' for Inactive)
ROOT
ATOM      1  C1  BNZ d   1      -1.311  -3.839   5.991  0.00  0.00     0.000 A 
ATOM      2  C2  BNZ d   1      -1.037  -2.498   6.000  0.00  0.00     0.000 A 
ATOM      3  C3  BNZ d   1       0.254  -2.047   5.983  0.00  0.00     0.000 A 
ATOM      4  C4  BNZ d   1       1.267  -2.937   5.998  0.00  0.00     0.000 A 
ATOM      5  C5  BNZ d   1       1.007  -4.293   5.999  0.00  0.00     0.000 A 
ATOM      6  C6  BNZ d   1      -0.294  -4.743   5.977  0.00  0.00     0.000 A 
ENDROOT
TORSDOF 0
ENDMDL
