MODEL 1
REMARK minimizedAffinity -0.16716902
REMARK minimizedRMSD -1
REMARK  0 active torsions:
REMARK  status: ('A' for Active; 'I' for Inactive)
ROOT
ATOM      1  C1  BNZ d   1       2.067  -1.016  -0.849  0.00  0.00     0.000 A 
ATOM      2  C2  BNZ d   1       2.914  -1.182   0.214  0.00  0.00     0.000 A 
ATOM      3  C3  BNZ d   1       2.675  -0.556   1.405  0.00  0.00     0.000 A 
ATOM      4  C4  BNZ d   1       1.611   0.266   1.520  0.00  0.00     0.000 A 
ATOM      5  C5  BNZ d   1       0.753   0.451   0.455  0.00  0.00     0.000 A 
ATOM      6  C6  BNZ d   1       0.976  -0.211  -0.731  0.00  0.00     0.000 A 
ENDROOT
TORSDOF 0
ENDMDL
