MODEL 1
REMARK minimizedAffinity 2.17338181
REMARK minimizedRMSD -1
REMARK  0 active torsions:
REMARK  status: ('A' for Active; 'I' for Inactive)
ROOT
ATOM      1  C1  BNZ d   1      -6.000  -0.361  -1.128  0.00  0.00     0.000 A 
ATOM      2  C2  BNZ d   1      -5.982   0.776  -0.365  0.00  0.00     0.000 A 
ATOM      3  C3  BNZ d   1      -5.031   0.956   0.600  0.00  0.00     0.000 A 
ATOM      4  C4  BNZ d   1      -4.125  -0.017   0.828  0.00  0.00     0.000 A 
ATOM      5  C5  BNZ d   1      -4.136  -1.173   0.073  0.00  0.00     0.000 A 
ATOM      6  C6  BNZ d   1      -5.071  -1.334  -0.924  0.00  0.00     0.000 A 
ENDROOT
TORSDOF 0
ENDMDL
