MODEL 1
REMARK minimizedAffinity -4.13487625
REMARK minimizedRMSD -1
REMARK  0 active torsions:
REMARK  status: ('A' for Active; 'I' for Inactive)
ROOT
ATOM      1  C1  BNZ d   1      -0.808  -5.978   0.518  0.00  0.00     0.000 A 
ATOM      2  C2  BNZ d   1      -0.572  -5.999   1.867  0.00  0.00     0.000 A 
ATOM      3  C3  BNZ d   1      -0.795  -4.890   2.634  0.00  0.00     0.000 A 
ATOM      4  C4  BNZ d   1      -1.215  -3.751   2.046  0.00  0.00     0.000 A 
ATOM      5  C5  BNZ d   1      -1.448  -3.711   0.686  0.00  0.00     0.000 A 
ATOM      6  C6  BNZ d   1      -1.260  -4.840  -0.077  0.00  0.00     0.000 A 
ENDROOT
TORSDOF 0
ENDMDL
