MODEL 1
REMARK minimizedAffinity 1.08163345
REMARK minimizedRMSD -1
REMARK  0 active torsions:
REMARK  status: ('A' for Active; 'I' for Inactive)
ROOT
ATOM      1  C1  BNZ d   1       0.334  -5.054   5.977  0.00  0.00     0.000 A 
ATOM      2  C2  BNZ d   1       1.520  -4.371   5.976  0.00  0.00     0.000 A 
ATOM      3  C3  BNZ d   1       1.540  -3.004   6.000  0.00  0.00     0.000 A 
ATOM      4  C4  BNZ d   1       0.376  -2.323   5.984  0.00  0.00     0.000 A 
ATOM      5  C5  BNZ d   1      -0.828  -2.998   5.976  0.00  0.00     0.000 A 
ATOM      6  C6  BNZ d   1      -0.845  -4.374   5.991  0.00  0.00     0.000 A 
ENDROOT
TORSDOF 0
ENDMDL
