MODEL 1
REMARK minimizedAffinity -0.558443964
REMARK minimizedRMSD -1
REMARK  0 active torsions:
REMARK  status: ('A' for Active; 'I' for Inactive)
ROOT
ATOM      1  C1  BNZ d   1       1.220  -4.892   6.000  0.00  0.00     0.000 A 
ATOM      2  C2  BNZ d   1       0.412  -5.997   5.999  0.00  0.00     0.000 A 
ATOM      3  C3  BNZ d   1      -0.949  -5.868   5.974  0.00  0.00     0.000 A 
ATOM      4  C4  BNZ d   1      -1.499  -4.637   5.989  0.00  0.00     0.000 A 
ATOM      5  C5  BNZ d   1      -0.697  -3.513   6.000  0.00  0.00     0.000 A 
ATOM      6  C6  BNZ d   1       0.672  -3.646   5.986  0.00  0.00     0.000 A 
ENDROOT
TORSDOF 0
ENDMDL
