MODEL 1
REMARK minimizedAffinity -2.13847828
REMARK minimizedRMSD -1
REMARK  0 active torsions:
REMARK  status: ('A' for Active; 'I' for Inactive)
ROOT
ATOM      1  C   UNL d   1      -0.984   0.331   1.669  0.00  0.00     0.172 C 
ATOM      2  N   UNL d   1      -0.059   0.012   0.607  0.00  0.00    -0.070 N 
ATOM      3  C1  UNL d   1       0.711  -1.118   0.532  0.00  0.00    -0.004 A 
ATOM      4  C2  UNL d   1       1.453  -1.047  -0.627  0.00  0.00    -0.047 A 
ATOM      5  C3  UNL d   1       1.119   0.168  -1.270  0.00  0.00    -0.047 A 
ATOM      6  C4  UNL d   1       0.181   0.804  -0.485  0.00  0.00    -0.004 A 
ENDROOT
TORSDOF 0
ENDMDL
