MODEL 1
REMARK minimizedAffinity -2.56052375
REMARK minimizedRMSD -1
REMARK  0 active torsions:
REMARK  status: ('A' for Active; 'I' for Inactive)
ROOT
ATOM      1  C   UNL d   1       0.297  -0.527  -0.179  0.00  0.00     0.172 C 
ATOM      2  N   UNL d   1      -0.197   0.176   0.981  0.00  0.00    -0.070 N 
ATOM      3  C1  UNL d   1      -0.087  -0.247   2.279  0.00  0.00    -0.004 A 
ATOM      4  C2  UNL d   1      -0.681   0.701   3.084  0.00  0.00    -0.047 A 
ATOM      5  C3  UNL d   1      -1.166   1.729   2.240  0.00  0.00    -0.047 A 
ATOM      6  C4  UNL d   1      -0.853   1.378   0.944  0.00  0.00    -0.004 A 
ENDROOT
TORSDOF 0
ENDMDL
