MODEL 1
REMARK minimizedAffinity -1.78036606
REMARK minimizedRMSD -1
REMARK  0 active torsions:
REMARK  status: ('A' for Active; 'I' for Inactive)
ROOT
ATOM      1  C   UNL d   1      -1.601   2.453   1.779  0.00  0.00     0.172 C 
ATOM      2  N   UNL d   1      -0.806   1.698   0.840  0.00  0.00    -0.070 N 
ATOM      3  C1  UNL d   1      -0.629   0.340   0.855  0.00  0.00    -0.004 A 
ATOM      4  C2  UNL d   1       0.193   0.010  -0.201  0.00  0.00    -0.047 A 
ATOM      5  C3  UNL d   1       0.522   1.211  -0.873  0.00  0.00    -0.047 A 
ATOM      6  C4  UNL d   1      -0.109   2.240  -0.208  0.00  0.00    -0.004 A 
ENDROOT
TORSDOF 0
ENDMDL
