MODEL 1
REMARK minimizedAffinity -3.38692522
REMARK minimizedRMSD -1
REMARK  0 active torsions:
REMARK  status: ('A' for Active; 'I' for Inactive)
ROOT
ATOM      1  C   UNL d   1       1.003  -0.065  -0.117  0.00  0.00     0.172 C 
ATOM      2  N   UNL d   1      -0.023   0.233   0.854  0.00  0.00    -0.070 N 
ATOM      3  C1  UNL d   1      -0.031  -0.180   2.160  0.00  0.00    -0.004 A 
ATOM      4  C2  UNL d   1      -1.175   0.310   2.751  0.00  0.00    -0.047 A 
ATOM      5  C3  UNL d   1      -1.880   1.042   1.767  0.00  0.00    -0.047 A 
ATOM      6  C4  UNL d   1      -1.145   0.978   0.602  0.00  0.00    -0.004 A 
ENDROOT
TORSDOF 0
ENDMDL
