MODEL 1
REMARK minimizedAffinity -3.15710378
REMARK minimizedRMSD -1
REMARK  0 active torsions:
REMARK  status: ('A' for Active; 'I' for Inactive)
ROOT
ATOM      1  C   UNL d   1       0.970  -0.521   1.618  0.00  0.00     0.172 C 
ATOM      2  N   UNL d   1      -0.162   0.281   1.220  0.00  0.00    -0.070 N 
ATOM      3  C1  UNL d   1      -0.930   0.082   0.103  0.00  0.00    -0.004 A 
ATOM      4  C2  UNL d   1      -1.905   1.055   0.082  0.00  0.00    -0.047 A 
ATOM      5  C3  UNL d   1      -1.718   1.868   1.225  0.00  0.00    -0.047 A 
ATOM      6  C4  UNL d   1      -0.632   1.367   1.912  0.00  0.00    -0.004 A 
ENDROOT
TORSDOF 0
ENDMDL
