MODEL 1
REMARK minimizedAffinity -1.1606189
REMARK minimizedRMSD -1
REMARK  0 active torsions:
REMARK  status: ('A' for Active; 'I' for Inactive)
ROOT
ATOM      1  C   UNL d   1       0.401  -0.048   2.648  0.00  0.00     0.172 C 
ATOM      2  N   UNL d   1      -0.358   0.440   1.520  0.00  0.00    -0.070 N 
ATOM      3  C1  UNL d   1      -0.298  -0.053   0.244  0.00  0.00    -0.004 A 
ATOM      4  C2  UNL d   1      -1.170   0.678  -0.532  0.00  0.00    -0.047 A 
ATOM      5  C3  UNL d   1      -1.775   1.645   0.306  0.00  0.00    -0.047 A 
ATOM      6  C4  UNL d   1      -1.254   1.475   1.571  0.00  0.00    -0.004 A 
ENDROOT
TORSDOF 0
ENDMDL
