MODEL 1
REMARK minimizedAffinity -2.21089458
REMARK minimizedRMSD -1
REMARK  0 active torsions:
REMARK  status: ('A' for Active; 'I' for Inactive)
ROOT
ATOM      1  C   UNL d   1      -1.422   1.733   1.195  0.00  0.00     0.172 C 
ATOM      2  N   UNL d   1      -0.510   1.057   0.302  0.00  0.00    -0.070 N 
ATOM      3  C1  UNL d   1      -0.166  -0.267   0.365  0.00  0.00    -0.004 A 
ATOM      4  C2  UNL d   1       0.723  -0.521  -0.656  0.00  0.00    -0.047 A 
ATOM      5  C3  UNL d   1       0.922   0.692  -1.357  0.00  0.00    -0.047 A 
ATOM      6  C4  UNL d   1       0.147   1.653  -0.742  0.00  0.00    -0.004 A 
ENDROOT
TORSDOF 0
ENDMDL
