MODEL 1
REMARK minimizedAffinity -2.48281264
REMARK minimizedRMSD -1
REMARK  0 active torsions:
REMARK  status: ('A' for Active; 'I' for Inactive)
ROOT
ATOM      1  C   UNL d   1       1.523   1.778  -1.180  0.00  0.00     0.172 C 
ATOM      2  N   UNL d   1       0.504   0.942  -0.591  0.00  0.00    -0.070 N 
ATOM      3  C1  UNL d   1       0.704  -0.302  -0.054  0.00  0.00    -0.004 A 
ATOM      4  C2  UNL d   1      -0.512  -0.765   0.401  0.00  0.00    -0.047 A 
ATOM      5  C3  UNL d   1      -1.476   0.234   0.126  0.00  0.00    -0.047 A 
ATOM      6  C4  UNL d   1      -0.820   1.279  -0.488  0.00  0.00    -0.004 A 
ENDROOT
TORSDOF 0
ENDMDL
