MODEL 1
REMARK minimizedAffinity -2.695575
REMARK minimizedRMSD -1
REMARK  0 active torsions:
REMARK  status: ('A' for Active; 'I' for Inactive)
ROOT
ATOM      1  C   UNL d   1      -1.224   0.869   0.214  0.00  0.00     0.172 C 
ATOM      2  N   UNL d   1       0.051   0.624  -0.420  0.00  0.00    -0.070 N 
ATOM      3  C1  UNL d   1       0.774  -0.535  -0.335  0.00  0.00    -0.004 A 
ATOM      4  C2  UNL d   1       1.924  -0.370  -1.077  0.00  0.00    -0.047 A 
ATOM      5  C3  UNL d   1       1.891   0.934  -1.625  0.00  0.00    -0.047 A 
ATOM      6  C4  UNL d   1       0.720   1.527  -1.202  0.00  0.00    -0.004 A 
ENDROOT
TORSDOF 0
ENDMDL
