MODEL 1
REMARK minimizedAffinity -2.75574541
REMARK minimizedRMSD -1
REMARK  0 active torsions:
REMARK  status: ('A' for Active; 'I' for Inactive)
ROOT
ATOM      1  C   UNL d   1      -2.072   1.938   1.134  0.00  0.00     0.172 C 
ATOM      2  N   UNL d   1      -1.081   1.063   0.553  0.00  0.00    -0.070 N 
ATOM      3  C1  UNL d   1      -0.549  -0.049   1.151  0.00  0.00    -0.004 A 
ATOM      4  C2  UNL d   1       0.357  -0.607   0.275  0.00  0.00    -0.047 A 
ATOM      5  C3  UNL d   1       0.371   0.198  -0.889  0.00  0.00    -0.047 A 
ATOM      6  C4  UNL d   1      -0.528   1.224  -0.690  0.00  0.00    -0.004 A 
ENDROOT
TORSDOF 0
ENDMDL
