MODEL 1
REMARK minimizedAffinity -1.20681703
REMARK minimizedRMSD -1
REMARK  0 active torsions:
REMARK  status: ('A' for Active; 'I' for Inactive)
ROOT
ATOM      1  C   UNL d   1       0.093  -0.370  -0.239  0.00  0.00     0.172 C 
ATOM      2  N   UNL d   1      -0.440   0.333   0.904  0.00  0.00    -0.070 N 
ATOM      3  C1  UNL d   1      -0.320  -0.060   2.210  0.00  0.00    -0.004 A 
ATOM      4  C2  UNL d   1      -0.962   0.875   2.993  0.00  0.00    -0.047 A 
ATOM      5  C3  UNL d   1      -1.487   1.864   2.127  0.00  0.00    -0.047 A 
ATOM      6  C4  UNL d   1      -1.150   1.503   0.840  0.00  0.00    -0.004 A 
ENDROOT
TORSDOF 0
ENDMDL
