MODEL 1
REMARK minimizedAffinity -3.55425191
REMARK minimizedRMSD -1
REMARK  0 active torsions:
REMARK  status: ('A' for Active; 'I' for Inactive)
ROOT
ATOM      1  C   UNL d   1       0.495  -0.661  -0.342  0.00  0.00     0.172 C 
ATOM      2  N   UNL d   1      -0.356   0.119   0.525  0.00  0.00    -0.070 N 
ATOM      3  C1  UNL d   1      -0.123   0.379   1.849  0.00  0.00    -0.004 A 
ATOM      4  C2  UNL d   1      -1.163   1.154   2.317  0.00  0.00    -0.047 A 
ATOM      5  C3  UNL d   1      -2.052   1.365   1.237  0.00  0.00    -0.047 A 
ATOM      6  C4  UNL d   1      -1.529   0.713   0.140  0.00  0.00    -0.004 A 
ENDROOT
TORSDOF 0
ENDMDL
