MODEL 1
REMARK minimizedAffinity -2.91063881
REMARK minimizedRMSD -1
REMARK  0 active torsions:
REMARK  status: ('A' for Active; 'I' for Inactive)
ROOT
ATOM      1  C   UNL d   1       1.668  -1.306  -0.831  0.00  0.00     0.172 C 
ATOM      2  N   UNL d   1       0.834  -0.130  -0.745  0.00  0.00    -0.070 N 
ATOM      3  C1  UNL d   1       1.058   1.057  -1.389  0.00  0.00    -0.004 A 
ATOM      4  C2  UNL d   1       0.039   1.921  -1.049  0.00  0.00    -0.047 A 
ATOM      5  C3  UNL d   1      -0.827   1.229  -0.170  0.00  0.00    -0.047 A 
ATOM      6  C4  UNL d   1      -0.311  -0.039   0.001  0.00  0.00    -0.004 A 
ENDROOT
TORSDOF 0
ENDMDL
