MODEL 1
REMARK minimizedAffinity -3.79728222
REMARK minimizedRMSD -1
REMARK  0 active torsions:
REMARK  status: ('A' for Active; 'I' for Inactive)
ROOT
ATOM      1  C   UNL d   1       1.933   0.263  -1.179  0.00  0.00     0.172 C 
ATOM      2  N   UNL d   1       0.596   0.581  -0.737  0.00  0.00    -0.070 N 
ATOM      3  C1  UNL d   1       0.083   1.842  -0.588  0.00  0.00    -0.004 A 
ATOM      4  C2  UNL d   1      -1.218   1.720  -0.152  0.00  0.00    -0.047 A 
ATOM      5  C3  UNL d   1      -1.497   0.337  -0.033  0.00  0.00    -0.047 A 
ATOM      6  C4  UNL d   1      -0.357  -0.345  -0.402  0.00  0.00    -0.004 A 
ENDROOT
TORSDOF 0
ENDMDL
