MODEL 1
REMARK minimizedAffinity -3.76023793
REMARK minimizedRMSD -1
REMARK  0 active torsions:
REMARK  status: ('A' for Active; 'I' for Inactive)
ROOT
ATOM      1  C   UNL d   1       0.114  -0.762  -0.491  0.00  0.00     0.172 C 
ATOM      2  N   UNL d   1      -0.429   0.174   0.464  0.00  0.00    -0.070 N 
ATOM      3  C1  UNL d   1      -1.213   1.256   0.163  0.00  0.00    -0.004 A 
ATOM      4  C2  UNL d   1      -1.525   1.893   1.345  0.00  0.00    -0.047 A 
ATOM      5  C3  UNL d   1      -0.905   1.169   2.392  0.00  0.00    -0.047 A 
ATOM      6  C4  UNL d   1      -0.234   0.111   1.818  0.00  0.00    -0.004 A 
ENDROOT
TORSDOF 0
ENDMDL
