MODEL 1
REMARK minimizedAffinity -2.06702876
REMARK minimizedRMSD -1
REMARK  0 active torsions:
REMARK  status: ('A' for Active; 'I' for Inactive)
ROOT
ATOM      1  C   UNL d   1       0.285  -0.786  -0.555  0.00  0.00     0.172 C 
ATOM      2  N   UNL d   1      -0.309   0.040   0.469  0.00  0.00    -0.070 N 
ATOM      3  C1  UNL d   1      -1.071  -0.408   1.515  0.00  0.00    -0.004 A 
ATOM      4  C2  UNL d   1      -1.445   0.687   2.264  0.00  0.00    -0.047 A 
ATOM      5  C3  UNL d   1      -0.891   1.832   1.646  0.00  0.00    -0.047 A 
ATOM      6  C4  UNL d   1      -0.192   1.404   0.537  0.00  0.00    -0.004 A 
ENDROOT
TORSDOF 0
ENDMDL
