MODEL 1
REMARK minimizedAffinity -3.53068876
REMARK minimizedRMSD -1
REMARK  0 active torsions:
REMARK  status: ('A' for Active; 'I' for Inactive)
ROOT
ATOM      1  C   UNL d   1       0.450  -0.572  -0.001  0.00  0.00     0.172 C 
ATOM      2  N   UNL d   1      -0.402   0.225   0.850  0.00  0.00    -0.070 N 
ATOM      3  C1  UNL d   1      -0.988  -0.198   2.014  0.00  0.00    -0.004 A 
ATOM      4  C2  UNL d   1      -1.719   0.852   2.524  0.00  0.00    -0.047 A 
ATOM      5  C3  UNL d   1      -1.569   1.944   1.637  0.00  0.00    -0.047 A 
ATOM      6  C4  UNL d   1      -0.749   1.528   0.609  0.00  0.00    -0.004 A 
ENDROOT
TORSDOF 0
ENDMDL
