MODEL 1
REMARK minimizedAffinity -2.11981273
REMARK minimizedRMSD -1
REMARK  0 active torsions:
REMARK  status: ('A' for Active; 'I' for Inactive)
ROOT
ATOM      1  C   UNL d   1      -1.318   1.097   1.672  0.00  0.00     0.172 C 
ATOM      2  N   UNL d   1      -0.421   0.500   0.710  0.00  0.00    -0.070 N 
ATOM      3  C1  UNL d   1       0.278  -0.664   0.885  0.00  0.00    -0.004 A 
ATOM      4  C2  UNL d   1       1.015  -0.890  -0.257  0.00  0.00    -0.047 A 
ATOM      5  C3  UNL d   1       0.749   0.175  -1.150  0.00  0.00    -0.047 A 
ATOM      6  C4  UNL d   1      -0.143   1.021  -0.526  0.00  0.00    -0.004 A 
ENDROOT
TORSDOF 0
ENDMDL
