MODEL 1
REMARK minimizedAffinity 20.0609646
REMARK minimizedRMSD -1
REMARK  0 active torsions:
REMARK  status: ('A' for Active; 'I' for Inactive)
ROOT
ATOM      1  O1  BZF d   1      -0.532   3.629  -6.000  0.00  0.00    -0.204 OA
ATOM      2  C2  BZF d   1       0.476   3.114  -5.207  0.00  0.00     0.174 A 
ATOM      3  C3  BZF d   1      -0.035   2.358  -4.214  0.00  0.00    -0.012 A 
ATOM      4  C3A BZF d   1      -1.446   2.328  -4.452  0.00  0.00    -0.107 A 
ATOM      5  C4  BZF d   1      -2.493   1.725  -3.815  0.00  0.00     0.055 A 
ATOM      6  C5  BZF d   1      -3.756   1.954  -4.259  0.00  0.00    -0.016 A 
ATOM      7  C6  BZF d   1      -4.010   2.783  -5.333  0.00  0.00     0.022 A 
ATOM      8  C7  BZF d   1      -3.003   3.399  -6.000  0.00  0.00     0.029 A 
ATOM      9  C7A BZF d   1      -1.723   3.143  -5.574  0.00  0.00     0.058 A 
ENDROOT
TORSDOF 0
ENDMDL
