MODEL 1
REMARK minimizedAffinity 18.2351151
REMARK minimizedRMSD -1
REMARK  0 active torsions:
REMARK  status: ('A' for Active; 'I' for Inactive)
ROOT
ATOM      1  O1  BZF d   1       4.261   1.432   3.266  0.00  0.00    -0.204 OA
ATOM      2  C2  BZF d   1       5.205   0.431   3.386  0.00  0.00     0.174 A 
ATOM      3  C3  BZF d   1       5.999   0.390   2.296  0.00  0.00    -0.012 A 
ATOM      4  C3A BZF d   1       5.580   1.490   1.483  0.00  0.00    -0.107 A 
ATOM      5  C4  BZF d   1       5.999   1.981   0.280  0.00  0.00     0.055 A 
ATOM      6  C5  BZF d   1       5.330   3.025  -0.276  0.00  0.00    -0.016 A 
ATOM      7  C6  BZF d   1       4.237   3.598   0.341  0.00  0.00     0.022 A 
ATOM      8  C7  BZF d   1       3.787   3.148   1.537  0.00  0.00     0.029 A 
ATOM      9  C7A BZF d   1       4.481   2.115   2.117  0.00  0.00     0.058 A 
ENDROOT
TORSDOF 0
ENDMDL
