MODEL 1
REMARK minimizedAffinity 13.6007681
REMARK minimizedRMSD -1
REMARK  0 active torsions:
REMARK  status: ('A' for Active; 'I' for Inactive)
ROOT
ATOM      1  O1  BZF d   1       4.881   5.394   1.312  0.00  0.00    -0.204 OA
ATOM      2  C2  BZF d   1       5.423   5.986   0.187  0.00  0.00     0.174 A 
ATOM      3  C3  BZF d   1       5.991   5.062  -0.614  0.00  0.00    -0.012 A 
ATOM      4  C3A BZF d   1       5.711   3.803   0.007  0.00  0.00    -0.107 A 
ATOM      5  C4  BZF d   1       6.000   2.509  -0.322  0.00  0.00     0.055 A 
ATOM      6  C5  BZF d   1       5.646   1.516   0.535  0.00  0.00    -0.016 A 
ATOM      7  C6  BZF d   1       5.008   1.780   1.729  0.00  0.00     0.022 A 
ATOM      8  C7  BZF d   1       4.696   3.047   2.096  0.00  0.00     0.029 A 
ATOM      9  C7A BZF d   1       5.022   4.050   1.217  0.00  0.00     0.058 A 
ENDROOT
TORSDOF 0
ENDMDL
