MODEL 1
REMARK minimizedAffinity 20.883606
REMARK minimizedRMSD -1
REMARK  0 active torsions:
REMARK  status: ('A' for Active; 'I' for Inactive)
ROOT
ATOM      1  O1  BZF d   1      -0.771  -3.400  -3.372  0.00  0.00    -0.204 OA
ATOM      2  C2  BZF d   1      -1.130  -2.140  -3.812  0.00  0.00     0.174 A 
ATOM      3  C3  BZF d   1      -1.322  -1.307  -2.769  0.00  0.00    -0.012 A 
ATOM      4  C3A BZF d   1      -0.978  -2.069  -1.609  0.00  0.00    -0.107 A 
ATOM      5  C4  BZF d   1      -0.950  -1.786  -0.273  0.00  0.00     0.055 A 
ATOM      6  C5  BZF d   1      -0.637  -2.774   0.606  0.00  0.00    -0.016 A 
ATOM      7  C6  BZF d   1      -0.353  -4.057   0.185  0.00  0.00     0.022 A 
ATOM      8  C7  BZF d   1      -0.363  -4.385  -1.130  0.00  0.00     0.029 A 
ATOM      9  C7A BZF d   1      -0.646  -3.380  -2.023  0.00  0.00     0.058 A 
ENDROOT
TORSDOF 0
ENDMDL
