MODEL 1
REMARK minimizedAffinity 6.17187977
REMARK minimizedRMSD -1
REMARK  0 active torsions:
REMARK  status: ('A' for Active; 'I' for Inactive)
ROOT
ATOM      1  O1  BZF d   1       3.115   2.631   1.171  0.00  0.00    -0.204 OA
ATOM      2  C2  BZF d   1       3.752   2.997   0.001  0.00  0.00     0.174 A 
ATOM      3  C3  BZF d   1       4.958   2.402  -0.092  0.00  0.00    -0.012 A 
ATOM      4  C3A BZF d   1       5.045   1.544   1.049  0.00  0.00    -0.107 A 
ATOM      5  C4  BZF d   1       5.999   0.679   1.504  0.00  0.00     0.055 A 
ATOM      6  C5  BZF d   1       5.806   0.048   2.692  0.00  0.00    -0.016 A 
ATOM      7  C6  BZF d   1       4.675   0.262   3.452  0.00  0.00     0.022 A 
ATOM      8  C7  BZF d   1       3.699   1.107   3.041  0.00  0.00     0.029 A 
ATOM      9  C7A BZF d   1       3.876   1.721   1.825  0.00  0.00     0.058 A 
ENDROOT
TORSDOF 0
ENDMDL
