MODEL 1
REMARK minimizedAffinity 10.4015236
REMARK minimizedRMSD -1
REMARK  0 active torsions:
REMARK  status: ('A' for Active; 'I' for Inactive)
ROOT
ATOM      1  O1  BZF d   1       4.723   5.299   1.443  0.00  0.00    -0.204 OA
ATOM      2  C2  BZF d   1       5.317   5.933   0.369  0.00  0.00     0.174 A 
ATOM      3  C3  BZF d   1       5.951   5.042  -0.421  0.00  0.00    -0.012 A 
ATOM      4  C3A BZF d   1       5.662   3.762   0.149  0.00  0.00    -0.107 A 
ATOM      5  C4  BZF d   1       5.999   2.483  -0.194  0.00  0.00     0.055 A 
ATOM      6  C5  BZF d   1       5.617   1.460   0.614  0.00  0.00    -0.016 A 
ATOM      7  C6  BZF d   1       4.904   1.678   1.775  0.00  0.00     0.022 A 
ATOM      8  C7  BZF d   1       4.543   2.928   2.155  0.00  0.00     0.029 A 
ATOM      9  C7A BZF d   1       4.899   3.962   1.322  0.00  0.00     0.058 A 
ENDROOT
TORSDOF 0
ENDMDL
