MODEL 1
REMARK minimizedAffinity 14.9437532
REMARK minimizedRMSD -1
REMARK  0 active torsions:
REMARK  status: ('A' for Active; 'I' for Inactive)
ROOT
ATOM      1  O1  BZF d   1       4.166   1.270   3.233  0.00  0.00    -0.204 OA
ATOM      2  C2  BZF d   1       5.158   0.322   3.397  0.00  0.00     0.174 A 
ATOM      3  C3  BZF d   1       6.000   0.323   2.343  0.00  0.00    -0.012 A 
ATOM      4  C3A BZF d   1       5.557   1.397   1.508  0.00  0.00    -0.107 A 
ATOM      5  C4  BZF d   1       6.000   1.909   0.322  0.00  0.00     0.055 A 
ATOM      6  C5  BZF d   1       5.300   2.915  -0.266  0.00  0.00    -0.016 A 
ATOM      7  C6  BZF d   1       4.151   3.428   0.301  0.00  0.00     0.022 A 
ATOM      8  C7  BZF d   1       3.676   2.956   1.479  0.00  0.00     0.029 A 
ATOM      9  C7A BZF d   1       4.399   1.962   2.092  0.00  0.00     0.058 A 
ENDROOT
TORSDOF 0
ENDMDL
