MODEL 1
REMARK minimizedAffinity 6.32512379
REMARK minimizedRMSD -1
REMARK  0 active torsions:
REMARK  status: ('A' for Active; 'I' for Inactive)
ROOT
ATOM      1  O1  BZF d   1      -0.295  -5.011   0.989  0.00  0.00    -0.204 OA
ATOM      2  C2  BZF d   1      -0.483  -5.410   2.298  0.00  0.00     0.174 A 
ATOM      3  C3  BZF d   1      -1.190  -4.488   2.983  0.00  0.00    -0.012 A 
ATOM      4  C3A BZF d   1      -1.540  -3.490   2.018  0.00  0.00    -0.107 A 
ATOM      5  C4  BZF d   1      -2.255  -2.329   2.086  0.00  0.00     0.055 A 
ATOM      6  C5  BZF d   1      -2.350  -1.546   0.979  0.00  0.00    -0.016 A 
ATOM      7  C6  BZF d   1      -1.739  -1.891  -0.209  0.00  0.00     0.022 A 
ATOM      8  C7  BZF d   1      -1.024  -3.036  -0.326  0.00  0.00     0.029 A 
ATOM      9  C7A BZF d   1      -0.953  -3.845   0.782  0.00  0.00     0.058 A 
ENDROOT
TORSDOF 0
ENDMDL
