MODEL 1
REMARK minimizedAffinity 16.9521446
REMARK minimizedRMSD -1
REMARK  0 active torsions:
REMARK  status: ('A' for Active; 'I' for Inactive)
ROOT
ATOM      1  O1  BZF d   1       2.835  -0.959  -1.950  0.00  0.00    -0.204 OA
ATOM      2  C2  BZF d   1       2.075   0.139  -1.597  0.00  0.00     0.174 A 
ATOM      3  C3  BZF d   1       2.697   1.284  -1.946  0.00  0.00    -0.012 A 
ATOM      4  C3A BZF d   1       3.880   0.874  -2.639  0.00  0.00    -0.107 A 
ATOM      5  C4  BZF d   1       4.899   1.554  -3.241  0.00  0.00     0.055 A 
ATOM      6  C5  BZF d   1       5.941   0.856  -3.763  0.00  0.00    -0.016 A 
ATOM      7  C6  BZF d   1       6.000  -0.520  -3.696  0.00  0.00     0.022 A 
ATOM      8  C7  BZF d   1       5.010  -1.240  -3.113  0.00  0.00     0.029 A 
ATOM      9  C7A BZF d   1       3.939  -0.539  -2.614  0.00  0.00     0.058 A 
ENDROOT
TORSDOF 0
ENDMDL
