MODEL 1
REMARK minimizedAffinity 14.5748377
REMARK minimizedRMSD -1
REMARK  0 active torsions:
REMARK  status: ('A' for Active; 'I' for Inactive)
ROOT
ATOM      1  O1  BZF d   1      -0.272  -4.822   1.033  0.00  0.00    -0.204 OA
ATOM      2  C2  BZF d   1      -0.358  -5.093   2.385  0.00  0.00     0.174 A 
ATOM      3  C3  BZF d   1      -1.062  -4.135   3.022  0.00  0.00    -0.012 A 
ATOM      4  C3A BZF d   1      -1.518  -3.255   1.990  0.00  0.00    -0.107 A 
ATOM      5  C4  BZF d   1      -2.280  -2.122   1.992  0.00  0.00     0.055 A 
ATOM      6  C5  BZF d   1      -2.481  -1.460   0.823  0.00  0.00    -0.016 A 
ATOM      7  C6  BZF d   1      -1.933  -1.899  -0.364  0.00  0.00     0.022 A 
ATOM      8  C7  BZF d   1      -1.174  -3.021  -0.417  0.00  0.00     0.029 A 
ATOM      9  C7A BZF d   1      -0.996  -3.711   0.757  0.00  0.00     0.058 A 
ENDROOT
TORSDOF 0
ENDMDL
