MODEL 1
REMARK minimizedAffinity 9.4165535
REMARK minimizedRMSD -1
REMARK  0 active torsions:
REMARK  status: ('A' for Active; 'I' for Inactive)
ROOT
ATOM      1  O1  BZF d   1      -2.015  -1.220   2.738  0.00  0.00    -0.204 OA
ATOM      2  C2  BZF d   1      -1.983  -2.233   3.677  0.00  0.00     0.174 A 
ATOM      3  C3  BZF d   1      -1.915  -3.439   3.077  0.00  0.00    -0.012 A 
ATOM      4  C3A BZF d   1      -1.811  -3.158   1.678  0.00  0.00    -0.107 A 
ATOM      5  C4  BZF d   1      -1.696  -3.946   0.568  0.00  0.00     0.055 A 
ATOM      6  C5  BZF d   1      -1.690  -3.362  -0.659  0.00  0.00    -0.016 A 
ATOM      7  C6  BZF d   1      -1.803  -1.995  -0.813  0.00  0.00     0.022 A 
ATOM      8  C7  BZF d   1      -1.915  -1.173   0.258  0.00  0.00     0.029 A 
ATOM      9  C7A BZF d   1      -1.887  -1.758   1.501  0.00  0.00     0.058 A 
ENDROOT
TORSDOF 0
ENDMDL
