MODEL 1
REMARK minimizedAffinity 4.02599382
REMARK minimizedRMSD -1
REMARK  0 active torsions:
REMARK  status: ('A' for Active; 'I' for Inactive)
ROOT
ATOM      1  O1  BZF d   1      -2.963  -1.445   0.165  0.00  0.00    -0.204 OA
ATOM      2  C2  BZF d   1      -2.113  -1.407  -0.923  0.00  0.00     0.174 A 
ATOM      3  C3  BZF d   1      -1.071  -2.245  -0.745  0.00  0.00    -0.012 A 
ATOM      4  C3A BZF d   1      -1.332  -2.912   0.493  0.00  0.00    -0.107 A 
ATOM      5  C4  BZF d   1      -0.667  -3.873   1.200  0.00  0.00     0.055 A 
ATOM      6  C5  BZF d   1      -1.151  -4.257   2.410  0.00  0.00    -0.016 A 
ATOM      7  C6  BZF d   1      -2.293  -3.698   2.946  0.00  0.00     0.022 A 
ATOM      8  C7  BZF d   1      -2.990  -2.746   2.279  0.00  0.00     0.029 A 
ATOM      9  C7A BZF d   1      -2.521  -2.379   1.041  0.00  0.00     0.058 A 
ENDROOT
TORSDOF 0
ENDMDL
