MODEL 1
REMARK minimizedAffinity 16.2243347
REMARK minimizedRMSD -1
REMARK  0 active torsions:
REMARK  status: ('A' for Active; 'I' for Inactive)
ROOT
ATOM      1  O1  BZF d   1       4.125   3.375   2.440  0.00  0.00    -0.204 OA
ATOM      2  C2  BZF d   1       4.455   2.046   2.258  0.00  0.00     0.174 A 
ATOM      3  C3  BZF d   1       5.160   1.880   1.120  0.00  0.00    -0.012 A 
ATOM      4  C3A BZF d   1       5.357   3.199   0.603  0.00  0.00    -0.107 A 
ATOM      5  C4  BZF d   1       5.999   3.690  -0.498  0.00  0.00     0.055 A 
ATOM      6  C5  BZF d   1       5.944   5.023  -0.755  0.00  0.00    -0.016 A 
ATOM      7  C6  BZF d   1       5.253   5.892   0.063  0.00  0.00     0.022 A 
ATOM      8  C7  BZF d   1       4.605   5.453   1.169  0.00  0.00     0.029 A 
ATOM      9  C7A BZF d   1       4.686   4.111   1.450  0.00  0.00     0.058 A 
ENDROOT
TORSDOF 0
ENDMDL
