MODEL 1
REMARK minimizedAffinity 18.7555332
REMARK minimizedRMSD -1
REMARK  0 active torsions:
REMARK  status: ('A' for Active; 'I' for Inactive)
ROOT
ATOM      1  O1  BZF d   1       4.507   5.152   0.704  0.00  0.00    -0.204 OA
ATOM      2  C2  BZF d   1       5.255   5.573  -0.379  0.00  0.00     0.174 A 
ATOM      3  C3  BZF d   1       5.994   4.559  -0.873  0.00  0.00    -0.012 A 
ATOM      4  C3A BZF d   1       5.620   3.411  -0.105  0.00  0.00    -0.107 A 
ATOM      5  C4  BZF d   1       5.998   2.099  -0.132  0.00  0.00     0.055 A 
ATOM      6  C5  BZF d   1       5.498   1.248   0.802  0.00  0.00    -0.016 A 
ATOM      7  C6  BZF d   1       4.623   1.676   1.779  0.00  0.00     0.022 A 
ATOM      8  C7  BZF d   1       4.215   2.967   1.843  0.00  0.00     0.029 A 
ATOM      9  C7A BZF d   1       4.693   3.822   0.881  0.00  0.00     0.058 A 
ENDROOT
TORSDOF 0
ENDMDL
