MODEL 1
REMARK minimizedAffinity 11.381876
REMARK minimizedRMSD -1
REMARK  0 active torsions:
REMARK  status: ('A' for Active; 'I' for Inactive)
ROOT
ATOM      1  O1  BZF d   1       5.989   0.468   2.170  0.00  0.00    -0.204 OA
ATOM      2  C2  BZF d   1       5.360   0.556   3.397  0.00  0.00     0.174 A 
ATOM      3  C3  BZF d   1       4.633   1.688   3.482  0.00  0.00    -0.012 A 
ATOM      4  C3A BZF d   1       4.744   2.304   2.195  0.00  0.00    -0.107 A 
ATOM      5  C4  BZF d   1       4.229   3.447   1.654  0.00  0.00     0.055 A 
ATOM      6  C5  BZF d   1       4.589   3.801   0.393  0.00  0.00    -0.016 A 
ATOM      7  C6  BZF d   1       5.465   3.039  -0.353  0.00  0.00     0.022 A 
ATOM      8  C7  BZF d   1       5.998   1.894   0.139  0.00  0.00     0.029 A 
ATOM      9  C7A BZF d   1       5.610   1.517   1.402  0.00  0.00     0.058 A 
ENDROOT
TORSDOF 0
ENDMDL
