MODEL 1
REMARK minimizedAffinity 15.6063814
REMARK minimizedRMSD -1
REMARK  0 active torsions:
REMARK  status: ('A' for Active; 'I' for Inactive)
ROOT
ATOM      1  O1  BZF d   1      -0.162  -4.713  -0.322  0.00  0.00    -0.204 OA
ATOM      2  C2  BZF d   1      -0.289  -5.217   0.958  0.00  0.00     0.174 A 
ATOM      3  C3  BZF d   1      -0.956  -4.351   1.749  0.00  0.00    -0.012 A 
ATOM      4  C3A BZF d   1      -1.346  -3.278   0.887  0.00  0.00    -0.107 A 
ATOM      5  C4  BZF d   1      -2.049  -2.124   1.084  0.00  0.00     0.055 A 
ATOM      6  C5  BZF d   1      -2.192  -1.253   0.051  0.00  0.00    -0.016 A 
ATOM      7  C6  BZF d   1      -1.643  -1.502  -1.190  0.00  0.00     0.022 A 
ATOM      8  C7  BZF d   1      -0.941  -2.636  -1.435  0.00  0.00     0.029 A 
ATOM      9  C7A BZF d   1      -0.823  -3.533  -0.401  0.00  0.00     0.058 A 
ENDROOT
TORSDOF 0
ENDMDL
