MODEL 1
REMARK minimizedAffinity 10.4058828
REMARK minimizedRMSD -1
REMARK  0 active torsions:
REMARK  status: ('A' for Active; 'I' for Inactive)
ROOT
ATOM      1  O1  BZF d   1      -0.092  -4.468  -1.113  0.00  0.00    -0.204 OA
ATOM      2  C2  BZF d   1      -0.107  -5.413  -0.106  0.00  0.00     0.174 A 
ATOM      3  C3  BZF d   1      -0.788  -4.959   0.967  0.00  0.00    -0.012 A 
ATOM      4  C3A BZF d   1      -1.304  -3.684   0.573  0.00  0.00    -0.107 A 
ATOM      5  C4  BZF d   1      -2.076  -2.749   1.201  0.00  0.00     0.055 A 
ATOM      6  C5  BZF d   1      -2.342  -1.578   0.565  0.00  0.00    -0.016 A 
ATOM      7  C6  BZF d   1      -1.849  -1.307  -0.694  0.00  0.00     0.022 A 
ATOM      8  C7  BZF d   1      -1.083  -2.205  -1.359  0.00  0.00     0.029 A 
ATOM      9  C7A BZF d   1      -0.840  -3.404  -0.733  0.00  0.00     0.058 A 
ENDROOT
TORSDOF 0
ENDMDL
