MODEL 1
REMARK minimizedAffinity 5.5355258
REMARK minimizedRMSD -1
REMARK  0 active torsions:
REMARK  status: ('A' for Active; 'I' for Inactive)
ROOT
ATOM      1  C   UNL d   1       5.263  -2.244  -0.113  0.00  0.00     0.078 C 
ATOM      2  C1  UNL d   1       3.823  -2.537   0.186  0.00  0.00    -0.077 A 
ATOM      3  C2  UNL d   1       3.156  -3.593  -0.446  0.00  0.00    -0.001 A 
ATOM      4  C3  UNL d   1       1.813  -3.848  -0.166  0.00  0.00     0.003 A 
ATOM      5  C4  UNL d   1       1.125  -3.050   0.747  0.00  0.00    -0.005 A 
ATOM      6  C5  UNL d   1       1.780  -1.996   1.379  0.00  0.00     0.003 A 
ATOM      7  C6  UNL d   1       3.123  -1.739   1.100  0.00  0.00    -0.001 A 
ENDROOT
TORSDOF 0
ENDMDL
