MODEL 1
REMARK minimizedAffinity 1.71298444
REMARK minimizedRMSD -1
REMARK  0 active torsions:
REMARK  status: ('A' for Active; 'I' for Inactive)
ROOT
ATOM      1  C   UNL d   1       5.998   1.187  -2.853  0.00  0.00     0.078 C 
ATOM      2  C1  UNL d   1       5.988   1.981  -1.580  0.00  0.00    -0.077 A 
ATOM      3  C2  UNL d   1       5.999   3.381  -1.603  0.00  0.00    -0.001 A 
ATOM      4  C3  UNL d   1       6.000   4.106  -0.411  0.00  0.00     0.003 A 
ATOM      5  C4  UNL d   1       5.990   3.440   0.813  0.00  0.00    -0.005 A 
ATOM      6  C5  UNL d   1       5.981   2.047   0.846  0.00  0.00     0.003 A 
ATOM      7  C6  UNL d   1       5.981   1.320  -0.345  0.00  0.00    -0.001 A 
ENDROOT
TORSDOF 0
ENDMDL
