MODEL 1
REMARK minimizedAffinity 4.4848094
REMARK minimizedRMSD -1
REMARK  0 active torsions:
REMARK  status: ('A' for Active; 'I' for Inactive)
ROOT
ATOM      1  C   UNL d   1      -0.704  -1.152   3.194  0.00  0.00     0.078 C 
ATOM      2  C1  UNL d   1       0.285  -1.785   2.261  0.00  0.00    -0.077 A 
ATOM      3  C2  UNL d   1       0.906  -2.998   2.582  0.00  0.00    -0.001 A 
ATOM      4  C3  UNL d   1       1.831  -3.571   1.708  0.00  0.00     0.003 A 
ATOM      5  C4  UNL d   1       2.145  -2.937   0.508  0.00  0.00    -0.005 A 
ATOM      6  C5  UNL d   1       1.534  -1.728   0.181  0.00  0.00     0.003 A 
ATOM      7  C6  UNL d   1       0.608  -1.154   1.053  0.00  0.00    -0.001 A 
ENDROOT
TORSDOF 0
ENDMDL
