MODEL 1
REMARK minimizedAffinity -3.14139509
REMARK minimizedRMSD -1
REMARK  0 active torsions:
REMARK  status: ('A' for Active; 'I' for Inactive)
ROOT
ATOM      1  C   UNL d   1       1.970  -1.772   0.067  0.00  0.00     0.078 C 
ATOM      2  C1  UNL d   1       2.883  -2.831   0.607  0.00  0.00    -0.077 A 
ATOM      3  C2  UNL d   1       4.258  -2.599   0.741  0.00  0.00    -0.001 A 
ATOM      4  C3  UNL d   1       5.097  -3.598   1.237  0.00  0.00     0.003 A 
ATOM      5  C4  UNL d   1       4.572  -4.836   1.602  0.00  0.00    -0.005 A 
ATOM      6  C5  UNL d   1       3.206  -5.077   1.470  0.00  0.00     0.003 A 
ATOM      7  C6  UNL d   1       2.365  -4.080   0.975  0.00  0.00    -0.001 A 
ENDROOT
TORSDOF 0
ENDMDL
