MODEL 1
REMARK minimizedAffinity 8.12870693
REMARK minimizedRMSD -1
REMARK  0 active torsions:
REMARK  status: ('A' for Active; 'I' for Inactive)
ROOT
ATOM      1  C   UNL d   1       5.375  -0.343   0.149  0.00  0.00     0.078 C 
ATOM      2  C1  UNL d   1       4.314  -1.271   0.661  0.00  0.00    -0.077 A 
ATOM      3  C2  UNL d   1       4.636  -2.560   1.103  0.00  0.00    -0.001 A 
ATOM      4  C3  UNL d   1       3.637  -3.417   1.568  0.00  0.00     0.003 A 
ATOM      5  C4  UNL d   1       2.309  -2.995   1.594  0.00  0.00    -0.005 A 
ATOM      6  C5  UNL d   1       1.979  -1.715   1.154  0.00  0.00     0.003 A 
ATOM      7  C6  UNL d   1       2.976  -0.857   0.688  0.00  0.00    -0.001 A 
ENDROOT
TORSDOF 0
ENDMDL
