MODEL 1
REMARK minimizedAffinity 1.40889275
REMARK minimizedRMSD -1
REMARK  0 active torsions:
REMARK  status: ('A' for Active; 'I' for Inactive)
ROOT
ATOM      1  C1  BNZ d   1       1.857  -0.584  -0.279  0.00  0.00     0.000 A 
ATOM      2  C2  BNZ d   1       1.816  -0.959   1.037  0.00  0.00     0.000 A 
ATOM      3  C3  BNZ d   1       2.263  -2.190   1.429  0.00  0.00     0.000 A 
ATOM      4  C4  BNZ d   1       2.714  -3.058   0.500  0.00  0.00     0.000 A 
ATOM      5  C5  BNZ d   1       2.753  -2.698  -0.832  0.00  0.00     0.000 A 
ATOM      6  C6  BNZ d   1       2.338  -1.444  -1.218  0.00  0.00     0.000 A 
ENDROOT
TORSDOF 0
ENDMDL
