MODEL 1
REMARK minimizedAffinity 1.08284044
REMARK minimizedRMSD -1
REMARK  0 active torsions:
REMARK  status: ('A' for Active; 'I' for Inactive)
ROOT
ATOM      1  C1  BNZ d   1       2.209   1.221  -2.727  0.00  0.00     0.000 A 
ATOM      2  C2  BNZ d   1       2.123  -0.081  -2.313  0.00  0.00     0.000 A 
ATOM      3  C3  BNZ d   1       2.460  -0.433  -1.036  0.00  0.00     0.000 A 
ATOM      4  C4  BNZ d   1       2.920   0.510  -0.188  0.00  0.00     0.000 A 
ATOM      5  C5  BNZ d   1       3.021   1.825  -0.594  0.00  0.00     0.000 A 
ATOM      6  C6  BNZ d   1       2.644   2.182  -1.868  0.00  0.00     0.000 A 
ENDROOT
TORSDOF 0
ENDMDL
