MODEL 1
REMARK minimizedAffinity 2.57563376
REMARK minimizedRMSD -1
REMARK  0 active torsions:
REMARK  status: ('A' for Active; 'I' for Inactive)
ROOT
ATOM      1  C1  BNZ d   1       1.668  -0.353  -0.472  0.00  0.00     0.000 A 
ATOM      2  C2  BNZ d   1       1.285  -0.504  -1.779  0.00  0.00     0.000 A 
ATOM      3  C3  BNZ d   1       1.407   0.528  -2.667  0.00  0.00     0.000 A 
ATOM      4  C4  BNZ d   1       1.874   1.719  -2.241  0.00  0.00     0.000 A 
ATOM      5  C5  BNZ d   1       2.255   1.890  -0.925  0.00  0.00     0.000 A 
ATOM      6  C6  BNZ d   1       2.167   0.838  -0.042  0.00  0.00     0.000 A 
ENDROOT
TORSDOF 0
ENDMDL
