MODEL 1
REMARK minimizedAffinity 0.673097789
REMARK minimizedRMSD -1
REMARK  0 active torsions:
REMARK  status: ('A' for Active; 'I' for Inactive)
ROOT
ATOM      1  C1  BNZ d   1       1.863  -0.810   2.301  0.00  0.00     0.000 A 
ATOM      2  C2  BNZ d   1       1.038  -0.237   3.233  0.00  0.00     0.000 A 
ATOM      3  C3  BNZ d   1      -0.317  -0.396   3.159  0.00  0.00     0.000 A 
ATOM      4  C4  BNZ d   1      -0.849  -1.091   2.132  0.00  0.00     0.000 A 
ATOM      5  C5  BNZ d   1      -0.031  -1.667   1.180  0.00  0.00     0.000 A 
ATOM      6  C6  BNZ d   1       1.335  -1.538   1.280  0.00  0.00     0.000 A 
ENDROOT
TORSDOF 0
ENDMDL
