MODEL 1
REMARK minimizedAffinity 6.49342775
REMARK minimizedRMSD -1
REMARK  0 active torsions:
REMARK  status: ('A' for Active; 'I' for Inactive)
ROOT
ATOM      1  C1  BNZ d   1       2.284  -2.305   3.039  0.00  0.00     0.000 A 
ATOM      2  C2  BNZ d   1       2.944  -2.298   1.839  0.00  0.00     0.000 A 
ATOM      3  C3  BNZ d   1       2.432  -1.629   0.763  0.00  0.00     0.000 A 
ATOM      4  C4  BNZ d   1       1.243  -1.003   0.875  0.00  0.00     0.000 A 
ATOM      5  C5  BNZ d   1       0.561  -1.009   2.075  0.00  0.00     0.000 A 
ATOM      6  C6  BNZ d   1       1.098  -1.650   3.168  0.00  0.00     0.000 A 
ENDROOT
TORSDOF 0
ENDMDL
