MODEL 1
REMARK minimizedAffinity 0.96739018
REMARK minimizedRMSD -1
REMARK  0 active torsions:
REMARK  status: ('A' for Active; 'I' for Inactive)
ROOT
ATOM      1  C1  BNZ d   1       1.791  -1.761   2.963  0.00  0.00     0.000 A 
ATOM      2  C2  BNZ d   1       2.993  -2.246   2.520  0.00  0.00     0.000 A 
ATOM      3  C3  BNZ d   1       3.326  -2.186   1.196  0.00  0.00     0.000 A 
ATOM      4  C4  BNZ d   1       2.442  -1.679   0.312  0.00  0.00     0.000 A 
ATOM      5  C5  BNZ d   1       1.223  -1.195   0.742  0.00  0.00     0.000 A 
ATOM      6  C6  BNZ d   1       0.907  -1.221   2.081  0.00  0.00     0.000 A 
ENDROOT
TORSDOF 0
ENDMDL
