MODEL 1
REMARK minimizedAffinity -2.97003436
REMARK minimizedRMSD -1
REMARK  2 active torsions:
REMARK  status: ('A' for Active; 'I' for Inactive)
REMARK    1  A    between atoms: C1_2  and  C2_3 
REMARK    2  A    between atoms: C2_3  and  C3_4 
ROOT
ATOM      1  C3  UNL d   1       0.826  -0.592  -1.825  0.00  0.00    -0.075 A 
ATOM      2  C4  UNL d   1       1.994   0.133  -2.103  0.00  0.00     0.002 A 
ATOM      3  C5  UNL d   1       2.221   0.646  -3.381  0.00  0.00     0.002 A 
ATOM      4  C6  UNL d   1       1.292   0.434  -4.396  0.00  0.00    -0.004 A 
ATOM      5  C7  UNL d   1       0.136  -0.299  -4.135  0.00  0.00     0.002 A 
ATOM      6  C8  UNL d   1      -0.096  -0.811  -2.857  0.00  0.00     0.002 A 
ENDROOT
BRANCH   1   7
ATOM      7  C2  UNL d   1       0.560  -1.125  -0.438  0.00  0.00     0.056 C 
BRANCH   7   8
ATOM      8  C1  UNL d   1       0.090  -0.061   0.560  0.00  0.00     0.007 C 
ATOM      9  C   UNL d   1      -1.413   0.179   0.517  0.00  0.00     0.009 C 
ENDBRANCH   7   8
ENDBRANCH   1   7
TORSDOF 2
ENDMDL
