MODEL 1
REMARK minimizedAffinity -2.51369023
REMARK minimizedRMSD -1
REMARK  2 active torsions:
REMARK  status: ('A' for Active; 'I' for Inactive)
REMARK    1  A    between atoms: C1_2  and  C2_3 
REMARK    2  A    between atoms: C2_3  and  C3_4 
ROOT
ATOM      1  C3  UNL d   1       0.279  -0.466   0.171  0.00  0.00    -0.075 A 
ATOM      2  C4  UNL d   1       0.739  -0.428   1.495  0.00  0.00     0.002 A 
ATOM      3  C5  UNL d   1      -0.114  -0.047   2.531  0.00  0.00     0.002 A 
ATOM      4  C6  UNL d   1      -1.433   0.309   2.256  0.00  0.00    -0.004 A 
ATOM      5  C7  UNL d   1      -1.896   0.291   0.942  0.00  0.00     0.002 A 
ATOM      6  C8  UNL d   1      -1.045  -0.094  -0.096  0.00  0.00     0.002 A 
ENDROOT
BRANCH   1   7
ATOM      7  C2  UNL d   1       1.190  -0.905  -0.951  0.00  0.00     0.056 C 
BRANCH   7   8
ATOM      8  C1  UNL d   1       0.657  -0.581  -2.350  0.00  0.00     0.007 C 
ATOM      9  C   UNL d   1       1.688   0.093  -3.245  0.00  0.00     0.009 C 
ENDBRANCH   7   8
ENDBRANCH   1   7
TORSDOF 2
ENDMDL
