MODEL 1
REMARK minimizedAffinity -1.20316803
REMARK minimizedRMSD -1
REMARK  2 active torsions:
REMARK  status: ('A' for Active; 'I' for Inactive)
REMARK    1  A    between atoms: C1_2  and  C2_3 
REMARK    2  A    between atoms: C2_3  and  C3_4 
ROOT
ATOM      1  C3  UNL d   1       0.144  -0.019  -0.626  0.00  0.00    -0.075 A 
ATOM      2  C4  UNL d   1      -1.217   0.160  -0.913  0.00  0.00     0.002 A 
ATOM      3  C5  UNL d   1      -2.151   0.257   0.118  0.00  0.00     0.002 A 
ATOM      4  C6  UNL d   1      -1.740   0.167   1.446  0.00  0.00    -0.004 A 
ATOM      5  C7  UNL d   1      -0.392  -0.027   1.742  0.00  0.00     0.002 A 
ATOM      6  C8  UNL d   1       0.545  -0.121   0.712  0.00  0.00     0.002 A 
ENDROOT
BRANCH   1   7
ATOM      7  C2  UNL d   1       1.164  -0.096  -1.737  0.00  0.00     0.056 C 
BRANCH   7   8
ATOM      8  C1  UNL d   1       0.554  -0.252  -3.134  0.00  0.00     0.007 C 
ATOM      9  C   UNL d   1       1.110   0.740  -4.147  0.00  0.00     0.009 C 
ENDBRANCH   7   8
ENDBRANCH   1   7
TORSDOF 2
ENDMDL
