MODEL 1
REMARK minimizedAffinity -4.41156387
REMARK minimizedRMSD -1
REMARK  2 active torsions:
REMARK  status: ('A' for Active; 'I' for Inactive)
REMARK    1  A    between atoms: C1_2  and  C2_3 
REMARK    2  A    between atoms: C2_3  and  C3_4 
ROOT
ATOM      1  C3  UNL d   1      -0.074  -0.267  -0.621  0.00  0.00    -0.075 A 
ATOM      2  C4  UNL d   1       0.790  -0.550   0.447  0.00  0.00     0.002 A 
ATOM      3  C5  UNL d   1       0.347  -0.439   1.765  0.00  0.00     0.002 A 
ATOM      4  C6  UNL d   1      -0.959  -0.035   2.033  0.00  0.00    -0.004 A 
ATOM      5  C7  UNL d   1      -1.821   0.264   0.980  0.00  0.00     0.002 A 
ATOM      6  C8  UNL d   1      -1.382   0.150  -0.340  0.00  0.00     0.002 A 
ENDROOT
BRANCH   1   7
ATOM      7  C2  UNL d   1       0.391  -0.413  -2.050  0.00  0.00     0.056 C 
BRANCH   7   8
ATOM      8  C1  UNL d   1       1.187   0.787  -2.574  0.00  0.00     0.007 C 
ATOM      9  C   UNL d   1       0.805   1.189  -3.992  0.00  0.00     0.009 C 
ENDBRANCH   7   8
ENDBRANCH   1   7
TORSDOF 2
ENDMDL
