MODEL 1
REMARK minimizedAffinity -3.09246731
REMARK minimizedRMSD -1
REMARK  2 active torsions:
REMARK  status: ('A' for Active; 'I' for Inactive)
REMARK    1  A    between atoms: C1_2  and  C2_3 
REMARK    2  A    between atoms: C2_3  and  C3_4 
ROOT
ATOM      1  C3  UNL d   1       0.455  -0.208   0.999  0.00  0.00    -0.075 A 
ATOM      2  C4  UNL d   1       1.132  -0.350   2.219  0.00  0.00     0.002 A 
ATOM      3  C5  UNL d   1       0.530   0.047   3.414  0.00  0.00     0.002 A 
ATOM      4  C6  UNL d   1      -0.749   0.599   3.403  0.00  0.00    -0.004 A 
ATOM      5  C7  UNL d   1      -1.424   0.761   2.195  0.00  0.00     0.002 A 
ATOM      6  C8  UNL d   1      -0.826   0.360   0.999  0.00  0.00     0.002 A 
ENDROOT
BRANCH   1   7
ATOM      7  C2  UNL d   1       1.089  -0.663  -0.293  0.00  0.00     0.056 C 
BRANCH   7   8
ATOM      8  C1  UNL d   1       0.081  -1.016  -1.392  0.00  0.00     0.007 C 
ATOM      9  C   UNL d   1       0.563  -0.650  -2.789  0.00  0.00     0.009 C 
ENDBRANCH   7   8
ENDBRANCH   1   7
TORSDOF 2
ENDMDL
