MODEL 1
REMARK minimizedAffinity -2.90394735
REMARK minimizedRMSD -1
REMARK  2 active torsions:
REMARK  status: ('A' for Active; 'I' for Inactive)
REMARK    1  A    between atoms: C1_2  and  C2_3 
REMARK    2  A    between atoms: C2_3  and  C3_4 
ROOT
ATOM      1  C3  UNL d   1       0.511  -0.087  -1.824  0.00  0.00    -0.075 A 
ATOM      2  C4  UNL d   1       0.605   1.310  -1.908  0.00  0.00     0.002 A 
ATOM      3  C5  UNL d   1       0.883   1.928  -3.127  0.00  0.00     0.002 A 
ATOM      4  C6  UNL d   1       1.080   1.161  -4.273  0.00  0.00    -0.004 A 
ATOM      5  C7  UNL d   1       1.005  -0.229  -4.197  0.00  0.00     0.002 A 
ATOM      6  C8  UNL d   1       0.723  -0.850  -2.980  0.00  0.00     0.002 A 
ENDROOT
BRANCH   1   7
ATOM      7  C2  UNL d   1       0.182  -0.762  -0.513  0.00  0.00     0.056 C 
BRANCH   7   8
ATOM      8  C1  UNL d   1      -1.300  -0.692  -0.131  0.00  0.00     0.007 C 
ATOM      9  C   UNL d   1      -1.679   0.605   0.572  0.00  0.00     0.009 C 
ENDBRANCH   7   8
ENDBRANCH   1   7
TORSDOF 2
ENDMDL
