MODEL 1
REMARK minimizedAffinity -3.23927331
REMARK minimizedRMSD -1
REMARK  2 active torsions:
REMARK  status: ('A' for Active; 'I' for Inactive)
REMARK    1  A    between atoms: C1_2  and  C2_3 
REMARK    2  A    between atoms: C2_3  and  C3_4 
ROOT
ATOM      1  C3  UNL d   1      -0.422  -0.050   1.695  0.00  0.00    -0.075 A 
ATOM      2  C4  UNL d   1      -1.444  -0.071   0.735  0.00  0.00     0.002 A 
ATOM      3  C5  UNL d   1      -1.172  -0.445  -0.581  0.00  0.00     0.002 A 
ATOM      4  C6  UNL d   1       0.124  -0.792  -0.956  0.00  0.00    -0.004 A 
ATOM      5  C7  UNL d   1       1.150  -0.760  -0.014  0.00  0.00     0.002 A 
ATOM      6  C8  UNL d   1       0.880  -0.390   1.305  0.00  0.00     0.002 A 
ENDROOT
BRANCH   1   7
ATOM      7  C2  UNL d   1      -0.716   0.325   3.128  0.00  0.00     0.056 C 
BRANCH   7   8
ATOM      8  C1  UNL d   1       0.403  -0.038   4.110  0.00  0.00     0.007 C 
ATOM      9  C   UNL d   1       0.399  -1.508   4.508  0.00  0.00     0.009 C 
ENDBRANCH   7   8
ENDBRANCH   1   7
TORSDOF 2
ENDMDL
