MODEL 1
REMARK minimizedAffinity -4.22671795
REMARK minimizedRMSD -1
REMARK  2 active torsions:
REMARK  status: ('A' for Active; 'I' for Inactive)
REMARK    1  A    between atoms: C1_2  and  C2_3 
REMARK    2  A    between atoms: C2_3  and  C3_4 
ROOT
ATOM      1  C3  UNL d   1       0.091  -0.269  -0.043  0.00  0.00    -0.075 A 
ATOM      2  C4  UNL d   1       0.463   0.080   1.264  0.00  0.00     0.002 A 
ATOM      3  C5  UNL d   1      -0.496   0.511   2.182  0.00  0.00     0.002 A 
ATOM      4  C6  UNL d   1      -1.833   0.607   1.803  0.00  0.00    -0.004 A 
ATOM      5  C7  UNL d   1      -2.211   0.278   0.503  0.00  0.00     0.002 A 
ATOM      6  C8  UNL d   1      -1.255  -0.157  -0.416  0.00  0.00     0.002 A 
ENDROOT
BRANCH   1   7
ATOM      7  C2  UNL d   1       1.119  -0.763  -1.032  0.00  0.00     0.056 C 
BRANCH   7   8
ATOM      8  C1  UNL d   1       0.794  -0.426  -2.491  0.00  0.00     0.007 C 
ATOM      9  C   UNL d   1       1.935   0.278  -3.213  0.00  0.00     0.009 C 
ENDBRANCH   7   8
ENDBRANCH   1   7
TORSDOF 2
ENDMDL
