MODEL 1
REMARK minimizedAffinity 3.89652991
REMARK minimizedRMSD -1
REMARK  0 active torsions:
REMARK  status: ('A' for Active; 'I' for Inactive)
ROOT
ATOM      1  C1  DEN d   1      -4.708   1.827  -5.724  0.00  0.00     0.130 A 
ATOM      2  C2  DEN d   1      -5.996   1.646  -5.059  0.00  0.00    -0.031 A 
ATOM      3  C3  DEN d   1      -5.998   0.313  -4.424  0.00  0.00     0.027 A 
ATOM      4  C4  DEN d   1      -4.141  -1.477  -4.401  0.00  0.00     0.027 A 
ATOM      5  C5  DEN d   1      -2.872  -1.783  -4.839  0.00  0.00    -0.003 A 
ATOM      6  C6  DEN d   1      -2.145  -0.929  -5.625  0.00  0.00     0.001 A 
ATOM      7  C7  DEN d   1      -2.664   0.294  -5.959  0.00  0.00     0.017 A 
ATOM      8  C8  DEN d   1      -3.947   0.607  -5.527  0.00  0.00    -0.094 A 
ATOM      9  C9  DEN d   1      -4.661  -0.266  -4.724  0.00  0.00    -0.072 A 
ENDROOT
TORSDOF 0
ENDMDL
