MODEL 1
REMARK minimizedAffinity 6.18922997
REMARK minimizedRMSD -1
REMARK  0 active torsions:
REMARK  status: ('A' for Active; 'I' for Inactive)
ROOT
ATOM      1  C1  DEN d   1      -3.284   1.489  -2.976  0.00  0.00     0.130 A 
ATOM      2  C2  DEN d   1      -3.516   1.009  -1.617  0.00  0.00    -0.031 A 
ATOM      3  C3  DEN d   1      -3.897  -0.416  -1.695  0.00  0.00     0.027 A 
ATOM      4  C4  DEN d   1      -4.144  -1.918  -3.777  0.00  0.00     0.027 A 
ATOM      5  C5  DEN d   1      -4.062  -1.953  -5.152  0.00  0.00    -0.003 A 
ATOM      6  C6  DEN d   1      -3.751  -0.845  -5.894  0.00  0.00     0.001 A 
ATOM      7  C7  DEN d   1      -3.466   0.337  -5.262  0.00  0.00     0.017 A 
ATOM      8  C8  DEN d   1      -3.554   0.382  -3.876  0.00  0.00    -0.094 A 
ATOM      9  C9  DEN d   1      -3.858  -0.752  -3.144  0.00  0.00    -0.072 A 
ENDROOT
TORSDOF 0
ENDMDL
