MODEL 1
REMARK minimizedAffinity 2.11798859
REMARK minimizedRMSD -1
REMARK  0 active torsions:
REMARK  status: ('A' for Active; 'I' for Inactive)
ROOT
ATOM      1  C1  DEN d   1       5.357  -3.698   1.918  0.00  0.00     0.130 A 
ATOM      2  C2  DEN d   1       4.690  -4.891   1.402  0.00  0.00    -0.031 A 
ATOM      3  C3  DEN d   1       4.209  -5.680   2.553  0.00  0.00     0.027 A 
ATOM      4  C4  DEN d   1       4.426  -5.171   5.073  0.00  0.00     0.027 A 
ATOM      5  C5  DEN d   1       4.922  -4.280   5.999  0.00  0.00    -0.003 A 
ATOM      6  C6  DEN d   1       5.621  -3.160   5.635  0.00  0.00     0.001 A 
ATOM      7  C7  DEN d   1       5.805  -2.878   4.307  0.00  0.00     0.017 A 
ATOM      8  C8  DEN d   1       5.315  -3.774   3.367  0.00  0.00    -0.094 A 
ATOM      9  C9  DEN d   1       4.600  -4.895   3.755  0.00  0.00    -0.072 A 
ENDROOT
TORSDOF 0
ENDMDL
