MODEL 1
REMARK minimizedAffinity 9.28060246
REMARK minimizedRMSD -1
REMARK  0 active torsions:
REMARK  status: ('A' for Active; 'I' for Inactive)
ROOT
ATOM      1  C1  DEN d   1      -1.961  -0.064  -5.541  0.00  0.00     0.130 A 
ATOM      2  C2  DEN d   1      -2.164  -1.482  -5.258  0.00  0.00    -0.031 A 
ATOM      3  C3  DEN d   1      -3.560  -1.663  -4.812  0.00  0.00     0.027 A 
ATOM      4  C4  DEN d   1      -5.418   0.105  -4.537  0.00  0.00     0.027 A 
ATOM      5  C5  DEN d   1      -5.717   1.445  -4.646  0.00  0.00    -0.003 A 
ATOM      6  C6  DEN d   1      -4.784   2.373  -5.024  0.00  0.00     0.001 A 
ATOM      7  C7  DEN d   1      -3.517   1.967  -5.352  0.00  0.00     0.017 A 
ATOM      8  C8  DEN d   1      -3.206   0.619  -5.238  0.00  0.00    -0.094 A 
ATOM      9  C9  DEN d   1      -4.167  -0.306  -4.865  0.00  0.00    -0.072 A 
ENDROOT
TORSDOF 0
ENDMDL
