MODEL 1
REMARK minimizedAffinity 1.42431462
REMARK minimizedRMSD -1
REMARK  0 active torsions:
REMARK  status: ('A' for Active; 'I' for Inactive)
ROOT
ATOM      1  C1  DEN d   1      -3.286  -1.491  -3.456  0.00  0.00     0.130 A 
ATOM      2  C2  DEN d   1      -2.078  -1.635  -4.263  0.00  0.00    -0.031 A 
ATOM      3  C3  DEN d   1      -2.178  -0.706  -5.406  0.00  0.00     0.027 A 
ATOM      4  C4  DEN d   1      -4.076   0.936  -6.000  0.00  0.00     0.027 A 
ATOM      5  C5  DEN d   1      -5.314   1.406  -5.620  0.00  0.00    -0.003 A 
ATOM      6  C6  DEN d   1      -5.972   0.923  -4.520  0.00  0.00     0.001 A 
ATOM      7  C7  DEN d   1      -5.376  -0.028  -3.735  0.00  0.00     0.017 A 
ATOM      8  C8  DEN d   1      -4.131  -0.512  -4.117  0.00  0.00    -0.094 A 
ATOM      9  C9  DEN d   1      -3.476  -0.002  -5.225  0.00  0.00    -0.072 A 
ENDROOT
TORSDOF 0
ENDMDL
