MODEL 1
REMARK minimizedAffinity -1.18493342
REMARK minimizedRMSD -1
REMARK  0 active torsions:
REMARK  status: ('A' for Active; 'I' for Inactive)
ROOT
ATOM      1  C1  DEN d   1       3.741  -2.639   2.635  0.00  0.00     0.130 A 
ATOM      2  C2  DEN d   1       3.696  -3.881   1.868  0.00  0.00    -0.031 A 
ATOM      3  C3  DEN d   1       4.388  -4.925   2.649  0.00  0.00     0.027 A 
ATOM      4  C4  DEN d   1       5.516  -4.743   4.962  0.00  0.00     0.027 A 
ATOM      5  C5  DEN d   1       5.820  -3.887   5.998  0.00  0.00    -0.003 A 
ATOM      6  C6  DEN d   1       5.486  -2.559   5.971  0.00  0.00     0.001 A 
ATOM      7  C7  DEN d   1       4.786  -2.057   4.905  0.00  0.00     0.017 A 
ATOM      8  C8  DEN d   1       4.482  -2.912   3.854  0.00  0.00    -0.094 A 
ATOM      9  C9  DEN d   1       4.819  -4.254   3.905  0.00  0.00    -0.072 A 
ENDROOT
TORSDOF 0
ENDMDL
