MODEL 1
REMARK minimizedAffinity 10.7610531
REMARK minimizedRMSD -1
REMARK  0 active torsions:
REMARK  status: ('A' for Active; 'I' for Inactive)
ROOT
ATOM      1  C1  DEN d   1      -2.350   0.012  -5.915  0.00  0.00     0.130 A 
ATOM      2  C2  DEN d   1      -2.379  -1.268  -5.214  0.00  0.00    -0.031 A 
ATOM      3  C3  DEN d   1      -3.653  -1.353  -4.471  0.00  0.00     0.027 A 
ATOM      4  C4  DEN d   1      -5.574   0.363  -4.342  0.00  0.00     0.027 A 
ATOM      5  C5  DEN d   1      -5.999   1.605  -4.759  0.00  0.00    -0.003 A 
ATOM      6  C6  DEN d   1      -5.231   2.410  -5.556  0.00  0.00     0.001 A 
ATOM      7  C7  DEN d   1      -4.013   1.964  -5.999  0.00  0.00     0.017 A 
ATOM      8  C8  DEN d   1      -3.574   0.717  -5.577  0.00  0.00    -0.094 A 
ATOM      9  C9  DEN d   1      -4.371  -0.088  -4.781  0.00  0.00    -0.072 A 
ENDROOT
TORSDOF 0
ENDMDL
