MODEL 1
REMARK minimizedAffinity 3.09635496
REMARK minimizedRMSD -1
REMARK  3 active torsions:
REMARK  status: ('A' for Active; 'I' for Inactive)
REMARK    1  A    between atoms: C3'_2  and  C2'_3 
REMARK    2  A    between atoms: C2'_3  and  C1'_4 
REMARK    3  A    between atoms: C1'_4  and  C1_5 
ROOT
ATOM      1  C1  N4B d   1       1.029   4.941  -5.300  0.00  0.00    -0.075 A 
ATOM      2  C2  N4B d   1       1.796   3.876  -4.777  0.00  0.00     0.002 A 
ATOM      3  C3  N4B d   1       3.165   3.899  -4.882  0.00  0.00     0.002 A 
ATOM      4  C4  N4B d   1       3.786   4.963  -5.519  0.00  0.00    -0.004 A 
ATOM      5  C5  N4B d   1       3.040   6.000  -5.999  0.00  0.00     0.002 A 
ATOM      6  C6  N4B d   1       1.664   5.992  -5.897  0.00  0.00     0.002 A 
ENDROOT
BRANCH   1   7
ATOM      7  C1' N4B d   1      -0.475   4.919  -5.285  0.00  0.00     0.057 C 
BRANCH   7   8
ATOM      8  C2' N4B d   1      -0.951   3.542  -4.834  0.00  0.00     0.009 C 
BRANCH   8   9
ATOM      9  C3' N4B d   1      -2.295   3.608  -4.129  0.00  0.00     0.004 C 
ATOM     10  C4' N4B d   1      -3.435   3.850  -5.074  0.00  0.00     0.003 C 
ENDBRANCH   8   9
ENDBRANCH   7   8
ENDBRANCH   1   7
TORSDOF 3
ENDMDL
