MODEL 1
REMARK minimizedAffinity 9.55086708
REMARK minimizedRMSD -1
REMARK  3 active torsions:
REMARK  status: ('A' for Active; 'I' for Inactive)
REMARK    1  A    between atoms: C3'_2  and  C2'_3 
REMARK    2  A    between atoms: C2'_3  and  C1'_4 
REMARK    3  A    between atoms: C1'_4  and  C1_5 
ROOT
ATOM      1  C1  N4B d   1      -2.515   2.190  -3.129  0.00  0.00    -0.075 A 
ATOM      2  C2  N4B d   1      -3.580   1.680  -2.355  0.00  0.00     0.002 A 
ATOM      3  C3  N4B d   1      -3.379   0.590  -1.544  0.00  0.00     0.002 A 
ATOM      4  C4  N4B d   1      -2.132  -0.016  -1.506  0.00  0.00    -0.004 A 
ATOM      5  C5  N4B d   1      -1.102   0.499  -2.236  0.00  0.00     0.002 A 
ATOM      6  C6  N4B d   1      -1.288   1.597  -3.052  0.00  0.00     0.002 A 
ENDROOT
BRANCH   1   7
ATOM      7  C1' N4B d   1      -2.708   3.327  -4.095  0.00  0.00     0.057 C 
BRANCH   7   8
ATOM      8  C2' N4B d   1      -4.199   3.620  -4.232  0.00  0.00     0.009 C 
BRANCH   8   9
ATOM      9  C3' N4B d   1      -4.753   3.136  -5.561  0.00  0.00     0.004 C 
ATOM     10  C4' N4B d   1      -5.971   3.897  -5.994  0.00  0.00     0.003 C 
ENDBRANCH   8   9
ENDBRANCH   7   8
ENDBRANCH   1   7
TORSDOF 3
ENDMDL
