MODEL 1
REMARK minimizedAffinity 5.57865858
REMARK minimizedRMSD -1
REMARK  3 active torsions:
REMARK  status: ('A' for Active; 'I' for Inactive)
REMARK    1  A    between atoms: C3'_2  and  C2'_3 
REMARK    2  A    between atoms: C2'_3  and  C1'_4 
REMARK    3  A    between atoms: C1'_4  and  C1_5 
ROOT
ATOM      1  C1  N4B d   1      -4.834   1.553   3.042  0.00  0.00    -0.075 A 
ATOM      2  C2  N4B d   1      -3.604   1.454   3.730  0.00  0.00     0.002 A 
ATOM      3  C3  N4B d   1      -3.588   1.389   5.101  0.00  0.00     0.002 A 
ATOM      4  C4  N4B d   1      -4.782   1.441   5.805  0.00  0.00    -0.004 A 
ATOM      5  C5  N4B d   1      -5.967   1.511   5.132  0.00  0.00     0.002 A 
ATOM      6  C6  N4B d   1      -5.999   1.573   3.754  0.00  0.00     0.002 A 
ENDROOT
BRANCH   1   7
ATOM      7  C1' N4B d   1      -4.898   1.712   1.548  0.00  0.00     0.057 C 
BRANCH   7   8
ATOM      8  C2' N4B d   1      -4.003   0.664   0.894  0.00  0.00     0.009 C 
BRANCH   8   9
ATOM      9  C3' N4B d   1      -3.802   0.933  -0.588  0.00  0.00     0.004 C 
ATOM     10  C4' N4B d   1      -3.091  -0.186  -1.290  0.00  0.00     0.003 C 
ENDBRANCH   8   9
ENDBRANCH   7   8
ENDBRANCH   1   7
TORSDOF 3
ENDMDL
