MODEL 1
REMARK minimizedAffinity 3.36221075
REMARK minimizedRMSD -1
REMARK  3 active torsions:
REMARK  status: ('A' for Active; 'I' for Inactive)
REMARK    1  A    between atoms: C3'_2  and  C2'_3 
REMARK    2  A    between atoms: C2'_3  and  C1'_4 
REMARK    3  A    between atoms: C1'_4  and  C1_5 
ROOT
ATOM      1  C1  N4B d   1      -4.598  -0.056  -3.287  0.00  0.00    -0.075 A 
ATOM      2  C2  N4B d   1      -3.594  -0.777  -2.602  0.00  0.00     0.002 A 
ATOM      3  C3  N4B d   1      -3.297  -2.064  -2.977  0.00  0.00     0.002 A 
ATOM      4  C4  N4B d   1      -3.998  -2.655  -4.016  0.00  0.00    -0.004 A 
ATOM      5  C5  N4B d   1      -4.948  -1.944  -4.689  0.00  0.00     0.002 A 
ATOM      6  C6  N4B d   1      -5.255  -0.648  -4.326  0.00  0.00     0.002 A 
ENDROOT
BRANCH   1   7
ATOM      7  C1' N4B d   1      -5.018   1.323  -2.858  0.00  0.00     0.057 C 
BRANCH   7   8
ATOM      8  C2' N4B d   1      -4.461   1.606  -1.466  0.00  0.00     0.009 C 
BRANCH   8   9
ATOM      9  C3' N4B d   1      -3.006   2.038  -1.512  0.00  0.00     0.004 C 
ATOM     10  C4' N4B d   1      -2.644   2.720  -2.797  0.00  0.00     0.003 C 
ENDBRANCH   8   9
ENDBRANCH   7   8
ENDBRANCH   1   7
TORSDOF 3
ENDMDL
