MODEL 1
REMARK minimizedAffinity 7.73507452
REMARK minimizedRMSD -1
REMARK  3 active torsions:
REMARK  status: ('A' for Active; 'I' for Inactive)
REMARK    1  A    between atoms: C3'_2  and  C2'_3 
REMARK    2  A    between atoms: C2'_3  and  C1'_4 
REMARK    3  A    between atoms: C1'_4  and  C1_5 
ROOT
ATOM      1  C1  N4B d   1       4.085  -3.323   4.340  0.00  0.00    -0.075 A 
ATOM      2  C2  N4B d   1       3.862  -4.718   4.333  0.00  0.00     0.002 A 
ATOM      3  C3  N4B d   1       4.595  -5.535   5.157  0.00  0.00     0.002 A 
ATOM      4  C4  N4B d   1       5.567  -4.985   5.980  0.00  0.00    -0.004 A 
ATOM      5  C5  N4B d   1       5.759  -3.635   5.999  0.00  0.00     0.002 A 
ATOM      6  C6  N4B d   1       5.026  -2.801   5.179  0.00  0.00     0.002 A 
ENDROOT
BRANCH   1   7
ATOM      7  C1' N4B d   1       3.368  -2.399   3.394  0.00  0.00     0.057 C 
BRANCH   7   8
ATOM      8  C2' N4B d   1       3.146  -3.115   2.065  0.00  0.00     0.009 C 
BRANCH   8   9
ATOM      9  C3' N4B d   1       3.011  -2.139   0.909  0.00  0.00     0.004 C 
ATOM     10  C4' N4B d   1       1.590  -1.963   0.461  0.00  0.00     0.003 C 
ENDBRANCH   8   9
ENDBRANCH   7   8
ENDBRANCH   1   7
TORSDOF 3
ENDMDL
