MODEL 1
REMARK minimizedAffinity 5.97510719
REMARK minimizedRMSD -1
REMARK  3 active torsions:
REMARK  status: ('A' for Active; 'I' for Inactive)
REMARK    1  A    between atoms: C3'_2  and  C2'_3 
REMARK    2  A    between atoms: C2'_3  and  C1'_4 
REMARK    3  A    between atoms: C1'_4  and  C1_5 
ROOT
ATOM      1  C1  N4B d   1      -2.319   4.892   4.510  0.00  0.00    -0.075 A 
ATOM      2  C2  N4B d   1      -2.847   3.612   4.788  0.00  0.00     0.002 A 
ATOM      3  C3  N4B d   1      -4.002   3.490   5.521  0.00  0.00     0.002 A 
ATOM      4  C4  N4B d   1      -4.634   4.628   6.000  0.00  0.00    -0.004 A 
ATOM      5  C5  N4B d   1      -4.131   5.862   5.705  0.00  0.00     0.002 A 
ATOM      6  C6  N4B d   1      -2.973   5.999   4.967  0.00  0.00     0.002 A 
ENDROOT
BRANCH   1   7
ATOM      7  C1' N4B d   1      -1.012   5.072   3.787  0.00  0.00     0.057 C 
BRANCH   7   8
ATOM      8  C2' N4B d   1      -0.114   6.000   4.599  0.00  0.00     0.009 C 
BRANCH   8   9
ATOM      9  C3' N4B d   1       1.275   5.417   4.797  0.00  0.00     0.004 C 
ATOM     10  C4' N4B d   1       1.976   5.980   5.997  0.00  0.00     0.003 C 
ENDBRANCH   8   9
ENDBRANCH   7   8
ENDBRANCH   1   7
TORSDOF 3
ENDMDL
