MODEL 1
REMARK minimizedAffinity 10.278079
REMARK minimizedRMSD -1
REMARK  3 active torsions:
REMARK  status: ('A' for Active; 'I' for Inactive)
REMARK    1  A    between atoms: C3'_2  and  C2'_3 
REMARK    2  A    between atoms: C2'_3  and  C1'_4 
REMARK    3  A    between atoms: C1'_4  and  C1_5 
ROOT
ATOM      1  C1  N4B d   1      -3.562   2.245  -4.592  0.00  0.00    -0.075 A 
ATOM      2  C2  N4B d   1      -2.615   1.933  -5.592  0.00  0.00     0.002 A 
ATOM      3  C3  N4B d   1      -1.278   1.885  -5.281  0.00  0.00     0.002 A 
ATOM      4  C4  N4B d   1      -0.866   2.163  -3.986  0.00  0.00    -0.004 A 
ATOM      5  C5  N4B d   1      -1.789   2.439  -3.021  0.00  0.00     0.002 A 
ATOM      6  C6  N4B d   1      -3.136   2.486  -3.319  0.00  0.00     0.002 A 
ENDROOT
BRANCH   1   7
ATOM      7  C1' N4B d   1      -5.026   2.394  -4.904  0.00  0.00     0.057 C 
BRANCH   7   8
ATOM      8  C2' N4B d   1      -5.380   3.877  -4.956  0.00  0.00     0.009 C 
BRANCH   8   9
ATOM      9  C3' N4B d   1      -4.612   4.680  -3.920  0.00  0.00     0.004 C 
ATOM     10  C4' N4B d   1      -4.131   5.999  -4.447  0.00  0.00     0.003 C 
ENDBRANCH   8   9
ENDBRANCH   7   8
ENDBRANCH   1   7
TORSDOF 3
ENDMDL
