MODEL 1
REMARK minimizedAffinity 0.623668373
REMARK minimizedRMSD -1
REMARK  1 active torsions:
REMARK  status: ('A' for Active; 'I' for Inactive)
REMARK    1  A    between atoms: C3_4  and  O_7 
ROOT
ATOM      1  C   UNL d   1       3.508  -4.495  -1.897  0.00  0.00    -0.033 A 
ATOM      2  C1  UNL d   1       3.301  -3.832  -3.109  0.00  0.00     0.039 A 
ATOM      3  C2  UNL d   1       2.918  -2.489  -3.116  0.00  0.00    -0.080 A 
ATOM      4  C3  UNL d   1       2.746  -1.822  -1.906  0.00  0.00     0.150 A 
ATOM      5  C4  UNL d   1       2.954  -2.475  -0.696  0.00  0.00    -0.007 A 
ATOM      6  C5  UNL d   1       3.336  -3.816  -0.691  0.00  0.00     0.039 A 
ENDROOT
BRANCH   4   7
ATOM      7  O   UNL d   1       2.369  -0.512  -1.862  0.00  0.00    -0.526 OA
ATOM      8  H5  UNL d   1       2.234  -0.200  -2.773  0.00  0.00     0.418 HD
ENDBRANCH   4   7
TORSDOF 1
ENDMDL
