MODEL 1
REMARK minimizedAffinity 0.736557961
REMARK minimizedRMSD -1
REMARK  1 active torsions:
REMARK  status: ('A' for Active; 'I' for Inactive)
REMARK    1  A    between atoms: C3_4  and  O_7 
ROOT
ATOM      1  C   UNL d   1       3.311  -4.158  -3.785  0.00  0.00    -0.033 A 
ATOM      2  C1  UNL d   1       2.173  -4.026  -2.988  0.00  0.00     0.039 A 
ATOM      3  C2  UNL d   1       2.266  -4.178  -1.603  0.00  0.00    -0.080 A 
ATOM      4  C3  UNL d   1       3.502  -4.462  -1.029  0.00  0.00     0.150 A 
ATOM      5  C4  UNL d   1       4.641  -4.591  -1.817  0.00  0.00    -0.007 A 
ATOM      6  C5  UNL d   1       4.546  -4.439  -3.200  0.00  0.00     0.039 A 
ENDROOT
BRANCH   4   7
ATOM      7  O   UNL d   1       3.642  -4.624   0.317  0.00  0.00    -0.526 OA
ATOM      8  H5  UNL d   1       2.767  -4.535   0.730  0.00  0.00     0.418 HD
ENDBRANCH   4   7
TORSDOF 1
ENDMDL
