MODEL 1
REMARK minimizedAffinity -4.99279022
REMARK minimizedRMSD -1
REMARK  1 active torsions:
REMARK  status: ('A' for Active; 'I' for Inactive)
REMARK    1  A    between atoms: C3_4  and  O_7 
ROOT
ATOM      1  C   UNL d   1       2.904  -2.245  -0.953  0.00  0.00    -0.033 A 
ATOM      2  C1  UNL d   1       3.529  -3.392  -0.460  0.00  0.00     0.039 A 
ATOM      3  C2  UNL d   1       3.886  -4.424  -1.331  0.00  0.00    -0.080 A 
ATOM      4  C3  UNL d   1       3.614  -4.295  -2.690  0.00  0.00     0.150 A 
ATOM      5  C4  UNL d   1       2.995  -3.154  -3.188  0.00  0.00    -0.007 A 
ATOM      6  C5  UNL d   1       2.638  -2.125  -2.317  0.00  0.00     0.039 A 
ENDROOT
BRANCH   4   7
ATOM      7  O   UNL d   1       3.939  -5.278  -3.578  0.00  0.00    -0.526 OA
ATOM      8  H5  UNL d   1       4.333  -6.018  -3.087  0.00  0.00     0.418 HD
ENDBRANCH   4   7
TORSDOF 1
ENDMDL
