MODEL 1
REMARK minimizedAffinity 6.54534483
REMARK minimizedRMSD -1
REMARK  1 active torsions:
REMARK  status: ('A' for Active; 'I' for Inactive)
REMARK    1  A    between atoms: C3_4  and  O_7 
ROOT
ATOM      1  C   UNL d   1       1.964  -4.230  -3.797  0.00  0.00    -0.033 A 
ATOM      2  C1  UNL d   1       1.509  -3.888  -2.522  0.00  0.00     0.039 A 
ATOM      3  C2  UNL d   1       2.307  -4.138  -1.404  0.00  0.00    -0.080 A 
ATOM      4  C3  UNL d   1       3.556  -4.729  -1.574  0.00  0.00     0.150 A 
ATOM      5  C4  UNL d   1       4.017  -5.069  -2.841  0.00  0.00    -0.007 A 
ATOM      6  C5  UNL d   1       3.219  -4.820  -3.957  0.00  0.00     0.039 A 
ENDROOT
BRANCH   4   7
ATOM      7  O   UNL d   1       4.368  -4.997  -0.512  0.00  0.00    -0.526 OA
ATOM      8  H5  UNL d   1       3.907  -4.734   0.302  0.00  0.00     0.418 HD
ENDBRANCH   4   7
TORSDOF 1
ENDMDL
