MODEL 1
REMARK minimizedAffinity -4.59933424
REMARK minimizedRMSD -1
REMARK  1 active torsions:
REMARK  status: ('A' for Active; 'I' for Inactive)
REMARK    1  A    between atoms: C3_4  and  O_7 
ROOT
ATOM      1  C   UNL d   1       3.758  -3.735  -3.883  0.00  0.00    -0.033 A 
ATOM      2  C1  UNL d   1       4.699  -4.524  -3.218  0.00  0.00     0.039 A 
ATOM      3  C2  UNL d   1       4.642  -4.660  -1.829  0.00  0.00    -0.080 A 
ATOM      4  C3  UNL d   1       3.640  -4.004  -1.119  0.00  0.00     0.150 A 
ATOM      5  C4  UNL d   1       2.697  -3.220  -1.776  0.00  0.00    -0.007 A 
ATOM      6  C5  UNL d   1       2.756  -3.085  -3.162  0.00  0.00     0.039 A 
ENDROOT
BRANCH   4   7
ATOM      7  O   UNL d   1       3.546  -4.103   0.237  0.00  0.00    -0.526 OA
ATOM      8  H5  UNL d   1       4.281  -4.654   0.557  0.00  0.00     0.418 HD
ENDBRANCH   4   7
TORSDOF 1
ENDMDL
