MODEL 1
REMARK minimizedAffinity 4.00649309
REMARK minimizedRMSD -1
REMARK  1 active torsions:
REMARK  status: ('A' for Active; 'I' for Inactive)
REMARK    1  A    between atoms: C3_4  and  O_7 
ROOT
ATOM      1  C   UNL d   1       2.278  -3.221  -2.977  0.00  0.00    -0.033 A 
ATOM      2  C1  UNL d   1       3.061  -3.719  -1.933  0.00  0.00     0.039 A 
ATOM      3  C2  UNL d   1       4.318  -4.265  -2.200  0.00  0.00    -0.080 A 
ATOM      4  C3  UNL d   1       4.780  -4.306  -3.513  0.00  0.00     0.150 A 
ATOM      5  C4  UNL d   1       4.007  -3.808  -4.557  0.00  0.00    -0.007 A 
ATOM      6  C5  UNL d   1       2.752  -3.264  -4.288  0.00  0.00     0.039 A 
ENDROOT
BRANCH   4   7
ATOM      7  O   UNL d   1       5.998  -4.833  -3.823  0.00  0.00    -0.526 OA
ATOM      8  H5  UNL d   1       6.407  -5.164  -3.006  0.00  0.00     0.418 HD
ENDBRANCH   4   7
TORSDOF 1
ENDMDL
