MODEL 1
REMARK minimizedAffinity -1.96716416
REMARK minimizedRMSD -1
REMARK  1 active torsions:
REMARK  status: ('A' for Active; 'I' for Inactive)
REMARK    1  A    between atoms: C3_4  and  O_7 
ROOT
ATOM      1  C   UNL d   1       2.899  -3.889  -3.648  0.00  0.00    -0.033 A 
ATOM      2  C1  UNL d   1       3.976  -4.693  -3.270  0.00  0.00     0.039 A 
ATOM      3  C2  UNL d   1       4.331  -4.800  -1.924  0.00  0.00    -0.080 A 
ATOM      4  C3  UNL d   1       3.603  -4.098  -0.967  0.00  0.00     0.150 A 
ATOM      5  C4  UNL d   1       2.527  -3.298  -1.336  0.00  0.00    -0.007 A 
ATOM      6  C5  UNL d   1       2.174  -3.192  -2.681  0.00  0.00     0.039 A 
ENDROOT
BRANCH   4   7
ATOM      7  O   UNL d   1       3.916  -4.167   0.358  0.00  0.00    -0.526 OA
ATOM      8  H5  UNL d   1       4.698  -4.734   0.461  0.00  0.00     0.418 HD
ENDBRANCH   4   7
TORSDOF 1
ENDMDL
