MODEL 1
REMARK minimizedAffinity 0.0346986912
REMARK minimizedRMSD -1
REMARK  1 active torsions:
REMARK  status: ('A' for Active; 'I' for Inactive)
REMARK    1  A    between atoms: C3_4  and  O_7 
ROOT
ATOM      1  C   UNL d   1      -0.380  -1.855   5.062  0.00  0.00    -0.033 A 
ATOM      2  C1  UNL d   1      -1.357  -1.520   4.123  0.00  0.00     0.039 A 
ATOM      3  C2  UNL d   1      -1.917  -0.241   4.123  0.00  0.00    -0.080 A 
ATOM      4  C3  UNL d   1      -1.491   0.692   5.064  0.00  0.00     0.150 A 
ATOM      5  C4  UNL d   1      -0.515   0.366   6.000  0.00  0.00    -0.007 A 
ATOM      6  C5  UNL d   1       0.043  -0.912   5.999  0.00  0.00     0.039 A 
ENDROOT
BRANCH   4   7
ATOM      7  O   UNL d   1      -2.011   1.951   5.106  0.00  0.00    -0.526 OA
ATOM      8  H5  UNL d   1      -2.695   2.025   4.419  0.00  0.00     0.418 HD
ENDBRANCH   4   7
TORSDOF 1
ENDMDL
