MODEL 1
REMARK minimizedAffinity 0.163596243
REMARK minimizedRMSD -1
REMARK  1 active torsions:
REMARK  status: ('A' for Active; 'I' for Inactive)
REMARK    1  A    between atoms: C3_4  and  O_7 
ROOT
ATOM      1  C   UNL d   1      -2.163  -3.459   2.245  0.00  0.00    -0.033 A 
ATOM      2  C1  UNL d   1      -2.149  -3.818   0.896  0.00  0.00     0.039 A 
ATOM      3  C2  UNL d   1      -1.056  -3.481   0.094  0.00  0.00    -0.080 A 
ATOM      4  C3  UNL d   1       0.013  -2.787   0.653  0.00  0.00     0.150 A 
ATOM      5  C4  UNL d   1       0.007  -2.429   1.997  0.00  0.00    -0.007 A 
ATOM      6  C5  UNL d   1      -1.085  -2.766   2.796  0.00  0.00     0.039 A 
ENDROOT
BRANCH   4   7
ATOM      7  O   UNL d   1       1.099  -2.432  -0.091  0.00  0.00    -0.526 OA
ATOM      8  H5  UNL d   1       0.952  -2.719  -1.008  0.00  0.00     0.418 HD
ENDBRANCH   4   7
TORSDOF 1
ENDMDL
