MODEL 1
REMARK minimizedAffinity -0.976011455
REMARK minimizedRMSD -1
REMARK  1 active torsions:
REMARK  status: ('A' for Active; 'I' for Inactive)
REMARK    1  A    between atoms: C3_4  and  O_7 
ROOT
ATOM      1  C   UNL d   1      -0.439   0.282   4.960  0.00  0.00    -0.033 A 
ATOM      2  C1  UNL d   1       0.120   0.741   3.766  0.00  0.00     0.039 A 
ATOM      3  C2  UNL d   1      -0.644   1.508   2.884  0.00  0.00    -0.080 A 
ATOM      4  C3  UNL d   1      -1.964   1.810   3.209  0.00  0.00     0.150 A 
ATOM      5  C4  UNL d   1      -2.526   1.360   4.399  0.00  0.00    -0.007 A 
ATOM      6  C5  UNL d   1      -1.762   0.593   5.278  0.00  0.00     0.039 A 
ENDROOT
BRANCH   4   7
ATOM      7  O   UNL d   1      -2.751   2.551   2.378  0.00  0.00    -0.526 OA
ATOM      8  H5  UNL d   1      -2.238   2.768   1.581  0.00  0.00     0.418 HD
ENDBRANCH   4   7
TORSDOF 1
ENDMDL
