MODEL 1
REMARK minimizedAffinity 3.06231713
REMARK minimizedRMSD -1
REMARK  1 active torsions:
REMARK  status: ('A' for Active; 'I' for Inactive)
REMARK    1  A    between atoms: C3_4  and  O_7 
ROOT
ATOM      1  C   UNL d   1       1.828   5.823   0.205  0.00  0.00    -0.033 A 
ATOM      2  C1  UNL d   1       1.359   4.577   0.625  0.00  0.00     0.039 A 
ATOM      3  C2  UNL d   1       1.326   3.504  -0.269  0.00  0.00    -0.080 A 
ATOM      4  C3  UNL d   1       1.765   3.690  -1.577  0.00  0.00     0.150 A 
ATOM      5  C4  UNL d   1       2.237   4.928  -2.000  0.00  0.00    -0.007 A 
ATOM      6  C5  UNL d   1       2.268   5.999  -1.107  0.00  0.00     0.039 A 
ENDROOT
BRANCH   4   7
ATOM      7  O   UNL d   1       1.748   2.675  -2.486  0.00  0.00    -0.526 OA
ATOM      8  H5  UNL d   1       1.370   1.887  -2.060  0.00  0.00     0.418 HD
ENDBRANCH   4   7
TORSDOF 1
ENDMDL
