MODEL 1
REMARK minimizedAffinity -1.70164466
REMARK minimizedRMSD -1
REMARK  1 active torsions:
REMARK  status: ('A' for Active; 'I' for Inactive)
REMARK    1  A    between atoms: C3_4  and  O_7 
ROOT
ATOM      1  C   UNL d   1       1.147   2.335  -0.577  0.00  0.00    -0.033 A 
ATOM      2  C1  UNL d   1       1.724   2.506  -1.836  0.00  0.00     0.039 A 
ATOM      3  C2  UNL d   1       2.290   3.734  -2.185  0.00  0.00    -0.080 A 
ATOM      4  C3  UNL d   1       2.272   4.781  -1.267  0.00  0.00     0.150 A 
ATOM      5  C4  UNL d   1       1.702   4.616  -0.010  0.00  0.00    -0.007 A 
ATOM      6  C5  UNL d   1       1.136   3.389   0.337  0.00  0.00     0.039 A 
ENDROOT
BRANCH   4   7
ATOM      7  O   UNL d   1       2.807   5.999  -1.565  0.00  0.00    -0.526 OA
ATOM      8  H5  UNL d   1       3.140   5.974  -2.478  0.00  0.00     0.418 HD
ENDBRANCH   4   7
TORSDOF 1
ENDMDL
