MODEL 1
REMARK minimizedAffinity 2.20574999
REMARK minimizedRMSD -1
REMARK  1 active torsions:
REMARK  status: ('A' for Active; 'I' for Inactive)
REMARK    1  A    between atoms: C3_4  and  O_7 
ROOT
ATOM      1  C   UNL d   1       2.317   1.969   1.758  0.00  0.00    -0.033 A 
ATOM      2  C1  UNL d   1       2.750   0.756   1.219  0.00  0.00     0.039 A 
ATOM      3  C2  UNL d   1       2.659   0.528  -0.155  0.00  0.00    -0.080 A 
ATOM      4  C3  UNL d   1       2.136   1.521  -0.979  0.00  0.00     0.150 A 
ATOM      5  C4  UNL d   1       1.707   2.734  -0.450  0.00  0.00    -0.007 A 
ATOM      6  C5  UNL d   1       1.797   2.959   0.923  0.00  0.00     0.039 A 
ENDROOT
BRANCH   4   7
ATOM      7  O   UNL d   1       2.023   1.343  -2.326  0.00  0.00    -0.526 OA
ATOM      8  H5  UNL d   1       2.331   0.448  -2.545  0.00  0.00     0.418 HD
ENDBRANCH   4   7
TORSDOF 1
ENDMDL
