MODEL 1
REMARK minimizedAffinity 0.652446806
REMARK minimizedRMSD -1
REMARK  1 active torsions:
REMARK  status: ('A' for Active; 'I' for Inactive)
REMARK    1  A    between atoms: C3_4  and  O_7 
ROOT
ATOM      1  C   UNL d   1       1.044   1.923  -2.882  0.00  0.00    -0.033 A 
ATOM      2  C1  UNL d   1       1.981   1.938  -1.847  0.00  0.00     0.039 A 
ATOM      3  C2  UNL d   1       2.229   3.118  -1.144  0.00  0.00    -0.080 A 
ATOM      4  C3  UNL d   1       1.534   4.275  -1.485  0.00  0.00     0.150 A 
ATOM      5  C4  UNL d   1       0.596   4.267  -2.512  0.00  0.00    -0.007 A 
ATOM      6  C5  UNL d   1       0.350   3.088  -3.214  0.00  0.00     0.039 A 
ENDROOT
BRANCH   4   7
ATOM      7  O   UNL d   1       1.746   5.453  -0.831  0.00  0.00    -0.526 OA
ATOM      8  H5  UNL d   1       2.441   5.314  -0.166  0.00  0.00     0.418 HD
ENDBRANCH   4   7
TORSDOF 1
ENDMDL
