MODEL 1
REMARK minimizedAffinity 5.50097084
REMARK minimizedRMSD -1
REMARK  1 active torsions:
REMARK  status: ('A' for Active; 'I' for Inactive)
REMARK    1  A    between atoms: C3_4  and  O_7 
ROOT
ATOM      1  C   UNL d   1      -2.144  -3.267  -2.252  0.00  0.00    -0.033 A 
ATOM      2  C1  UNL d   1      -2.332  -2.556  -3.438  0.00  0.00     0.039 A 
ATOM      3  C2  UNL d   1      -1.807  -3.043  -4.637  0.00  0.00    -0.080 A 
ATOM      4  C3  UNL d   1      -1.097  -4.241  -4.635  0.00  0.00     0.150 A 
ATOM      5  C4  UNL d   1      -0.909  -4.956  -3.457  0.00  0.00    -0.007 A 
ATOM      6  C5  UNL d   1      -1.433  -4.468  -2.261  0.00  0.00     0.039 A 
ENDROOT
BRANCH   4   7
ATOM      7  O   UNL d   1      -0.562  -4.754  -5.779  0.00  0.00    -0.526 OA
ATOM      8  H5  UNL d   1      -0.747  -4.138  -6.508  0.00  0.00     0.418 HD
ENDBRANCH   4   7
TORSDOF 1
ENDMDL
