MODEL 1
REMARK minimizedAffinity -4.31037283
REMARK minimizedRMSD -1
REMARK  1 active torsions:
REMARK  status: ('A' for Active; 'I' for Inactive)
REMARK    1  A    between atoms: C3_4  and  O_7 
ROOT
ATOM      1  C   UNL d   1      -2.928  -2.949  -0.310  0.00  0.00    -0.033 A 
ATOM      2  C1  UNL d   1      -2.030  -1.955  -0.705  0.00  0.00     0.039 A 
ATOM      3  C2  UNL d   1      -1.816  -1.705  -2.062  0.00  0.00    -0.080 A 
ATOM      4  C3  UNL d   1      -2.505  -2.453  -3.012  0.00  0.00     0.150 A 
ATOM      5  C4  UNL d   1      -3.404  -3.441  -2.626  0.00  0.00    -0.007 A 
ATOM      6  C5  UNL d   1      -3.616  -3.691  -1.271  0.00  0.00     0.039 A 
ENDROOT
BRANCH   4   7
ATOM      7  O   UNL d   1      -2.325  -2.248  -4.348  0.00  0.00    -0.526 OA
ATOM      8  H5  UNL d   1      -1.655  -1.554  -4.465  0.00  0.00     0.418 HD
ENDBRANCH   4   7
TORSDOF 1
ENDMDL
