MODEL 1
REMARK minimizedAffinity -3.0021348
REMARK minimizedRMSD -1
REMARK  1 active torsions:
REMARK  status: ('A' for Active; 'I' for Inactive)
REMARK    1  A    between atoms: C3_4  and  O_7 
ROOT
ATOM      1  C   UNL d   1      -0.999  -1.350  -0.548  0.00  0.00    -0.033 A 
ATOM      2  C1  UNL d   1      -0.999  -0.397  -1.569  0.00  0.00     0.039 A 
ATOM      3  C2  UNL d   1      -1.610  -0.682  -2.792  0.00  0.00    -0.080 A 
ATOM      4  C3  UNL d   1      -2.218  -1.920  -2.980  0.00  0.00     0.150 A 
ATOM      5  C4  UNL d   1      -2.225  -2.872  -1.966  0.00  0.00    -0.007 A 
ATOM      6  C5  UNL d   1      -1.613  -2.586  -0.746  0.00  0.00     0.039 A 
ENDROOT
BRANCH   4   7
ATOM      7  O   UNL d   1      -2.823  -2.245  -4.158  0.00  0.00    -0.526 OA
ATOM      8  H5  UNL d   1      -2.714  -1.502  -4.775  0.00  0.00     0.418 HD
ENDBRANCH   4   7
TORSDOF 1
ENDMDL
