MODEL 1
REMARK minimizedAffinity -4.07656765
REMARK minimizedRMSD -1
REMARK  1 active torsions:
REMARK  status: ('A' for Active; 'I' for Inactive)
REMARK    1  A    between atoms: C3_4  and  O_7 
ROOT
ATOM      1  C   UNL d   1      -3.446  -3.207  -0.852  0.00  0.00    -0.033 A 
ATOM      2  C1  UNL d   1      -2.758  -2.942  -2.039  0.00  0.00     0.039 A 
ATOM      3  C2  UNL d   1      -1.610  -2.149  -2.020  0.00  0.00    -0.080 A 
ATOM      4  C3  UNL d   1      -1.159  -1.628  -0.810  0.00  0.00     0.150 A 
ATOM      5  C4  UNL d   1      -1.836  -1.890   0.376  0.00  0.00    -0.007 A 
ATOM      6  C5  UNL d   1      -2.984  -2.682   0.355  0.00  0.00     0.039 A 
ENDROOT
BRANCH   4   7
ATOM      7  O   UNL d   1      -0.045  -0.844  -0.743  0.00  0.00    -0.526 OA
ATOM      8  H5  UNL d   1       0.302  -0.724  -1.642  0.00  0.00     0.418 HD
ENDBRANCH   4   7
TORSDOF 1
ENDMDL
