MODEL 1
REMARK minimizedAffinity -2.96573997
REMARK minimizedRMSD -1
REMARK  1 active torsions:
REMARK  status: ('A' for Active; 'I' for Inactive)
REMARK    1  A    between atoms: C3_4  and  O_7 
ROOT
ATOM      1  C   UNL d   1      -1.943  -1.180  -2.404  0.00  0.00    -0.033 A 
ATOM      2  C1  UNL d   1      -2.481  -1.848  -1.302  0.00  0.00     0.039 A 
ATOM      3  C2  UNL d   1      -2.042  -1.537  -0.014  0.00  0.00    -0.080 A 
ATOM      4  C3  UNL d   1      -1.067  -0.558   0.159  0.00  0.00     0.150 A 
ATOM      5  C4  UNL d   1      -0.531   0.114  -0.935  0.00  0.00    -0.007 A 
ATOM      6  C5  UNL d   1      -0.969  -0.198  -2.221  0.00  0.00     0.039 A 
ENDROOT
BRANCH   4   7
ATOM      7  O   UNL d   1      -0.604  -0.224   1.397  0.00  0.00    -0.526 OA
ATOM      8  H5  UNL d   1      -1.044  -0.789   2.053  0.00  0.00     0.418 HD
ENDBRANCH   4   7
TORSDOF 1
ENDMDL
