MODEL 1
REMARK minimizedAffinity -2.82862282
REMARK minimizedRMSD -1
REMARK  1 active torsions:
REMARK  status: ('A' for Active; 'I' for Inactive)
REMARK    1  A    between atoms: C3_4  and  O_7 
ROOT
ATOM      1  C   UNL d   1      -0.622  -1.207   0.155  0.00  0.00    -0.033 A 
ATOM      2  C1  UNL d   1      -0.615  -0.197  -0.810  0.00  0.00     0.039 A 
ATOM      3  C2  UNL d   1      -1.400  -0.322  -1.958  0.00  0.00    -0.080 A 
ATOM      4  C3  UNL d   1      -2.186  -1.458  -2.129  0.00  0.00     0.150 A 
ATOM      5  C4  UNL d   1      -2.200  -2.466  -1.170  0.00  0.00    -0.007 A 
ATOM      6  C5  UNL d   1      -1.415  -2.340  -0.024  0.00  0.00     0.039 A 
ENDROOT
BRANCH   4   7
ATOM      7  O   UNL d   1      -2.965  -1.626  -3.235  0.00  0.00    -0.526 OA
ATOM      8  H5  UNL d   1      -2.832  -0.865  -3.824  0.00  0.00     0.418 HD
ENDBRANCH   4   7
TORSDOF 1
ENDMDL
