MODEL 1
REMARK minimizedAffinity -1.40343297
REMARK minimizedRMSD -1
REMARK  1 active torsions:
REMARK  status: ('A' for Active; 'I' for Inactive)
REMARK    1  A    between atoms: C3_4  and  O_7 
ROOT
ATOM      1  C   UNL d   1      -0.851  -1.091  -0.597  0.00  0.00    -0.033 A 
ATOM      2  C1  UNL d   1      -1.701  -0.750   0.457  0.00  0.00     0.039 A 
ATOM      3  C2  UNL d   1      -3.048  -1.114   0.415  0.00  0.00    -0.080 A 
ATOM      4  C3  UNL d   1      -3.531  -1.819  -0.684  0.00  0.00     0.150 A 
ATOM      5  C4  UNL d   1      -2.689  -2.165  -1.735  0.00  0.00    -0.007 A 
ATOM      6  C5  UNL d   1      -1.345  -1.799  -1.692  0.00  0.00     0.039 A 
ENDROOT
BRANCH   4   7
ATOM      7  O   UNL d   1      -4.840  -2.192  -0.771  0.00  0.00    -0.526 OA
ATOM      8  H5  UNL d   1      -5.308  -1.860   0.013  0.00  0.00     0.418 HD
ENDBRANCH   4   7
TORSDOF 1
ENDMDL
