MODEL 1
REMARK minimizedAffinity -1.67730319
REMARK minimizedRMSD -1
REMARK  1 active torsions:
REMARK  status: ('A' for Active; 'I' for Inactive)
REMARK    1  A    between atoms: C3_4  and  O_7 
ROOT
ATOM      1  C   UNL d   1      -5.787   4.984   0.128  0.00  0.00    -0.033 A 
ATOM      2  C1  UNL d   1      -4.882   3.958   0.405  0.00  0.00     0.039 A 
ATOM      3  C2  UNL d   1      -4.184   3.947   1.615  0.00  0.00    -0.080 A 
ATOM      4  C3  UNL d   1      -4.401   4.967   2.537  0.00  0.00     0.150 A 
ATOM      5  C4  UNL d   1      -5.304   5.991   2.270  0.00  0.00    -0.007 A 
ATOM      6  C5  UNL d   1      -5.999   6.000   1.061  0.00  0.00     0.039 A 
ENDROOT
BRANCH   4   7
ATOM      7  O   UNL d   1      -3.740   5.002   3.729  0.00  0.00    -0.526 OA
ATOM      8  H5  UNL d   1      -3.128   4.248   3.764  0.00  0.00     0.418 HD
ENDBRANCH   4   7
TORSDOF 1
ENDMDL
