MODEL 1
REMARK minimizedAffinity 0.756986439
REMARK minimizedRMSD -1
REMARK  1 active torsions:
REMARK  status: ('A' for Active; 'I' for Inactive)
REMARK    1  A    between atoms: C3_4  and  O_7 
ROOT
ATOM      1  C   UNL d   1      -3.570  -3.361  -1.552  0.00  0.00    -0.033 A 
ATOM      2  C1  UNL d   1      -3.667  -4.366  -2.516  0.00  0.00     0.039 A 
ATOM      3  C2  UNL d   1      -3.273  -4.115  -3.832  0.00  0.00    -0.080 A 
ATOM      4  C3  UNL d   1      -2.782  -2.857  -4.170  0.00  0.00     0.150 A 
ATOM      5  C4  UNL d   1      -2.679  -1.852  -3.214  0.00  0.00    -0.007 A 
ATOM      6  C5  UNL d   1      -3.074  -2.104  -1.901  0.00  0.00     0.039 A 
ENDROOT
BRANCH   4   7
ATOM      7  O   UNL d   1      -2.389  -2.564  -5.442  0.00  0.00    -0.526 OA
ATOM      8  H5  UNL d   1      -2.544  -3.344  -6.000  0.00  0.00     0.418 HD
ENDBRANCH   4   7
TORSDOF 1
ENDMDL
