MODEL 1
REMARK minimizedAffinity 1.75977719
REMARK minimizedRMSD -1
REMARK  1 active torsions:
REMARK  status: ('A' for Active; 'I' for Inactive)
REMARK    1  A    between atoms: C3_4  and  O_7 
ROOT
ATOM      1  C   UNL d   1      -2.761  -1.332  -2.911  0.00  0.00    -0.033 A 
ATOM      2  C1  UNL d   1      -2.620  -2.487  -2.139  0.00  0.00     0.039 A 
ATOM      3  C2  UNL d   1      -1.809  -2.474  -1.002  0.00  0.00    -0.080 A 
ATOM      4  C3  UNL d   1      -1.148  -1.301  -0.647  0.00  0.00     0.150 A 
ATOM      5  C4  UNL d   1      -1.288  -0.146  -1.409  0.00  0.00    -0.007 A 
ATOM      6  C5  UNL d   1      -2.097  -0.161  -2.545  0.00  0.00     0.039 A 
ENDROOT
BRANCH   4   7
ATOM      7  O   UNL d   1      -0.343  -1.242   0.451  0.00  0.00    -0.526 OA
ATOM      8  H5  UNL d   1      -0.319  -2.121   0.863  0.00  0.00     0.418 HD
ENDBRANCH   4   7
TORSDOF 1
ENDMDL
