MODEL 1
REMARK minimizedAffinity -0.828900695
REMARK minimizedRMSD -1
REMARK  1 active torsions:
REMARK  status: ('A' for Active; 'I' for Inactive)
REMARK    1  A    between atoms: C3_4  and  O_7 
ROOT
ATOM      1  C   UNL d   1      -4.754   5.997   4.072  0.00  0.00    -0.033 A 
ATOM      2  C1  UNL d   1      -3.558   5.978   3.353  0.00  0.00     0.039 A 
ATOM      3  C2  UNL d   1      -3.580   5.958   1.957  0.00  0.00    -0.080 A 
ATOM      4  C3  UNL d   1      -4.804   5.959   1.294  0.00  0.00     0.150 A 
ATOM      5  C4  UNL d   1      -6.000   5.981   2.004  0.00  0.00    -0.007 A 
ATOM      6  C5  UNL d   1      -5.975   6.000   3.398  0.00  0.00     0.039 A 
ENDROOT
BRANCH   4   7
ATOM      7  O   UNL d   1      -4.877   5.935  -0.067  0.00  0.00    -0.526 OA
ATOM      8  H5  UNL d   1      -3.973   5.892  -0.423  0.00  0.00     0.418 HD
ENDBRANCH   4   7
TORSDOF 1
ENDMDL
