MODEL 1
REMARK minimizedAffinity 6.94796991
REMARK minimizedRMSD -1
REMARK  1 active torsions:
REMARK  status: ('A' for Active; 'I' for Inactive)
REMARK    1  A    between atoms: C3_4  and  O_7 
ROOT
ATOM      1  C   UNL d   1      -4.902   5.999   3.313  0.00  0.00    -0.033 A 
ATOM      2  C1  UNL d   1      -3.638   5.609   2.865  0.00  0.00     0.039 A 
ATOM      3  C2  UNL d   1      -3.468   5.159   1.554  0.00  0.00    -0.080 A 
ATOM      4  C3  UNL d   1      -4.567   5.103   0.703  0.00  0.00     0.150 A 
ATOM      5  C4  UNL d   1      -5.829   5.493   1.141  0.00  0.00    -0.007 A 
ATOM      6  C5  UNL d   1      -5.997   5.942   2.450  0.00  0.00     0.039 A 
ENDROOT
BRANCH   4   7
ATOM      7  O   UNL d   1      -4.452   4.665  -0.583  0.00  0.00    -0.526 OA
ATOM      8  H5  UNL d   1      -3.529   4.403  -0.737  0.00  0.00     0.418 HD
ENDBRANCH   4   7
TORSDOF 1
ENDMDL
