MODEL 1
REMARK minimizedAffinity -1.65271461
REMARK minimizedRMSD -1
REMARK  1 active torsions:
REMARK  status: ('A' for Active; 'I' for Inactive)
REMARK    1  A    between atoms: C3_4  and  O_7 
ROOT
ATOM      1  C   UNL d   1      -4.628   5.086   5.457  0.00  0.00    -0.033 A 
ATOM      2  C1  UNL d   1      -5.578   5.998   4.990  0.00  0.00     0.039 A 
ATOM      3  C2  UNL d   1      -5.993   5.955   3.658  0.00  0.00    -0.080 A 
ATOM      4  C3  UNL d   1      -5.454   4.996   2.805  0.00  0.00     0.150 A 
ATOM      5  C4  UNL d   1      -4.510   4.083   3.264  0.00  0.00    -0.007 A 
ATOM      6  C5  UNL d   1      -4.096   4.128   4.594  0.00  0.00     0.039 A 
ENDROOT
BRANCH   4   7
ATOM      7  O   UNL d   1      -5.825   4.919   1.495  0.00  0.00    -0.526 OA
ATOM      8  H5  UNL d   1      -6.461   5.630   1.313  0.00  0.00     0.418 HD
ENDBRANCH   4   7
TORSDOF 1
ENDMDL
