MODEL 1
REMARK minimizedAffinity 1.55647242
REMARK minimizedRMSD -1
REMARK  1 active torsions:
REMARK  status: ('A' for Active; 'I' for Inactive)
REMARK    1  A    between atoms: C3_4  and  O_7 
ROOT
ATOM      1  C   UNL d   1       2.731  -0.174   4.495  0.00  0.00    -0.033 A 
ATOM      2  C1  UNL d   1       1.558  -0.181   3.739  0.00  0.00     0.039 A 
ATOM      3  C2  UNL d   1       0.730   0.943   3.721  0.00  0.00    -0.080 A 
ATOM      4  C3  UNL d   1       1.087   2.067   4.462  0.00  0.00     0.150 A 
ATOM      5  C4  UNL d   1       2.257   2.082   5.215  0.00  0.00    -0.007 A 
ATOM      6  C5  UNL d   1       3.082   0.958   5.232  0.00  0.00     0.039 A 
ENDROOT
BRANCH   4   7
ATOM      7  O   UNL d   1       0.309   3.186   4.480  0.00  0.00    -0.526 OA
ATOM      8  H5  UNL d   1      -0.480   3.020   3.937  0.00  0.00     0.418 HD
ENDBRANCH   4   7
TORSDOF 1
ENDMDL
