MODEL 1
REMARK minimizedAffinity -3.65696049
REMARK minimizedRMSD -1
REMARK  1 active torsions:
REMARK  status: ('A' for Active; 'I' for Inactive)
REMARK    1  A    between atoms: C3_4  and  O_7 
ROOT
ATOM      1  C   UNL d   1      -5.277   4.156   5.227  0.00  0.00    -0.033 A 
ATOM      2  C1  UNL d   1      -5.994   5.203   4.646  0.00  0.00     0.039 A 
ATOM      3  C2  UNL d   1      -5.779   5.541   3.308  0.00  0.00    -0.080 A 
ATOM      4  C3  UNL d   1      -4.847   4.824   2.564  0.00  0.00     0.150 A 
ATOM      5  C4  UNL d   1      -4.131   3.777   3.136  0.00  0.00    -0.007 A 
ATOM      6  C5  UNL d   1      -4.346   3.442   4.472  0.00  0.00     0.039 A 
ENDROOT
BRANCH   4   7
ATOM      7  O   UNL d   1      -4.599   5.119   1.256  0.00  0.00    -0.526 OA
ATOM      8  H5  UNL d   1      -5.145   5.883   1.005  0.00  0.00     0.418 HD
ENDBRANCH   4   7
TORSDOF 1
ENDMDL
