MODEL 1
REMARK minimizedAffinity -3.82783365
REMARK minimizedRMSD -1
REMARK  1 active torsions:
REMARK  status: ('A' for Active; 'I' for Inactive)
REMARK    1  A    between atoms: C3_4  and  O_7 
ROOT
ATOM      1  C   UNL d   1      -4.450  -1.906   4.882  0.00  0.00    -0.033 A 
ATOM      2  C1  UNL d   1      -5.560  -1.456   5.599  0.00  0.00     0.039 A 
ATOM      3  C2  UNL d   1      -5.866  -0.094   5.634  0.00  0.00    -0.080 A 
ATOM      4  C3  UNL d   1      -5.055   0.806   4.946  0.00  0.00     0.150 A 
ATOM      5  C4  UNL d   1      -3.950   0.363   4.226  0.00  0.00    -0.007 A 
ATOM      6  C5  UNL d   1      -3.646  -0.997   4.194  0.00  0.00     0.039 A 
ENDROOT
BRANCH   4   7
ATOM      7  O   UNL d   1      -5.311   2.145   4.955  0.00  0.00    -0.526 OA
ATOM      8  H5  UNL d   1      -6.088   2.306   5.516  0.00  0.00     0.418 HD
ENDBRANCH   4   7
TORSDOF 1
ENDMDL
