MODEL 1
REMARK minimizedAffinity -2.13373566
REMARK minimizedRMSD -1
REMARK  1 active torsions:
REMARK  status: ('A' for Active; 'I' for Inactive)
REMARK    1  A    between atoms: C3_4  and  O_7 
ROOT
ATOM      1  C   UNL d   1      -4.865   4.885   5.984  0.00  0.00    -0.033 A 
ATOM      2  C1  UNL d   1      -5.420   6.000   5.354  0.00  0.00     0.039 A 
ATOM      3  C2  UNL d   1      -5.614   5.999   3.971  0.00  0.00    -0.080 A 
ATOM      4  C3  UNL d   1      -5.250   4.877   3.231  0.00  0.00     0.150 A 
ATOM      5  C4  UNL d   1      -4.700   3.761   3.853  0.00  0.00    -0.007 A 
ATOM      6  C5  UNL d   1      -4.506   3.764   5.234  0.00  0.00     0.039 A 
ENDROOT
BRANCH   4   7
ATOM      7  O   UNL d   1      -5.415   4.831   1.879  0.00  0.00    -0.526 OA
ATOM      8  H5  UNL d   1      -5.778   5.682   1.584  0.00  0.00     0.418 HD
ENDBRANCH   4   7
TORSDOF 1
ENDMDL
