MODEL 1
REMARK minimizedAffinity -2.43670607
REMARK minimizedRMSD -1
REMARK  1 active torsions:
REMARK  status: ('A' for Active; 'I' for Inactive)
REMARK    1  A    between atoms: C3_4  and  O_7 
ROOT
ATOM      1  C   UNL d   1      -4.388   5.348   5.612  0.00  0.00    -0.033 A 
ATOM      2  C1  UNL d   1      -5.581   5.981   5.258  0.00  0.00     0.039 A 
ATOM      3  C2  UNL d   1      -5.998   5.996   3.925  0.00  0.00    -0.080 A 
ATOM      4  C3  UNL d   1      -5.214   5.373   2.958  0.00  0.00     0.150 A 
ATOM      5  C4  UNL d   1      -4.026   4.737   3.304  0.00  0.00    -0.007 A 
ATOM      6  C5  UNL d   1      -3.611   4.725   4.635  0.00  0.00     0.039 A 
ENDROOT
BRANCH   4   7
ATOM      7  O   UNL d   1      -5.577   5.365   1.644  0.00  0.00    -0.526 OA
ATOM      8  H5  UNL d   1      -6.404   5.866   1.550  0.00  0.00     0.418 HD
ENDBRANCH   4   7
TORSDOF 1
ENDMDL
