MODEL 1
REMARK minimizedAffinity 2.96594071
REMARK minimizedRMSD -1
REMARK  0 active torsions:
REMARK  status: ('A' for Active; 'I' for Inactive)
ROOT
ATOM      1  C   UNL d   1       0.014  -4.960  -0.339  0.00  0.00     0.020 A 
ATOM      2  C1  UNL d   1       1.169  -5.104   0.429  0.00  0.00     0.020 A 
ATOM      3  C2  UNL d   1       1.506  -4.132   1.374  0.00  0.00     0.034 A 
ATOM      4  C3  UNL d   1       0.686  -3.012   1.554  0.00  0.00     0.017 A 
ATOM      5  C4  UNL d   1      -0.473  -2.868   0.783  0.00  0.00     0.017 A 
ATOM      6  C5  UNL d   1      -0.805  -3.844  -0.162  0.00  0.00     0.034 A 
ATOM      7 Cl   UNL d   1      -1.534  -1.514   0.948  0.00  0.00    -0.070 Cl
ATOM      8 Cl1  UNL d   1       1.163  -1.850   2.740  0.00  0.00    -0.070 Cl
ENDROOT
TORSDOF 0
ENDMDL
