MODEL 1
REMARK minimizedAffinity 10.1740303
REMARK minimizedRMSD -1
REMARK  0 active torsions:
REMARK  status: ('A' for Active; 'I' for Inactive)
ROOT
ATOM      1  C   UNL d   1      -3.356   4.117   1.471  0.00  0.00     0.020 A 
ATOM      2  C1  UNL d   1      -3.319   5.443   1.041  0.00  0.00     0.020 A 
ATOM      3  C2  UNL d   1      -2.119   6.000   0.596  0.00  0.00     0.034 A 
ATOM      4  C3  UNL d   1      -0.949   5.231   0.580  0.00  0.00     0.017 A 
ATOM      5  C4  UNL d   1      -0.987   3.900   1.011  0.00  0.00     0.017 A 
ATOM      6  C5  UNL d   1      -2.192   3.347   1.456  0.00  0.00     0.034 A 
ATOM      7 Cl   UNL d   1       0.415   2.888   1.020  0.00  0.00    -0.070 Cl
ATOM      8 Cl1  UNL d   1       0.500   5.984   0.016  0.00  0.00    -0.070 Cl
ENDROOT
TORSDOF 0
ENDMDL
