MODEL 1
REMARK minimizedAffinity 4.51781225
REMARK minimizedRMSD -1
REMARK  0 active torsions:
REMARK  status: ('A' for Active; 'I' for Inactive)
ROOT
ATOM      1  C   UNL d   1      -0.502  -2.001   0.738  0.00  0.00     0.020 A 
ATOM      2  C1  UNL d   1      -1.828  -2.229   1.103  0.00  0.00     0.020 A 
ATOM      3  C2  UNL d   1      -2.417  -3.471   0.855  0.00  0.00     0.034 A 
ATOM      4  C3  UNL d   1      -1.680  -4.489   0.239  0.00  0.00     0.017 A 
ATOM      5  C4  UNL d   1      -0.349  -4.259  -0.127  0.00  0.00     0.017 A 
ATOM      6  C5  UNL d   1       0.236  -3.014   0.124  0.00  0.00     0.034 A 
ATOM      7 Cl   UNL d   1       0.624  -5.466  -0.890  0.00  0.00    -0.070 Cl
ATOM      8 Cl1  UNL d   1      -2.472  -6.000  -0.037  0.00  0.00    -0.070 Cl
ENDROOT
TORSDOF 0
ENDMDL
