MODEL 1
REMARK minimizedAffinity 7.72089291
REMARK minimizedRMSD -1
REMARK  0 active torsions:
REMARK  status: ('A' for Active; 'I' for Inactive)
ROOT
ATOM      1  C   UNL d   1      -4.138   4.459  -4.686  0.00  0.00     0.020 A 
ATOM      2  C1  UNL d   1      -3.607   3.273  -5.191  0.00  0.00     0.020 A 
ATOM      3  C2  UNL d   1      -3.363   2.197  -4.336  0.00  0.00     0.034 A 
ATOM      4  C3  UNL d   1      -3.650   2.304  -2.970  0.00  0.00     0.017 A 
ATOM      5  C4  UNL d   1      -4.184   3.494  -2.464  0.00  0.00     0.017 A 
ATOM      6  C5  UNL d   1      -4.426   4.569  -3.325  0.00  0.00     0.034 A 
ATOM      7 Cl   UNL d   1      -4.564   3.701  -0.790  0.00  0.00    -0.070 Cl
ATOM      8 Cl1  UNL d   1      -3.323   0.933  -1.971  0.00  0.00    -0.070 Cl
ENDROOT
TORSDOF 0
ENDMDL
