MODEL 1
REMARK minimizedAffinity 5.54052496
REMARK minimizedRMSD -1
REMARK  0 active torsions:
REMARK  status: ('A' for Active; 'I' for Inactive)
ROOT
ATOM      1  C   UNL d   1       1.059  -0.736   2.382  0.00  0.00     0.020 A 
ATOM      2  C1  UNL d   1       1.715  -1.570   1.477  0.00  0.00     0.020 A 
ATOM      3  C2  UNL d   1       2.089  -2.859   1.860  0.00  0.00     0.034 A 
ATOM      4  C3  UNL d   1       1.807  -3.320   3.151  0.00  0.00     0.017 A 
ATOM      5  C4  UNL d   1       1.149  -2.482   4.059  0.00  0.00     0.017 A 
ATOM      6  C5  UNL d   1       0.777  -1.192   3.671  0.00  0.00     0.034 A 
ATOM      7 Cl   UNL d   1       0.767  -2.980   5.670  0.00  0.00    -0.070 Cl
ATOM      8 Cl1  UNL d   1       2.298  -4.926   3.557  0.00  0.00    -0.070 Cl
ENDROOT
TORSDOF 0
ENDMDL
