MODEL 1
REMARK minimizedAffinity 12.0867643
REMARK minimizedRMSD -1
REMARK  0 active torsions:
REMARK  status: ('A' for Active; 'I' for Inactive)
ROOT
ATOM      1  C   UNL d   1       1.691  -3.118   2.013  0.00  0.00     0.020 A 
ATOM      2  C1  UNL d   1       1.395  -1.790   1.710  0.00  0.00     0.020 A 
ATOM      3  C2  UNL d   1       1.136  -0.880   2.737  0.00  0.00     0.034 A 
ATOM      4  C3  UNL d   1       1.174  -1.297   4.072  0.00  0.00     0.017 A 
ATOM      5  C4  UNL d   1       1.471  -2.631   4.376  0.00  0.00     0.017 A 
ATOM      6  C5  UNL d   1       1.729  -3.538   3.343  0.00  0.00     0.034 A 
ATOM      7 Cl   UNL d   1       1.536  -3.219   6.000  0.00  0.00    -0.070 Cl
ATOM      8 Cl1  UNL d   1       0.844  -0.118   5.292  0.00  0.00    -0.070 Cl
ENDROOT
TORSDOF 0
ENDMDL
