MODEL 1
REMARK minimizedAffinity 8.22338104
REMARK minimizedRMSD -1
REMARK  0 active torsions:
REMARK  status: ('A' for Active; 'I' for Inactive)
ROOT
ATOM      1  C   UNL d   1       2.770  -4.529   1.873  0.00  0.00     0.020 A 
ATOM      2  C1  UNL d   1       3.095  -3.742   0.769  0.00  0.00     0.020 A 
ATOM      3  C2  UNL d   1       2.749  -2.389   0.750  0.00  0.00     0.034 A 
ATOM      4  C3  UNL d   1       2.076  -1.819   1.837  0.00  0.00     0.017 A 
ATOM      5  C4  UNL d   1       1.751  -2.610   2.945  0.00  0.00     0.017 A 
ATOM      6  C5  UNL d   1       2.100  -3.964   2.959  0.00  0.00     0.034 A 
ATOM      7 Cl   UNL d   1       0.922  -1.978   4.323  0.00  0.00    -0.070 Cl
ATOM      8 Cl1  UNL d   1       1.680  -0.140   1.746  0.00  0.00    -0.070 Cl
ENDROOT
TORSDOF 0
ENDMDL
