MODEL 1
REMARK minimizedAffinity 7.97746706
REMARK minimizedRMSD -1
REMARK  0 active torsions:
REMARK  status: ('A' for Active; 'I' for Inactive)
ROOT
ATOM      1  C   UNL d   1       0.127  -5.825   0.525  0.00  0.00     0.020 A 
ATOM      2  C1  UNL d   1      -1.186  -5.645   0.091  0.00  0.00     0.020 A 
ATOM      3  C2  UNL d   1      -1.793  -4.393   0.202  0.00  0.00     0.034 A 
ATOM      4  C3  UNL d   1      -1.087  -3.315   0.749  0.00  0.00     0.017 A 
ATOM      5  C4  UNL d   1       0.230  -3.496   1.185  0.00  0.00     0.017 A 
ATOM      6  C5  UNL d   1       0.833  -4.752   1.071  0.00  0.00     0.034 A 
ATOM      7 Cl   UNL d   1       1.165  -2.213   1.870  0.00  0.00    -0.070 Cl
ATOM      8 Cl1  UNL d   1      -1.900  -1.794   0.856  0.00  0.00    -0.070 Cl
ENDROOT
TORSDOF 0
ENDMDL
