MODEL 1
REMARK minimizedAffinity 14.7008486
REMARK minimizedRMSD -1
REMARK  0 active torsions:
REMARK  status: ('A' for Active; 'I' for Inactive)
ROOT
ATOM      1  C   UNL d   1       1.120  -2.205   6.000  0.00  0.00     0.020 A 
ATOM      2  C1  UNL d   1       1.860  -3.386   5.994  0.00  0.00     0.020 A 
ATOM      3  C2  UNL d   1       2.244  -3.964   4.782  0.00  0.00     0.034 A 
ATOM      4  C3  UNL d   1       1.887  -3.361   3.571  0.00  0.00     0.017 A 
ATOM      5  C4  UNL d   1       1.144  -2.175   3.577  0.00  0.00     0.017 A 
ATOM      6  C5  UNL d   1       0.762  -1.601   4.794  0.00  0.00     0.034 A 
ATOM      7 Cl   UNL d   1       0.667  -1.372   2.123  0.00  0.00    -0.070 Cl
ATOM      8 Cl1  UNL d   1       2.396  -4.130   2.110  0.00  0.00    -0.070 Cl
ENDROOT
TORSDOF 0
ENDMDL
