MODEL 1
REMARK minimizedAffinity 9.22794151
REMARK minimizedRMSD -1
REMARK  0 active torsions:
REMARK  status: ('A' for Active; 'I' for Inactive)
ROOT
ATOM      1  C   UNL d   1       1.444  -0.478   1.002  0.00  0.00     0.020 A 
ATOM      2  C1  UNL d   1       2.227  -1.427   0.347  0.00  0.00     0.020 A 
ATOM      3  C2  UNL d   1       2.631  -2.582   1.018  0.00  0.00     0.034 A 
ATOM      4  C3  UNL d   1       2.252  -2.792   2.349  0.00  0.00     0.017 A 
ATOM      5  C4  UNL d   1       1.465  -1.839   3.006  0.00  0.00     0.017 A 
ATOM      6  C5  UNL d   1       1.063  -0.684   2.329  0.00  0.00     0.034 A 
ATOM      7 Cl   UNL d   1       0.958  -2.028   4.647  0.00  0.00    -0.070 Cl
ATOM      8 Cl1  UNL d   1       2.787  -4.244   3.118  0.00  0.00    -0.070 Cl
ENDROOT
TORSDOF 0
ENDMDL
