MODEL 1
REMARK minimizedAffinity -4.90395498
REMARK minimizedRMSD -1
REMARK  2 active torsions:
REMARK  status: ('A' for Active; 'I' for Inactive)
REMARK    1  A    between atoms: C1_2  and  C2_3 
REMARK    2  A    between atoms: C2_3  and  C3_4 
ROOT
ATOM      1  C3  UNL d   1       0.121   0.012  -0.290  0.00  0.00    -0.075 A 
ATOM      2  C4  UNL d   1      -0.654   0.991  -0.928  0.00  0.00     0.002 A 
ATOM      3  C5  UNL d   1      -1.195   2.052  -0.201  0.00  0.00     0.002 A 
ATOM      4  C6  UNL d   1      -0.977   2.141   1.172  0.00  0.00    -0.004 A 
ATOM      5  C7  UNL d   1      -0.223   1.165   1.820  0.00  0.00     0.002 A 
ATOM      6  C8  UNL d   1       0.323   0.105   1.094  0.00  0.00     0.002 A 
ENDROOT
BRANCH   1   7
ATOM      7  C2  UNL d   1       0.733  -1.123  -1.076  0.00  0.00     0.056 C 
BRANCH   7   8
ATOM      8  C1  UNL d   1      -0.114  -2.400  -1.092  0.00  0.00     0.007 C 
ATOM      9  C   UNL d   1       0.701  -3.658  -1.361  0.00  0.00     0.009 C 
ENDBRANCH   7   8
ENDBRANCH   1   7
TORSDOF 2
ENDMDL
