MODEL 1
REMARK minimizedAffinity -0.491131574
REMARK minimizedRMSD -1
REMARK  2 active torsions:
REMARK  status: ('A' for Active; 'I' for Inactive)
REMARK    1  A    between atoms: C1_2  and  C2_3 
REMARK    2  A    between atoms: C2_3  and  C3_4 
ROOT
ATOM      1  C3  UNL d   1       0.351  -0.256  -0.203  0.00  0.00    -0.075 A 
ATOM      2  C4  UNL d   1       0.028   0.506  -1.335  0.00  0.00     0.002 A 
ATOM      3  C5  UNL d   1      -0.173   1.883  -1.229  0.00  0.00     0.002 A 
ATOM      4  C6  UNL d   1      -0.064   2.512   0.008  0.00  0.00    -0.004 A 
ATOM      5  C7  UNL d   1       0.240   1.763   1.143  0.00  0.00     0.002 A 
ATOM      6  C8  UNL d   1       0.446   0.386   1.039  0.00  0.00     0.002 A 
ENDROOT
BRANCH   1   7
ATOM      7  C2  UNL d   1       0.598  -1.741  -0.316  0.00  0.00     0.056 C 
BRANCH   7   8
ATOM      8  C1  UNL d   1      -0.402  -2.473  -1.216  0.00  0.00     0.007 C 
ATOM      9  C   UNL d   1      -0.119  -3.964  -1.340  0.00  0.00     0.009 C 
ENDBRANCH   7   8
ENDBRANCH   1   7
TORSDOF 2
ENDMDL
