MODEL 1
REMARK minimizedAffinity -2.44607997
REMARK minimizedRMSD -1
REMARK  2 active torsions:
REMARK  status: ('A' for Active; 'I' for Inactive)
REMARK    1  A    between atoms: C1_2  and  C2_3 
REMARK    2  A    between atoms: C2_3  and  C3_4 
ROOT
ATOM      1  C3  UNL d   1       0.383  -0.663  -0.453  0.00  0.00    -0.075 A 
ATOM      2  C4  UNL d   1       0.847  -0.892   0.850  0.00  0.00     0.002 A 
ATOM      3  C5  UNL d   1       0.525  -0.012   1.883  0.00  0.00     0.002 A 
ATOM      4  C6  UNL d   1      -0.256   1.113   1.625  0.00  0.00    -0.004 A 
ATOM      5  C7  UNL d   1      -0.709   1.360   0.331  0.00  0.00     0.002 A 
ATOM      6  C8  UNL d   1      -0.391   0.478  -0.703  0.00  0.00     0.002 A 
ENDROOT
BRANCH   1   7
ATOM      7  C2  UNL d   1       0.704  -1.628  -1.569  0.00  0.00     0.056 C 
BRANCH   7   8
ATOM      8  C1  UNL d   1       0.701  -3.099  -1.141  0.00  0.00     0.007 C 
ATOM      9  C   UNL d   1      -0.188  -3.976  -2.012  0.00  0.00     0.009 C 
ENDBRANCH   7   8
ENDBRANCH   1   7
TORSDOF 2
ENDMDL
