MODEL 1
REMARK minimizedAffinity -4.92665529
REMARK minimizedRMSD -1
REMARK  2 active torsions:
REMARK  status: ('A' for Active; 'I' for Inactive)
REMARK    1  A    between atoms: C1_2  and  C2_3 
REMARK    2  A    between atoms: C2_3  and  C3_4 
ROOT
ATOM      1  C3  UNL d   1       0.165  -0.223   0.100  0.00  0.00    -0.075 A 
ATOM      2  C4  UNL d   1       0.717  -0.269   1.388  0.00  0.00     0.002 A 
ATOM      3  C5  UNL d   1       0.327   0.653   2.360  0.00  0.00     0.002 A 
ATOM      4  C6  UNL d   1      -0.609   1.638   2.054  0.00  0.00    -0.004 A 
ATOM      5  C7  UNL d   1      -1.152   1.704   0.772  0.00  0.00     0.002 A 
ATOM      6  C8  UNL d   1      -0.767   0.780  -0.200  0.00  0.00     0.002 A 
ENDROOT
BRANCH   1   7
ATOM      7  C2  UNL d   1       0.560  -1.236  -0.947  0.00  0.00     0.056 C 
BRANCH   7   8
ATOM      8  C1  UNL d   1      -0.400  -2.426  -1.058  0.00  0.00     0.007 C 
ATOM      9  C   UNL d   1       0.096  -3.511  -2.004  0.00  0.00     0.009 C 
ENDBRANCH   7   8
ENDBRANCH   1   7
TORSDOF 2
ENDMDL
