MODEL 1
REMARK minimizedAffinity -6.0824151
REMARK minimizedRMSD -1
REMARK  2 active torsions:
REMARK  status: ('A' for Active; 'I' for Inactive)
REMARK    1  A    between atoms: C1_2  and  C2_3 
REMARK    2  A    between atoms: C2_3  and  C3_4 
ROOT
ATOM      1  C3  UNL d   1      -0.842   1.130   0.077  0.00  0.00    -0.075 A 
ATOM      2  C4  UNL d   1      -0.001   0.010   0.151  0.00  0.00     0.002 A 
ATOM      3  C5  UNL d   1       0.813  -0.338  -0.927  0.00  0.00     0.002 A 
ATOM      4  C6  UNL d   1       0.790   0.422  -2.095  0.00  0.00    -0.004 A 
ATOM      5  C7  UNL d   1      -0.054   1.526  -2.186  0.00  0.00     0.002 A 
ATOM      6  C8  UNL d   1      -0.866   1.879  -1.107  0.00  0.00     0.002 A 
ENDROOT
BRANCH   1   7
ATOM      7  C2  UNL d   1      -1.704   1.528   1.251  0.00  0.00     0.056 C 
BRANCH   7   8
ATOM      8  C1  UNL d   1      -1.151   2.707   2.059  0.00  0.00     0.007 C 
ATOM      9  C   UNL d   1       0.328   2.563   2.395  0.00  0.00     0.009 C 
ENDBRANCH   7   8
ENDBRANCH   1   7
TORSDOF 2
ENDMDL
