MODEL 1
REMARK minimizedAffinity -4.3786664
REMARK minimizedRMSD -1
REMARK  2 active torsions:
REMARK  status: ('A' for Active; 'I' for Inactive)
REMARK    1  A    between atoms: C1_2  and  C2_3 
REMARK    2  A    between atoms: C2_3  and  C3_4 
ROOT
ATOM      1  C3  UNL d   1      -0.184   1.090  -0.217  0.00  0.00    -0.075 A 
ATOM      2  C4  UNL d   1      -0.570   2.325  -0.758  0.00  0.00     0.002 A 
ATOM      3  C5  UNL d   1      -0.875   3.401   0.077  0.00  0.00     0.002 A 
ATOM      4  C6  UNL d   1      -0.808   3.253   1.461  0.00  0.00    -0.004 A 
ATOM      5  C7  UNL d   1      -0.443   2.025   2.010  0.00  0.00     0.002 A 
ATOM      6  C8  UNL d   1      -0.133   0.949   1.176  0.00  0.00     0.002 A 
ENDROOT
BRANCH   1   7
ATOM      7  C2  UNL d   1       0.175  -0.068  -1.115  0.00  0.00     0.056 C 
BRANCH   7   8
ATOM      8  C1  UNL d   1       0.626  -1.325  -0.363  0.00  0.00     0.007 C 
ATOM      9  C   UNL d   1       0.206  -2.618  -1.049  0.00  0.00     0.009 C 
ENDBRANCH   7   8
ENDBRANCH   1   7
TORSDOF 2
ENDMDL
