MODEL 1
REMARK minimizedAffinity -4.53062868
REMARK minimizedRMSD -1
REMARK  2 active torsions:
REMARK  status: ('A' for Active; 'I' for Inactive)
REMARK    1  A    between atoms: C1_2  and  C2_3 
REMARK    2  A    between atoms: C2_3  and  C3_4 
ROOT
ATOM      1  C3  UNL d   1       0.194   0.131  -0.350  0.00  0.00    -0.075 A 
ATOM      2  C4  UNL d   1      -0.090   1.288  -1.089  0.00  0.00     0.002 A 
ATOM      3  C5  UNL d   1      -0.408   2.482  -0.442  0.00  0.00     0.002 A 
ATOM      4  C6  UNL d   1      -0.458   2.532   0.949  0.00  0.00    -0.004 A 
ATOM      5  C7  UNL d   1      -0.195   1.384   1.694  0.00  0.00     0.002 A 
ATOM      6  C8  UNL d   1       0.129   0.189   1.049  0.00  0.00     0.002 A 
ENDROOT
BRANCH   1   7
ATOM      7  C2  UNL d   1       0.568  -1.157  -1.043  0.00  0.00     0.056 C 
BRANCH   7   8
ATOM      8  C1  UNL d   1      -0.516  -2.238  -0.980  0.00  0.00     0.007 C 
ATOM      9  C   UNL d   1       0.048  -3.652  -0.929  0.00  0.00     0.009 C 
ENDBRANCH   7   8
ENDBRANCH   1   7
TORSDOF 2
ENDMDL
