MODEL 1
REMARK minimizedAffinity -3.89400387
REMARK minimizedRMSD -1
REMARK  2 active torsions:
REMARK  status: ('A' for Active; 'I' for Inactive)
REMARK    1  A    between atoms: C1_2  and  C2_3 
REMARK    2  A    between atoms: C2_3  and  C3_4 
ROOT
ATOM      1  C3  UNL d   1       0.109  -0.610  -0.937  0.00  0.00    -0.075 A 
ATOM      2  C4  UNL d   1       0.484  -0.734   0.408  0.00  0.00     0.002 A 
ATOM      3  C5  UNL d   1       0.163   0.264   1.328  0.00  0.00     0.002 A 
ATOM      4  C6  UNL d   1      -0.526   1.402   0.915  0.00  0.00    -0.004 A 
ATOM      5  C7  UNL d   1      -0.889   1.544  -0.423  0.00  0.00     0.002 A 
ATOM      6  C8  UNL d   1      -0.573   0.544  -1.345  0.00  0.00     0.002 A 
ENDROOT
BRANCH   1   7
ATOM      7  C2  UNL d   1       0.427  -1.700  -1.932  0.00  0.00     0.056 C 
BRANCH   7   8
ATOM      8  C1  UNL d   1      -0.463  -2.940  -1.805  0.00  0.00     0.007 C 
ATOM      9  C   UNL d   1       0.242  -4.122  -1.152  0.00  0.00     0.009 C 
ENDBRANCH   7   8
ENDBRANCH   1   7
TORSDOF 2
ENDMDL
