MODEL 1
REMARK minimizedAffinity -5.19815302
REMARK minimizedRMSD -1
REMARK  2 active torsions:
REMARK  status: ('A' for Active; 'I' for Inactive)
REMARK    1  A    between atoms: C1_2  and  C2_3 
REMARK    2  A    between atoms: C2_3  and  C3_4 
ROOT
ATOM      1  C3  UNL d   1       0.100  -0.418   0.216  0.00  0.00    -0.075 A 
ATOM      2  C4  UNL d   1       0.553  -0.000   1.476  0.00  0.00     0.002 A 
ATOM      3  C5  UNL d   1      -0.017   1.108   2.102  0.00  0.00     0.002 A 
ATOM      4  C6  UNL d   1      -1.038   1.818   1.474  0.00  0.00    -0.004 A 
ATOM      5  C7  UNL d   1      -1.485   1.422   0.216  0.00  0.00     0.002 A 
ATOM      6  C8  UNL d   1      -0.920   0.310  -0.411  0.00  0.00     0.002 A 
ENDROOT
BRANCH   1   7
ATOM      7  C2  UNL d   1       0.692  -1.635  -0.454  0.00  0.00     0.056 C 
BRANCH   7   8
ATOM      8  C1  UNL d   1      -0.342  -2.537  -1.135  0.00  0.00     0.007 C 
ATOM      9  C   UNL d   1       0.053  -4.008  -1.136  0.00  0.00     0.009 C 
ENDBRANCH   7   8
ENDBRANCH   1   7
TORSDOF 2
ENDMDL
