MODEL 1
REMARK minimizedAffinity -3.03622627
REMARK minimizedRMSD -1
REMARK  0 active torsions:
REMARK  status: ('A' for Active; 'I' for Inactive)
ROOT
ATOM      1  C   UNL d   1      -1.461   0.760   2.052  0.00  0.00     0.172 C 
ATOM      2  N   UNL d   1      -0.807   0.500   0.791  0.00  0.00    -0.070 N 
ATOM      3  C1  UNL d   1      -0.036  -0.594   0.503  0.00  0.00    -0.004 A 
ATOM      4  C2  UNL d   1       0.403  -0.470  -0.798  0.00  0.00    -0.047 A 
ATOM      5  C3  UNL d   1      -0.121   0.741  -1.308  0.00  0.00    -0.047 A 
ATOM      6  C4  UNL d   1      -0.866   1.322  -0.303  0.00  0.00    -0.004 A 
ENDROOT
TORSDOF 0
ENDMDL
