MODEL 1
REMARK minimizedAffinity -3.64257073
REMARK minimizedRMSD -1
REMARK  0 active torsions:
REMARK  status: ('A' for Active; 'I' for Inactive)
ROOT
ATOM      1  C   UNL d   1       0.247  -0.589  -0.690  0.00  0.00     0.172 C 
ATOM      2  N   UNL d   1      -0.417   0.079   0.404  0.00  0.00    -0.070 N 
ATOM      3  C1  UNL d   1      -1.743   0.421   0.444  0.00  0.00    -0.004 A 
ATOM      4  C2  UNL d   1      -1.983   1.038   1.653  0.00  0.00    -0.047 A 
ATOM      5  C3  UNL d   1      -0.760   1.069   2.364  0.00  0.00    -0.047 A 
ATOM      6  C4  UNL d   1       0.193   0.468   1.568  0.00  0.00    -0.004 A 
ENDROOT
TORSDOF 0
ENDMDL
