MODEL 1
REMARK minimizedAffinity -4.17305756
REMARK minimizedRMSD -1
REMARK  0 active torsions:
REMARK  status: ('A' for Active; 'I' for Inactive)
ROOT
ATOM      1  C   UNL d   1      -1.351  -0.091  -0.112  0.00  0.00     0.172 C 
ATOM      2  N   UNL d   1      -0.633   0.197   1.107  0.00  0.00    -0.070 N 
ATOM      3  C1  UNL d   1       0.715   0.042   1.296  0.00  0.00    -0.004 A 
ATOM      4  C2  UNL d   1       1.007   0.425   2.587  0.00  0.00    -0.047 A 
ATOM      5  C3  UNL d   1      -0.207   0.822   3.196  0.00  0.00    -0.047 A 
ATOM      6  C4  UNL d   1      -1.206   0.671   2.258  0.00  0.00    -0.004 A 
ENDROOT
TORSDOF 0
ENDMDL
