MODEL 1
REMARK minimizedAffinity -3.60621524
REMARK minimizedRMSD -1
REMARK  0 active torsions:
REMARK  status: ('A' for Active; 'I' for Inactive)
ROOT
ATOM      1  C   UNL d   1       0.441   0.030  -1.339  0.00  0.00     0.172 C 
ATOM      2  N   UNL d   1      -0.100   0.356  -0.040  0.00  0.00    -0.070 N 
ATOM      3  C1  UNL d   1      -1.431   0.422   0.276  0.00  0.00    -0.004 A 
ATOM      4  C2  UNL d   1      -1.531   0.762   1.608  0.00  0.00    -0.047 A 
ATOM      5  C3  UNL d   1      -0.215   0.906   2.109  0.00  0.00    -0.047 A 
ATOM      6  C4  UNL d   1       0.651   0.650   1.067  0.00  0.00    -0.004 A 
ENDROOT
TORSDOF 0
ENDMDL
