MODEL 1
REMARK minimizedAffinity -3.95531917
REMARK minimizedRMSD -1
REMARK  0 active torsions:
REMARK  status: ('A' for Active; 'I' for Inactive)
ROOT
ATOM      1  C   UNL d   1       2.059  -0.076   3.094  0.00  0.00     0.172 C 
ATOM      2  N   UNL d   1       0.830   0.493   2.594  0.00  0.00    -0.070 N 
ATOM      3  C1  UNL d   1      -0.182   1.007   3.361  0.00  0.00    -0.004 A 
ATOM      4  C2  UNL d   1      -1.172   1.450   2.511  0.00  0.00    -0.047 A 
ATOM      5  C3  UNL d   1      -0.741   1.192   1.188  0.00  0.00    -0.047 A 
ATOM      6  C4  UNL d   1       0.502   0.600   1.269  0.00  0.00    -0.004 A 
ENDROOT
TORSDOF 0
ENDMDL
