MODEL 1
REMARK minimizedAffinity -2.36436939
REMARK minimizedRMSD -1
REMARK  0 active torsions:
REMARK  status: ('A' for Active; 'I' for Inactive)
ROOT
ATOM      1  C   UNL d   1       1.844  -0.860   1.190  0.00  0.00     0.172 C 
ATOM      2  N   UNL d   1       0.443  -0.598   0.956  0.00  0.00    -0.070 N 
ATOM      3  C1  UNL d   1      -0.252  -0.926  -0.177  0.00  0.00    -0.004 A 
ATOM      4  C2  UNL d   1      -1.555  -0.508  -0.009  0.00  0.00    -0.047 A 
ATOM      5  C3  UNL d   1      -1.645   0.093   1.269  0.00  0.00    -0.047 A 
ATOM      6  C4  UNL d   1      -0.394   0.024   1.844  0.00  0.00    -0.004 A 
ENDROOT
TORSDOF 0
ENDMDL
