MODEL 1
REMARK minimizedAffinity -3.14194417
REMARK minimizedRMSD -1
REMARK  0 active torsions:
REMARK  status: ('A' for Active; 'I' for Inactive)
ROOT
ATOM      1  C   UNL d   1      -1.945   0.104   1.345  0.00  0.00     0.172 C 
ATOM      2  N   UNL d   1      -0.974   0.234   0.284  0.00  0.00    -0.070 N 
ATOM      3  C1  UNL d   1      -0.118  -0.748  -0.138  0.00  0.00    -0.004 A 
ATOM      4  C2  UNL d   1       0.644  -0.231  -1.164  0.00  0.00    -0.047 A 
ATOM      5  C3  UNL d   1       0.231   1.108  -1.365  0.00  0.00    -0.047 A 
ATOM      6  C4  UNL d   1      -0.771   1.369  -0.455  0.00  0.00    -0.004 A 
ENDROOT
TORSDOF 0
ENDMDL
