MODEL 1
REMARK minimizedAffinity -1.95774579
REMARK minimizedRMSD -1
REMARK  0 active torsions:
REMARK  status: ('A' for Active; 'I' for Inactive)
ROOT
ATOM      1  C   UNL d   1       0.041  -0.644  -0.097  0.00  0.00     0.172 C 
ATOM      2  N   UNL d   1       0.366  -0.614   1.309  0.00  0.00    -0.070 N 
ATOM      3  C1  UNL d   1      -0.471  -0.207   2.314  0.00  0.00    -0.004 A 
ATOM      4  C2  UNL d   1       0.210  -0.328   3.506  0.00  0.00    -0.047 A 
ATOM      5  C3  UNL d   1       1.501  -0.824   3.208  0.00  0.00    -0.047 A 
ATOM      6  C4  UNL d   1       1.571  -0.992   1.841  0.00  0.00    -0.004 A 
ENDROOT
TORSDOF 0
ENDMDL
