MODEL 1
REMARK minimizedAffinity -2.68599987
REMARK minimizedRMSD -1
REMARK  0 active torsions:
REMARK  status: ('A' for Active; 'I' for Inactive)
ROOT
ATOM      1  C   UNL d   1       1.297   0.297  -2.730  0.00  0.00     0.172 C 
ATOM      2  N   UNL d   1       0.449   0.058  -1.586  0.00  0.00    -0.070 N 
ATOM      3  C1  UNL d   1       0.182  -1.165  -1.032  0.00  0.00    -0.004 A 
ATOM      4  C2  UNL d   1      -0.665  -0.968   0.038  0.00  0.00    -0.047 A 
ATOM      5  C3  UNL d   1      -0.917   0.421   0.128  0.00  0.00    -0.047 A 
ATOM      6  C4  UNL d   1      -0.215   1.033  -0.889  0.00  0.00    -0.004 A 
ENDROOT
TORSDOF 0
ENDMDL
