MODEL 1
REMARK minimizedAffinity -3.94144392
REMARK minimizedRMSD -1
REMARK  0 active torsions:
REMARK  status: ('A' for Active; 'I' for Inactive)
ROOT
ATOM      1  C   UNL d   1       0.565  -0.148  -0.440  0.00  0.00     0.172 C 
ATOM      2  N   UNL d   1      -0.135   0.364   0.714  0.00  0.00    -0.070 N 
ATOM      3  C1  UNL d   1      -1.462   0.174   0.992  0.00  0.00    -0.004 A 
ATOM      4  C2  UNL d   1      -1.742   0.818   2.178  0.00  0.00    -0.047 A 
ATOM      5  C3  UNL d   1      -0.541   1.418   2.627  0.00  0.00    -0.047 A 
ATOM      6  C4  UNL d   1       0.437   1.121   1.702  0.00  0.00    -0.004 A 
ENDROOT
TORSDOF 0
ENDMDL
