MODEL 1
REMARK minimizedAffinity -2.65883803
REMARK minimizedRMSD -1
REMARK  0 active torsions:
REMARK  status: ('A' for Active; 'I' for Inactive)
ROOT
ATOM      1  C   UNL d   1       0.005  -0.651  -1.183  0.00  0.00     0.172 C 
ATOM      2  N   UNL d   1      -0.625  -0.300   0.068  0.00  0.00    -0.070 N 
ATOM      3  C1  UNL d   1      -1.966  -0.094   0.257  0.00  0.00    -0.004 A 
ATOM      4  C2  UNL d   1      -2.161   0.220   1.584  0.00  0.00    -0.047 A 
ATOM      5  C3  UNL d   1      -0.895   0.204   2.215  0.00  0.00    -0.047 A 
ATOM      6  C4  UNL d   1       0.039  -0.121   1.253  0.00  0.00    -0.004 A 
ENDROOT
TORSDOF 0
ENDMDL
