MODEL 1
REMARK minimizedAffinity -1.00358725
REMARK minimizedRMSD -1
REMARK  0 active torsions:
REMARK  status: ('A' for Active; 'I' for Inactive)
ROOT
ATOM      1  C   UNL d   1       1.761  -0.470   2.090  0.00  0.00     0.172 C 
ATOM      2  N   UNL d   1       0.807  -0.532   1.007  0.00  0.00    -0.070 N 
ATOM      3  C1  UNL d   1      -0.408   0.097   0.977  0.00  0.00    -0.004 A 
ATOM      4  C2  UNL d   1      -1.014  -0.211  -0.222  0.00  0.00    -0.047 A 
ATOM      5  C3  UNL d   1      -0.132  -1.056  -0.936  0.00  0.00    -0.047 A 
ATOM      6  C4  UNL d   1       0.988  -1.239  -0.152  0.00  0.00    -0.004 A 
ENDROOT
TORSDOF 0
ENDMDL
