MODEL 1
REMARK minimizedAffinity 0.311023206
REMARK minimizedRMSD -1
REMARK  0 active torsions:
REMARK  status: ('A' for Active; 'I' for Inactive)
ROOT
ATOM      1  C2' OXE d   1       1.529   2.392   2.223  0.00  0.00     0.078 C 
ATOM      2  C1' OXE d   1       3.373   4.509   2.250  0.00  0.00     0.078 C 
ATOM      3  C1  OXE d   1       2.100   4.695   1.463  0.00  0.00    -0.078 A 
ATOM      4  C2  OXE d   1       1.225   3.637   1.417  0.00  0.00    -0.078 A 
ATOM      5  C3  OXE d   1       0.010   3.775   0.751  0.00  0.00     0.003 A 
ATOM      6  C4  OXE d   1      -0.259   4.926   0.000  0.00  0.00    -0.002 A 
ATOM      7  C5  OXE d   1       0.637   6.000   0.001  0.00  0.00    -0.002 A 
ATOM      8  C6  OXE d   1       1.799   5.918   0.760  0.00  0.00     0.003 A 
ENDROOT
TORSDOF 0
ENDMDL
