MODEL 1
REMARK minimizedAffinity 15.1806269
REMARK minimizedRMSD -1
REMARK  0 active torsions:
REMARK  status: ('A' for Active; 'I' for Inactive)
ROOT
ATOM      1  C2' OXE d   1      -3.171   5.474  -2.224  0.00  0.00     0.078 C 
ATOM      2  C1' OXE d   1      -1.985   6.000  -4.713  0.00  0.00     0.078 C 
ATOM      3  C1  OXE d   1      -1.079   5.878  -3.514  0.00  0.00    -0.078 A 
ATOM      4  C2  OXE d   1      -1.672   5.668  -2.292  0.00  0.00    -0.078 A 
ATOM      5  C3  OXE d   1      -0.878   5.493  -1.162  0.00  0.00     0.003 A 
ATOM      6  C4  OXE d   1       0.507   5.684  -1.232  0.00  0.00    -0.002 A 
ATOM      7  C5  OXE d   1       1.128   5.938  -2.460  0.00  0.00    -0.002 A 
ATOM      8  C6  OXE d   1       0.355   5.996  -3.615  0.00  0.00     0.003 A 
ENDROOT
TORSDOF 0
ENDMDL
