MODEL 1
REMARK minimizedAffinity 15.0825596
REMARK minimizedRMSD -1
REMARK  0 active torsions:
REMARK  status: ('A' for Active; 'I' for Inactive)
ROOT
ATOM      1  C2' OXE d   1       5.132  -4.999   0.349  0.00  0.00     0.078 C 
ATOM      2  C1' OXE d   1       3.100  -3.225   1.125  0.00  0.00     0.078 C 
ATOM      3  C1  OXE d   1       4.081  -2.757   0.080  0.00  0.00    -0.078 A 
ATOM      4  C2  OXE d   1       5.100  -3.614  -0.260  0.00  0.00    -0.078 A 
ATOM      5  C3  OXE d   1       6.000  -3.254  -1.259  0.00  0.00     0.003 A 
ATOM      6  C4  OXE d   1       5.969  -1.967  -1.810  0.00  0.00    -0.002 A 
ATOM      7  C5  OXE d   1       4.964  -1.064  -1.449  0.00  0.00    -0.002 A 
ATOM      8  C6  OXE d   1       3.989  -1.457  -0.539  0.00  0.00     0.003 A 
ENDROOT
TORSDOF 0
ENDMDL
