MODEL 1
REMARK minimizedAffinity 17.2779198
REMARK minimizedRMSD -1
REMARK  0 active torsions:
REMARK  status: ('A' for Active; 'I' for Inactive)
ROOT
ATOM      1  C2' OXE d   1       0.187  -1.803   4.824  0.00  0.00     0.078 C 
ATOM      2  C1' OXE d   1       2.286  -2.705   3.194  0.00  0.00     0.078 C 
ATOM      3  C1  OXE d   1       2.343  -1.282   3.691  0.00  0.00    -0.078 A 
ATOM      4  C2  OXE d   1       1.288  -0.835   4.449  0.00  0.00    -0.078 A 
ATOM      5  C3  OXE d   1       1.317   0.452   4.978  0.00  0.00     0.003 A 
ATOM      6  C4  OXE d   1       2.334   1.344   4.618  0.00  0.00    -0.002 A 
ATOM      7  C5  OXE d   1       3.397   0.921   3.814  0.00  0.00    -0.002 A 
ATOM      8  C6  OXE d   1       3.439  -0.399   3.378  0.00  0.00     0.003 A 
ENDROOT
TORSDOF 0
ENDMDL
