MODEL 1
REMARK minimizedAffinity 17.3279591
REMARK minimizedRMSD -1
REMARK  0 active torsions:
REMARK  status: ('A' for Active; 'I' for Inactive)
ROOT
ATOM      1  C2' OXE d   1       3.372  -1.014   0.350  0.00  0.00     0.078 C 
ATOM      2  C1' OXE d   1       3.142  -3.698   1.138  0.00  0.00     0.078 C 
ATOM      3  C1  OXE d   1       4.167  -3.360   0.085  0.00  0.00    -0.078 A 
ATOM      4  C2  OXE d   1       4.241  -2.051  -0.329  0.00  0.00    -0.078 A 
ATOM      5  C3  OXE d   1       5.206  -1.675  -1.259  0.00  0.00     0.003 A 
ATOM      6  C4  OXE d   1       5.998  -2.643  -1.888  0.00  0.00    -0.002 A 
ATOM      7  C5  OXE d   1       5.911  -3.987  -1.511  0.00  0.00    -0.002 A 
ATOM      8  C6  OXE d   1       5.033  -4.355  -0.498  0.00  0.00     0.003 A 
ENDROOT
TORSDOF 0
ENDMDL
