MODEL 1
REMARK minimizedAffinity 13.5407887
REMARK minimizedRMSD -1
REMARK  0 active torsions:
REMARK  status: ('A' for Active; 'I' for Inactive)
ROOT
ATOM      1  C2' OXE d   1       5.630  -4.085  -3.907  0.00  0.00     0.078 C 
ATOM      2  C1' OXE d   1       3.746  -5.172  -2.133  0.00  0.00     0.078 C 
ATOM      3  C1  OXE d   1       4.426  -3.886  -1.735  0.00  0.00    -0.078 A 
ATOM      4  C2  OXE d   1       5.380  -3.386  -2.588  0.00  0.00    -0.078 A 
ATOM      5  C3  OXE d   1       5.999  -2.174  -2.296  0.00  0.00     0.003 A 
ATOM      6  C4  OXE d   1       5.770  -1.539  -1.069  0.00  0.00    -0.002 A 
ATOM      7  C5  OXE d   1       4.831  -2.052  -0.169  0.00  0.00    -0.002 A 
ATOM      8  C6  OXE d   1       4.121  -3.199  -0.505  0.00  0.00     0.003 A 
ENDROOT
TORSDOF 0
ENDMDL
