MODEL 1
REMARK minimizedAffinity 7.26488638
REMARK minimizedRMSD -1
REMARK  0 active torsions:
REMARK  status: ('A' for Active; 'I' for Inactive)
ROOT
ATOM      1  C2' OXE d   1       1.126   2.334   1.248  0.00  0.00     0.078 C 
ATOM      2  C1' OXE d   1       2.906   4.502   1.130  0.00  0.00     0.078 C 
ATOM      3  C1  OXE d   1       1.538   4.681   0.522  0.00  0.00    -0.078 A 
ATOM      4  C2  OXE d   1       0.690   3.600   0.543  0.00  0.00    -0.078 A 
ATOM      5  C3  OXE d   1      -0.603   3.729   0.044  0.00  0.00     0.003 A 
ATOM      6  C4  OXE d   1      -0.996   4.900  -0.616  0.00  0.00    -0.002 A 
ATOM      7  C5  OXE d   1      -0.134   5.999  -0.683  0.00  0.00    -0.002 A 
ATOM      8  C6  OXE d   1       1.119   5.921  -0.083  0.00  0.00     0.003 A 
ENDROOT
TORSDOF 0
ENDMDL
