MODEL 1
REMARK minimizedAffinity 10.3830318
REMARK minimizedRMSD -1
REMARK  0 active torsions:
REMARK  status: ('A' for Active; 'I' for Inactive)
ROOT
ATOM      1  C2' OXE d   1      -3.124   1.160  -0.316  0.00  0.00     0.078 C 
ATOM      2  C1' OXE d   1      -1.653  -0.897  -1.534  0.00  0.00     0.078 C 
ATOM      3  C1  OXE d   1      -2.232   0.175  -2.423  0.00  0.00    -0.078 A 
ATOM      4  C2  OXE d   1      -2.989   1.152  -1.824  0.00  0.00    -0.078 A 
ATOM      5  C3  OXE d   1      -3.500   2.196  -2.591  0.00  0.00     0.003 A 
ATOM      6  C4  OXE d   1      -3.379   2.175  -3.985  0.00  0.00    -0.002 A 
ATOM      7  C5  OXE d   1      -2.645   1.167  -4.620  0.00  0.00    -0.002 A 
ATOM      8  C6  OXE d   1      -2.030   0.185  -3.851  0.00  0.00     0.003 A 
ENDROOT
TORSDOF 0
ENDMDL
