MODEL 1
REMARK minimizedAffinity 10.9408646
REMARK minimizedRMSD -1
REMARK  0 active torsions:
REMARK  status: ('A' for Active; 'I' for Inactive)
ROOT
ATOM      1  C2' OXE d   1      -0.168   5.075  -0.631  0.00  0.00     0.078 C 
ATOM      2  C1' OXE d   1      -0.219   2.478   0.433  0.00  0.00     0.078 C 
ATOM      3  C1  OXE d   1       0.800   3.444   0.984  0.00  0.00    -0.078 A 
ATOM      4  C2  OXE d   1       0.849   4.698   0.425  0.00  0.00    -0.078 A 
ATOM      5  C3  OXE d   1       1.733   5.645   0.933  0.00  0.00     0.003 A 
ATOM      6  C4  OXE d   1       2.677   5.285   1.903  0.00  0.00    -0.002 A 
ATOM      7  C5  OXE d   1       2.671   4.001   2.458  0.00  0.00    -0.002 A 
ATOM      8  C6  OXE d   1       1.713   3.084   2.040  0.00  0.00     0.003 A 
ENDROOT
TORSDOF 0
ENDMDL
