MODEL 1
REMARK minimizedAffinity 8.91717911
REMARK minimizedRMSD -1
REMARK  0 active torsions:
REMARK  status: ('A' for Active; 'I' for Inactive)
ROOT
ATOM      1  C2' OXE d   1       2.739   3.465   2.792  0.00  0.00     0.078 C 
ATOM      2  C1' OXE d   1       3.117   5.994   1.633  0.00  0.00     0.078 C 
ATOM      3  C1  OXE d   1       2.004   5.132   1.092  0.00  0.00    -0.078 A 
ATOM      4  C2  OXE d   1       1.856   3.877   1.634  0.00  0.00    -0.078 A 
ATOM      5  C3  OXE d   1       0.811   3.062   1.210  0.00  0.00     0.003 A 
ATOM      6  C4  OXE d   1       0.004   3.447   0.131  0.00  0.00    -0.002 A 
ATOM      7  C5  OXE d   1       0.163   4.704  -0.461  0.00  0.00    -0.002 A 
ATOM      8  C6  OXE d   1       1.129   5.574   0.035  0.00  0.00     0.003 A 
ENDROOT
TORSDOF 0
ENDMDL
