MODEL 1
REMARK minimizedAffinity 6.20712042
REMARK minimizedRMSD -1
REMARK  2 active torsions:
REMARK  status: ('A' for Active; 'I' for Inactive)
REMARK    1  A    between atoms: C2'_3  and  C1'_4 
REMARK    2  A    between atoms: C1'_4  and  C1_5 
ROOT
ATOM      1  C1  I4B d   1       4.622   1.653  -1.210  0.00  0.00    -0.075 A 
ATOM      2  C2  I4B d   1       5.626   0.988  -0.552  0.00  0.00     0.003 A 
ATOM      3  C3  I4B d   1       5.374   0.373   0.698  0.00  0.00     0.002 A 
ATOM      4  C4  I4B d   1       4.125   0.489   1.273  0.00  0.00    -0.004 A 
ATOM      5  C5  I4B d   1       3.101   1.143   0.593  0.00  0.00     0.002 A 
ATOM      6  C6  I4B d   1       3.348   1.718  -0.662  0.00  0.00     0.003 A 
ENDROOT
BRANCH   1   7
ATOM      7  C1' I4B d   1       4.932   2.319  -2.513  0.00  0.00     0.060 C 
BRANCH   7   8
ATOM      8  C2' I4B d   1       3.768   2.073  -3.452  0.00  0.00    -0.013 C 
ATOM      9  C4' I4B d   1       3.270   3.362  -4.051  0.00  0.00     0.013 C 
ATOM     10  C3' I4B d   1       4.226   1.122  -4.517  0.00  0.00     0.013 C 
ENDBRANCH   7   8
ENDBRANCH   1   7
TORSDOF 2
ENDMDL
