MODEL 1
REMARK minimizedAffinity 12.7953625
REMARK minimizedRMSD -1
REMARK  2 active torsions:
REMARK  status: ('A' for Active; 'I' for Inactive)
REMARK    1  A    between atoms: C2'_3  and  C1'_4 
REMARK    2  A    between atoms: C1'_4  and  C1_5 
ROOT
ATOM      1  C1  I4B d   1      -0.902  -1.226   1.614  0.00  0.00    -0.075 A 
ATOM      2  C2  I4B d   1      -0.773  -2.585   1.761  0.00  0.00     0.003 A 
ATOM      3  C3  I4B d   1      -1.588  -3.464   1.008  0.00  0.00     0.002 A 
ATOM      4  C4  I4B d   1      -2.548  -2.945   0.163  0.00  0.00    -0.004 A 
ATOM      5  C5  I4B d   1      -2.662  -1.568  -0.002  0.00  0.00     0.002 A 
ATOM      6  C6  I4B d   1      -1.826  -0.703   0.718  0.00  0.00     0.003 A 
ENDROOT
BRANCH   1   7
ATOM      7  C1' I4B d   1      -0.048  -0.326   2.449  0.00  0.00     0.060 C 
BRANCH   7   8
ATOM      8  C2' I4B d   1       1.058   0.217   1.568  0.00  0.00    -0.013 C 
ATOM      9  C4' I4B d   1       0.974   1.716   1.448  0.00  0.00     0.013 C 
ATOM     10  C3' I4B d   1       2.371  -0.205   2.158  0.00  0.00     0.013 C 
ENDBRANCH   7   8
ENDBRANCH   1   7
TORSDOF 2
ENDMDL
