MODEL 1
REMARK minimizedAffinity 16.4519615
REMARK minimizedRMSD -1
REMARK  2 active torsions:
REMARK  status: ('A' for Active; 'I' for Inactive)
REMARK    1  A    between atoms: C2'_3  and  C1'_4 
REMARK    2  A    between atoms: C1'_4  and  C1_5 
ROOT
ATOM      1  C1  I4B d   1       2.026   0.873   1.959  0.00  0.00    -0.075 A 
ATOM      2  C2  I4B d   1       3.016  -0.068   2.096  0.00  0.00     0.003 A 
ATOM      3  C3  I4B d   1       3.829  -0.415   0.990  0.00  0.00     0.002 A 
ATOM      4  C4  I4B d   1       3.586   0.164  -0.240  0.00  0.00    -0.004 A 
ATOM      5  C5  I4B d   1       2.597   1.134  -0.372  0.00  0.00     0.002 A 
ATOM      6  C6  I4B d   1       1.820   1.500   0.737  0.00  0.00     0.003 A 
ENDROOT
BRANCH   1   7
ATOM      7  C1' I4B d   1       1.165   1.190   3.139  0.00  0.00     0.060 C 
BRANCH   7   8
ATOM      8  C2' I4B d   1       1.037  -0.066   3.976  0.00  0.00    -0.013 C 
ATOM      9  C4' I4B d   1       1.141   0.244   5.446  0.00  0.00     0.013 C 
ATOM     10  C3' I4B d   1      -0.278  -0.708   3.650  0.00  0.00     0.013 C 
ENDBRANCH   7   8
ENDBRANCH   1   7
TORSDOF 2
ENDMDL
