MODEL 1
REMARK minimizedAffinity 8.28598785
REMARK minimizedRMSD -1
REMARK  2 active torsions:
REMARK  status: ('A' for Active; 'I' for Inactive)
REMARK    1  A    between atoms: C2'_3  and  C1'_4 
REMARK    2  A    between atoms: C1'_4  and  C1_5 
ROOT
ATOM      1  C1  I4B d   1      -1.231   3.669  -0.499  0.00  0.00    -0.075 A 
ATOM      2  C2  I4B d   1      -0.363   2.663  -0.840  0.00  0.00     0.003 A 
ATOM      3  C3  I4B d   1       0.749   2.370  -0.014  0.00  0.00     0.002 A 
ATOM      4  C4  I4B d   1       0.981   3.136   1.109  0.00  0.00    -0.004 A 
ATOM      5  C5  I4B d   1       0.087   4.141   1.466  0.00  0.00     0.002 A 
ATOM      6  C6  I4B d   1      -1.033   4.402   0.664  0.00  0.00     0.003 A 
ENDROOT
BRANCH   1   7
ATOM      7  C1' I4B d   1      -2.377   3.973  -1.412  0.00  0.00     0.060 C 
BRANCH   7   8
ATOM      8  C2' I4B d   1      -3.159   5.124  -0.812  0.00  0.00    -0.013 C 
ATOM      9  C4' I4B d   1      -3.750   6.000  -1.885  0.00  0.00     0.013 C 
ATOM     10  C3' I4B d   1      -4.228   4.549   0.068  0.00  0.00     0.013 C 
ENDBRANCH   7   8
ENDBRANCH   1   7
TORSDOF 2
ENDMDL
