MODEL 1
REMARK minimizedAffinity 17.692667
REMARK minimizedRMSD -1
REMARK  2 active torsions:
REMARK  status: ('A' for Active; 'I' for Inactive)
REMARK    1  A    between atoms: C2'_3  and  C1'_4 
REMARK    2  A    between atoms: C1'_4  and  C1_5 
ROOT
ATOM      1  C1  I4B d   1      -4.006  -4.945  -1.543  0.00  0.00    -0.075 A 
ATOM      2  C2  I4B d   1      -3.027  -3.986  -1.618  0.00  0.00     0.003 A 
ATOM      3  C3  I4B d   1      -3.076  -2.993  -2.626  0.00  0.00     0.002 A 
ATOM      4  C4  I4B d   1      -4.089  -3.026  -3.563  0.00  0.00    -0.004 A 
ATOM      5  C5  I4B d   1      -5.094  -3.985  -3.472  0.00  0.00     0.002 A 
ATOM      6  C6  I4B d   1      -5.059  -4.943  -2.448  0.00  0.00     0.003 A 
ENDROOT
BRANCH   1   7
ATOM      7  C1' I4B d   1      -3.905  -5.998  -0.486  0.00  0.00     0.060 C 
BRANCH   7   8
ATOM      8  C2' I4B d   1      -4.061  -5.323   0.862  0.00  0.00    -0.013 C 
ATOM      9  C4' I4B d   1      -5.409  -5.619   1.466  0.00  0.00     0.013 C 
ATOM     10  C3' I4B d   1      -2.952  -5.802   1.751  0.00  0.00     0.013 C 
ENDBRANCH   7   8
ENDBRANCH   1   7
TORSDOF 2
ENDMDL
