MODEL 1
REMARK minimizedAffinity 17.9831505
REMARK minimizedRMSD -1
REMARK  2 active torsions:
REMARK  status: ('A' for Active; 'I' for Inactive)
REMARK    1  A    between atoms: C2'_3  and  C1'_4 
REMARK    2  A    between atoms: C1'_4  and  C1_5 
ROOT
ATOM      1  C1  I4B d   1      -3.900   3.060   2.358  0.00  0.00    -0.075 A 
ATOM      2  C2  I4B d   1      -4.675   1.946   2.156  0.00  0.00     0.003 A 
ATOM      3  C3  I4B d   1      -4.501   0.800   2.969  0.00  0.00     0.002 A 
ATOM      4  C4  I4B d   1      -3.512   0.793   3.931  0.00  0.00    -0.004 A 
ATOM      5  C5  I4B d   1      -2.742   1.932   4.150  0.00  0.00     0.002 A 
ATOM      6  C6  I4B d   1      -2.946   3.078   3.366  0.00  0.00     0.003 A 
ENDROOT
BRANCH   1   7
ATOM      7  C1' I4B d   1      -4.089   4.242   1.459  0.00  0.00     0.060 C 
BRANCH   7   8
ATOM      8  C2' I4B d   1      -2.898   4.312   0.525  0.00  0.00    -0.013 C 
ATOM      9  C4' I4B d   1      -3.117   5.332  -0.561  0.00  0.00     0.013 C 
ATOM     10  C3' I4B d   1      -1.686   4.645   1.344  0.00  0.00     0.013 C 
ENDBRANCH   7   8
ENDBRANCH   1   7
TORSDOF 2
ENDMDL
