MODEL 1
REMARK minimizedAffinity 26.1747932
REMARK minimizedRMSD -1
REMARK  2 active torsions:
REMARK  status: ('A' for Active; 'I' for Inactive)
REMARK    1  A    between atoms: C2'_3  and  C1'_4 
REMARK    2  A    between atoms: C1'_4  and  C1_5 
ROOT
ATOM      1  C1  I4B d   1      -2.665  -4.195  -3.070  0.00  0.00    -0.075 A 
ATOM      2  C2  I4B d   1      -3.310  -3.066  -3.510  0.00  0.00     0.003 A 
ATOM      3  C3  I4B d   1      -4.720  -2.972  -3.426  0.00  0.00     0.002 A 
ATOM      4  C4  I4B d   1      -5.445  -4.043  -2.944  0.00  0.00    -0.004 A 
ATOM      5  C5  I4B d   1      -4.788  -5.177  -2.477  0.00  0.00     0.002 A 
ATOM      6  C6  I4B d   1      -3.388  -5.249  -2.528  0.00  0.00     0.003 A 
ENDROOT
BRANCH   1   7
ATOM      7  C1' I4B d   1      -1.177  -4.274  -3.204  0.00  0.00     0.060 C 
BRANCH   7   8
ATOM      8  C2' I4B d   1      -0.862  -4.852  -4.568  0.00  0.00    -0.013 C 
ATOM      9  C4' I4B d   1      -0.677  -3.764  -5.593  0.00  0.00     0.013 C 
ATOM     10  C3' I4B d   1       0.374  -5.692  -4.441  0.00  0.00     0.013 C 
ENDBRANCH   7   8
ENDBRANCH   1   7
TORSDOF 2
ENDMDL
