MODEL 1
REMARK minimizedAffinity 15.5968523
REMARK minimizedRMSD -1
REMARK  2 active torsions:
REMARK  status: ('A' for Active; 'I' for Inactive)
REMARK    1  A    between atoms: C2'_3  and  C1'_4 
REMARK    2  A    between atoms: C1'_4  and  C1_5 
ROOT
ATOM      1  C1  I4B d   1      -2.875  -4.834  -2.931  0.00  0.00    -0.075 A 
ATOM      2  C2  I4B d   1      -3.548  -6.000  -2.662  0.00  0.00     0.003 A 
ATOM      3  C3  I4B d   1      -4.961  -5.999  -2.558  0.00  0.00     0.002 A 
ATOM      4  C4  I4B d   1      -5.650  -4.810  -2.680  0.00  0.00    -0.004 A 
ATOM      5  C5  I4B d   1      -4.968  -3.634  -2.977  0.00  0.00     0.002 A 
ATOM      6  C6  I4B d   1      -3.572  -3.648  -3.115  0.00  0.00     0.003 A 
ENDROOT
BRANCH   1   7
ATOM      7  C1' I4B d   1      -1.381  -4.865  -3.001  0.00  0.00     0.060 C 
BRANCH   7   8
ATOM      8  C2' I4B d   1      -0.986  -5.107  -4.444  0.00  0.00    -0.013 C 
ATOM      9  C4' I4B d   1      -0.706  -3.811  -5.158  0.00  0.00     0.013 C 
ATOM     10  C3' I4B d   1       0.219  -6.000  -4.450  0.00  0.00     0.013 C 
ENDBRANCH   7   8
ENDBRANCH   1   7
TORSDOF 2
ENDMDL
