MODEL 1
REMARK minimizedAffinity 22.3103256
REMARK minimizedRMSD -1
REMARK  2 active torsions:
REMARK  status: ('A' for Active; 'I' for Inactive)
REMARK    1  A    between atoms: C2'_3  and  C1'_4 
REMARK    2  A    between atoms: C1'_4  and  C1_5 
ROOT
ATOM      1  C1  I4B d   1      -3.174  -0.904   2.363  0.00  0.00    -0.075 A 
ATOM      2  C2  I4B d   1      -3.359  -1.887   1.423  0.00  0.00     0.003 A 
ATOM      3  C3  I4B d   1      -2.354  -2.859   1.200  0.00  0.00     0.002 A 
ATOM      4  C4  I4B d   1      -1.167  -2.781   1.899  0.00  0.00    -0.004 A 
ATOM      5  C5  I4B d   1      -0.990  -1.798   2.868  0.00  0.00     0.002 A 
ATOM      6  C6  I4B d   1      -2.005  -0.861   3.111  0.00  0.00     0.003 A 
ENDROOT
BRANCH   1   7
ATOM      7  C1' I4B d   1      -4.243   0.125   2.550  0.00  0.00     0.060 C 
BRANCH   7   8
ATOM      8  C2' I4B d   1      -3.992   0.825   3.870  0.00  0.00    -0.013 C 
ATOM      9  C4' I4B d   1      -3.813   2.307   3.677  0.00  0.00     0.013 C 
ATOM     10  C3' I4B d   1      -5.152   0.533   4.776  0.00  0.00     0.013 C 
ENDBRANCH   7   8
ENDBRANCH   1   7
TORSDOF 2
ENDMDL
