MODEL 1
REMARK minimizedAffinity 13.7816229
REMARK minimizedRMSD -1
REMARK  2 active torsions:
REMARK  status: ('A' for Active; 'I' for Inactive)
REMARK    1  A    between atoms: C2'_3  and  C1'_4 
REMARK    2  A    between atoms: C1'_4  and  C1_5 
ROOT
ATOM      1  C1  I4B d   1       0.307   3.375  -1.410  0.00  0.00    -0.075 A 
ATOM      2  C2  I4B d   1       0.798   2.810  -0.259  0.00  0.00     0.003 A 
ATOM      3  C3  I4B d   1       2.188   2.582  -0.114  0.00  0.00     0.002 A 
ATOM      4  C4  I4B d   1       3.040   2.887  -1.156  0.00  0.00    -0.004 A 
ATOM      5  C5  I4B d   1       2.543   3.481  -2.313  0.00  0.00     0.002 A 
ATOM      6  C6  I4B d   1       1.170   3.738  -2.436  0.00  0.00     0.003 A 
ENDROOT
BRANCH   1   7
ATOM      7  C1' I4B d   1      -1.170   3.571  -1.543  0.00  0.00     0.060 C 
BRANCH   7   8
ATOM      8  C2' I4B d   1      -1.539   4.846  -0.812  0.00  0.00    -0.013 C 
ATOM      9  C4' I4B d   1      -1.686   6.000  -1.769  0.00  0.00     0.013 C 
ATOM     10  C3' I4B d   1      -2.815   4.597  -0.064  0.00  0.00     0.013 C 
ENDBRANCH   7   8
ENDBRANCH   1   7
TORSDOF 2
ENDMDL
