MODEL 1
REMARK minimizedAffinity 13.2678814
REMARK minimizedRMSD -1
REMARK  2 active torsions:
REMARK  status: ('A' for Active; 'I' for Inactive)
REMARK    1  A    between atoms: C2'_3  and  C1'_4 
REMARK    2  A    between atoms: C1'_4  and  C1_5 
ROOT
ATOM      1  C1  I4B d   1      -3.457  -4.275  -2.560  0.00  0.00    -0.075 A 
ATOM      2  C2  I4B d   1      -4.188  -5.397  -2.256  0.00  0.00     0.003 A 
ATOM      3  C3  I4B d   1      -5.470  -5.589  -2.826  0.00  0.00     0.002 A 
ATOM      4  C4  I4B d   1      -6.000  -4.617  -3.650  0.00  0.00    -0.004 A 
ATOM      5  C5  I4B d   1      -5.248  -3.491  -3.975  0.00  0.00     0.002 A 
ATOM      6  C6  I4B d   1      -3.964  -3.325  -3.437  0.00  0.00     0.003 A 
ENDROOT
BRANCH   1   7
ATOM      7  C1' I4B d   1      -2.121  -4.088  -1.914  0.00  0.00     0.060 C 
BRANCH   7   8
ATOM      8  C2' I4B d   1      -2.330  -3.325  -0.622  0.00  0.00    -0.013 C 
ATOM      9  C4' I4B d   1      -1.128  -3.438   0.279  0.00  0.00     0.013 C 
ATOM     10  C3' I4B d   1      -2.613  -1.894  -0.970  0.00  0.00     0.013 C 
ENDBRANCH   7   8
ENDBRANCH   1   7
TORSDOF 2
ENDMDL
