MODEL 1
REMARK minimizedAffinity 6.76679897
REMARK minimizedRMSD -1
REMARK  0 active torsions:
REMARK  status: ('A' for Active; 'I' for Inactive)
ROOT
ATOM      1  C2' OXE d   1      -1.934   2.405   2.293  0.00  0.00     0.078 C 
ATOM      2  C1' OXE d   1      -0.049   1.001   3.828  0.00  0.00     0.078 C 
ATOM      3  C1  OXE d   1       0.437   1.698   2.583  0.00  0.00    -0.078 A 
ATOM      4  C2  OXE d   1      -0.500   2.344   1.812  0.00  0.00    -0.078 A 
ATOM      5  C3  OXE d   1      -0.097   3.049   0.682  0.00  0.00     0.003 A 
ATOM      6  C4  OXE d   1       1.230   2.980   0.239  0.00  0.00    -0.002 A 
ATOM      7  C5  OXE d   1       2.193   2.295   0.988  0.00  0.00    -0.002 A 
ATOM      8  C6  OXE d   1       1.822   1.686   2.182  0.00  0.00     0.003 A 
ENDROOT
TORSDOF 0
ENDMDL
