MODEL 1
REMARK minimizedAffinity 6.36196709
REMARK minimizedRMSD -1
REMARK  0 active torsions:
REMARK  status: ('A' for Active; 'I' for Inactive)
ROOT
ATOM      1  C2' OXE d   1       2.096   0.117   0.032  0.00  0.00     0.078 C 
ATOM      2  C1' OXE d   1       2.437  -2.634   0.475  0.00  0.00     0.078 C 
ATOM      3  C1  OXE d   1       3.466  -1.696   1.054  0.00  0.00    -0.078 A 
ATOM      4  C2  OXE d   1       3.317  -0.355   0.793  0.00  0.00    -0.078 A 
ATOM      5  C3  OXE d   1       4.207   0.559   1.349  0.00  0.00     0.003 A 
ATOM      6  C4  OXE d   1       5.339   0.114   2.044  0.00  0.00    -0.002 A 
ATOM      7  C5  OXE d   1       5.531  -1.250   2.287  0.00  0.00    -0.002 A 
ATOM      8  C6  OXE d   1       4.583  -2.163   1.837  0.00  0.00     0.003 A 
ENDROOT
TORSDOF 0
ENDMDL
