MODEL 1
REMARK minimizedAffinity 5.71675014
REMARK minimizedRMSD -1
REMARK  0 active torsions:
REMARK  status: ('A' for Active; 'I' for Inactive)
ROOT
ATOM      1  C2' OXE d   1       1.537   1.983   0.133  0.00  0.00     0.078 C 
ATOM      2  C1' OXE d   1       0.354   0.601   2.270  0.00  0.00     0.078 C 
ATOM      3  C1  OXE d   1       1.217  -0.185   1.316  0.00  0.00    -0.078 A 
ATOM      4  C2  OXE d   1       1.754   0.490   0.246  0.00  0.00    -0.078 A 
ATOM      5  C3  OXE d   1       2.603  -0.176  -0.634  0.00  0.00     0.003 A 
ATOM      6  C4  OXE d   1       2.790  -1.559  -0.528  0.00  0.00    -0.002 A 
ATOM      7  C5  OXE d   1       2.221  -2.274   0.532  0.00  0.00    -0.002 A 
ATOM      8  C6  OXE d   1       1.468  -1.596   1.484  0.00  0.00     0.003 A 
ENDROOT
TORSDOF 0
ENDMDL
