MODEL 1
REMARK minimizedAffinity 2.0952754
REMARK minimizedRMSD -1
REMARK  0 active torsions:
REMARK  status: ('A' for Active; 'I' for Inactive)
ROOT
ATOM      1  C2' OXE d   1       6.000   0.167  -0.082  0.00  0.00     0.078 C 
ATOM      2  C1' OXE d   1       4.217   2.225  -0.763  0.00  0.00     0.078 C 
ATOM      3  C1  OXE d   1       3.648   0.847  -0.540  0.00  0.00    -0.078 A 
ATOM      4  C2  OXE d   1       4.533  -0.164  -0.253  0.00  0.00    -0.078 A 
ATOM      5  C3  OXE d   1       4.055  -1.444   0.016  0.00  0.00     0.003 A 
ATOM      6  C4  OXE d   1       2.698  -1.744  -0.154  0.00  0.00    -0.002 A 
ATOM      7  C5  OXE d   1       1.785  -0.737  -0.484  0.00  0.00    -0.002 A 
ATOM      8  C6  OXE d   1       2.236   0.569  -0.639  0.00  0.00     0.003 A 
ENDROOT
TORSDOF 0
ENDMDL
