MODEL 1
REMARK minimizedAffinity 6.3801899
REMARK minimizedRMSD -1
REMARK  0 active torsions:
REMARK  status: ('A' for Active; 'I' for Inactive)
ROOT
ATOM      1  C2' OXE d   1      -2.255   1.991   2.038  0.00  0.00     0.078 C 
ATOM      2  C1' OXE d   1      -0.343   1.276   3.965  0.00  0.00     0.078 C 
ATOM      3  C1  OXE d   1       0.152   1.682   2.599  0.00  0.00    -0.078 A 
ATOM      4  C2  OXE d   1      -0.792   1.985   1.648  0.00  0.00    -0.078 A 
ATOM      5  C3  OXE d   1      -0.388   2.417   0.388  0.00  0.00     0.003 A 
ATOM      6  C4  OXE d   1       0.966   2.399   0.033  0.00  0.00    -0.002 A 
ATOM      7  C5  OXE d   1       1.942   2.056   0.975  0.00  0.00    -0.002 A 
ATOM      8  C6  OXE d   1       1.556   1.737   2.272  0.00  0.00     0.003 A 
ENDROOT
TORSDOF 0
ENDMDL
