MODEL 1
REMARK minimizedAffinity 6.616395
REMARK minimizedRMSD -1
REMARK  0 active torsions:
REMARK  status: ('A' for Active; 'I' for Inactive)
ROOT
ATOM      1  C2' OXE d   1      -0.778  -2.480  -2.841  0.00  0.00     0.078 C 
ATOM      2  C1' OXE d   1      -1.445   0.124  -2.031  0.00  0.00     0.078 C 
ATOM      3  C1  OXE d   1      -0.293  -0.556  -1.334  0.00  0.00    -0.078 A 
ATOM      4  C2  OXE d   1      -0.004  -1.847  -1.705  0.00  0.00    -0.078 A 
ATOM      5  C3  OXE d   1       1.084  -2.501  -1.132  0.00  0.00     0.003 A 
ATOM      6  C4  OXE d   1       1.789  -1.913  -0.076  0.00  0.00    -0.002 A 
ATOM      7  C5  OXE d   1       1.485  -0.614   0.344  0.00  0.00    -0.002 A 
ATOM      8  C6  OXE d   1       0.477   0.093  -0.302  0.00  0.00     0.003 A 
ENDROOT
TORSDOF 0
ENDMDL
