MODEL 1
REMARK minimizedAffinity 4.5374918
REMARK minimizedRMSD -1
REMARK  0 active torsions:
REMARK  status: ('A' for Active; 'I' for Inactive)
ROOT
ATOM      1  C2' OXE d   1       3.871   1.096  -0.750  0.00  0.00     0.078 C 
ATOM      2  C1' OXE d   1       2.056  -0.997  -0.298  0.00  0.00     0.078 C 
ATOM      3  C1  OXE d   1       2.989  -1.117  -1.476  0.00  0.00    -0.078 A 
ATOM      4  C2  OXE d   1       3.841  -0.067  -1.718  0.00  0.00    -0.078 A 
ATOM      5  C3  OXE d   1       4.761  -0.151  -2.760  0.00  0.00     0.003 A 
ATOM      6  C4  OXE d   1       4.720  -1.226  -3.656  0.00  0.00    -0.002 A 
ATOM      7  C5  OXE d   1       3.832  -2.288  -3.452  0.00  0.00    -0.002 A 
ATOM      8  C6  OXE d   1       2.991  -2.269  -2.345  0.00  0.00     0.003 A 
ENDROOT
TORSDOF 0
ENDMDL
