MODEL 1
REMARK minimizedAffinity 1.96667099
REMARK minimizedRMSD -1
REMARK  0 active torsions:
REMARK  status: ('A' for Active; 'I' for Inactive)
ROOT
ATOM      1  C2' OXE d   1       2.045  -4.918   5.312  0.00  0.00     0.078 C 
ATOM      2  C1' OXE d   1       0.730  -2.458   4.999  0.00  0.00     0.078 C 
ATOM      3  C1  OXE d   1      -0.104  -3.660   5.367  0.00  0.00    -0.078 A 
ATOM      4  C2  OXE d   1       0.541  -4.869   5.472  0.00  0.00    -0.078 A 
ATOM      5  C3  OXE d   1      -0.172  -5.998   5.863  0.00  0.00     0.003 A 
ATOM      6  C4  OXE d   1      -1.564  -5.946   6.000  0.00  0.00    -0.002 A 
ATOM      7  C5  OXE d   1      -2.246  -4.733   5.858  0.00  0.00    -0.002 A 
ATOM      8  C6  OXE d   1      -1.527  -3.575   5.584  0.00  0.00     0.003 A 
ENDROOT
TORSDOF 0
ENDMDL
