MODEL 1
REMARK minimizedAffinity 2.85061359
REMARK minimizedRMSD -1
REMARK  0 active torsions:
REMARK  status: ('A' for Active; 'I' for Inactive)
ROOT
ATOM      1  C2' OXE d   1      -2.131  -0.807   0.434  0.00  0.00     0.078 C 
ATOM      2  C1' OXE d   1      -0.031  -1.754  -1.170  0.00  0.00     0.078 C 
ATOM      3  C1  OXE d   1       0.161  -0.433  -0.467  0.00  0.00    -0.078 A 
ATOM      4  C2  OXE d   1      -0.890   0.044   0.279  0.00  0.00    -0.078 A 
ATOM      5  C3  OXE d   1      -0.746   1.231   0.992  0.00  0.00     0.003 A 
ATOM      6  C4  OXE d   1       0.402   2.017   0.835  0.00  0.00    -0.002 A 
ATOM      7  C5  OXE d   1       1.468   1.568   0.049  0.00  0.00    -0.002 A 
ATOM      8  C6  OXE d   1       1.381   0.328  -0.574  0.00  0.00     0.003 A 
ENDROOT
TORSDOF 0
ENDMDL
