MODEL 1
REMARK minimizedAffinity 3.97707319
REMARK minimizedRMSD -1
REMARK  0 active torsions:
REMARK  status: ('A' for Active; 'I' for Inactive)
ROOT
ATOM      1  N1  IND d   1      -2.083   5.989   4.798  0.00  0.00    -0.196 N 
ATOM      2  C2  IND d   1      -2.736   5.986   5.999  0.00  0.00     0.054 A 
ATOM      3  C3  IND d   1      -4.074   5.999   5.806  0.00  0.00    -0.031 A 
ATOM      4  C4  IND d   1      -5.410   5.926   3.606  0.00  0.00     0.051 A 
ATOM      5  C5  IND d   1      -5.254   5.957   2.249  0.00  0.00    -0.031 A 
ATOM      6  C6  IND d   1      -4.006   5.999   1.660  0.00  0.00     0.015 A 
ATOM      7  C7  IND d   1      -2.864   5.999   2.410  0.00  0.00    -0.016 A 
ATOM      8  C8  IND d   1      -3.020   5.975   3.789  0.00  0.00    -0.047 A 
ATOM      9  C9  IND d   1      -4.284   5.976   4.393  0.00  0.00    -0.096 A 
ATOM     10  HN1 IND d   1      -1.229   5.999   4.691  0.00  0.00     0.298 HD
ENDROOT
TORSDOF 0
ENDMDL
