MODEL 1
REMARK minimizedAffinity 5.38128996
REMARK minimizedRMSD -1
REMARK  0 active torsions:
REMARK  status: ('A' for Active; 'I' for Inactive)
ROOT
ATOM      1  N1  IND d   1      -2.448   5.911   4.780  0.00  0.00    -0.196 N 
ATOM      2  C2  IND d   1      -3.064   5.957   6.000  0.00  0.00     0.054 A 
ATOM      3  C3  IND d   1      -4.368   5.624   5.881  0.00  0.00    -0.031 A 
ATOM      4  C4  IND d   1      -5.681   4.870   3.799  0.00  0.00     0.051 A 
ATOM      5  C5  IND d   1      -5.557   4.708   2.447  0.00  0.00    -0.031 A 
ATOM      6  C6  IND d   1      -4.365   4.941   1.792  0.00  0.00     0.015 A 
ATOM      7  C7  IND d   1      -3.245   5.336   2.468  0.00  0.00    -0.016 A 
ATOM      8  C8  IND d   1      -3.370   5.508   3.839  0.00  0.00    -0.047 A 
ATOM      9  C9  IND d   1      -4.587   5.314   4.504  0.00  0.00    -0.096 A 
ATOM     10  HN1 IND d   1      -1.624   6.103   4.627  0.00  0.00     0.298 HD
ENDROOT
TORSDOF 0
ENDMDL
