MODEL 1
REMARK minimizedAffinity 0.522486866
REMARK minimizedRMSD -1
REMARK  0 active torsions:
REMARK  status: ('A' for Active; 'I' for Inactive)
ROOT
ATOM      1  N1  IND d   1      -4.160   5.996   5.635  0.00  0.00    -0.196 N 
ATOM      2  C2  IND d   1      -2.842   6.000   5.997  0.00  0.00     0.054 A 
ATOM      3  C3  IND d   1      -2.052   5.960   4.900  0.00  0.00    -0.031 A 
ATOM      4  C4  IND d   1      -2.709   5.987   2.411  0.00  0.00     0.051 A 
ATOM      5  C5  IND d   1      -3.796   5.945   1.583  0.00  0.00    -0.031 A 
ATOM      6  C6  IND d   1      -5.086   5.920   2.074  0.00  0.00     0.015 A 
ATOM      7  C7  IND d   1      -5.338   5.947   3.416  0.00  0.00    -0.016 A 
ATOM      8  C8  IND d   1      -4.237   5.983   4.260  0.00  0.00    -0.047 A 
ATOM      9  C9  IND d   1      -2.925   5.966   3.769  0.00  0.00    -0.096 A 
ATOM     10  HN1 IND d   1      -4.829   6.000   6.176  0.00  0.00     0.298 HD
ENDROOT
TORSDOF 0
ENDMDL
