MODEL 1
REMARK minimizedAffinity 0.510141909
REMARK minimizedRMSD -1
REMARK  0 active torsions:
REMARK  status: ('A' for Active; 'I' for Inactive)
ROOT
ATOM      1  N1  IND d   1      -4.556   6.000   5.216  0.00  0.00    -0.196 N 
ATOM      2  C2  IND d   1      -3.298   6.000   5.751  0.00  0.00     0.054 A 
ATOM      3  C3  IND d   1      -2.369   5.962   4.770  0.00  0.00    -0.031 A 
ATOM      4  C4  IND d   1      -2.686   6.000   2.215  0.00  0.00     0.051 A 
ATOM      5  C5  IND d   1      -3.652   5.963   1.249  0.00  0.00    -0.031 A 
ATOM      6  C6  IND d   1      -4.996   5.939   1.562  0.00  0.00     0.015 A 
ATOM      7  C7  IND d   1      -5.426   5.962   2.858  0.00  0.00    -0.016 A 
ATOM      8  C8  IND d   1      -4.447   5.992   3.842  0.00  0.00    -0.047 A 
ATOM      9  C9  IND d   1      -3.082   5.974   3.532  0.00  0.00    -0.096 A 
ATOM     10  HN1 IND d   1      -5.291   6.004   5.662  0.00  0.00     0.298 HD
ENDROOT
TORSDOF 0
ENDMDL
