MODEL 1
REMARK minimizedAffinity 10.0586786
REMARK minimizedRMSD -1
REMARK  0 active torsions:
REMARK  status: ('A' for Active; 'I' for Inactive)
ROOT
ATOM      1  N1  IND d   1      -3.104  -2.377   1.315  0.00  0.00    -0.196 N 
ATOM      2  C2  IND d   1      -2.388  -2.019   0.206  0.00  0.00     0.054 A 
ATOM      3  C3  IND d   1      -1.992  -0.729   0.299  0.00  0.00    -0.031 A 
ATOM      4  C4  IND d   1      -2.319   0.948   2.225  0.00  0.00     0.051 A 
ATOM      5  C5  IND d   1      -2.940   1.092   3.434  0.00  0.00    -0.031 A 
ATOM      6  C6  IND d   1      -3.660   0.066   4.011  0.00  0.00     0.015 A 
ATOM      7  C7  IND d   1      -3.777  -1.152   3.403  0.00  0.00    -0.016 A 
ATOM      8  C8  IND d   1      -3.153  -1.300   2.172  0.00  0.00    -0.047 A 
ATOM      9  C9  IND d   1      -2.457  -0.249   1.562  0.00  0.00    -0.096 A 
ATOM     10  HN1 IND d   1      -3.463  -3.146   1.453  0.00  0.00     0.298 HD
ENDROOT
TORSDOF 0
ENDMDL
