MODEL 1
REMARK minimizedAffinity 4.54247952
REMARK minimizedRMSD -1
REMARK  0 active torsions:
REMARK  status: ('A' for Active; 'I' for Inactive)
ROOT
ATOM      1  N1  IND d   1      -4.449   5.997   5.718  0.00  0.00    -0.196 N 
ATOM      2  C2  IND d   1      -3.093   5.977   5.895  0.00  0.00     0.054 A 
ATOM      3  C3  IND d   1      -2.463   5.936   4.699  0.00  0.00    -0.031 A 
ATOM      4  C4  IND d   1      -3.456   5.999   2.325  0.00  0.00     0.051 A 
ATOM      5  C5  IND d   1      -4.647   5.981   1.655  0.00  0.00    -0.031 A 
ATOM      6  C6  IND d   1      -5.857   5.971   2.318  0.00  0.00     0.015 A 
ATOM      7  C7  IND d   1      -5.922   5.989   3.682  0.00  0.00    -0.016 A 
ATOM      8  C8  IND d   1      -4.714   5.999   4.367  0.00  0.00    -0.047 A 
ATOM      9  C9  IND d   1      -3.483   5.967   3.699  0.00  0.00    -0.096 A 
ATOM     10  HN1 IND d   1      -5.036   6.006   6.346  0.00  0.00     0.298 HD
ENDROOT
TORSDOF 0
ENDMDL
