MODEL 1
REMARK minimizedAffinity -1.3360076
REMARK minimizedRMSD -1
REMARK  0 active torsions:
REMARK  status: ('A' for Active; 'I' for Inactive)
ROOT
ATOM      1  N1  IND d   1      -2.668   5.998   5.150  0.00  0.00    -0.196 N 
ATOM      2  C2  IND d   1      -3.771   5.996   5.957  0.00  0.00     0.054 A 
ATOM      3  C3  IND d   1      -4.899   5.999   5.211  0.00  0.00    -0.031 A 
ATOM      4  C4  IND d   1      -5.168   5.907   2.652  0.00  0.00     0.051 A 
ATOM      5  C5  IND d   1      -4.446   5.934   1.492  0.00  0.00    -0.031 A 
ATOM      6  C6  IND d   1      -3.067   5.981   1.491  0.00  0.00     0.015 A 
ATOM      7  C7  IND d   1      -2.354   5.993   2.657  0.00  0.00    -0.016 A 
ATOM      8  C8  IND d   1      -3.084   5.973   3.837  0.00  0.00    -0.047 A 
ATOM      9  C9  IND d   1      -4.485   5.968   3.844  0.00  0.00    -0.096 A 
ATOM     10  HN1 IND d   1      -1.851   6.013   5.418  0.00  0.00     0.298 HD
ENDROOT
TORSDOF 0
ENDMDL
