MODEL 1
REMARK minimizedAffinity -0.0520446636
REMARK minimizedRMSD -1
REMARK  0 active torsions:
REMARK  status: ('A' for Active; 'I' for Inactive)
ROOT
ATOM      1  N1  IND d   1      -4.835   5.953   5.148  0.00  0.00    -0.196 N 
ATOM      2  C2  IND d   1      -3.765   5.990   5.999  0.00  0.00     0.054 A 
ATOM      3  C3  IND d   1      -2.608   5.977   5.300  0.00  0.00    -0.031 A 
ATOM      4  C4  IND d   1      -2.235   6.000   2.753  0.00  0.00     0.051 A 
ATOM      5  C5  IND d   1      -2.908   5.934   1.565  0.00  0.00    -0.031 A 
ATOM      6  C6  IND d   1      -4.285   5.872   1.510  0.00  0.00     0.015 A 
ATOM      7  C7  IND d   1      -5.045   5.886   2.645  0.00  0.00    -0.016 A 
ATOM      8  C8  IND d   1      -4.365   5.946   3.853  0.00  0.00    -0.047 A 
ATOM      9  C9  IND d   1      -2.966   5.966   3.917  0.00  0.00    -0.096 A 
ATOM     10  HN1 IND d   1      -5.662   5.938   5.383  0.00  0.00     0.298 HD
ENDROOT
TORSDOF 0
ENDMDL
