MODEL 1
REMARK minimizedAffinity 2.89921999
REMARK minimizedRMSD -1
REMARK  0 active torsions:
REMARK  status: ('A' for Active; 'I' for Inactive)
ROOT
ATOM      1  N1  IND d   1      -3.810   5.951   1.477  0.00  0.00    -0.196 N 
ATOM      2  C2  IND d   1      -5.176   5.918   1.490  0.00  0.00     0.054 A 
ATOM      3  C3  IND d   1      -5.635   5.891   2.761  0.00  0.00    -0.031 A 
ATOM      4  C4  IND d   1      -4.325   5.998   4.975  0.00  0.00     0.051 A 
ATOM      5  C5  IND d   1      -3.053   6.000   5.475  0.00  0.00    -0.031 A 
ATOM      6  C6  IND d   1      -1.946   5.988   4.651  0.00  0.00     0.015 A 
ATOM      7  C7  IND d   1      -2.070   5.986   3.290  0.00  0.00    -0.016 A 
ATOM      8  C8  IND d   1      -3.360   5.976   2.779  0.00  0.00    -0.047 A 
ATOM      9  C9  IND d   1      -4.487   5.945   3.610  0.00  0.00    -0.096 A 
ATOM     10  HN1 IND d   1      -3.314   5.955   0.775  0.00  0.00     0.298 HD
ENDROOT
TORSDOF 0
ENDMDL
