MODEL 1
REMARK minimizedAffinity 12.6789637
REMARK minimizedRMSD -1
REMARK  0 active torsions:
REMARK  status: ('A' for Active; 'I' for Inactive)
ROOT
ATOM      1  N1  IND d   1       0.000  -2.569  -4.446  0.00  0.00    -0.196 N 
ATOM      2  C2  IND d   1       0.401  -3.304  -3.365  0.00  0.00     0.054 A 
ATOM      3  C3  IND d   1       0.919  -2.496  -2.413  0.00  0.00    -0.031 A 
ATOM      4  C4  IND d   1       1.114   0.071  -2.375  0.00  0.00     0.051 A 
ATOM      5  C5  IND d   1       0.917   1.178  -3.152  0.00  0.00    -0.031 A 
ATOM      6  C6  IND d   1       0.390   1.091  -4.424  0.00  0.00     0.015 A 
ATOM      7  C7  IND d   1       0.030  -0.111  -4.966  0.00  0.00    -0.016 A 
ATOM      8  C8  IND d   1       0.236  -1.237  -4.182  0.00  0.00    -0.047 A 
ATOM      9  C9  IND d   1       0.809  -1.160  -2.907  0.00  0.00    -0.096 A 
ATOM     10  HN1 IND d   1      -0.341  -2.885  -5.169  0.00  0.00     0.298 HD
ENDROOT
TORSDOF 0
ENDMDL
