MODEL 1
REMARK minimizedAffinity 12.7682676
REMARK minimizedRMSD -1
REMARK  0 active torsions:
REMARK  status: ('A' for Active; 'I' for Inactive)
ROOT
ATOM      1  N1  IND d   1      -2.530   5.994   4.728  0.00  0.00    -0.196 N 
ATOM      2  C2  IND d   1      -3.135   5.107   5.575  0.00  0.00     0.054 A 
ATOM      3  C3  IND d   1      -3.573   4.027   4.891  0.00  0.00    -0.031 A 
ATOM      4  C4  IND d   1      -3.316   3.459   2.393  0.00  0.00     0.051 A 
ATOM      5  C5  IND d   1      -2.868   3.978   1.211  0.00  0.00    -0.031 A 
ATOM      6  C6  IND d   1      -2.270   5.219   1.140  0.00  0.00     0.015 A 
ATOM      7  C7  IND d   1      -2.086   5.987   2.255  0.00  0.00    -0.016 A 
ATOM      8  C8  IND d   1      -2.547   5.466   3.456  0.00  0.00    -0.047 A 
ATOM      9  C9  IND d   1      -3.192   4.225   3.528  0.00  0.00    -0.096 A 
ATOM     10  HN1 IND d   1      -2.196   6.754   4.952  0.00  0.00     0.298 HD
ENDROOT
TORSDOF 0
ENDMDL
