MODEL 1
REMARK minimizedAffinity 0.114676535
REMARK minimizedRMSD -1
REMARK  0 active torsions:
REMARK  status: ('A' for Active; 'I' for Inactive)
ROOT
ATOM      1  N1  IND d   1      -1.959   5.973   4.700  0.00  0.00    -0.196 N 
ATOM      2  C2  IND d   1      -2.835   5.975   5.750  0.00  0.00     0.054 A 
ATOM      3  C3  IND d   1      -4.109   6.000   5.299  0.00  0.00    -0.031 A 
ATOM      4  C4  IND d   1      -4.990   5.939   2.881  0.00  0.00     0.051 A 
ATOM      5  C5  IND d   1      -4.571   5.969   1.580  0.00  0.00    -0.031 A 
ATOM      6  C6  IND d   1      -3.232   6.000   1.247  0.00  0.00     0.015 A 
ATOM      7  C7  IND d   1      -2.259   5.990   2.205  0.00  0.00    -0.016 A 
ATOM      8  C8  IND d   1      -2.681   5.967   3.527  0.00  0.00    -0.047 A 
ATOM      9  C9  IND d   1      -4.038   5.978   3.872  0.00  0.00    -0.096 A 
ATOM     10  HN1 IND d   1      -1.101   5.975   4.762  0.00  0.00     0.298 HD
ENDROOT
TORSDOF 0
ENDMDL
