MODEL 1
REMARK minimizedAffinity 0.172254264
REMARK minimizedRMSD -1
REMARK  0 active torsions:
REMARK  status: ('A' for Active; 'I' for Inactive)
ROOT
ATOM      1  N1  IND d   1      -3.231   5.999   5.276  0.00  0.00    -0.196 N 
ATOM      2  C2  IND d   1      -1.868   5.996   5.178  0.00  0.00     0.054 A 
ATOM      3  C3  IND d   1      -1.489   5.920   3.882  0.00  0.00    -0.031 A 
ATOM      4  C4  IND d   1      -2.939   5.895   1.754  0.00  0.00     0.051 A 
ATOM      5  C5  IND d   1      -4.239   5.845   1.337  0.00  0.00    -0.031 A 
ATOM      6  C6  IND d   1      -5.291   5.847   2.230  0.00  0.00     0.015 A 
ATOM      7  C7  IND d   1      -5.082   5.910   3.578  0.00  0.00    -0.016 A 
ATOM      8  C8  IND d   1      -3.762   5.954   4.006  0.00  0.00    -0.047 A 
ATOM      9  C9  IND d   1      -2.689   5.909   3.106  0.00  0.00    -0.096 A 
ATOM     10  HN1 IND d   1      -3.681   6.024   6.008  0.00  0.00     0.298 HD
ENDROOT
TORSDOF 0
ENDMDL
