MODEL 1
REMARK minimizedAffinity 1.58264744
REMARK minimizedRMSD -1
REMARK  0 active torsions:
REMARK  status: ('A' for Active; 'I' for Inactive)
ROOT
ATOM      1  N1  IND d   1      -4.936   5.871   2.361  0.00  0.00    -0.196 N 
ATOM      2  C2  IND d   1      -3.868   5.876   1.507  0.00  0.00     0.054 A 
ATOM      3  C3  IND d   1      -2.711   5.945   2.203  0.00  0.00    -0.031 A 
ATOM      4  C4  IND d   1      -2.331   5.955   4.749  0.00  0.00     0.051 A 
ATOM      5  C5  IND d   1      -3.002   5.999   5.938  0.00  0.00    -0.031 A 
ATOM      6  C6  IND d   1      -4.381   6.000   5.997  0.00  0.00     0.015 A 
ATOM      7  C7  IND d   1      -5.143   5.945   4.864  0.00  0.00    -0.016 A 
ATOM      8  C8  IND d   1      -4.464   5.907   3.654  0.00  0.00    -0.047 A 
ATOM      9  C9  IND d   1      -3.065   5.949   3.587  0.00  0.00    -0.096 A 
ATOM     10  HN1 IND d   1      -5.764   5.849   2.129  0.00  0.00     0.298 HD
ENDROOT
TORSDOF 0
ENDMDL
