MODEL 1
REMARK minimizedAffinity 0.275148928
REMARK minimizedRMSD -1
REMARK  0 active torsions:
REMARK  status: ('A' for Active; 'I' for Inactive)
ROOT
ATOM      1  N1  IND d   1      -3.834   5.926   1.952  0.00  0.00    -0.196 N 
ATOM      2  C2  IND d   1      -2.520   5.942   1.576  0.00  0.00     0.054 A 
ATOM      3  C3  IND d   1      -1.720   5.999   2.664  0.00  0.00    -0.031 A 
ATOM      4  C4  IND d   1      -2.349   5.970   5.160  0.00  0.00     0.051 A 
ATOM      5  C5  IND d   1      -3.427   5.997   5.999  0.00  0.00    -0.031 A 
ATOM      6  C6  IND d   1      -4.723   6.000   5.523  0.00  0.00     0.015 A 
ATOM      7  C7  IND d   1      -4.989   5.963   4.183  0.00  0.00    -0.016 A 
ATOM      8  C8  IND d   1      -3.896   5.942   3.328  0.00  0.00    -0.047 A 
ATOM      9  C9  IND d   1      -2.580   5.983   3.805  0.00  0.00    -0.096 A 
ATOM     10  HN1 IND d   1      -4.508   5.909   1.419  0.00  0.00     0.298 HD
ENDROOT
TORSDOF 0
ENDMDL
