MODEL 1
REMARK minimizedAffinity 3.38504982
REMARK minimizedRMSD -1
REMARK  0 active torsions:
REMARK  status: ('A' for Active; 'I' for Inactive)
ROOT
ATOM      1  N1  IND d   1      -4.484   5.999   5.325  0.00  0.00    -0.196 N 
ATOM      2  C2  IND d   1      -3.223   6.000   5.854  0.00  0.00     0.054 A 
ATOM      3  C3  IND d   1      -2.333   5.532   4.950  0.00  0.00    -0.031 A 
ATOM      4  C4  IND d   1      -2.710   4.805   2.510  0.00  0.00     0.051 A 
ATOM      5  C5  IND d   1      -3.697   4.594   1.588  0.00  0.00    -0.031 A 
ATOM      6  C6  IND d   1      -5.024   4.849   1.870  0.00  0.00     0.015 A 
ATOM      7  C7  IND d   1      -5.413   5.337   3.086  0.00  0.00    -0.016 A 
ATOM      8  C8  IND d   1      -4.413   5.545   4.026  0.00  0.00    -0.047 A 
ATOM      9  C9  IND d   1      -3.071   5.248   3.760  0.00  0.00    -0.096 A 
ATOM     10  HN1 IND d   1      -5.200   6.241   5.734  0.00  0.00     0.298 HD
ENDROOT
TORSDOF 0
ENDMDL
