MODEL 1
REMARK minimizedAffinity 5.14239836
REMARK minimizedRMSD -1
REMARK  0 active torsions:
REMARK  status: ('A' for Active; 'I' for Inactive)
ROOT
ATOM      1  N1  IND d   1      -2.069   5.901   4.811  0.00  0.00    -0.196 N 
ATOM      2  C2  IND d   1      -2.749   5.929   5.997  0.00  0.00     0.054 A 
ATOM      3  C3  IND d   1      -4.080   6.000   5.775  0.00  0.00    -0.031 A 
ATOM      4  C4  IND d   1      -5.369   5.978   3.546  0.00  0.00     0.051 A 
ATOM      5  C5  IND d   1      -5.181   5.999   2.193  0.00  0.00    -0.031 A 
ATOM      6  C6  IND d   1      -3.920   5.985   1.632  0.00  0.00     0.015 A 
ATOM      7  C7  IND d   1      -2.796   5.938   2.406  0.00  0.00    -0.016 A 
ATOM      8  C8  IND d   1      -2.983   5.924   3.781  0.00  0.00    -0.047 A 
ATOM      9  C9  IND d   1      -4.259   5.981   4.357  0.00  0.00    -0.096 A 
ATOM     10  HN1 IND d   1      -1.214   5.873   4.724  0.00  0.00     0.298 HD
ENDROOT
TORSDOF 0
ENDMDL
