MODEL 1
REMARK minimizedAffinity 4.12721634
REMARK minimizedRMSD -1
REMARK  0 active torsions:
REMARK  status: ('A' for Active; 'I' for Inactive)
ROOT
ATOM      1  N1  IND d   1      -4.351   5.962   1.875  0.00  0.00    -0.196 N 
ATOM      2  C2  IND d   1      -3.075   5.967   1.384  0.00  0.00     0.054 A 
ATOM      3  C3  IND d   1      -2.181   6.000   2.397  0.00  0.00    -0.031 A 
ATOM      4  C4  IND d   1      -2.587   5.946   4.939  0.00  0.00     0.051 A 
ATOM      5  C5  IND d   1      -3.586   5.976   5.871  0.00  0.00    -0.031 A 
ATOM      6  C6  IND d   1      -4.918   6.000   5.511  0.00  0.00     0.015 A 
ATOM      7  C7  IND d   1      -5.302   5.984   4.200  0.00  0.00    -0.016 A 
ATOM      8  C8  IND d   1      -4.290   5.961   3.251  0.00  0.00    -0.047 A 
ATOM      9  C9  IND d   1      -2.936   5.979   3.609  0.00  0.00    -0.096 A 
ATOM     10  HN1 IND d   1      -5.070   5.959   1.403  0.00  0.00     0.298 HD
ENDROOT
TORSDOF 0
ENDMDL
