MODEL 1
REMARK minimizedAffinity 8.98227692
REMARK minimizedRMSD -1
REMARK  0 active torsions:
REMARK  status: ('A' for Active; 'I' for Inactive)
ROOT
ATOM      1  N1  IND d   1      -4.650   5.980   2.161  0.00  0.00    -0.196 N 
ATOM      2  C2  IND d   1      -3.552   5.976   1.346  0.00  0.00     0.054 A 
ATOM      3  C3  IND d   1      -2.419   5.994   2.083  0.00  0.00    -0.031 A 
ATOM      4  C4  IND d   1      -2.130   5.927   4.640  0.00  0.00     0.051 A 
ATOM      5  C5  IND d   1      -2.843   5.960   5.806  0.00  0.00    -0.031 A 
ATOM      6  C6  IND d   1      -4.222   5.999   5.816  0.00  0.00     0.015 A 
ATOM      7  C7  IND d   1      -4.944   5.995   4.656  0.00  0.00    -0.016 A 
ATOM      8  C8  IND d   1      -4.223   5.969   3.470  0.00  0.00    -0.047 A 
ATOM      9  C9  IND d   1      -2.823   5.973   3.453  0.00  0.00    -0.096 A 
ATOM     10  HN1 IND d   1      -5.469   5.987   1.899  0.00  0.00     0.298 HD
ENDROOT
TORSDOF 0
ENDMDL
