MODEL 1
REMARK minimizedAffinity 9.49863148
REMARK minimizedRMSD -1
REMARK  0 active torsions:
REMARK  status: ('A' for Active; 'I' for Inactive)
ROOT
ATOM      1  O1  BZF d   1       0.707  -2.283   3.047  0.00  0.00    -0.204 OA
ATOM      2  C2  BZF d   1       1.058  -1.115   2.399  0.00  0.00     0.174 A 
ATOM      3  C3  BZF d   1       2.395  -0.937   2.425  0.00  0.00    -0.012 A 
ATOM      4  C3A BZF d   1       2.919  -2.111   3.053  0.00  0.00    -0.107 A 
ATOM      5  C4  BZF d   1       4.183  -2.531   3.354  0.00  0.00     0.055 A 
ATOM      6  C5  BZF d   1       4.348  -3.695   4.035  0.00  0.00    -0.016 A 
ATOM      7  C6  BZF d   1       3.273  -4.460   4.436  0.00  0.00     0.022 A 
ATOM      8  C7  BZF d   1       2.000  -4.087   4.157  0.00  0.00     0.029 A 
ATOM      9  C7A BZF d   1       1.831  -2.928   3.439  0.00  0.00     0.058 A 
ENDROOT
TORSDOF 0
ENDMDL
