MODEL 1
REMARK minimizedAffinity 0.528952181
REMARK minimizedRMSD -1
REMARK  0 active torsions:
REMARK  status: ('A' for Active; 'I' for Inactive)
ROOT
ATOM      1  O1  BZF d   1       5.233  -5.682  -2.384  0.00  0.00    -0.204 OA
ATOM      2  C2  BZF d   1       4.130  -5.486  -1.576  0.00  0.00     0.174 A 
ATOM      3  C3  BZF d   1       3.006  -5.394  -2.316  0.00  0.00    -0.012 A 
ATOM      4  C3A BZF d   1       3.422  -5.634  -3.664  0.00  0.00    -0.107 A 
ATOM      5  C4  BZF d   1       2.757  -5.690  -4.856  0.00  0.00     0.055 A 
ATOM      6  C5  BZF d   1       3.468  -5.871  -6.000  0.00  0.00    -0.016 A 
ATOM      7  C6  BZF d   1       4.842  -5.995  -5.990  0.00  0.00     0.022 A 
ATOM      8  C7  BZF d   1       5.544  -5.950  -4.832  0.00  0.00     0.029 A 
ATOM      9  C7A BZF d   1       4.826  -5.800  -3.670  0.00  0.00     0.058 A 
ENDROOT
TORSDOF 0
ENDMDL
