MODEL 1
REMARK minimizedAffinity 6.01852846
REMARK minimizedRMSD -1
REMARK  0 active torsions:
REMARK  status: ('A' for Active; 'I' for Inactive)
ROOT
ATOM      1  O1  BZF d   1       0.792  -2.328   2.799  0.00  0.00    -0.204 OA
ATOM      2  C2  BZF d   1       1.078  -1.238   1.999  0.00  0.00     0.174 A 
ATOM      3  C3  BZF d   1       2.402  -0.983   1.995  0.00  0.00    -0.012 A 
ATOM      4  C3A BZF d   1       2.990  -2.031   2.771  0.00  0.00    -0.107 A 
ATOM      5  C4  BZF d   1       4.276  -2.335   3.118  0.00  0.00     0.055 A 
ATOM      6  C5  BZF d   1       4.505  -3.386   3.947  0.00  0.00    -0.016 A 
ATOM      7  C6  BZF d   1       3.475  -4.152   4.452  0.00  0.00     0.022 A 
ATOM      8  C7  BZF d   1       2.183  -3.893   4.132  0.00  0.00     0.029 A 
ATOM      9  C7A BZF d   1       1.950  -2.851   3.268  0.00  0.00     0.058 A 
ENDROOT
TORSDOF 0
ENDMDL
