MODEL 1
REMARK minimizedAffinity 9.17509174
REMARK minimizedRMSD -1
REMARK  0 active torsions:
REMARK  status: ('A' for Active; 'I' for Inactive)
ROOT
ATOM      1  O1  BZF d   1       1.959  -5.891   4.603  0.00  0.00    -0.204 OA
ATOM      2  C2  BZF d   1       1.473  -5.638   5.871  0.00  0.00     0.174 A 
ATOM      3  C3  BZF d   1       1.125  -4.342   6.000  0.00  0.00    -0.012 A 
ATOM      4  C3A BZF d   1       1.325  -3.768   4.705  0.00  0.00    -0.107 A 
ATOM      5  C4  BZF d   1       1.139  -2.515   4.194  0.00  0.00     0.055 A 
ATOM      6  C5  BZF d   1       1.500  -2.265   2.908  0.00  0.00    -0.016 A 
ATOM      7  C6  BZF d   1       2.054  -3.242   2.107  0.00  0.00     0.022 A 
ATOM      8  C7  BZF d   1       2.253  -4.501   2.567  0.00  0.00     0.029 A 
ATOM      9  C7A BZF d   1       1.858  -4.765   3.856  0.00  0.00     0.058 A 
ENDROOT
TORSDOF 0
ENDMDL
