MODEL 1
REMARK minimizedAffinity -2.42111087
REMARK minimizedRMSD -1
REMARK  0 active torsions:
REMARK  status: ('A' for Active; 'I' for Inactive)
ROOT
ATOM      1  O1  BZF d   1       3.915  -5.957  -5.306  0.00  0.00    -0.204 OA
ATOM      2  C2  BZF d   1       2.581  -5.947  -5.667  0.00  0.00     0.174 A 
ATOM      3  C3  BZF d   1       1.790  -6.000  -4.577  0.00  0.00    -0.012 A 
ATOM      4  C3A BZF d   1       2.684  -5.954  -3.460  0.00  0.00    -0.107 A 
ATOM      5  C4  BZF d   1       2.497  -5.958  -2.108  0.00  0.00     0.055 A 
ATOM      6  C5  BZF d   1       3.584  -5.978  -1.291  0.00  0.00    -0.016 A 
ATOM      7  C6  BZF d   1       4.869  -6.000  -1.793  0.00  0.00     0.022 A 
ATOM      8  C7  BZF d   1       5.104  -5.991  -3.128  0.00  0.00     0.029 A 
ATOM      9  C7A BZF d   1       4.008  -5.938  -3.955  0.00  0.00     0.058 A 
ENDROOT
TORSDOF 0
ENDMDL
