MODEL 1
REMARK minimizedAffinity 6.1961565
REMARK minimizedRMSD -1
REMARK  0 active torsions:
REMARK  status: ('A' for Active; 'I' for Inactive)
ROOT
ATOM      1  O1  BZF d   1       2.139  -3.541   2.091  0.00  0.00    -0.204 OA
ATOM      2  C2  BZF d   1       2.186  -4.606   2.970  0.00  0.00     0.174 A 
ATOM      3  C3  BZF d   1       2.063  -4.181   4.244  0.00  0.00    -0.012 A 
ATOM      4  C3A BZF d   1       1.838  -2.771   4.150  0.00  0.00    -0.107 A 
ATOM      5  C4  BZF d   1       1.624  -1.791   5.077  0.00  0.00     0.055 A 
ATOM      6  C5  BZF d   1       1.513  -0.502   4.661  0.00  0.00    -0.016 A 
ATOM      7  C6  BZF d   1       1.615  -0.158   3.329  0.00  0.00     0.022 A 
ATOM      8  C7  BZF d   1       1.822  -1.096   2.373  0.00  0.00     0.029 A 
ATOM      9  C7A BZF d   1       1.902  -2.403   2.787  0.00  0.00     0.058 A 
ENDROOT
TORSDOF 0
ENDMDL
