MODEL 1
REMARK minimizedAffinity 0.541739941
REMARK minimizedRMSD -1
REMARK  0 active torsions:
REMARK  status: ('A' for Active; 'I' for Inactive)
ROOT
ATOM      1  O1  BZF d   1       1.904  -5.988  -4.248  0.00  0.00    -0.204 OA
ATOM      2  C2  BZF d   1       1.842  -5.970  -2.868  0.00  0.00     0.174 A 
ATOM      3  C3  BZF d   1       3.080  -5.994  -2.333  0.00  0.00    -0.012 A 
ATOM      4  C3A BZF d   1       3.973  -5.936  -3.448  0.00  0.00    -0.107 A 
ATOM      5  C4  BZF d   1       5.334  -5.911  -3.561  0.00  0.00     0.055 A 
ATOM      6  C5  BZF d   1       5.894  -5.927  -4.799  0.00  0.00    -0.016 A 
ATOM      7  C6  BZF d   1       5.126  -5.973  -5.944  0.00  0.00     0.022 A 
ATOM      8  C7  BZF d   1       3.772  -5.993  -5.882  0.00  0.00     0.029 A 
ATOM      9  C7A BZF d   1       3.202  -5.943  -4.634  0.00  0.00     0.058 A 
ENDROOT
TORSDOF 0
ENDMDL
