MODEL 1
REMARK minimizedAffinity 20.5675468
REMARK minimizedRMSD -1
REMARK  0 active torsions:
REMARK  status: ('A' for Active; 'I' for Inactive)
ROOT
ATOM      1  O1  BZF d   1       1.611  -0.690   3.812  0.00  0.00    -0.204 OA
ATOM      2  C2  BZF d   1       1.542  -1.847   3.060  0.00  0.00     0.174 A 
ATOM      3  C3  BZF d   1       1.945  -1.620   1.794  0.00  0.00    -0.012 A 
ATOM      4  C3A BZF d   1       2.373  -0.255   1.774  0.00  0.00    -0.107 A 
ATOM      5  C4  BZF d   1       2.894   0.552   0.803  0.00  0.00     0.055 A 
ATOM      6  C5  BZF d   1       3.138   1.858   1.090  0.00  0.00    -0.016 A 
ATOM      7  C6  BZF d   1       2.869   2.390   2.334  0.00  0.00     0.022 A 
ATOM      8  C7  BZF d   1       2.357   1.628   3.331  0.00  0.00     0.029 A 
ATOM      9  C7A BZF d   1       2.140   0.300   3.054  0.00  0.00     0.058 A 
ENDROOT
TORSDOF 0
ENDMDL
