MODEL 1
REMARK minimizedAffinity 11.0137749
REMARK minimizedRMSD -1
REMARK  0 active torsions:
REMARK  status: ('A' for Active; 'I' for Inactive)
ROOT
ATOM      1  O1  BZF d   1       1.698  -0.828   3.582  0.00  0.00    -0.204 OA
ATOM      2  C2  BZF d   1       1.545  -1.858   2.674  0.00  0.00     0.174 A 
ATOM      3  C3  BZF d   1       1.873  -1.453   1.430  0.00  0.00    -0.012 A 
ATOM      4  C3A BZF d   1       2.343  -0.110   1.584  0.00  0.00    -0.107 A 
ATOM      5  C4  BZF d   1       2.825   0.822   0.710  0.00  0.00     0.055 A 
ATOM      6  C5  BZF d   1       3.129   2.064   1.170  0.00  0.00    -0.016 A 
ATOM      7  C6  BZF d   1       2.958   2.410   2.494  0.00  0.00     0.022 A 
ATOM      8  C7  BZF d   1       2.486   1.518   3.400  0.00  0.00     0.029 A 
ATOM      9  C7A BZF d   1       2.210   0.252   2.945  0.00  0.00     0.058 A 
ENDROOT
TORSDOF 0
ENDMDL
