MODEL 1
REMARK minimizedAffinity 8.61137867
REMARK minimizedRMSD -1
REMARK  0 active torsions:
REMARK  status: ('A' for Active; 'I' for Inactive)
ROOT
ATOM      1  O1  BZF d   1       1.176  -0.698   3.613  0.00  0.00    -0.204 OA
ATOM      2  C2  BZF d   1       1.264  -1.622   2.589  0.00  0.00     0.174 A 
ATOM      3  C3  BZF d   1       1.928  -1.105   1.534  0.00  0.00    -0.012 A 
ATOM      4  C3A BZF d   1       2.356   0.193   1.958  0.00  0.00    -0.107 A 
ATOM      5  C4  BZF d   1       3.074   1.187   1.358  0.00  0.00     0.055 A 
ATOM      6  C5  BZF d   1       3.257   2.361   2.018  0.00  0.00    -0.016 A 
ATOM      7  C6  BZF d   1       2.732   2.576   3.275  0.00  0.00     0.022 A 
ATOM      8  C7  BZF d   1       2.017   1.618   3.913  0.00  0.00     0.029 A 
ATOM      9  C7A BZF d   1       1.858   0.419   3.262  0.00  0.00     0.058 A 
ENDROOT
TORSDOF 0
ENDMDL
