MODEL 1
REMARK minimizedAffinity -3.38938856
REMARK minimizedRMSD -1
REMARK  0 active torsions:
REMARK  status: ('A' for Active; 'I' for Inactive)
ROOT
ATOM      1  C   UNL d   1       0.200   3.080  -0.773  0.00  0.00     0.020 A 
ATOM      2  C1  UNL d   1       0.649   1.807  -1.123  0.00  0.00     0.020 A 
ATOM      3  C2  UNL d   1       0.208   0.690  -0.411  0.00  0.00     0.034 A 
ATOM      4  C3  UNL d   1      -0.686   0.843   0.655  0.00  0.00     0.017 A 
ATOM      5  C4  UNL d   1      -1.136   2.120   1.006  0.00  0.00     0.017 A 
ATOM      6  C5  UNL d   1      -0.691   3.236   0.290  0.00  0.00     0.034 A 
ATOM      7 Cl   UNL d   1      -2.239   2.388   2.310  0.00  0.00    -0.070 Cl
ATOM      8 Cl1  UNL d   1      -1.190  -0.583   1.491  0.00  0.00    -0.070 Cl
ENDROOT
TORSDOF 0
ENDMDL
