MODEL 1
REMARK minimizedAffinity -4.0230999
REMARK minimizedRMSD -1
REMARK  0 active torsions:
REMARK  status: ('A' for Active; 'I' for Inactive)
ROOT
ATOM      1  C   UNL d   1      -1.366   0.748   2.046  0.00  0.00     0.020 A 
ATOM      2  C1  UNL d   1      -0.603  -0.412   2.175  0.00  0.00     0.020 A 
ATOM      3  C2  UNL d   1       0.392  -0.701   1.239  0.00  0.00     0.034 A 
ATOM      4  C3  UNL d   1       0.626   0.170   0.169  0.00  0.00     0.017 A 
ATOM      5  C4  UNL d   1      -0.141   1.334   0.039  0.00  0.00     0.017 A 
ATOM      6  C5  UNL d   1      -1.135   1.619   0.980  0.00  0.00     0.034 A 
ATOM      7 Cl   UNL d   1       0.089   2.457  -1.254  0.00  0.00    -0.070 Cl
ATOM      8 Cl1  UNL d   1       1.872  -0.250  -0.952  0.00  0.00    -0.070 Cl
ENDROOT
TORSDOF 0
ENDMDL
