MODEL 1
REMARK minimizedAffinity 1.97515523
REMARK minimizedRMSD -1
REMARK  0 active torsions:
REMARK  status: ('A' for Active; 'I' for Inactive)
ROOT
ATOM      1  C   UNL d   1      -0.837   0.164   1.158  0.00  0.00     0.020 A 
ATOM      2  C1  UNL d   1      -1.264  -1.158   1.034  0.00  0.00     0.020 A 
ATOM      3  C2  UNL d   1      -0.657  -2.003   0.103  0.00  0.00     0.034 A 
ATOM      4  C3  UNL d   1       0.380  -1.528  -0.708  0.00  0.00     0.017 A 
ATOM      5  C4  UNL d   1       0.807  -0.202  -0.583  0.00  0.00     0.017 A 
ATOM      6  C5  UNL d   1       0.196   0.641   0.351  0.00  0.00     0.034 A 
ATOM      7 Cl   UNL d   1       2.081   0.456  -1.548  0.00  0.00    -0.070 Cl
ATOM      8 Cl1  UNL d   1       1.085  -2.629  -1.837  0.00  0.00    -0.070 Cl
ENDROOT
TORSDOF 0
ENDMDL
