MODEL 1
REMARK minimizedAffinity -3.28883362
REMARK minimizedRMSD -1
REMARK  0 active torsions:
REMARK  status: ('A' for Active; 'I' for Inactive)
ROOT
ATOM      1  C   UNL d   1      -0.440   2.737  -0.048  0.00  0.00     0.020 A 
ATOM      2  C1  UNL d   1      -1.060   2.687   1.200  0.00  0.00     0.020 A 
ATOM      3  C2  UNL d   1      -1.090   1.490   1.918  0.00  0.00     0.034 A 
ATOM      4  C3  UNL d   1      -0.498   0.337   1.389  0.00  0.00     0.017 A 
ATOM      5  C4  UNL d   1       0.124   0.388   0.136  0.00  0.00     0.017 A 
ATOM      6  C5  UNL d   1       0.151   1.589  -0.578  0.00  0.00     0.034 A 
ATOM      7 Cl   UNL d   1       0.876  -0.993  -0.582  0.00  0.00    -0.070 Cl
ATOM      8 Cl1  UNL d   1      -0.572  -1.109   2.331  0.00  0.00    -0.070 Cl
ENDROOT
TORSDOF 0
ENDMDL
