MODEL 1
REMARK minimizedAffinity 2.35259151
REMARK minimizedRMSD -1
REMARK  0 active torsions:
REMARK  status: ('A' for Active; 'I' for Inactive)
ROOT
ATOM      1  C   UNL d   1       0.335  -0.341  -0.533  0.00  0.00     0.020 A 
ATOM      2  C1  UNL d   1      -0.200   0.946  -0.559  0.00  0.00     0.020 A 
ATOM      3  C2  UNL d   1      -0.485   1.609   0.637  0.00  0.00     0.034 A 
ATOM      4  C3  UNL d   1      -0.235   0.985   1.864  0.00  0.00     0.017 A 
ATOM      5  C4  UNL d   1       0.302  -0.307   1.890  0.00  0.00     0.017 A 
ATOM      6  C5  UNL d   1       0.586  -0.966   0.689  0.00  0.00     0.034 A 
ATOM      7 Cl   UNL d   1       0.638  -1.142   3.365  0.00  0.00    -0.070 Cl
ATOM      8 Cl1  UNL d   1      -0.612   1.863   3.304  0.00  0.00    -0.070 Cl
ENDROOT
TORSDOF 0
ENDMDL
