MODEL 1
REMARK minimizedAffinity -2.76460791
REMARK minimizedRMSD -1
REMARK  0 active torsions:
REMARK  status: ('A' for Active; 'I' for Inactive)
ROOT
ATOM      1  C   UNL d   1       0.469  -1.535   1.519  0.00  0.00     0.020 A 
ATOM      2  C1  UNL d   1       1.100  -1.458   0.278  0.00  0.00     0.020 A 
ATOM      3  C2  UNL d   1       1.065  -0.267  -0.450  0.00  0.00     0.034 A 
ATOM      4  C3  UNL d   1       0.398   0.852   0.062  0.00  0.00     0.017 A 
ATOM      5  C4  UNL d   1      -0.235   0.773   1.308  0.00  0.00     0.017 A 
ATOM      6  C5  UNL d   1      -0.197  -0.422   2.032  0.00  0.00     0.034 A 
ATOM      7 Cl   UNL d   1      -1.079   2.111   2.005  0.00  0.00    -0.070 Cl
ATOM      8 Cl1  UNL d   1       0.395   2.293  -0.892  0.00  0.00    -0.070 Cl
ENDROOT
TORSDOF 0
ENDMDL
