MODEL 1
REMARK minimizedAffinity -4.59817648
REMARK minimizedRMSD -1
REMARK  0 active torsions:
REMARK  status: ('A' for Active; 'I' for Inactive)
ROOT
ATOM      1  C   UNL d   1       1.262   0.253  -1.058  0.00  0.00     0.020 A 
ATOM      2  C1  UNL d   1       0.633   1.434  -1.450  0.00  0.00     0.020 A 
ATOM      3  C2  UNL d   1      -0.482   1.898  -0.748  0.00  0.00     0.034 A 
ATOM      4  C3  UNL d   1      -0.970   1.180   0.350  0.00  0.00     0.017 A 
ATOM      5  C4  UNL d   1      -0.338  -0.005   0.743  0.00  0.00     0.017 A 
ATOM      6  C5  UNL d   1       0.778  -0.465   0.036  0.00  0.00     0.034 A 
ATOM      7 Cl   UNL d   1      -0.883  -0.946   2.087  0.00  0.00    -0.070 Cl
ATOM      8 Cl1  UNL d   1      -2.352   1.812   1.173  0.00  0.00    -0.070 Cl
ENDROOT
TORSDOF 0
ENDMDL
