MODEL 1
REMARK minimizedAffinity -3.72457194
REMARK minimizedRMSD -1
REMARK  0 active torsions:
REMARK  status: ('A' for Active; 'I' for Inactive)
ROOT
ATOM      1  C   UNL d   1      -1.852   1.318   1.932  0.00  0.00     0.020 A 
ATOM      2  C1  UNL d   1      -1.383   0.018   2.115  0.00  0.00     0.020 A 
ATOM      3  C2  UNL d   1      -0.550  -0.566   1.158  0.00  0.00     0.034 A 
ATOM      4  C3  UNL d   1      -0.184   0.151   0.012  0.00  0.00     0.017 A 
ATOM      5  C4  UNL d   1      -0.655   1.456  -0.171  0.00  0.00     0.017 A 
ATOM      6  C5  UNL d   1      -1.489   2.035   0.791  0.00  0.00     0.034 A 
ATOM      7 Cl   UNL d   1      -0.247   2.403  -1.558  0.00  0.00    -0.070 Cl
ATOM      8 Cl1  UNL d   1       0.849  -0.632  -1.130  0.00  0.00    -0.070 Cl
ENDROOT
TORSDOF 0
ENDMDL
