MODEL 1
REMARK minimizedAffinity -4.69816113
REMARK minimizedRMSD -1
REMARK  0 active torsions:
REMARK  status: ('A' for Active; 'I' for Inactive)
ROOT
ATOM      1  C   UNL d   1      -2.091   2.162   1.893  0.00  0.00     0.020 A 
ATOM      2  C1  UNL d   1      -1.797   0.887   2.377  0.00  0.00     0.020 A 
ATOM      3  C2  UNL d   1      -0.935   0.051   1.664  0.00  0.00     0.034 A 
ATOM      4  C3  UNL d   1      -0.364   0.488   0.463  0.00  0.00     0.017 A 
ATOM      5  C4  UNL d   1      -0.660   1.767  -0.022  0.00  0.00     0.017 A 
ATOM      6  C5  UNL d   1      -1.523   2.600   0.696  0.00  0.00     0.034 A 
ATOM      7 Cl   UNL d   1       0.006   2.376  -1.496  0.00  0.00    -0.070 Cl
ATOM      8 Cl1  UNL d   1       0.692  -0.599  -0.367  0.00  0.00    -0.070 Cl
ENDROOT
TORSDOF 0
ENDMDL
