MODEL 1
REMARK minimizedAffinity -3.54881835
REMARK minimizedRMSD -1
REMARK  0 active torsions:
REMARK  status: ('A' for Active; 'I' for Inactive)
ROOT
ATOM      1  C   UNL d   1       0.768  -3.029  -3.280  0.00  0.00     0.020 A 
ATOM      2  C1  UNL d   1      -0.440  -3.104  -2.589  0.00  0.00     0.020 A 
ATOM      3  C2  UNL d   1      -0.708  -2.209  -1.551  0.00  0.00     0.034 A 
ATOM      4  C3  UNL d   1       0.234  -1.235  -1.202  0.00  0.00     0.017 A 
ATOM      5  C4  UNL d   1       1.447  -1.160  -1.896  0.00  0.00     0.017 A 
ATOM      6  C5  UNL d   1       1.710  -2.059  -2.934  0.00  0.00     0.034 A 
ATOM      7 Cl   UNL d   1       2.658   0.015  -1.522  0.00  0.00    -0.070 Cl
ATOM      8 Cl1  UNL d   1      -0.164  -0.160   0.092  0.00  0.00    -0.070 Cl
ENDROOT
TORSDOF 0
ENDMDL
