MODEL 1
REMARK minimizedAffinity -2.30223489
REMARK minimizedRMSD -1
REMARK  0 active torsions:
REMARK  status: ('A' for Active; 'I' for Inactive)
ROOT
ATOM      1  C   UNL d   1      -0.284  -0.696   1.250  0.00  0.00     0.020 A 
ATOM      2  C1  UNL d   1       0.368  -0.738   0.019  0.00  0.00     0.020 A 
ATOM      3  C2  UNL d   1       0.332   0.371  -0.829  0.00  0.00     0.034 A 
ATOM      4  C3  UNL d   1      -0.358   1.527  -0.446  0.00  0.00     0.017 A 
ATOM      5  C4  UNL d   1      -1.013   1.569   0.790  0.00  0.00     0.017 A 
ATOM      6  C5  UNL d   1      -0.973   0.455   1.635  0.00  0.00     0.034 A 
ATOM      7 Cl   UNL d   1      -1.885   2.959   1.332  0.00  0.00    -0.070 Cl
ATOM      8 Cl1  UNL d   1      -0.362   2.862  -1.544  0.00  0.00    -0.070 Cl
ENDROOT
TORSDOF 0
ENDMDL
