MODEL 1
REMARK minimizedAffinity -3.4970839
REMARK minimizedRMSD -1
REMARK  0 active torsions:
REMARK  status: ('A' for Active; 'I' for Inactive)
ROOT
ATOM      1  C   UNL d   1      -1.606   1.666   0.178  0.00  0.00     0.020 A 
ATOM      2  C1  UNL d   1      -1.767   1.605   1.561  0.00  0.00     0.020 A 
ATOM      3  C2  UNL d   1      -1.024   0.691   2.311  0.00  0.00     0.034 A 
ATOM      4  C3  UNL d   1      -0.116  -0.165   1.678  0.00  0.00     0.017 A 
ATOM      5  C4  UNL d   1       0.046  -0.103   0.289  0.00  0.00     0.017 A 
ATOM      6  C5  UNL d   1      -0.701   0.814  -0.457  0.00  0.00     0.034 A 
ATOM      7 Cl   UNL d   1       1.147  -1.127  -0.563  0.00  0.00    -0.070 Cl
ATOM      8 Cl1  UNL d   1       0.771  -1.270   2.668  0.00  0.00    -0.070 Cl
ENDROOT
TORSDOF 0
ENDMDL
