MODEL 1
REMARK minimizedAffinity -2.33275485
REMARK minimizedRMSD -1
REMARK  0 active torsions:
REMARK  status: ('A' for Active; 'I' for Inactive)
ROOT
ATOM      1  C   UNL d   1      -1.132   1.829   2.137  0.00  0.00     0.020 A 
ATOM      2  C1  UNL d   1      -1.376   1.579   0.787  0.00  0.00     0.020 A 
ATOM      3  C2  UNL d   1      -0.782   2.382  -0.189  0.00  0.00     0.034 A 
ATOM      4  C3  UNL d   1       0.058   3.438   0.183  0.00  0.00     0.017 A 
ATOM      5  C4  UNL d   1       0.302   3.687   1.538  0.00  0.00     0.017 A 
ATOM      6  C5  UNL d   1      -0.295   2.880   2.512  0.00  0.00     0.034 A 
ATOM      7 Cl   UNL d   1       1.328   4.971   2.074  0.00  0.00    -0.070 Cl
ATOM      8 Cl1  UNL d   1       0.759   4.389  -1.078  0.00  0.00    -0.070 Cl
ENDROOT
TORSDOF 0
ENDMDL
