MODEL 1
REMARK minimizedAffinity -5.35371256
REMARK minimizedRMSD -1
REMARK  0 active torsions:
REMARK  status: ('A' for Active; 'I' for Inactive)
ROOT
ATOM      1  C   UNL d   1      -1.608   3.464   0.582  0.00  0.00     0.020 A 
ATOM      2  C1  UNL d   1      -2.046   2.288   1.189  0.00  0.00     0.020 A 
ATOM      3  C2  UNL d   1      -1.506   1.059   0.804  0.00  0.00     0.034 A 
ATOM      4  C3  UNL d   1      -0.524   1.003  -0.192  0.00  0.00     0.017 A 
ATOM      5  C4  UNL d   1      -0.084   2.184  -0.801  0.00  0.00     0.017 A 
ATOM      6  C5  UNL d   1      -0.629   3.412  -0.411  0.00  0.00     0.034 A 
ATOM      7 Cl   UNL d   1       1.124   2.195  -2.037  0.00  0.00    -0.070 Cl
ATOM      8 Cl1  UNL d   1       0.101  -0.550  -0.618  0.00  0.00    -0.070 Cl
ENDROOT
TORSDOF 0
ENDMDL
