MODEL 1
REMARK minimizedAffinity 0.404732525
REMARK minimizedRMSD -1
REMARK  0 active torsions:
REMARK  status: ('A' for Active; 'I' for Inactive)
ROOT
ATOM      1  C   UNL d   1      -0.562  -1.075   1.957  0.00  0.00     0.020 A 
ATOM      2  C1  UNL d   1      -0.476   0.288   1.678  0.00  0.00     0.020 A 
ATOM      3  C2  UNL d   1       0.240   0.729   0.564  0.00  0.00     0.034 A 
ATOM      4  C3  UNL d   1       0.873  -0.194  -0.277  0.00  0.00     0.017 A 
ATOM      5  C4  UNL d   1       0.786  -1.563   0.004  0.00  0.00     0.017 A 
ATOM      6  C5  UNL d   1       0.067  -1.999   1.121  0.00  0.00     0.034 A 
ATOM      7 Cl   UNL d   1       1.540  -2.762  -0.987  0.00  0.00    -0.070 Cl
ATOM      8 Cl1  UNL d   1       1.742   0.422  -1.638  0.00  0.00    -0.070 Cl
ENDROOT
TORSDOF 0
ENDMDL
