MODEL 1
REMARK minimizedAffinity 4.65409327
REMARK minimizedRMSD -1
REMARK  0 active torsions:
REMARK  status: ('A' for Active; 'I' for Inactive)
ROOT
ATOM      1  C   UNL d   1       1.349  -1.161   1.109  0.00  0.00     0.077 C 
ATOM      2  C1  UNL d   1       2.212  -0.751   2.264  0.00  0.00    -0.074 A 
ATOM      3  C2  UNL d   1       3.012  -1.685   2.931  0.00  0.00    -0.005 A 
ATOM      4  C3  UNL d   1       3.817  -1.287   3.998  0.00  0.00     0.006 A 
ATOM      5  C4  UNL d   1       3.831   0.046   4.409  0.00  0.00    -0.005 A 
ATOM      6  C5  UNL d   1       3.038   0.994   3.754  0.00  0.00    -0.074 A 
ATOM      7  C6  UNL d   1       3.048   2.433   4.177  0.00  0.00     0.077 C 
ATOM      8  C7  UNL d   1       2.237   0.588   2.678  0.00  0.00    -0.001 A 
ENDROOT
TORSDOF 0
ENDMDL
