MODEL 1
REMARK minimizedAffinity 4.24145746
REMARK minimizedRMSD -1
REMARK  0 active torsions:
REMARK  status: ('A' for Active; 'I' for Inactive)
ROOT
ATOM      1  C   UNL d   1      -5.255   5.999  -5.602  0.00  0.00     0.077 C 
ATOM      2  C1  UNL d   1      -4.755   5.825  -4.199  0.00  0.00    -0.074 A 
ATOM      3  C2  UNL d   1      -5.629   5.487  -3.161  0.00  0.00    -0.005 A 
ATOM      4  C3  UNL d   1      -5.148   5.319  -1.863  0.00  0.00     0.006 A 
ATOM      5  C4  UNL d   1      -3.790   5.487  -1.590  0.00  0.00    -0.005 A 
ATOM      6  C5  UNL d   1      -2.900   5.823  -2.615  0.00  0.00    -0.074 A 
ATOM      7  C6  UNL d   1      -1.436   5.997  -2.341  0.00  0.00     0.077 C 
ATOM      8  C7  UNL d   1      -3.391   5.984  -3.919  0.00  0.00    -0.001 A 
ENDROOT
TORSDOF 0
ENDMDL
