MODEL 1
REMARK minimizedAffinity 5.38201571
REMARK minimizedRMSD -1
REMARK  0 active torsions:
REMARK  status: ('A' for Active; 'I' for Inactive)
ROOT
ATOM      1  C   UNL d   1       1.074   2.960   3.119  0.00  0.00     0.077 C 
ATOM      2  C1  UNL d   1       0.686   1.746   2.329  0.00  0.00    -0.074 A 
ATOM      3  C2  UNL d   1       1.368   0.535   2.489  0.00  0.00    -0.005 A 
ATOM      4  C3  UNL d   1       0.989  -0.588   1.754  0.00  0.00     0.006 A 
ATOM      5  C4  UNL d   1      -0.074  -0.512   0.853  0.00  0.00    -0.005 A 
ATOM      6  C5  UNL d   1      -0.768   0.689   0.680  0.00  0.00    -0.074 A 
ATOM      7  C6  UNL d   1      -1.919   0.785  -0.277  0.00  0.00     0.077 C 
ATOM      8  C7  UNL d   1      -0.386   1.811   1.427  0.00  0.00    -0.001 A 
ENDROOT
TORSDOF 0
ENDMDL
