MODEL 1
REMARK minimizedAffinity 5.75433826
REMARK minimizedRMSD -1
REMARK  0 active torsions:
REMARK  status: ('A' for Active; 'I' for Inactive)
ROOT
ATOM      1  C   UNL d   1      -1.870   1.717  -0.793  0.00  0.00     0.077 C 
ATOM      2  C1  UNL d   1      -0.976   0.610  -0.318  0.00  0.00    -0.074 A 
ATOM      3  C2  UNL d   1       0.403   0.805  -0.188  0.00  0.00    -0.005 A 
ATOM      4  C3  UNL d   1       1.221  -0.230   0.264  0.00  0.00     0.006 A 
ATOM      5  C4  UNL d   1       0.669  -1.470   0.589  0.00  0.00    -0.005 A 
ATOM      6  C5  UNL d   1      -0.708  -1.684   0.466  0.00  0.00    -0.074 A 
ATOM      7  C6  UNL d   1      -1.318  -3.007   0.821  0.00  0.00     0.077 C 
ATOM      8  C7  UNL d   1      -1.524  -0.636   0.018  0.00  0.00    -0.001 A 
ENDROOT
TORSDOF 0
ENDMDL
