MODEL 1
REMARK minimizedAffinity 9.66436481
REMARK minimizedRMSD -1
REMARK  0 active torsions:
REMARK  status: ('A' for Active; 'I' for Inactive)
ROOT
ATOM      1  C   UNL d   1      -2.600  -0.689  -1.963  0.00  0.00     0.077 C 
ATOM      2  C1  UNL d   1      -2.103  -2.101  -1.882  0.00  0.00    -0.074 A 
ATOM      3  C2  UNL d   1      -2.642  -3.101  -2.697  0.00  0.00    -0.005 A 
ATOM      4  C3  UNL d   1      -2.162  -4.409  -2.617  0.00  0.00     0.006 A 
ATOM      5  C4  UNL d   1      -1.140  -4.729  -1.723  0.00  0.00    -0.005 A 
ATOM      6  C5  UNL d   1      -0.588  -3.742  -0.900  0.00  0.00    -0.074 A 
ATOM      7  C6  UNL d   1       0.518  -4.066   0.060  0.00  0.00     0.077 C 
ATOM      8  C7  UNL d   1      -1.071  -2.429  -0.991  0.00  0.00    -0.001 A 
ENDROOT
TORSDOF 0
ENDMDL
