MODEL 1
REMARK minimizedAffinity 0.538626969
REMARK minimizedRMSD -1
REMARK  0 active torsions:
REMARK  status: ('A' for Active; 'I' for Inactive)
ROOT
ATOM      1  C   UNL d   1      -0.984  -4.233  -2.722  0.00  0.00     0.077 C 
ATOM      2  C1  UNL d   1      -1.145  -3.312  -1.550  0.00  0.00    -0.074 A 
ATOM      3  C2  UNL d   1      -1.568  -3.796  -0.308  0.00  0.00    -0.005 A 
ATOM      4  C3  UNL d   1      -1.705  -2.928   0.776  0.00  0.00     0.006 A 
ATOM      5  C4  UNL d   1      -1.421  -1.570   0.629  0.00  0.00    -0.005 A 
ATOM      6  C5  UNL d   1      -0.996  -1.068  -0.605  0.00  0.00    -0.074 A 
ATOM      7  C6  UNL d   1      -0.677   0.387  -0.778  0.00  0.00     0.077 C 
ATOM      8  C7  UNL d   1      -0.854  -1.947  -1.688  0.00  0.00    -0.001 A 
ENDROOT
TORSDOF 0
ENDMDL
