MODEL 1
REMARK minimizedAffinity 4.29171896
REMARK minimizedRMSD -1
REMARK  0 active torsions:
REMARK  status: ('A' for Active; 'I' for Inactive)
ROOT
ATOM      1  C   UNL d   1      -2.002  -4.089  -3.495  0.00  0.00     0.077 C 
ATOM      2  C1  UNL d   1      -1.417  -3.295  -2.366  0.00  0.00    -0.074 A 
ATOM      3  C2  UNL d   1      -0.684  -3.919  -1.352  0.00  0.00    -0.005 A 
ATOM      4  C3  UNL d   1      -0.138  -3.165  -0.313  0.00  0.00     0.006 A 
ATOM      5  C4  UNL d   1      -0.318  -1.782  -0.278  0.00  0.00    -0.005 A 
ATOM      6  C5  UNL d   1      -1.048  -1.140  -1.284  0.00  0.00    -0.074 A 
ATOM      7  C6  UNL d   1      -1.243   0.347  -1.266  0.00  0.00     0.077 C 
ATOM      8  C7  UNL d   1      -1.588  -1.904  -2.328  0.00  0.00    -0.001 A 
ENDROOT
TORSDOF 0
ENDMDL
