MODEL 1
REMARK minimizedAffinity 27.2786465
REMARK minimizedRMSD -1
REMARK  0 active torsions:
REMARK  status: ('A' for Active; 'I' for Inactive)
ROOT
ATOM      1  C   UNL d   1       2.367  -2.014  -1.085  0.00  0.00    -0.002 A 
ATOM      2  C1  UNL d   1       2.121  -0.657  -1.247  0.00  0.00     0.010 A 
ATOM      3  C2  UNL d   1       0.891  -0.212  -1.734  0.00  0.00     0.041 A 
ATOM      4  C3  UNL d   1      -0.099  -1.161  -2.057  0.00  0.00    -0.075 A 
ATOM      5  S   UNL d   1      -1.680  -0.847  -2.668  0.00  0.00     0.015 SA
ATOM      6  C4  UNL d   1      -2.068  -2.506  -2.727  0.00  0.00     0.022 A 
ATOM      7  C5  UNL d   1      -1.027  -3.294  -2.295  0.00  0.00     0.026 A 
ATOM      8  C6  UNL d   1       0.124  -2.532  -1.901  0.00  0.00    -0.082 A 
ATOM      9  C7  UNL d   1       1.382  -2.952  -1.406  0.00  0.00     0.045 A 
ENDROOT
TORSDOF 0
ENDMDL
