MODEL 1
REMARK minimizedAffinity 22.1090279
REMARK minimizedRMSD -1
REMARK  0 active torsions:
REMARK  status: ('A' for Active; 'I' for Inactive)
ROOT
ATOM      1  C   UNL d   1       1.342  -1.871  -1.142  0.00  0.00    -0.002 A 
ATOM      2  C1  UNL d   1       0.988  -0.550  -1.376  0.00  0.00     0.010 A 
ATOM      3  C2  UNL d   1       1.210   0.034  -2.625  0.00  0.00     0.041 A 
ATOM      4  C3  UNL d   1       1.796  -0.740  -3.645  0.00  0.00    -0.075 A 
ATOM      5  S   UNL d   1       2.161  -0.237  -5.253  0.00  0.00     0.015 SA
ATOM      6  C4  UNL d   1       2.794  -1.764  -5.667  0.00  0.00     0.022 A 
ATOM      7  C5  UNL d   1       2.736  -2.649  -4.616  0.00  0.00     0.026 A 
ATOM      8  C6  UNL d   1       2.160  -2.073  -3.434  0.00  0.00    -0.082 A 
ATOM      9  C7  UNL d   1       1.923  -2.636  -2.156  0.00  0.00     0.045 A 
ENDROOT
TORSDOF 0
ENDMDL
