MODEL 1
REMARK minimizedAffinity 14.2340441
REMARK minimizedRMSD -1
REMARK  0 active torsions:
REMARK  status: ('A' for Active; 'I' for Inactive)
ROOT
ATOM      1  C   UNL d   1      -3.643   2.471   5.205  0.00  0.00    -0.002 A 
ATOM      2  C1  UNL d   1      -3.640   2.365   3.822  0.00  0.00     0.010 A 
ATOM      3  C2  UNL d   1      -3.789   1.122   3.204  0.00  0.00     0.041 A 
ATOM      4  C3  UNL d   1      -3.944  -0.024   4.009  0.00  0.00    -0.075 A 
ATOM      5  S   UNL d   1      -4.143  -1.651   3.474  0.00  0.00     0.015 SA
ATOM      6  C4  UNL d   1      -4.237  -2.243   5.069  0.00  0.00     0.022 A 
ATOM      7  C5  UNL d   1      -4.121  -1.238   6.000  0.00  0.00     0.026 A 
ATOM      8  C6  UNL d   1      -3.950   0.057   5.404  0.00  0.00    -0.082 A 
ATOM      9  C7  UNL d   1      -3.796   1.332   6.000  0.00  0.00     0.045 A 
ENDROOT
TORSDOF 0
ENDMDL
