MODEL 1
REMARK minimizedAffinity 14.5677748
REMARK minimizedRMSD -1
REMARK  0 active torsions:
REMARK  status: ('A' for Active; 'I' for Inactive)
ROOT
ATOM      1  C   UNL d   1      -3.980  -4.535  -5.999  0.00  0.00    -0.002 A 
ATOM      2  C1  UNL d   1      -3.966  -3.286  -5.394  0.00  0.00     0.010 A 
ATOM      3  C2  UNL d   1      -2.991  -2.967  -4.447  0.00  0.00     0.041 A 
ATOM      4  C3  UNL d   1      -2.019  -3.932  -4.118  0.00  0.00    -0.075 A 
ATOM      5  S   UNL d   1      -0.728  -3.763  -2.988  0.00  0.00     0.015 SA
ATOM      6  C4  UNL d   1      -0.164  -5.344  -3.283  0.00  0.00     0.022 A 
ATOM      7  C5  UNL d   1      -0.930  -5.999  -4.218  0.00  0.00     0.026 A 
ATOM      8  C6  UNL d   1      -2.012  -5.196  -4.715  0.00  0.00    -0.082 A 
ATOM      9  C7  UNL d   1      -3.015  -5.490  -5.670  0.00  0.00     0.045 A 
ENDROOT
TORSDOF 0
ENDMDL
