MODEL 1
REMARK minimizedAffinity 16.4593315
REMARK minimizedRMSD -1
REMARK  0 active torsions:
REMARK  status: ('A' for Active; 'I' for Inactive)
ROOT
ATOM      1  C   UNL d   1       2.362  -2.010  -0.638  0.00  0.00    -0.002 A 
ATOM      2  C1  UNL d   1       3.614  -2.224  -0.079  0.00  0.00     0.010 A 
ATOM      3  C2  UNL d   1       4.560  -1.198  -0.042  0.00  0.00     0.041 A 
ATOM      4  C3  UNL d   1       4.223   0.059  -0.580  0.00  0.00    -0.075 A 
ATOM      5  S   UNL d   1       5.221   1.464  -0.645  0.00  0.00     0.015 SA
ATOM      6  C4  UNL d   1       4.008   2.381  -1.416  0.00  0.00     0.022 A 
ATOM      7  C5  UNL d   1       2.864   1.649  -1.626  0.00  0.00     0.026 A 
ATOM      8  C6  UNL d   1       2.968   0.299  -1.148  0.00  0.00    -0.082 A 
ATOM      9  C7  UNL d   1       2.031  -0.762  -1.171  0.00  0.00     0.045 A 
ENDROOT
TORSDOF 0
ENDMDL
