MODEL 1
REMARK minimizedAffinity 3.83675432
REMARK minimizedRMSD -1
REMARK  0 active torsions:
REMARK  status: ('A' for Active; 'I' for Inactive)
ROOT
ATOM      1  C   UNL d   1      -4.983  -3.595  -5.997  0.00  0.00    -0.002 A 
ATOM      2  C1  UNL d   1      -4.555  -2.510  -5.244  0.00  0.00     0.010 A 
ATOM      3  C2  UNL d   1      -3.390  -2.592  -4.480  0.00  0.00     0.041 A 
ATOM      4  C3  UNL d   1      -2.654  -3.793  -4.485  0.00  0.00    -0.075 A 
ATOM      5  S   UNL d   1      -1.196  -4.122  -3.626  0.00  0.00     0.015 SA
ATOM      6  C4  UNL d   1      -1.106  -5.711  -4.238  0.00  0.00     0.022 A 
ATOM      7  C5  UNL d   1      -2.155  -5.999  -5.078  0.00  0.00     0.026 A 
ATOM      8  C6  UNL d   1      -3.064  -4.899  -5.235  0.00  0.00    -0.082 A 
ATOM      9  C7  UNL d   1      -4.251  -4.785  -5.999  0.00  0.00     0.045 A 
ENDROOT
TORSDOF 0
ENDMDL
