MODEL 1
REMARK minimizedAffinity 6.15864134
REMARK minimizedRMSD -1
REMARK  0 active torsions:
REMARK  status: ('A' for Active; 'I' for Inactive)
ROOT
ATOM      1  C   UNL d   1      -1.018  -4.578  -3.379  0.00  0.00    -0.002 A 
ATOM      2  C1  UNL d   1      -1.494  -5.844  -3.690  0.00  0.00     0.010 A 
ATOM      3  C2  UNL d   1      -2.630  -6.000  -4.486  0.00  0.00     0.041 A 
ATOM      4  C3  UNL d   1      -3.285  -4.851  -4.970  0.00  0.00    -0.075 A 
ATOM      5  S   UNL d   1      -4.694  -4.799  -5.963  0.00  0.00     0.015 SA
ATOM      6  C4  UNL d   1      -4.697  -3.095  -5.999  0.00  0.00     0.022 A 
ATOM      7  C5  UNL d   1      -3.656  -2.562  -5.276  0.00  0.00     0.026 A 
ATOM      8  C6  UNL d   1      -2.825  -3.566  -4.672  0.00  0.00    -0.082 A 
ATOM      9  C7  UNL d   1      -1.671  -3.441  -3.861  0.00  0.00     0.045 A 
ENDROOT
TORSDOF 0
ENDMDL
