MODEL 1
REMARK minimizedAffinity 10.8208733
REMARK minimizedRMSD -1
REMARK  0 active torsions:
REMARK  status: ('A' for Active; 'I' for Inactive)
ROOT
ATOM      1  C   UNL d   1      -0.570  -4.515  -2.798  0.00  0.00    -0.002 A 
ATOM      2  C1  UNL d   1      -0.685  -5.752  -3.416  0.00  0.00     0.010 A 
ATOM      3  C2  UNL d   1      -1.641  -5.964  -4.410  0.00  0.00     0.041 A 
ATOM      4  C3  UNL d   1      -2.488  -4.900  -4.779  0.00  0.00    -0.075 A 
ATOM      5  S   UNL d   1      -3.732  -4.927  -5.973  0.00  0.00     0.015 SA
ATOM      6  C4  UNL d   1      -4.140  -3.297  -5.692  0.00  0.00     0.022 A 
ATOM      7  C5  UNL d   1      -3.357  -2.730  -4.714  0.00  0.00     0.026 A 
ATOM      8  C6  UNL d   1      -2.391  -3.645  -4.173  0.00  0.00    -0.082 A 
ATOM      9  C7  UNL d   1      -1.412  -3.462  -3.167  0.00  0.00     0.045 A 
ENDROOT
TORSDOF 0
ENDMDL
