MODEL 1
REMARK minimizedAffinity 14.8446426
REMARK minimizedRMSD -1
REMARK  0 active torsions:
REMARK  status: ('A' for Active; 'I' for Inactive)
ROOT
ATOM      1  C   UNL d   1      -0.737  -0.179  -2.827  0.00  0.00    -0.002 A 
ATOM      2  C1  UNL d   1       0.431   0.118  -3.515  0.00  0.00     0.010 A 
ATOM      3  C2  UNL d   1       0.438   1.092  -4.515  0.00  0.00     0.041 A 
ATOM      4  C3  UNL d   1      -0.760   1.771  -4.814  0.00  0.00    -0.075 A 
ATOM      5  S   UNL d   1      -0.989   3.002  -5.999  0.00  0.00     0.015 SA
ATOM      6  C4  UNL d   1      -2.643   3.164  -5.619  0.00  0.00     0.022 A 
ATOM      7  C5  UNL d   1      -3.027   2.307  -4.615  0.00  0.00     0.026 A 
ATOM      8  C6  UNL d   1      -1.948   1.490  -4.135  0.00  0.00    -0.082 A 
ATOM      9  C7  UNL d   1      -1.923   0.497  -3.126  0.00  0.00     0.045 A 
ENDROOT
TORSDOF 0
ENDMDL
