MODEL 1
REMARK minimizedAffinity -2.69264364
REMARK minimizedRMSD -1
REMARK  0 active torsions:
REMARK  status: ('A' for Active; 'I' for Inactive)
ROOT
ATOM      1  C   UNL d   1      -0.722  -3.602  -3.411  0.00  0.00    -0.002 A 
ATOM      2  C1  UNL d   1      -0.545  -4.937  -3.748  0.00  0.00     0.010 A 
ATOM      3  C2  UNL d   1      -1.480  -5.597  -4.547  0.00  0.00     0.041 A 
ATOM      4  C3  UNL d   1      -2.606  -4.887  -5.008  0.00  0.00    -0.075 A 
ATOM      5  S   UNL d   1      -3.881  -5.489  -6.000  0.00  0.00     0.015 SA
ATOM      6  C4  UNL d   1      -4.690  -3.989  -6.000  0.00  0.00     0.022 A 
ATOM      7  C5  UNL d   1      -4.018  -3.040  -5.266  0.00  0.00     0.026 A 
ATOM      8  C6  UNL d   1      -2.806  -3.542  -4.683  0.00  0.00    -0.082 A 
ATOM      9  C7  UNL d   1      -1.840  -2.901  -3.870  0.00  0.00     0.045 A 
ENDROOT
TORSDOF 0
ENDMDL
