MODEL 1
REMARK minimizedAffinity 2.58120966
REMARK minimizedRMSD -1
REMARK  0 active torsions:
REMARK  status: ('A' for Active; 'I' for Inactive)
ROOT
ATOM      1  C   UNL d   1      -0.186  -3.961  -3.736  0.00  0.00    -0.002 A 
ATOM      2  C1  UNL d   1      -0.400  -5.300  -4.031  0.00  0.00     0.010 A 
ATOM      3  C2  UNL d   1      -1.542  -5.699  -4.729  0.00  0.00     0.041 A 
ATOM      4  C3  UNL d   1      -2.471  -4.720  -5.132  0.00  0.00    -0.075 A 
ATOM      5  S   UNL d   1      -3.940  -4.975  -5.999  0.00  0.00     0.015 SA
ATOM      6  C4  UNL d   1      -4.316  -3.313  -5.998  0.00  0.00     0.022 A 
ATOM      7  C5  UNL d   1      -3.356  -2.567  -5.357  0.00  0.00     0.026 A 
ATOM      8  C6  UNL d   1      -2.277  -3.366  -4.847  0.00  0.00    -0.082 A 
ATOM      9  C7  UNL d   1      -1.110  -2.993  -4.137  0.00  0.00     0.045 A 
ENDROOT
TORSDOF 0
ENDMDL
