MODEL 1
REMARK minimizedAffinity 9.51896381
REMARK minimizedRMSD -1
REMARK  0 active torsions:
REMARK  status: ('A' for Active; 'I' for Inactive)
ROOT
ATOM      1  C   UNL d   1      -4.352  -3.224  -5.998  0.00  0.00    -0.002 A 
ATOM      2  C1  UNL d   1      -3.998  -2.269  -5.056  0.00  0.00     0.010 A 
ATOM      3  C2  UNL d   1      -3.030  -2.550  -4.089  0.00  0.00     0.041 A 
ATOM      4  C3  UNL d   1      -2.417  -3.818  -4.087  0.00  0.00    -0.075 A 
ATOM      5  S   UNL d   1      -1.206  -4.385  -2.999  0.00  0.00     0.015 SA
ATOM      6  C4  UNL d   1      -1.129  -5.908  -3.760  0.00  0.00     0.022 A 
ATOM      7  C5  UNL d   1      -2.000  -5.999  -4.820  0.00  0.00     0.026 A 
ATOM      8  C6  UNL d   1      -2.757  -4.796  -5.026  0.00  0.00    -0.082 A 
ATOM      9  C7  UNL d   1      -3.742  -4.481  -5.993  0.00  0.00     0.045 A 
ENDROOT
TORSDOF 0
ENDMDL
