MODEL 1
REMARK minimizedAffinity 3.93698406
REMARK minimizedRMSD -1
REMARK  2 active torsions:
REMARK  status: ('A' for Active; 'I' for Inactive)
REMARK    1  A    between atoms: C2'_3  and  C1'_4 
REMARK    2  A    between atoms: C1'_4  and  C1_5 
ROOT
ATOM      1  C1  I4B d   1      -2.499   1.176  -1.057  0.00  0.00    -0.075 A 
ATOM      2  C2  I4B d   1      -3.625   1.957  -0.970  0.00  0.00     0.003 A 
ATOM      3  C3  I4B d   1      -4.291   2.382  -2.146  0.00  0.00     0.002 A 
ATOM      4  C4  I4B d   1      -3.772   2.047  -3.379  0.00  0.00    -0.004 A 
ATOM      5  C5  I4B d   1      -2.644   1.236  -3.466  0.00  0.00     0.002 A 
ATOM      6  C6  I4B d   1      -2.010   0.787  -2.298  0.00  0.00     0.003 A 
ENDROOT
BRANCH   1   7
ATOM      7  C1' I4B d   1      -1.802   0.773   0.203  0.00  0.00     0.060 C 
BRANCH   7   8
ATOM      8  C2' I4B d   1      -0.500   0.100  -0.178  0.00  0.00    -0.013 C 
ATOM      9  C4' I4B d   1       0.686   0.926   0.246  0.00  0.00     0.013 C 
ATOM     10  C3' I4B d   1      -0.474  -1.255   0.464  0.00  0.00     0.013 C 
ENDBRANCH   7   8
ENDBRANCH   1   7
TORSDOF 2
ENDMDL
