MODEL 1
REMARK minimizedAffinity -5.16821527
REMARK minimizedRMSD -1
REMARK  2 active torsions:
REMARK  status: ('A' for Active; 'I' for Inactive)
REMARK    1  A    between atoms: C2'_3  and  C1'_4 
REMARK    2  A    between atoms: C1'_4  and  C1_5 
ROOT
ATOM      1  C1  I4B d   1       1.742  -0.682   0.933  0.00  0.00    -0.075 A 
ATOM      2  C2  I4B d   1       1.188  -1.718   1.644  0.00  0.00     0.003 A 
ATOM      3  C3  I4B d   1       1.897  -2.301   2.722  0.00  0.00     0.002 A 
ATOM      4  C4  I4B d   1       3.167  -1.853   3.022  0.00  0.00    -0.004 A 
ATOM      5  C5  I4B d   1       3.717  -0.788   2.315  0.00  0.00     0.002 A 
ATOM      6  C6  I4B d   1       2.995  -0.190   1.272  0.00  0.00     0.003 A 
ENDROOT
BRANCH   1   7
ATOM      7  C1' I4B d   1       0.980  -0.111  -0.221  0.00  0.00     0.060 C 
BRANCH   7   8
ATOM      8  C2' I4B d   1      -0.216   0.636   0.333  0.00  0.00    -0.013 C 
ATOM      9  C4' I4B d   1       0.001   2.125   0.286  0.00  0.00     0.013 C 
ATOM     10  C3' I4B d   1      -1.421   0.239  -0.468  0.00  0.00     0.013 C 
ENDBRANCH   7   8
ENDBRANCH   1   7
TORSDOF 2
ENDMDL
