MODEL 1
REMARK minimizedAffinity -5.99800396
REMARK minimizedRMSD -1
REMARK  1 active torsions:
REMARK  status: ('A' for Active; 'I' for Inactive)
REMARK    1  A    between atoms: C1_2  and  C2_3 
ROOT
ATOM      1  C2  UNL d   1       0.065  -0.615   0.755  0.00  0.00    -0.076 A 
ATOM      2  C3  UNL d   1      -0.848  -0.570   1.822  0.00  0.00     0.004 A 
ATOM      3  C4  UNL d   1      -0.768  -1.482   2.873  0.00  0.00    -0.003 A 
ATOM      4  C5  UNL d   1       0.227  -2.453   2.875  0.00  0.00     0.000 A 
ATOM      5  C6  UNL d   1       1.153  -2.500   1.833  0.00  0.00     0.000 A 
ATOM      6  C7  UNL d   1       1.096  -1.578   0.774  0.00  0.00    -0.073 A 
ATOM      7  C8  UNL d   1       2.117  -1.679  -0.327  0.00  0.00     0.078 C 
ENDROOT
BRANCH   1   8
ATOM      8  C1  UNL d   1      -0.087   0.383  -0.371  0.00  0.00     0.053 C 
ATOM      9  C   UNL d   1      -1.345   1.227  -0.235  0.00  0.00     0.018 C 
ENDBRANCH   1   8
TORSDOF 1
ENDMDL
