MODEL 1
REMARK minimizedAffinity -1.0317049
REMARK minimizedRMSD -1
REMARK  1 active torsions:
REMARK  status: ('A' for Active; 'I' for Inactive)
REMARK    1  A    between atoms: C1_2  and  C2_3 
ROOT
ATOM      1  C2  UNL d   1      -0.819   0.952  -0.848  0.00  0.00    -0.076 A 
ATOM      2  C3  UNL d   1      -0.681   1.035  -2.244  0.00  0.00     0.004 A 
ATOM      3  C4  UNL d   1      -1.647   1.669  -3.024  0.00  0.00    -0.003 A 
ATOM      4  C5  UNL d   1      -2.767   2.231  -2.419  0.00  0.00     0.000 A 
ATOM      5  C6  UNL d   1      -2.911   2.173  -1.034  0.00  0.00     0.000 A 
ATOM      6  C7  UNL d   1      -1.938   1.552  -0.232  0.00  0.00    -0.073 A 
ATOM      7  C8  UNL d   1      -2.147   1.514   1.257  0.00  0.00     0.078 C 
ENDROOT
BRANCH   1   8
ATOM      8  C1  UNL d   1       0.248   0.229  -0.057  0.00  0.00     0.053 C 
ATOM      9  C   UNL d   1       1.509  -0.019  -0.870  0.00  0.00     0.018 C 
ENDBRANCH   1   8
TORSDOF 1
ENDMDL
