MODEL 1
REMARK minimizedAffinity -3.25228143
REMARK minimizedRMSD -1
REMARK  1 active torsions:
REMARK  status: ('A' for Active; 'I' for Inactive)
REMARK    1  A    between atoms: C1_2  and  C2_3 
ROOT
ATOM      1  C2  UNL d   1       0.210   0.326  -0.056  0.00  0.00    -0.076 A 
ATOM      2  C3  UNL d   1      -0.626  -0.422   0.792  0.00  0.00     0.004 A 
ATOM      3  C4  UNL d   1      -0.147  -1.545   1.463  0.00  0.00    -0.003 A 
ATOM      4  C5  UNL d   1       1.177  -1.939   1.299  0.00  0.00     0.000 A 
ATOM      5  C6  UNL d   1       2.025  -1.198   0.476  0.00  0.00     0.000 A 
ATOM      6  C7  UNL d   1       1.562  -0.054  -0.195  0.00  0.00    -0.073 A 
ATOM      7  C8  UNL d   1       2.519   0.704  -1.075  0.00  0.00     0.078 C 
ENDROOT
BRANCH   1   8
ATOM      8  C1  UNL d   1      -0.373   1.519  -0.779  0.00  0.00     0.053 C 
ATOM      9  C   UNL d   1      -1.584   1.154  -1.624  0.00  0.00     0.018 C 
ENDBRANCH   1   8
TORSDOF 1
ENDMDL
