MODEL 1
REMARK minimizedAffinity -0.808179438
REMARK minimizedRMSD -1
REMARK  1 active torsions:
REMARK  status: ('A' for Active; 'I' for Inactive)
REMARK    1  A    between atoms: C1_2  and  C2_3 
ROOT
ATOM      1  C2  UNL d   1      -0.369  -0.094   1.057  0.00  0.00    -0.076 A 
ATOM      2  C3  UNL d   1       0.558  -0.965   1.654  0.00  0.00     0.004 A 
ATOM      3  C4  UNL d   1       1.779  -1.244   1.042  0.00  0.00    -0.003 A 
ATOM      4  C5  UNL d   1       2.093  -0.654  -0.177  0.00  0.00     0.000 A 
ATOM      5  C6  UNL d   1       1.193   0.227  -0.776  0.00  0.00     0.000 A 
ATOM      6  C7  UNL d   1      -0.035   0.531  -0.164  0.00  0.00    -0.073 A 
ATOM      7  C8  UNL d   1      -0.971   1.483  -0.857  0.00  0.00     0.078 C 
ENDROOT
BRANCH   1   8
ATOM      8  C1  UNL d   1      -1.688   0.149   1.754  0.00  0.00     0.053 C 
ATOM      9  C   UNL d   1      -1.858  -0.711   2.997  0.00  0.00     0.018 C 
ENDBRANCH   1   8
TORSDOF 1
ENDMDL
