MODEL 1
REMARK minimizedAffinity -4.44796658
REMARK minimizedRMSD -1
REMARK  1 active torsions:
REMARK  status: ('A' for Active; 'I' for Inactive)
REMARK    1  A    between atoms: C1_2  and  C2_3 
ROOT
ATOM      1  C2  UNL d   1      -0.041  -0.474   1.047  0.00  0.00    -0.076 A 
ATOM      2  C3  UNL d   1      -1.085  -0.710   1.959  0.00  0.00     0.004 A 
ATOM      3  C4  UNL d   1      -0.894  -1.528   3.071  0.00  0.00    -0.003 A 
ATOM      4  C5  UNL d   1       0.343  -2.123   3.290  0.00  0.00     0.000 A 
ATOM      5  C6  UNL d   1       1.395  -1.886   2.406  0.00  0.00     0.000 A 
ATOM      6  C7  UNL d   1       1.224  -1.051   1.288  0.00  0.00    -0.073 A 
ATOM      7  C8  UNL d   1       2.391  -0.835   0.364  0.00  0.00     0.078 C 
ENDROOT
BRANCH   1   8
ATOM      8  C1  UNL d   1      -0.315   0.400  -0.156  0.00  0.00     0.053 C 
ATOM      9  C   UNL d   1      -0.592   1.846   0.225  0.00  0.00     0.018 C 
ENDBRANCH   1   8
TORSDOF 1
ENDMDL
