MODEL 1
REMARK minimizedAffinity -4.93429184
REMARK minimizedRMSD -1
REMARK  1 active torsions:
REMARK  status: ('A' for Active; 'I' for Inactive)
REMARK    1  A    between atoms: C1_2  and  C2_3 
ROOT
ATOM      1  C2  UNL d   1      -1.111   1.084  -0.101  0.00  0.00    -0.076 A 
ATOM      2  C3  UNL d   1      -2.231   1.223   0.736  0.00  0.00     0.004 A 
ATOM      3  C4  UNL d   1      -2.405   0.397   1.845  0.00  0.00    -0.003 A 
ATOM      4  C5  UNL d   1      -1.461  -0.583   2.135  0.00  0.00     0.000 A 
ATOM      5  C6  UNL d   1      -0.335  -0.723   1.325  0.00  0.00     0.000 A 
ATOM      6  C7  UNL d   1      -0.136   0.113   0.213  0.00  0.00    -0.073 A 
ATOM      7  C8  UNL d   1       1.094  -0.087  -0.630  0.00  0.00     0.078 C 
ENDROOT
BRANCH   1   8
ATOM      8  C1  UNL d   1      -0.989   1.991  -1.305  0.00  0.00     0.053 C 
ATOM      9  C   UNL d   1      -2.293   2.110  -2.078  0.00  0.00     0.018 C 
ENDBRANCH   1   8
TORSDOF 1
ENDMDL
