MODEL 1
REMARK minimizedAffinity -4.6131711
REMARK minimizedRMSD -1
REMARK  1 active torsions:
REMARK  status: ('A' for Active; 'I' for Inactive)
REMARK    1  A    between atoms: C1_2  and  C2_3 
ROOT
ATOM      1  C2  UNL d   1      -0.030   0.284   0.387  0.00  0.00    -0.076 A 
ATOM      2  C3  UNL d   1       1.072   0.177  -0.479  0.00  0.00     0.004 A 
ATOM      3  C4  UNL d   1       2.059  -0.785  -0.269  0.00  0.00    -0.003 A 
ATOM      4  C5  UNL d   1       1.959  -1.656   0.811  0.00  0.00     0.000 A 
ATOM      5  C6  UNL d   1       0.864  -1.575   1.670  0.00  0.00     0.000 A 
ATOM      6  C7  UNL d   1      -0.148  -0.622   1.463  0.00  0.00    -0.073 A 
ATOM      7  C8  UNL d   1      -1.304  -0.576   2.424  0.00  0.00     0.078 C 
ENDROOT
BRANCH   1   8
ATOM      8  C1  UNL d   1      -1.055   1.364   0.124  0.00  0.00     0.053 C 
ATOM      9  C   UNL d   1      -1.112   1.770  -1.340  0.00  0.00     0.018 C 
ENDBRANCH   1   8
TORSDOF 1
ENDMDL
