MODEL 1
REMARK minimizedAffinity -1.75800061
REMARK minimizedRMSD -1
REMARK  1 active torsions:
REMARK  status: ('A' for Active; 'I' for Inactive)
REMARK    1  A    between atoms: C1_2  and  C2_3 
ROOT
ATOM      1  C2  UNL d   1      -0.946   2.767  -3.619  0.00  0.00    -0.076 A 
ATOM      2  C3  UNL d   1      -0.148   2.487  -2.497  0.00  0.00     0.004 A 
ATOM      3  C4  UNL d   1      -0.634   1.708  -1.448  0.00  0.00    -0.003 A 
ATOM      4  C5  UNL d   1      -1.925   1.196  -1.505  0.00  0.00     0.000 A 
ATOM      5  C6  UNL d   1      -2.725   1.450  -2.619  0.00  0.00     0.000 A 
ATOM      6  C7  UNL d   1      -2.245   2.219  -3.692  0.00  0.00    -0.073 A 
ATOM      7  C8  UNL d   1      -3.152   2.466  -4.866  0.00  0.00     0.078 C 
ENDROOT
BRANCH   1   8
ATOM      8  C1  UNL d   1      -0.375   3.640  -4.714  0.00  0.00     0.053 C 
ATOM      9  C   UNL d   1       0.309   4.884  -4.169  0.00  0.00     0.018 C 
ENDBRANCH   1   8
TORSDOF 1
ENDMDL
