MODEL 1
REMARK minimizedAffinity 2.33257103
REMARK minimizedRMSD -1
REMARK  1 active torsions:
REMARK  status: ('A' for Active; 'I' for Inactive)
REMARK    1  A    between atoms: C1_2  and  C2_3 
ROOT
ATOM      1  C2  UNL d   1       0.096  -0.301   0.799  0.00  0.00    -0.076 A 
ATOM      2  C3  UNL d   1      -1.241  -0.088   1.177  0.00  0.00     0.004 A 
ATOM      3  C4  UNL d   1      -1.759  -0.662   2.336  0.00  0.00    -0.003 A 
ATOM      4  C5  UNL d   1      -0.948  -1.458   3.138  0.00  0.00     0.000 A 
ATOM      5  C6  UNL d   1       0.386  -1.666   2.788  0.00  0.00     0.000 A 
ATOM      6  C7  UNL d   1       0.928  -1.081   1.631  0.00  0.00    -0.073 A 
ATOM      7  C8  UNL d   1       2.372  -1.343   1.298  0.00  0.00     0.078 C 
ENDROOT
BRANCH   1   8
ATOM      8  C1  UNL d   1       0.595   0.325  -0.484  0.00  0.00     0.053 C 
ATOM      9  C   UNL d   1      -0.250  -0.061  -1.688  0.00  0.00     0.018 C 
ENDBRANCH   1   8
TORSDOF 1
ENDMDL
