MODEL 1
REMARK minimizedAffinity -0.455147862
REMARK minimizedRMSD -1
REMARK  1 active torsions:
REMARK  status: ('A' for Active; 'I' for Inactive)
REMARK    1  A    between atoms: C1_2  and  C2_3 
ROOT
ATOM      1  C2  UNL d   1       0.046  -0.084   0.554  0.00  0.00    -0.076 A 
ATOM      2  C3  UNL d   1       0.224   1.249   0.144  0.00  0.00     0.004 A 
ATOM      3  C4  UNL d   1       1.480   1.722  -0.233  0.00  0.00    -0.003 A 
ATOM      4  C5  UNL d   1       2.578   0.869  -0.209  0.00  0.00     0.000 A 
ATOM      5  C6  UNL d   1       2.416  -0.461   0.178  0.00  0.00     0.000 A 
ATOM      6  C7  UNL d   1       1.154  -0.958   0.546  0.00  0.00    -0.073 A 
ATOM      7  C8  UNL d   1       1.039  -2.399   0.960  0.00  0.00     0.078 C 
ENDROOT
BRANCH   1   8
ATOM      8  C1  UNL d   1      -1.334  -0.533   0.979  0.00  0.00     0.053 C 
ATOM      9  C   UNL d   1      -2.412  -0.113  -0.008  0.00  0.00     0.018 C 
ENDBRANCH   1   8
TORSDOF 1
ENDMDL
