MODEL 1
REMARK minimizedAffinity 11.7270346
REMARK minimizedRMSD -1
REMARK  1 active torsions:
REMARK  status: ('A' for Active; 'I' for Inactive)
REMARK    1  A    between atoms: C3_4  and  O_7 
ROOT
ATOM      1  C   UNL d   1       6.000  -2.467  -4.447  0.00  0.00    -0.033 A 
ATOM      2  C1  UNL d   1       5.496  -2.266  -5.734  0.00  0.00     0.039 A 
ATOM      3  C2  UNL d   1       4.117  -2.247  -5.951  0.00  0.00    -0.080 A 
ATOM      4  C3  UNL d   1       3.254  -2.430  -4.874  0.00  0.00     0.150 A 
ATOM      5  C4  UNL d   1       3.748  -2.627  -3.589  0.00  0.00    -0.007 A 
ATOM      6  C5  UNL d   1       5.126  -2.646  -3.375  0.00  0.00     0.039 A 
ENDROOT
BRANCH   4   7
ATOM      7  O   UNL d   1       1.900  -2.424  -5.038  0.00  0.00    -0.526 OA
ATOM      8  H5  UNL d   1       1.705  -2.307  -5.982  0.00  0.00     0.418 HD
ENDBRANCH   4   7
TORSDOF 1
ENDMDL
