MODEL 1
REMARK minimizedAffinity 4.41496944
REMARK minimizedRMSD -1
REMARK  1 active torsions:
REMARK  status: ('A' for Active; 'I' for Inactive)
REMARK    1  A    between atoms: C3_4  and  O_7 
ROOT
ATOM      1  C   UNL d   1      -0.462   0.495   1.892  0.00  0.00    -0.033 A 
ATOM      2  C1  UNL d   1       0.478   0.896   2.843  0.00  0.00     0.039 A 
ATOM      3  C2  UNL d   1       0.914  -0.002   3.819  0.00  0.00    -0.080 A 
ATOM      4  C3  UNL d   1       0.402  -1.297   3.833  0.00  0.00     0.150 A 
ATOM      5  C4  UNL d   1      -0.532  -1.705   2.887  0.00  0.00    -0.007 A 
ATOM      6  C5  UNL d   1      -0.967  -0.806   1.913  0.00  0.00     0.039 A 
ENDROOT
BRANCH   4   7
ATOM      7  O   UNL d   1       0.793  -2.208   4.769  0.00  0.00    -0.526 OA
ATOM      8  H5  UNL d   1       1.420  -1.777   5.374  0.00  0.00     0.418 HD
ENDBRANCH   4   7
TORSDOF 1
ENDMDL
