MODEL 1
REMARK minimizedAffinity 9.79900932
REMARK minimizedRMSD -1
REMARK  1 active torsions:
REMARK  status: ('A' for Active; 'I' for Inactive)
REMARK    1  A    between atoms: C3_4  and  O_7 
ROOT
ATOM      1  C   UNL d   1       4.193  -0.388  -5.465  0.00  0.00    -0.033 A 
ATOM      2  C1  UNL d   1       3.456   0.666  -4.922  0.00  0.00     0.039 A 
ATOM      3  C2  UNL d   1       3.992   1.956  -4.900  0.00  0.00    -0.080 A 
ATOM      4  C3  UNL d   1       5.262   2.177  -5.424  0.00  0.00     0.150 A 
ATOM      5  C4  UNL d   1       6.000   1.132  -5.971  0.00  0.00    -0.007 A 
ATOM      6  C5  UNL d   1       5.464  -0.155  -5.991  0.00  0.00     0.039 A 
ENDROOT
BRANCH   4   7
ATOM      7  O   UNL d   1       5.828   3.417  -5.421  0.00  0.00    -0.526 OA
ATOM      8  H5  UNL d   1       5.215   4.034  -4.987  0.00  0.00     0.418 HD
ENDBRANCH   4   7
TORSDOF 1
ENDMDL
