MODEL 1
REMARK minimizedAffinity 11.1289577
REMARK minimizedRMSD -1
REMARK  1 active torsions:
REMARK  status: ('A' for Active; 'I' for Inactive)
REMARK    1  A    between atoms: C3_4  and  O_7 
ROOT
ATOM      1  C   UNL d   1       0.356   0.701   2.442  0.00  0.00    -0.033 A 
ATOM      2  C1  UNL d   1      -0.718   1.529   2.110  0.00  0.00     0.039 A 
ATOM      3  C2  UNL d   1      -1.822   1.006   1.434  0.00  0.00    -0.080 A 
ATOM      4  C3  UNL d   1      -1.840  -0.345   1.097  0.00  0.00     0.150 A 
ATOM      5  C4  UNL d   1      -0.775  -1.176   1.428  0.00  0.00    -0.007 A 
ATOM      6  C5  UNL d   1       0.327  -0.652   2.102  0.00  0.00     0.039 A 
ENDROOT
BRANCH   4   7
ATOM      7  O   UNL d   1      -2.894  -0.900   0.433  0.00  0.00    -0.526 OA
ATOM      8  H5  UNL d   1      -3.542  -0.200   0.245  0.00  0.00     0.418 HD
ENDBRANCH   4   7
TORSDOF 1
ENDMDL
