MODEL 1
REMARK minimizedAffinity 6.11236191
REMARK minimizedRMSD -1
REMARK  1 active torsions:
REMARK  status: ('A' for Active; 'I' for Inactive)
REMARK    1  A    between atoms: C3_4  and  O_7 
ROOT
ATOM      1  C   UNL d   1      -0.202   0.416   2.712  0.00  0.00    -0.033 A 
ATOM      2  C1  UNL d   1       0.780   0.130   3.662  0.00  0.00     0.039 A 
ATOM      3  C2  UNL d   1       1.030   1.029   4.701  0.00  0.00    -0.080 A 
ATOM      4  C3  UNL d   1       0.293   2.207   4.778  0.00  0.00     0.150 A 
ATOM      5  C4  UNL d   1      -0.690   2.496   3.837  0.00  0.00    -0.007 A 
ATOM      6  C5  UNL d   1      -0.938   1.598   2.800  0.00  0.00     0.039 A 
ENDROOT
BRANCH   4   7
ATOM      7  O   UNL d   1       0.505   3.117   5.771  0.00  0.00    -0.526 OA
ATOM      8  H5  UNL d   1       1.232   2.798   6.331  0.00  0.00     0.418 HD
ENDBRANCH   4   7
TORSDOF 1
ENDMDL
