MODEL 1
REMARK minimizedAffinity 7.20083714
REMARK minimizedRMSD -1
REMARK  1 active torsions:
REMARK  status: ('A' for Active; 'I' for Inactive)
REMARK    1  A    between atoms: C3_4  and  O_7 
ROOT
ATOM      1  C   UNL d   1       0.032   1.097   2.685  0.00  0.00    -0.033 A 
ATOM      2  C1  UNL d   1      -0.379  -0.080   2.056  0.00  0.00     0.039 A 
ATOM      3  C2  UNL d   1       0.046  -1.318   2.542  0.00  0.00    -0.080 A 
ATOM      4  C3  UNL d   1       0.879  -1.365   3.657  0.00  0.00     0.150 A 
ATOM      5  C4  UNL d   1       1.289  -0.196   4.291  0.00  0.00    -0.007 A 
ATOM      6  C5  UNL d   1       0.864   1.039   3.803  0.00  0.00     0.039 A 
ENDROOT
BRANCH   4   7
ATOM      7  O   UNL d   1       1.323  -2.549   4.165  0.00  0.00    -0.526 OA
ATOM      8  H5  UNL d   1       0.983  -3.270   3.608  0.00  0.00     0.418 HD
ENDBRANCH   4   7
TORSDOF 1
ENDMDL
