MODEL 1
REMARK minimizedAffinity 5.1812911
REMARK minimizedRMSD -1
REMARK  1 active torsions:
REMARK  status: ('A' for Active; 'I' for Inactive)
REMARK    1  A    between atoms: C3_4  and  O_7 
ROOT
ATOM      1  C   UNL d   1      -1.241   1.188   2.559  0.00  0.00    -0.033 A 
ATOM      2  C1  UNL d   1      -1.930  -0.021   2.446  0.00  0.00     0.039 A 
ATOM      3  C2  UNL d   1      -1.348  -1.204   2.905  0.00  0.00    -0.080 A 
ATOM      4  C3  UNL d   1      -0.079  -1.165   3.476  0.00  0.00     0.150 A 
ATOM      5  C4  UNL d   1       0.612   0.037   3.596  0.00  0.00    -0.007 A 
ATOM      6  C5  UNL d   1       0.029   1.217   3.136  0.00  0.00     0.039 A 
ENDROOT
BRANCH   4   7
ATOM      7  O   UNL d   1       0.532  -2.294   3.934  0.00  0.00    -0.526 OA
ATOM      8  H5  UNL d   1      -0.051  -3.052   3.760  0.00  0.00     0.418 HD
ENDBRANCH   4   7
TORSDOF 1
ENDMDL
