MODEL 1
REMARK minimizedAffinity 1.71103692
REMARK minimizedRMSD -1
REMARK  0 active torsions:
REMARK  status: ('A' for Active; 'I' for Inactive)
ROOT
ATOM      1  C   UNL d   1       1.006  -3.444  -3.485  0.00  0.00    -0.002 A 
ATOM      2  C1  UNL d   1       0.920  -2.106  -3.842  0.00  0.00     0.010 A 
ATOM      3  C2  UNL d   1       0.386  -1.167  -2.956  0.00  0.00     0.041 A 
ATOM      4  C3  UNL d   1      -0.062  -1.600  -1.693  0.00  0.00    -0.075 A 
ATOM      5  S   UNL d   1      -0.750  -0.630  -0.445  0.00  0.00     0.015 SA
ATOM      6  C4  UNL d   1      -0.945  -1.968   0.592  0.00  0.00     0.022 A 
ATOM      7  C5  UNL d   1      -0.501  -3.135   0.016  0.00  0.00     0.026 A 
ATOM      8  C6  UNL d   1       0.016  -2.942  -1.310  0.00  0.00    -0.082 A 
ATOM      9  C7  UNL d   1       0.561  -3.870  -2.230  0.00  0.00     0.045 A 
ENDROOT
TORSDOF 0
ENDMDL
