MODEL 1
REMARK minimizedAffinity -1.35219312
REMARK minimizedRMSD -1
REMARK  0 active torsions:
REMARK  status: ('A' for Active; 'I' for Inactive)
ROOT
ATOM      1  C   UNL d   1      -0.158  -3.260   2.230  0.00  0.00    -0.002 A 
ATOM      2  C1  UNL d   1      -0.724  -1.992   2.250  0.00  0.00     0.010 A 
ATOM      3  C2  UNL d   1      -0.797  -1.229   1.084  0.00  0.00     0.041 A 
ATOM      4  C3  UNL d   1      -0.289  -1.766  -0.115  0.00  0.00    -0.075 A 
ATOM      5  S   UNL d   1      -0.271  -1.013  -1.666  0.00  0.00     0.015 SA
ATOM      6  C4  UNL d   1       0.486  -2.356  -2.392  0.00  0.00     0.022 A 
ATOM      7  C5  UNL d   1       0.727  -3.363  -1.488  0.00  0.00     0.026 A 
ATOM      8  C6  UNL d   1       0.284  -3.040  -0.161  0.00  0.00    -0.082 A 
ATOM      9  C7  UNL d   1       0.344  -3.789   1.039  0.00  0.00     0.045 A 
ENDROOT
TORSDOF 0
ENDMDL
