MODEL 1
REMARK minimizedAffinity 7.56600761
REMARK minimizedRMSD -1
REMARK  0 active torsions:
REMARK  status: ('A' for Active; 'I' for Inactive)
ROOT
ATOM      1  C   UNL d   1       2.665   1.073  -1.122  0.00  0.00    -0.002 A 
ATOM      2  C1  UNL d   1       1.944   1.537  -2.214  0.00  0.00     0.010 A 
ATOM      3  C2  UNL d   1       0.939   0.756  -2.786  0.00  0.00     0.041 A 
ATOM      4  C3  UNL d   1       0.665  -0.512  -2.236  0.00  0.00    -0.075 A 
ATOM      5  S   UNL d   1      -0.522  -1.643  -2.771  0.00  0.00     0.015 SA
ATOM      6  C4  UNL d   1      -0.101  -2.769  -1.562  0.00  0.00     0.022 A 
ATOM      7  C5  UNL d   1       0.918  -2.310  -0.762  0.00  0.00     0.026 A 
ATOM      8  C6  UNL d   1       1.376  -1.001  -1.137  0.00  0.00    -0.082 A 
ATOM      9  C7  UNL d   1       2.390  -0.186  -0.580  0.00  0.00     0.045 A 
ENDROOT
TORSDOF 0
ENDMDL
