MODEL 1
REMARK minimizedAffinity 13.1208448
REMARK minimizedRMSD -1
REMARK  0 active torsions:
REMARK  status: ('A' for Active; 'I' for Inactive)
ROOT
ATOM      1  C   UNL d   1      -3.884   5.491  -0.723  0.00  0.00    -0.002 A 
ATOM      2  C1  UNL d   1      -3.000   5.844   0.287  0.00  0.00     0.010 A 
ATOM      3  C2  UNL d   1      -2.213   4.875   0.913  0.00  0.00     0.041 A 
ATOM      4  C3  UNL d   1      -2.331   3.532   0.503  0.00  0.00    -0.075 A 
ATOM      5  S   UNL d   1      -1.468   2.176   1.126  0.00  0.00     0.015 SA
ATOM      6  C4  UNL d   1      -2.253   1.096   0.066  0.00  0.00     0.022 A 
ATOM      7  C5  UNL d   1      -3.154   1.737  -0.750  0.00  0.00     0.026 A 
ATOM      8  C6  UNL d   1      -3.213   3.152  -0.512  0.00  0.00    -0.082 A 
ATOM      9  C7  UNL d   1      -3.998   4.158  -1.127  0.00  0.00     0.045 A 
ENDROOT
TORSDOF 0
ENDMDL
