MODEL 1
REMARK minimizedAffinity 6.05893326
REMARK minimizedRMSD -1
REMARK  0 active torsions:
REMARK  status: ('A' for Active; 'I' for Inactive)
ROOT
ATOM      1  C   UNL d   1       1.246   0.082  -2.837  0.00  0.00    -0.002 A 
ATOM      2  C1  UNL d   1       1.062   0.635  -1.578  0.00  0.00     0.010 A 
ATOM      3  C2  UNL d   1       0.566  -0.139  -0.527  0.00  0.00     0.041 A 
ATOM      4  C3  UNL d   1       0.257  -1.493  -0.766  0.00  0.00    -0.075 A 
ATOM      5  S   UNL d   1      -0.361  -2.633   0.370  0.00  0.00     0.015 SA
ATOM      6  C4  UNL d   1      -0.395  -3.882  -0.789  0.00  0.00     0.022 A 
ATOM      7  C5  UNL d   1       0.052  -3.457  -2.018  0.00  0.00     0.026 A 
ATOM      8  C6  UNL d   1       0.435  -2.073  -2.025  0.00  0.00    -0.082 A 
ATOM      9  C7  UNL d   1       0.939  -1.261  -3.069  0.00  0.00     0.045 A 
ENDROOT
TORSDOF 0
ENDMDL
