MODEL 1
REMARK minimizedAffinity 11.4243526
REMARK minimizedRMSD -1
REMARK  0 active torsions:
REMARK  status: ('A' for Active; 'I' for Inactive)
ROOT
ATOM      1  C   UNL d   1      -0.221  -2.418  -2.148  0.00  0.00    -0.002 A 
ATOM      2  C1  UNL d   1       0.381  -2.375  -3.397  0.00  0.00     0.010 A 
ATOM      3  C2  UNL d   1       1.338  -1.402  -3.691  0.00  0.00     0.041 A 
ATOM      4  C3  UNL d   1       1.684  -0.464  -2.699  0.00  0.00    -0.075 A 
ATOM      5  S   UNL d   1       2.830   0.817  -2.833  0.00  0.00     0.015 SA
ATOM      6  C4  UNL d   1       2.548   1.337  -1.234  0.00  0.00     0.022 A 
ATOM      7  C5  UNL d   1       1.605   0.563  -0.600  0.00  0.00     0.026 A 
ATOM      8  C6  UNL d   1       1.092  -0.488  -1.433  0.00  0.00    -0.082 A 
ATOM      9  C7  UNL d   1       0.125  -1.486  -1.166  0.00  0.00     0.045 A 
ENDROOT
TORSDOF 0
ENDMDL
