MODEL 1
REMARK minimizedAffinity 10.9000559
REMARK minimizedRMSD -1
REMARK  0 active torsions:
REMARK  status: ('A' for Active; 'I' for Inactive)
ROOT
ATOM      1  C   UNL d   1       0.733  -2.575  -3.177  0.00  0.00    -0.002 A 
ATOM      2  C1  UNL d   1       0.262  -2.516  -1.873  0.00  0.00     0.010 A 
ATOM      3  C2  UNL d   1       0.717  -1.528  -0.997  0.00  0.00     0.041 A 
ATOM      4  C3  UNL d   1       1.661  -0.590  -1.459  0.00  0.00    -0.075 A 
ATOM      5  S   UNL d   1       2.359   0.709  -0.566  0.00  0.00     0.015 SA
ATOM      6  C4  UNL d   1       3.298   1.217  -1.894  0.00  0.00     0.022 A 
ATOM      7  C5  UNL d   1       3.096   0.426  -3.000  0.00  0.00     0.026 A 
ATOM      8  C6  UNL d   1       2.149  -0.628  -2.768  0.00  0.00    -0.082 A 
ATOM      9  C7  UNL d   1       1.669  -1.642  -3.632  0.00  0.00     0.045 A 
ENDROOT
TORSDOF 0
ENDMDL
