MODEL 1
REMARK minimizedAffinity 13.2545681
REMARK minimizedRMSD -1
REMARK  0 active torsions:
REMARK  status: ('A' for Active; 'I' for Inactive)
ROOT
ATOM      1  C   UNL d   1      -0.277  -2.777  -2.058  0.00  0.00    -0.002 A 
ATOM      2  C1  UNL d   1      -0.065  -2.582  -3.415  0.00  0.00     0.010 A 
ATOM      3  C2  UNL d   1       0.657  -1.476  -3.869  0.00  0.00     0.041 A 
ATOM      4  C3  UNL d   1       1.169  -0.562  -2.927  0.00  0.00    -0.075 A 
ATOM      5  S   UNL d   1       2.084   0.862  -3.252  0.00  0.00     0.015 SA
ATOM      6  C4  UNL d   1       2.215   1.245  -1.596  0.00  0.00     0.022 A 
ATOM      7  C5  UNL d   1       1.582   0.319  -0.801  0.00  0.00     0.026 A 
ATOM      8  C6  UNL d   1       0.969  -0.738  -1.555  0.00  0.00    -0.082 A 
ATOM      9  C7  UNL d   1       0.232  -1.868  -1.126  0.00  0.00     0.045 A 
ENDROOT
TORSDOF 0
ENDMDL
