MODEL 1
REMARK minimizedAffinity 4.3147521
REMARK minimizedRMSD -1
REMARK  0 active torsions:
REMARK  status: ('A' for Active; 'I' for Inactive)
ROOT
ATOM      1  C   UNL d   1      -2.747   5.532   1.872  0.00  0.00    -0.002 A 
ATOM      2  C1  UNL d   1      -1.718   4.718   1.421  0.00  0.00     0.010 A 
ATOM      3  C2  UNL d   1      -1.638   4.354   0.075  0.00  0.00     0.041 A 
ATOM      4  C3  UNL d   1      -2.619   4.828  -0.818  0.00  0.00    -0.075 A 
ATOM      5  S   UNL d   1      -2.723   4.513  -2.510  0.00  0.00     0.015 SA
ATOM      6  C4  UNL d   1      -4.136   5.452  -2.674  0.00  0.00     0.022 A 
ATOM      7  C5  UNL d   1      -4.532   6.000  -1.476  0.00  0.00     0.026 A 
ATOM      8  C6  UNL d   1      -3.664   5.650  -0.387  0.00  0.00    -0.082 A 
ATOM      9  C7  UNL d   1      -3.718   6.000   0.983  0.00  0.00     0.045 A 
ENDROOT
TORSDOF 0
ENDMDL
