MODEL 1
REMARK minimizedAffinity 9.93279648
REMARK minimizedRMSD -1
REMARK  0 active torsions:
REMARK  status: ('A' for Active; 'I' for Inactive)
ROOT
ATOM      1  C   UNL d   1       1.989   0.527  -2.155  0.00  0.00    -0.002 A 
ATOM      2  C1  UNL d   1       2.638   0.126  -0.996  0.00  0.00     0.010 A 
ATOM      3  C2  UNL d   1       2.301  -1.078  -0.374  0.00  0.00     0.041 A 
ATOM      4  C3  UNL d   1       1.293  -1.881  -0.944  0.00  0.00    -0.075 A 
ATOM      5  S   UNL d   1       0.715  -3.395  -0.357  0.00  0.00     0.015 SA
ATOM      6  C4  UNL d   1      -0.406  -3.546  -1.633  0.00  0.00     0.022 A 
ATOM      7  C5  UNL d   1      -0.354  -2.475  -2.494  0.00  0.00     0.026 A 
ATOM      8  C6  UNL d   1       0.626  -1.498  -2.111  0.00  0.00    -0.082 A 
ATOM      9  C7  UNL d   1       0.990  -0.271  -2.717  0.00  0.00     0.045 A 
ENDROOT
TORSDOF 0
ENDMDL
