MODEL 1
REMARK minimizedAffinity -3.51120281
REMARK minimizedRMSD -1
REMARK  0 active torsions:
REMARK  status: ('A' for Active; 'I' for Inactive)
ROOT
ATOM      1  C2' OXE d   1       0.640  -1.068  -1.066  0.00  0.00     0.078 C 
ATOM      2  C1' OXE d   1      -0.251   1.512  -1.722  0.00  0.00     0.078 C 
ATOM      3  C1  OXE d   1      -0.058   1.185  -0.263  0.00  0.00    -0.078 A 
ATOM      4  C2  OXE d   1       0.333  -0.094   0.052  0.00  0.00    -0.078 A 
ATOM      5  C3  OXE d   1       0.579  -0.433   1.380  0.00  0.00     0.003 A 
ATOM      6  C4  OXE d   1       0.284   0.470   2.408  0.00  0.00    -0.002 A 
ATOM      7  C5  OXE d   1      -0.154   1.765   2.111  0.00  0.00    -0.002 A 
ATOM      8  C6  OXE d   1      -0.289   2.151   0.782  0.00  0.00     0.003 A 
ENDROOT
TORSDOF 0
ENDMDL
