MODEL 1
REMARK minimizedAffinity -5.64375782
REMARK minimizedRMSD -1
REMARK  0 active torsions:
REMARK  status: ('A' for Active; 'I' for Inactive)
ROOT
ATOM      1  C2' OXE d   1      -0.477   2.067  -1.747  0.00  0.00     0.078 C 
ATOM      2  C1' OXE d   1       0.399  -0.325  -0.568  0.00  0.00     0.078 C 
ATOM      3  C1  OXE d   1      -0.136   0.752   0.341  0.00  0.00    -0.078 A 
ATOM      4  C2  OXE d   1      -0.519   1.937  -0.240  0.00  0.00    -0.078 A 
ATOM      5  C3  OXE d   1      -1.071   2.944   0.547  0.00  0.00     0.003 A 
ATOM      6  C4  OXE d   1      -1.096   2.820   1.942  0.00  0.00    -0.002 A 
ATOM      7  C5  OXE d   1      -0.674   1.637   2.557  0.00  0.00    -0.002 A 
ATOM      8  C6  OXE d   1      -0.231   0.580   1.770  0.00  0.00     0.003 A 
ENDROOT
TORSDOF 0
ENDMDL
