MODEL 1
REMARK minimizedAffinity -4.75539589
REMARK minimizedRMSD -1
REMARK  0 active torsions:
REMARK  status: ('A' for Active; 'I' for Inactive)
ROOT
ATOM      1  C2' OXE d   1       0.428  -1.282  -0.509  0.00  0.00     0.078 C 
ATOM      2  C1' OXE d   1       1.038  -0.757   2.180  0.00  0.00     0.078 C 
ATOM      3  C1  OXE d   1       0.255   0.284   1.420  0.00  0.00    -0.078 A 
ATOM      4  C2  OXE d   1       0.001   0.039   0.092  0.00  0.00    -0.078 A 
ATOM      5  C3  OXE d   1      -0.764   0.942  -0.641  0.00  0.00     0.003 A 
ATOM      6  C4  OXE d   1      -1.147   2.166  -0.080  0.00  0.00    -0.002 A 
ATOM      7  C5  OXE d   1      -0.864   2.453   1.260  0.00  0.00    -0.002 A 
ATOM      8  C6  OXE d   1      -0.203   1.506   2.034  0.00  0.00     0.003 A 
ENDROOT
TORSDOF 0
ENDMDL
