MODEL 1
REMARK minimizedAffinity -4.39150429
REMARK minimizedRMSD -1
REMARK  0 active torsions:
REMARK  status: ('A' for Active; 'I' for Inactive)
ROOT
ATOM      1  C2' OXE d   1       0.181  -0.228   2.039  0.00  0.00     0.078 C 
ATOM      2  C1' OXE d   1       0.341  -0.431  -0.757  0.00  0.00     0.078 C 
ATOM      3  C1  OXE d   1       0.130   0.939  -0.162  0.00  0.00    -0.078 A 
ATOM      4  C2  OXE d   1       0.006   1.022   1.204  0.00  0.00    -0.078 A 
ATOM      5  C3  OXE d   1      -0.135   2.268   1.809  0.00  0.00     0.003 A 
ATOM      6  C4  OXE d   1      -0.305   3.419   1.030  0.00  0.00    -0.002 A 
ATOM      7  C5  OXE d   1      -0.222   3.351  -0.365  0.00  0.00    -0.002 A 
ATOM      8  C6  OXE d   1       0.037   2.127  -0.973  0.00  0.00     0.003 A 
ENDROOT
TORSDOF 0
ENDMDL
