MODEL 1
REMARK minimizedAffinity -1.55275571
REMARK minimizedRMSD -1
REMARK  0 active torsions:
REMARK  status: ('A' for Active; 'I' for Inactive)
ROOT
ATOM      1  C2' OXE d   1      -0.114   2.275  -2.117  0.00  0.00     0.078 C 
ATOM      2  C1' OXE d   1       0.040   3.895   0.170  0.00  0.00     0.078 C 
ATOM      3  C1  OXE d   1       0.126   2.401   0.359  0.00  0.00    -0.078 A 
ATOM      4  C2  OXE d   1       0.002   1.614  -0.761  0.00  0.00    -0.078 A 
ATOM      5  C3  OXE d   1       0.129   0.232  -0.649  0.00  0.00     0.003 A 
ATOM      6  C4  OXE d   1       0.226  -0.372   0.610  0.00  0.00    -0.002 A 
ATOM      7  C5  OXE d   1       0.313   0.410   1.767  0.00  0.00    -0.002 A 
ATOM      8  C6  OXE d   1       0.307   1.796   1.656  0.00  0.00     0.003 A 
ENDROOT
TORSDOF 0
ENDMDL
