MODEL 1
REMARK minimizedAffinity -4.45389462
REMARK minimizedRMSD -1
REMARK  0 active torsions:
REMARK  status: ('A' for Active; 'I' for Inactive)
ROOT
ATOM      1  C2' OXE d   1       0.685  -0.860  -0.589  0.00  0.00     0.078 C 
ATOM      2  C1' OXE d   1       0.555   0.343   1.943  0.00  0.00     0.078 C 
ATOM      3  C1  OXE d   1       0.308   1.215   0.737  0.00  0.00    -0.078 A 
ATOM      4  C2  OXE d   1       0.420   0.628  -0.500  0.00  0.00    -0.078 A 
ATOM      5  C3  OXE d   1       0.149   1.373  -1.644  0.00  0.00     0.003 A 
ATOM      6  C4  OXE d   1      -0.085   2.751  -1.553  0.00  0.00    -0.002 A 
ATOM      7  C5  OXE d   1      -0.164   3.377  -0.305  0.00  0.00    -0.002 A 
ATOM      8  C6  OXE d   1      -0.012   2.616   0.850  0.00  0.00     0.003 A 
ENDROOT
TORSDOF 0
ENDMDL
