MODEL 1
REMARK minimizedAffinity -4.56570768
REMARK minimizedRMSD -1
REMARK  0 active torsions:
REMARK  status: ('A' for Active; 'I' for Inactive)
ROOT
ATOM      1  C2' OXE d   1      -1.599   2.832  -1.356  0.00  0.00     0.078 C 
ATOM      2  C1' OXE d   1      -1.668   3.433   1.385  0.00  0.00     0.078 C 
ATOM      3  C1  OXE d   1      -0.946   2.180   0.957  0.00  0.00    -0.078 A 
ATOM      4  C2  OXE d   1      -0.958   1.869  -0.381  0.00  0.00    -0.078 A 
ATOM      5  C3  OXE d   1      -0.260   0.753  -0.836  0.00  0.00     0.003 A 
ATOM      6  C4  OXE d   1       0.322  -0.138   0.074  0.00  0.00    -0.002 A 
ATOM      7  C5  OXE d   1       0.311   0.139   1.445  0.00  0.00    -0.002 A 
ATOM      8  C6  OXE d   1      -0.281   1.313   1.898  0.00  0.00     0.003 A 
ENDROOT
TORSDOF 0
ENDMDL
