MODEL 1
REMARK minimizedAffinity -4.71767616
REMARK minimizedRMSD -1
REMARK  0 active torsions:
REMARK  status: ('A' for Active; 'I' for Inactive)
ROOT
ATOM      1  C2' OXE d   1      -0.623   2.028  -1.401  0.00  0.00     0.078 C 
ATOM      2  C1' OXE d   1      -0.686   1.971   1.405  0.00  0.00     0.078 C 
ATOM      3  C1  OXE d   1       0.177   0.955   0.701  0.00  0.00    -0.078 A 
ATOM      4  C2  OXE d   1       0.166   0.960  -0.673  0.00  0.00    -0.078 A 
ATOM      5  C3  OXE d   1       0.986   0.080  -1.373  0.00  0.00     0.003 A 
ATOM      6  C4  OXE d   1       1.705  -0.911  -0.693  0.00  0.00    -0.002 A 
ATOM      7  C5  OXE d   1       1.699  -0.959   0.705  0.00  0.00    -0.002 A 
ATOM      8  C6  OXE d   1       0.976  -0.008   1.417  0.00  0.00     0.003 A 
ENDROOT
TORSDOF 0
ENDMDL
