MODEL 1
REMARK minimizedAffinity 5.2092638
REMARK minimizedRMSD -1
REMARK  0 active torsions:
REMARK  status: ('A' for Active; 'I' for Inactive)
ROOT
ATOM      1  C2' OXE d   1      -0.890  -4.810  -4.185  0.00  0.00     0.078 C 
ATOM      2  C1' OXE d   1      -1.112  -4.146  -1.466  0.00  0.00     0.078 C 
ATOM      3  C1  OXE d   1      -1.565  -3.125  -2.479  0.00  0.00    -0.078 A 
ATOM      4  C2  OXE d   1      -1.410  -3.440  -3.808  0.00  0.00    -0.078 A 
ATOM      5  C3  OXE d   1      -1.862  -2.555  -4.783  0.00  0.00     0.003 A 
ATOM      6  C4  OXE d   1      -2.332  -1.286  -4.426  0.00  0.00    -0.002 A 
ATOM      7  C5  OXE d   1      -2.461  -0.930  -3.079  0.00  0.00    -0.002 A 
ATOM      8  C6  OXE d   1      -2.123  -1.852  -2.095  0.00  0.00     0.003 A 
ENDROOT
TORSDOF 0
ENDMDL
