MODEL 1
REMARK minimizedAffinity -3.46021461
REMARK minimizedRMSD -1
REMARK  0 active torsions:
REMARK  status: ('A' for Active; 'I' for Inactive)
ROOT
ATOM      1  C   UNL d   1      -1.818  -0.477   0.562  0.00  0.00     0.023 A 
ATOM      2  C1  UNL d   1      -1.107  -1.556   1.088  0.00  0.00     0.003 A 
ATOM      3  C2  UNL d   1       0.287  -1.506   1.159  0.00  0.00     0.048 A 
ATOM      4  C3  UNL d   1       0.963  -0.374   0.704  0.00  0.00     0.023 A 
ATOM      5  C4  UNL d   1       0.255   0.708   0.178  0.00  0.00     0.048 A 
ATOM      6  C5  UNL d   1      -1.139   0.653   0.108  0.00  0.00     0.003 A 
ATOM      7  I   UNL d   1       3.037  -0.298   0.810  0.00  0.00    -0.146 I 
ENDROOT
TORSDOF 0
ENDMDL
