MODEL 1
REMARK minimizedAffinity -1.51119578
REMARK minimizedRMSD -1
REMARK  0 active torsions:
REMARK  status: ('A' for Active; 'I' for Inactive)
ROOT
ATOM      1  C   UNL d   1      -2.316  -1.077  -1.972  0.00  0.00     0.023 A 
ATOM      2  C1  UNL d   1      -2.900  -0.792  -3.207  0.00  0.00     0.003 A 
ATOM      3  C2  UNL d   1      -3.409   0.482  -3.462  0.00  0.00     0.048 A 
ATOM      4  C3  UNL d   1      -3.330   1.468  -2.479  0.00  0.00     0.023 A 
ATOM      5  C4  UNL d   1      -2.746   1.188  -1.243  0.00  0.00     0.048 A 
ATOM      6  C5  UNL d   1      -2.240  -0.088  -0.992  0.00  0.00     0.003 A 
ATOM      7  I   UNL d   1      -4.087   3.367  -2.857  0.00  0.00    -0.146 I 
ENDROOT
TORSDOF 0
ENDMDL
