MODEL 1
REMARK minimizedAffinity -1.36663103
REMARK minimizedRMSD -1
REMARK  0 active torsions:
REMARK  status: ('A' for Active; 'I' for Inactive)
ROOT
ATOM      1  C   UNL d   1      -1.544   0.572  -0.678  0.00  0.00     0.023 A 
ATOM      2  C1  UNL d   1      -0.719   1.686  -0.518  0.00  0.00     0.003 A 
ATOM      3  C2  UNL d   1       0.582   1.529  -0.038  0.00  0.00     0.048 A 
ATOM      4  C3  UNL d   1       1.053   0.256   0.280  0.00  0.00     0.023 A 
ATOM      5  C4  UNL d   1       0.232  -0.862   0.121  0.00  0.00     0.048 A 
ATOM      6  C5  UNL d   1      -1.069  -0.700  -0.359  0.00  0.00     0.003 A 
ATOM      7  I   UNL d   1       2.990   0.020   0.996  0.00  0.00    -0.146 I 
ENDROOT
TORSDOF 0
ENDMDL
