MODEL 1
REMARK minimizedAffinity -4.98049879
REMARK minimizedRMSD -1
REMARK  0 active torsions:
REMARK  status: ('A' for Active; 'I' for Inactive)
ROOT
ATOM      1  C   UNL d   1       2.982   0.055   0.925  0.00  0.00     0.023 A 
ATOM      2  C1  UNL d   1       2.395   1.241   0.485  0.00  0.00     0.003 A 
ATOM      3  C2  UNL d   1       1.064   1.248   0.063  0.00  0.00     0.048 A 
ATOM      4  C3  UNL d   1       0.326   0.065   0.085  0.00  0.00     0.023 A 
ATOM      5  C4  UNL d   1       0.909  -1.124   0.526  0.00  0.00     0.048 A 
ATOM      6  C5  UNL d   1       2.240  -1.126   0.946  0.00  0.00     0.003 A 
ATOM      7  I   UNL d   1      -1.656   0.073  -0.542  0.00  0.00    -0.146 I 
ENDROOT
TORSDOF 0
ENDMDL
