MODEL 1
REMARK minimizedAffinity -4.2861805
REMARK minimizedRMSD -1
REMARK  0 active torsions:
REMARK  status: ('A' for Active; 'I' for Inactive)
ROOT
ATOM      1  C   UNL d   1       2.970  -0.372   0.896  0.00  0.00     0.023 A 
ATOM      2  C1  UNL d   1       2.524   0.923   0.629  0.00  0.00     0.003 A 
ATOM      3  C2  UNL d   1       1.204   1.140   0.230  0.00  0.00     0.048 A 
ATOM      4  C3  UNL d   1       0.333   0.058   0.102  0.00  0.00     0.023 A 
ATOM      5  C4  UNL d   1       0.774  -1.239   0.369  0.00  0.00     0.048 A 
ATOM      6  C5  UNL d   1       2.096  -1.451   0.766  0.00  0.00     0.003 A 
ATOM      7  I   UNL d   1      -1.633   0.379  -0.491  0.00  0.00    -0.146 I 
ENDROOT
TORSDOF 0
ENDMDL
