MODEL 1
REMARK minimizedAffinity -3.65219283
REMARK minimizedRMSD -1
REMARK  0 active torsions:
REMARK  status: ('A' for Active; 'I' for Inactive)
ROOT
ATOM      1  C   UNL d   1      -1.900  -0.935   0.529  0.00  0.00     0.023 A 
ATOM      2  C1  UNL d   1      -1.118  -1.683   1.410  0.00  0.00     0.003 A 
ATOM      3  C2  UNL d   1       0.258  -1.458   1.487  0.00  0.00     0.048 A 
ATOM      4  C3  UNL d   1       0.846  -0.484   0.680  0.00  0.00     0.023 A 
ATOM      5  C4  UNL d   1       0.067   0.267  -0.202  0.00  0.00     0.048 A 
ATOM      6  C5  UNL d   1      -1.308   0.038  -0.276  0.00  0.00     0.003 A 
ATOM      7  I   UNL d   1       2.894  -0.148   0.793  0.00  0.00    -0.146 I 
ENDROOT
TORSDOF 0
ENDMDL
