MODEL 1
REMARK minimizedAffinity -4.82500505
REMARK minimizedRMSD -1
REMARK  0 active torsions:
REMARK  status: ('A' for Active; 'I' for Inactive)
ROOT
ATOM      1  C   UNL d   1       3.030  -1.246   1.496  0.00  0.00     0.023 A 
ATOM      2  C1  UNL d   1       1.920  -2.082   1.615  0.00  0.00     0.003 A 
ATOM      3  C2  UNL d   1       0.699  -1.708   1.049  0.00  0.00     0.048 A 
ATOM      4  C3  UNL d   1       0.597  -0.498   0.363  0.00  0.00     0.023 A 
ATOM      5  C4  UNL d   1       1.705   0.341   0.241  0.00  0.00     0.048 A 
ATOM      6  C5  UNL d   1       2.923  -0.036   0.810  0.00  0.00     0.003 A 
ATOM      7  I   UNL d   1      -1.219   0.059  -0.481  0.00  0.00    -0.146 I 
ENDROOT
TORSDOF 0
ENDMDL
