MODEL 1
REMARK minimizedAffinity -3.79868364
REMARK minimizedRMSD -1
REMARK  0 active torsions:
REMARK  status: ('A' for Active; 'I' for Inactive)
ROOT
ATOM      1  C   UNL d   1       2.282  -0.787   2.105  0.00  0.00     0.023 A 
ATOM      2  C1  UNL d   1       2.266   0.319   1.255  0.00  0.00     0.003 A 
ATOM      3  C2  UNL d   1       1.176   0.533   0.408  0.00  0.00     0.048 A 
ATOM      4  C3  UNL d   1       0.106  -0.360   0.418  0.00  0.00     0.023 A 
ATOM      5  C4  UNL d   1       0.118  -1.467   1.268  0.00  0.00     0.048 A 
ATOM      6  C5  UNL d   1       1.210  -1.679   2.112  0.00  0.00     0.003 A 
ATOM      7  I   UNL d   1      -1.517  -0.042  -0.841  0.00  0.00    -0.146 I 
ENDROOT
TORSDOF 0
ENDMDL
