MODEL 1
REMARK minimizedAffinity -4.82966709
REMARK minimizedRMSD -1
REMARK  3 active torsions:
REMARK  status: ('A' for Active; 'I' for Inactive)
REMARK    1  A    between atoms: C3'_2  and  C2'_3 
REMARK    2  A    between atoms: C2'_3  and  C1'_4 
REMARK    3  A    between atoms: C1'_4  and  C1_5 
ROOT
ATOM      1  C1  N4B d   1      -0.778  -0.607  -0.834  0.00  0.00    -0.075 A 
ATOM      2  C2  N4B d   1      -1.472  -1.480  -1.699  0.00  0.00     0.002 A 
ATOM      3  C3  N4B d   1      -1.130  -2.809  -1.754  0.00  0.00     0.002 A 
ATOM      4  C4  N4B d   1      -0.088  -3.282  -0.969  0.00  0.00    -0.004 A 
ATOM      5  C5  N4B d   1       0.561  -2.437  -0.117  0.00  0.00     0.002 A 
ATOM      6  C6  N4B d   1       0.225  -1.100  -0.049  0.00  0.00     0.002 A 
ENDROOT
BRANCH   1   7
ATOM      7  C1' N4B d   1      -1.059   0.870  -0.803  0.00  0.00     0.057 C 
BRANCH   7   8
ATOM      8  C2' N4B d   1      -1.278   1.308   0.642  0.00  0.00     0.009 C 
BRANCH   8   9
ATOM      9  C3' N4B d   1      -0.605   2.637   0.942  0.00  0.00     0.004 C 
ATOM     10  C4' N4B d   1       0.009   3.264  -0.275  0.00  0.00     0.003 C 
ENDBRANCH   8   9
ENDBRANCH   7   8
ENDBRANCH   1   7
TORSDOF 3
ENDMDL
