MODEL 1
REMARK minimizedAffinity -4.58568335
REMARK minimizedRMSD -1
REMARK  3 active torsions:
REMARK  status: ('A' for Active; 'I' for Inactive)
REMARK    1  A    between atoms: C3'_2  and  C2'_3 
REMARK    2  A    between atoms: C2'_3  and  C1'_4 
REMARK    3  A    between atoms: C1'_4  and  C1_5 
ROOT
ATOM      1  C1  N4B d   1      -0.024  -0.079   0.227  0.00  0.00    -0.075 A 
ATOM      2  C2  N4B d   1      -1.391   0.038   0.562  0.00  0.00     0.002 A 
ATOM      3  C3  N4B d   1      -1.948   1.280   0.747  0.00  0.00     0.002 A 
ATOM      4  C4  N4B d   1      -1.157   2.412   0.620  0.00  0.00    -0.004 A 
ATOM      5  C5  N4B d   1       0.156   2.291   0.271  0.00  0.00     0.002 A 
ATOM      6  C6  N4B d   1       0.729   1.050   0.079  0.00  0.00     0.002 A 
ENDROOT
BRANCH   1   7
ATOM      7  C1' N4B d   1       0.650  -1.418   0.100  0.00  0.00     0.057 C 
BRANCH   7   8
ATOM      8  C2' N4B d   1      -0.345  -2.428  -0.465  0.00  0.00     0.009 C 
BRANCH   8   9
ATOM      9  C3' N4B d   1       0.028  -2.866  -1.871  0.00  0.00     0.004 C 
ATOM     10  C4' N4B d   1      -1.081  -3.603  -2.562  0.00  0.00     0.003 C 
ENDBRANCH   8   9
ENDBRANCH   7   8
ENDBRANCH   1   7
TORSDOF 3
ENDMDL
