MODEL 1
REMARK minimizedAffinity -3.34717584
REMARK minimizedRMSD -1
REMARK  3 active torsions:
REMARK  status: ('A' for Active; 'I' for Inactive)
REMARK    1  A    between atoms: C3'_2  and  C2'_3 
REMARK    2  A    between atoms: C2'_3  and  C1'_4 
REMARK    3  A    between atoms: C1'_4  and  C1_5 
ROOT
ATOM      1  C1  N4B d   1      -0.029  -1.738  -0.616  0.00  0.00    -0.075 A 
ATOM      2  C2  N4B d   1       0.641  -2.001  -1.832  0.00  0.00     0.002 A 
ATOM      3  C3  N4B d   1       0.235  -3.044  -2.628  0.00  0.00     0.002 A 
ATOM      4  C4  N4B d   1      -0.821  -3.846  -2.222  0.00  0.00    -0.004 A 
ATOM      5  C5  N4B d   1      -1.478  -3.571  -1.059  0.00  0.00     0.002 A 
ATOM      6  C6  N4B d   1      -1.084  -2.523  -0.251  0.00  0.00     0.002 A 
ENDROOT
BRANCH   1   7
ATOM      7  C1' N4B d   1       0.433  -0.663   0.328  0.00  0.00     0.057 C 
BRANCH   7   8
ATOM      8  C2' N4B d   1      -0.764   0.190   0.739  0.00  0.00     0.009 C 
BRANCH   8   9
ATOM      9  C3' N4B d   1      -0.594   1.643   0.328  0.00  0.00     0.004 C 
ATOM     10  C4' N4B d   1       0.603   2.289   0.958  0.00  0.00     0.003 C 
ENDBRANCH   8   9
ENDBRANCH   7   8
ENDBRANCH   1   7
TORSDOF 3
ENDMDL
