MODEL 1
REMARK minimizedAffinity -3.32580805
REMARK minimizedRMSD -1
REMARK  3 active torsions:
REMARK  status: ('A' for Active; 'I' for Inactive)
REMARK    1  A    between atoms: C3'_2  and  C2'_3 
REMARK    2  A    between atoms: C2'_3  and  C1'_4 
REMARK    3  A    between atoms: C1'_4  and  C1_5 
ROOT
ATOM      1  C1  N4B d   1      -0.504  -2.219  -0.685  0.00  0.00    -0.075 A 
ATOM      2  C2  N4B d   1       0.039  -2.008  -1.971  0.00  0.00     0.002 A 
ATOM      3  C3  N4B d   1      -0.177  -2.929  -2.967  0.00  0.00     0.002 A 
ATOM      4  C4  N4B d   1      -0.913  -4.072  -2.696  0.00  0.00    -0.004 A 
ATOM      5  C5  N4B d   1      -1.456  -4.256  -1.458  0.00  0.00     0.002 A 
ATOM      6  C6  N4B d   1      -1.251  -3.337  -0.449  0.00  0.00     0.002 A 
ENDROOT
BRANCH   1   7
ATOM      7  C1' N4B d   1      -0.224  -1.283   0.459  0.00  0.00     0.057 C 
BRANCH   7   8
ATOM      8  C2' N4B d   1      -0.183   0.150  -0.065  0.00  0.00     0.009 C 
BRANCH   8   9
ATOM      9  C3' N4B d   1      -1.575   0.738  -0.219  0.00  0.00     0.004 C 
ATOM     10  C4' N4B d   1      -1.880   1.146  -1.629  0.00  0.00     0.003 C 
ENDBRANCH   8   9
ENDBRANCH   7   8
ENDBRANCH   1   7
TORSDOF 3
ENDMDL
