MODEL 1
REMARK minimizedAffinity -1.79786396
REMARK minimizedRMSD -1
REMARK  3 active torsions:
REMARK  status: ('A' for Active; 'I' for Inactive)
REMARK    1  A    between atoms: C3'_2  and  C2'_3 
REMARK    2  A    between atoms: C2'_3  and  C1'_4 
REMARK    3  A    between atoms: C1'_4  and  C1_5 
ROOT
ATOM      1  C1  N4B d   1      -0.541   1.331   0.463  0.00  0.00    -0.075 A 
ATOM      2  C2  N4B d   1       0.139   0.848  -0.676  0.00  0.00     0.002 A 
ATOM      3  C3  N4B d   1       0.338  -0.501  -0.837  0.00  0.00     0.002 A 
ATOM      4  C4  N4B d   1      -0.116  -1.381   0.134  0.00  0.00    -0.004 A 
ATOM      5  C5  N4B d   1      -0.794  -0.909   1.219  0.00  0.00     0.002 A 
ATOM      6  C6  N4B d   1      -1.004   0.445   1.392  0.00  0.00     0.002 A 
ENDROOT
BRANCH   1   7
ATOM      7  C1' N4B d   1      -0.706   2.803   0.725  0.00  0.00     0.057 C 
BRANCH   7   8
ATOM      8  C2' N4B d   1       0.654   3.487   0.617  0.00  0.00     0.009 C 
BRANCH   8   9
ATOM      9  C3' N4B d   1       1.613   3.018   1.697  0.00  0.00     0.004 C 
ATOM     10  C4' N4B d   1       2.926   2.549   1.144  0.00  0.00     0.003 C 
ENDBRANCH   8   9
ENDBRANCH   7   8
ENDBRANCH   1   7
TORSDOF 3
ENDMDL
