MODEL 1
REMARK minimizedAffinity -1.82498741
REMARK minimizedRMSD -1
REMARK  3 active torsions:
REMARK  status: ('A' for Active; 'I' for Inactive)
REMARK    1  A    between atoms: C3'_2  and  C2'_3 
REMARK    2  A    between atoms: C2'_3  and  C1'_4 
REMARK    3  A    between atoms: C1'_4  and  C1_5 
ROOT
ATOM      1  C1  N4B d   1      -0.064   0.354   0.416  0.00  0.00    -0.075 A 
ATOM      2  C2  N4B d   1       0.527   1.364   1.207  0.00  0.00     0.002 A 
ATOM      3  C3  N4B d   1       0.116   2.667   1.076  0.00  0.00     0.002 A 
ATOM      4  C4  N4B d   1      -0.867   2.987   0.152  0.00  0.00    -0.004 A 
ATOM      5  C5  N4B d   1      -1.451   2.002  -0.590  0.00  0.00     0.002 A 
ATOM      6  C6  N4B d   1      -1.050   0.687  -0.466  0.00  0.00     0.002 A 
ENDROOT
BRANCH   1   7
ATOM      7  C1' N4B d   1       0.413  -1.072   0.463  0.00  0.00     0.057 C 
BRANCH   7   8
ATOM      8  C2' N4B d   1       0.140  -1.735  -0.884  0.00  0.00     0.009 C 
BRANCH   8   9
ATOM      9  C3' N4B d   1      -0.688  -3.000  -0.737  0.00  0.00     0.004 C 
ATOM     10  C4' N4B d   1      -1.745  -3.128  -1.794  0.00  0.00     0.003 C 
ENDBRANCH   8   9
ENDBRANCH   7   8
ENDBRANCH   1   7
TORSDOF 3
ENDMDL
