MODEL 1
REMARK minimizedAffinity 10.7890682
REMARK minimizedRMSD -1
REMARK  0 active torsions:
REMARK  status: ('A' for Active; 'I' for Inactive)
ROOT
ATOM      1  O1  BZF d   1      -0.601   1.044   1.830  0.00  0.00    -0.204 OA
ATOM      2  C2  BZF d   1       0.274   0.664   0.830  0.00  0.00     0.174 A 
ATOM      3  C3  BZF d   1       1.422   1.367   0.907  0.00  0.00    -0.012 A 
ATOM      4  C3A BZF d   1       1.291   2.175   2.080  0.00  0.00    -0.107 A 
ATOM      5  C4  BZF d   1       2.111   3.078   2.695  0.00  0.00     0.055 A 
ATOM      6  C5  BZF d   1       1.655   3.749   3.785  0.00  0.00    -0.016 A 
ATOM      7  C6  BZF d   1       0.385   3.547   4.283  0.00  0.00     0.022 A 
ATOM      8  C7  BZF d   1      -0.463   2.659   3.710  0.00  0.00     0.029 A 
ATOM      9  C7A BZF d   1       0.007   1.954   2.628  0.00  0.00     0.058 A 
ENDROOT
TORSDOF 0
ENDMDL
