MODEL 1
REMARK minimizedAffinity -2.09972334
REMARK minimizedRMSD -1
REMARK  0 active torsions:
REMARK  status: ('A' for Active; 'I' for Inactive)
ROOT
ATOM      1  O1  BZF d   1      -2.210   2.912   3.547  0.00  0.00    -0.204 OA
ATOM      2  C2  BZF d   1      -1.733   3.441   4.731  0.00  0.00     0.174 A 
ATOM      3  C3  BZF d   1      -0.389   3.347   4.790  0.00  0.00    -0.012 A 
ATOM      4  C3A BZF d   1       0.006   2.805   3.526  0.00  0.00    -0.107 A 
ATOM      5  C4  BZF d   1       1.216   2.494   2.974  0.00  0.00     0.055 A 
ATOM      6  C5  BZF d   1       1.253   1.912   1.747  0.00  0.00    -0.016 A 
ATOM      7  C6  BZF d   1       0.100   1.622   1.046  0.00  0.00     0.022 A 
ATOM      8  C7  BZF d   1      -1.123   1.917   1.550  0.00  0.00     0.029 A 
ATOM      9  C7A BZF d   1      -1.162   2.535   2.776  0.00  0.00     0.058 A 
ENDROOT
TORSDOF 0
ENDMDL
