MODEL 1
REMARK minimizedAffinity 1.35491157
REMARK minimizedRMSD -1
REMARK  0 active torsions:
REMARK  status: ('A' for Active; 'I' for Inactive)
ROOT
ATOM      1  O1  BZF d   1      -0.904   1.323   1.993  0.00  0.00    -0.204 OA
ATOM      2  C2  BZF d   1       0.087   1.428   1.035  0.00  0.00     0.174 A 
ATOM      3  C3  BZF d   1       0.651   2.653   1.063  0.00  0.00    -0.012 A 
ATOM      4  C3A BZF d   1       0.034   3.326   2.164  0.00  0.00    -0.107 A 
ATOM      5  C4  BZF d   1       0.186   4.570   2.708  0.00  0.00     0.055 A 
ATOM      6  C5  BZF d   1      -0.622   4.944   3.735  0.00  0.00    -0.016 A 
ATOM      7  C6  BZF d   1      -1.595   4.105   4.237  0.00  0.00     0.022 A 
ATOM      8  C7  BZF d   1      -1.780   2.860   3.733  0.00  0.00     0.029 A 
ATOM      9  C7A BZF d   1      -0.943   2.467   2.718  0.00  0.00     0.058 A 
ENDROOT
TORSDOF 0
ENDMDL
