MODEL 1
REMARK minimizedAffinity 1.32682335
REMARK minimizedRMSD -1
REMARK  0 active torsions:
REMARK  status: ('A' for Active; 'I' for Inactive)
ROOT
ATOM      1  O1  BZF d   1       0.274   4.486   3.733  0.00  0.00    -0.204 OA
ATOM      2  C2  BZF d   1      -0.925   4.292   4.391  0.00  0.00     0.174 A 
ATOM      3  C3  BZF d   1      -1.628   3.292   3.822  0.00  0.00    -0.012 A 
ATOM      4  C3A BZF d   1      -0.777   2.770   2.797  0.00  0.00    -0.107 A 
ATOM      5  C4  BZF d   1      -0.909   1.755   1.893  0.00  0.00     0.055 A 
ATOM      6  C5  BZF d   1       0.076   1.551   0.980  0.00  0.00    -0.016 A 
ATOM      7  C6  BZF d   1       1.203   2.345   0.938  0.00  0.00     0.022 A 
ATOM      8  C7  BZF d   1       1.382   3.361   1.817  0.00  0.00     0.029 A 
ATOM      9  C7A BZF d   1       0.403   3.549   2.762  0.00  0.00     0.058 A 
ENDROOT
TORSDOF 0
ENDMDL
