MODEL 1
REMARK minimizedAffinity 8.4656601
REMARK minimizedRMSD -1
REMARK  0 active torsions:
REMARK  status: ('A' for Active; 'I' for Inactive)
ROOT
ATOM      1  O1  BZF d   1      -0.662   1.600   1.509  0.00  0.00    -0.204 OA
ATOM      2  C2  BZF d   1       0.072   1.000   0.504  0.00  0.00     0.174 A 
ATOM      3  C3  BZF d   1       1.360   1.395   0.551  0.00  0.00    -0.012 A 
ATOM      4  C3A BZF d   1       1.456   2.228   1.710  0.00  0.00    -0.107 A 
ATOM      5  C4  BZF d   1       2.487   2.907   2.296  0.00  0.00     0.055 A 
ATOM      6  C5  BZF d   1       2.232   3.687   3.379  0.00  0.00    -0.016 A 
ATOM      7  C6  BZF d   1       0.961   3.815   3.899  0.00  0.00     0.022 A 
ATOM      8  C7  BZF d   1      -0.092   3.158   3.356  0.00  0.00     0.029 A 
ATOM      9  C7A BZF d   1       0.168   2.342   2.281  0.00  0.00     0.058 A 
ENDROOT
TORSDOF 0
ENDMDL
