MODEL 1
REMARK minimizedAffinity 1.4053688
REMARK minimizedRMSD -1
REMARK  0 active torsions:
REMARK  status: ('A' for Active; 'I' for Inactive)
ROOT
ATOM      1  O1  BZF d   1      -5.400  -0.264   2.358  0.00  0.00    -0.204 OA
ATOM      2  C2  BZF d   1      -5.946  -1.265   3.137  0.00  0.00     0.174 A 
ATOM      3  C3  BZF d   1      -5.035  -2.228   3.386  0.00  0.00    -0.012 A 
ATOM      4  C3A BZF d   1      -3.818  -1.756   2.799  0.00  0.00    -0.107 A 
ATOM      5  C4  BZF d   1      -2.552  -2.262   2.727  0.00  0.00     0.055 A 
ATOM      6  C5  BZF d   1      -1.610  -1.587   2.018  0.00  0.00    -0.016 A 
ATOM      7  C6  BZF d   1      -1.901  -0.407   1.364  0.00  0.00     0.022 A 
ATOM      8  C7  BZF d   1      -3.141   0.137   1.410  0.00  0.00     0.029 A 
ATOM      9  C7A BZF d   1      -4.087  -0.526   2.154  0.00  0.00     0.058 A 
ENDROOT
TORSDOF 0
ENDMDL
