MODEL 1
REMARK minimizedAffinity 4.43161297
REMARK minimizedRMSD -1
REMARK  0 active torsions:
REMARK  status: ('A' for Active; 'I' for Inactive)
ROOT
ATOM      1  O1  BZF d   1      -0.830   1.787   2.318  0.00  0.00    -0.204 OA
ATOM      2  C2  BZF d   1       0.332   1.846   1.572  0.00  0.00     0.174 A 
ATOM      3  C3  BZF d   1       1.068   2.922   1.917  0.00  0.00    -0.012 A 
ATOM      4  C3A BZF d   1       0.364   3.525   3.007  0.00  0.00    -0.107 A 
ATOM      5  C4  BZF d   1       0.604   4.619   3.789  0.00  0.00     0.055 A 
ATOM      6  C5  BZF d   1      -0.318   4.980   4.720  0.00  0.00    -0.016 A 
ATOM      7  C6  BZF d   1      -1.491   4.275   4.892  0.00  0.00     0.022 A 
ATOM      8  C7  BZF d   1      -1.770   3.180   4.144  0.00  0.00     0.029 A 
ATOM      9  C7A BZF d   1      -0.826   2.793   3.225  0.00  0.00     0.058 A 
ENDROOT
TORSDOF 0
ENDMDL
