MODEL 1
REMARK minimizedAffinity 5.13329077
REMARK minimizedRMSD -1
REMARK  0 active torsions:
REMARK  status: ('A' for Active; 'I' for Inactive)
ROOT
ATOM      1  O1  BZF d   1      -1.268   0.730   1.938  0.00  0.00    -0.204 OA
ATOM      2  C2  BZF d   1      -0.514   0.146   0.938  0.00  0.00     0.174 A 
ATOM      3  C3  BZF d   1       0.743   0.635   0.940  0.00  0.00    -0.012 A 
ATOM      4  C3A BZF d   1       0.803   1.516   2.066  0.00  0.00    -0.107 A 
ATOM      5  C4  BZF d   1       1.793   2.288   2.602  0.00  0.00     0.055 A 
ATOM      6  C5  BZF d   1       1.505   3.089   3.662  0.00  0.00    -0.016 A 
ATOM      7  C6  BZF d   1       0.239   3.145   4.207  0.00  0.00     0.022 A 
ATOM      8  C7  BZF d   1      -0.774   2.394   3.712  0.00  0.00     0.029 A 
ATOM      9  C7A BZF d   1      -0.479   1.559   2.662  0.00  0.00     0.058 A 
ENDROOT
TORSDOF 0
ENDMDL
