MODEL 1
REMARK minimizedAffinity 7.94902611
REMARK minimizedRMSD -1
REMARK  0 active torsions:
REMARK  status: ('A' for Active; 'I' for Inactive)
ROOT
ATOM      1  O1  BZF d   1       5.489   4.696  -6.000  0.00  0.00    -0.204 OA
ATOM      2  C2  BZF d   1       4.343   5.433  -5.774  0.00  0.00     0.174 A 
ATOM      3  C3  BZF d   1       3.291   4.623  -5.537  0.00  0.00    -0.012 A 
ATOM      4  C3A BZF d   1       3.832   3.298  -5.527  0.00  0.00    -0.107 A 
ATOM      5  C4  BZF d   1       3.286   2.063  -5.327  0.00  0.00     0.055 A 
ATOM      6  C5  BZF d   1       4.074   0.963  -5.457  0.00  0.00    -0.016 A 
ATOM      7  C6  BZF d   1       5.409   1.062  -5.791  0.00  0.00     0.022 A 
ATOM      8  C7  BZF d   1       5.996   2.266  -5.994  0.00  0.00     0.029 A 
ATOM      9  C7A BZF d   1       5.210   3.381  -5.831  0.00  0.00     0.058 A 
ENDROOT
TORSDOF 0
ENDMDL
