MODEL 1
REMARK minimizedAffinity -3.14038086
REMARK minimizedRMSD -1
REMARK  0 active torsions:
REMARK  status: ('A' for Active; 'I' for Inactive)
ROOT
ATOM      1  O1  BZF d   1      -0.896   1.490   1.843  0.00  0.00    -0.204 OA
ATOM      2  C2  BZF d   1      -0.111   1.247   0.732  0.00  0.00     0.174 A 
ATOM      3  C3  BZF d   1       0.837   2.196   0.599  0.00  0.00    -0.012 A 
ATOM      4  C3A BZF d   1       0.691   3.038   1.747  0.00  0.00    -0.107 A 
ATOM      5  C4  BZF d   1       1.355   4.146   2.189  0.00  0.00     0.055 A 
ATOM      6  C5  BZF d   1       0.917   4.775   3.311  0.00  0.00    -0.016 A 
ATOM      7  C6  BZF d   1      -0.183   4.327   4.012  0.00  0.00     0.022 A 
ATOM      8  C7  BZF d   1      -0.871   3.228   3.615  0.00  0.00     0.029 A 
ATOM      9  C7A BZF d   1      -0.411   2.572   2.500  0.00  0.00     0.058 A 
ENDROOT
TORSDOF 0
ENDMDL
