MODEL 1
REMARK minimizedAffinity -1.80867672
REMARK minimizedRMSD -1
REMARK  0 active torsions:
REMARK  status: ('A' for Active; 'I' for Inactive)
ROOT
ATOM      1  O1  BZF d   1      -1.900   3.813   3.178  0.00  0.00    -0.204 OA
ATOM      2  C2  BZF d   1      -1.403   4.382   4.334  0.00  0.00     0.174 A 
ATOM      3  C3  BZF d   1      -0.123   4.010   4.538  0.00  0.00    -0.012 A 
ATOM      4  C3A BZF d   1       0.229   3.230   3.392  0.00  0.00    -0.107 A 
ATOM      5  C4  BZF d   1       1.374   2.594   3.004  0.00  0.00     0.055 A 
ATOM      6  C5  BZF d   1       1.366   1.857   1.863  0.00  0.00    -0.016 A 
ATOM      7  C6  BZF d   1       0.232   1.730   1.088  0.00  0.00     0.022 A 
ATOM      8  C7  BZF d   1      -0.926   2.346   1.429  0.00  0.00     0.029 A 
ATOM      9  C7A BZF d   1      -0.912   3.119   2.565  0.00  0.00     0.058 A 
ENDROOT
TORSDOF 0
ENDMDL
