MODEL 1
REMARK minimizedAffinity -3.723032
REMARK minimizedRMSD -1
REMARK  0 active torsions:
REMARK  status: ('A' for Active; 'I' for Inactive)
ROOT
ATOM      1  O1  BZF d   1       0.008   4.538   3.774  0.00  0.00    -0.204 OA
ATOM      2  C2  BZF d   1      -1.085   4.331   4.594  0.00  0.00     0.174 A 
ATOM      3  C3  BZF d   1      -1.722   3.190   4.262  0.00  0.00    -0.012 A 
ATOM      4  C3A BZF d   1      -0.928   2.603   3.227  0.00  0.00    -0.107 A 
ATOM      5  C4  BZF d   1      -1.035   1.451   2.500  0.00  0.00     0.055 A 
ATOM      6  C5  BZF d   1      -0.134   1.207   1.513  0.00  0.00    -0.016 A 
ATOM      7  C6  BZF d   1       0.882   2.093   1.222  0.00  0.00     0.022 A 
ATOM      8  C7  BZF d   1       1.032   3.246   1.919  0.00  0.00     0.029 A 
ATOM      9  C7A BZF d   1       0.142   3.480   2.939  0.00  0.00     0.058 A 
ENDROOT
TORSDOF 0
ENDMDL
