MODEL 1
REMARK minimizedAffinity 7.61495495
REMARK minimizedRMSD -1
REMARK  0 active torsions:
REMARK  status: ('A' for Active; 'I' for Inactive)
ROOT
ATOM      1  O1  BZF d   1      -3.953   0.423   2.412  0.00  0.00    -0.204 OA
ATOM      2  C2  BZF d   1      -4.916  -0.186   3.193  0.00  0.00     0.174 A 
ATOM      3  C3  BZF d   1      -4.468  -1.364   3.673  0.00  0.00    -0.012 A 
ATOM      4  C3A BZF d   1      -3.109  -1.456   3.236  0.00  0.00    -0.107 A 
ATOM      5  C4  BZF d   1      -2.128  -2.391   3.411  0.00  0.00     0.055 A 
ATOM      6  C5  BZF d   1      -0.931  -2.215   2.792  0.00  0.00    -0.016 A 
ATOM      7  C6  BZF d   1      -0.683  -1.121   1.988  0.00  0.00     0.022 A 
ATOM      8  C7  BZF d   1      -1.623  -0.166   1.789  0.00  0.00     0.029 A 
ATOM      9  C7A BZF d   1      -2.822  -0.324   2.440  0.00  0.00     0.058 A 
ENDROOT
TORSDOF 0
ENDMDL
