MODEL 1
REMARK minimizedAffinity 10.2274923
REMARK minimizedRMSD -1
REMARK  0 active torsions:
REMARK  status: ('A' for Active; 'I' for Inactive)
ROOT
ATOM      1  O1  BZF d   1       2.354  -1.474   0.529  0.00  0.00    -0.204 OA
ATOM      2  C2  BZF d   1       3.325  -0.882  -0.255  0.00  0.00     0.174 A 
ATOM      3  C3  BZF d   1       3.324  -1.408  -1.496  0.00  0.00    -0.012 A 
ATOM      4  C3A BZF d   1       2.227  -2.325  -1.516  0.00  0.00    -0.107 A 
ATOM      5  C4  BZF d   1       1.704  -3.144  -2.476  0.00  0.00     0.055 A 
ATOM      6  C5  BZF d   1       0.674  -3.968  -2.151  0.00  0.00    -0.016 A 
ATOM      7  C6  BZF d   1       0.146  -4.004  -0.877  0.00  0.00     0.022 A 
ATOM      8  C7  BZF d   1       0.628  -3.207   0.107  0.00  0.00     0.029 A 
ATOM      9  C7A BZF d   1       1.647  -2.349  -0.226  0.00  0.00     0.058 A 
ENDROOT
TORSDOF 0
ENDMDL
