MODEL 1
REMARK minimizedAffinity -1.20670164
REMARK minimizedRMSD -1
REMARK  0 active torsions:
REMARK  status: ('A' for Active; 'I' for Inactive)
ROOT
ATOM      1  O1  BZF d   1      -1.273   0.980   2.174  0.00  0.00    -0.204 OA
ATOM      2  C2  BZF d   1      -1.268   0.388   0.926  0.00  0.00     0.174 A 
ATOM      3  C3  BZF d   1      -0.322   0.939   0.138  0.00  0.00    -0.012 A 
ATOM      4  C3A BZF d   1       0.365   1.875   0.975  0.00  0.00    -0.107 A 
ATOM      5  C4  BZF d   1       1.417   2.721   0.769  0.00  0.00     0.055 A 
ATOM      6  C5  BZF d   1       1.798   3.556   1.772  0.00  0.00    -0.016 A 
ATOM      7  C6  BZF d   1       1.148   3.574   2.988  0.00  0.00     0.022 A 
ATOM      8  C7  BZF d   1       0.102   2.750   3.240  0.00  0.00     0.029 A 
ATOM      9  C7A BZF d   1      -0.264   1.882   2.241  0.00  0.00     0.058 A 
ENDROOT
TORSDOF 0
ENDMDL
