MODEL 1
REMARK minimizedAffinity 8.06971836
REMARK minimizedRMSD -1
REMARK  0 active torsions:
REMARK  status: ('A' for Active; 'I' for Inactive)
ROOT
ATOM      1  O1  BZF d   1       2.877   4.621   3.053  0.00  0.00    -0.204 OA
ATOM      2  C2  BZF d   1       3.229   5.145   4.282  0.00  0.00     0.174 A 
ATOM      3  C3  BZF d   1       2.297   4.851   5.212  0.00  0.00    -0.012 A 
ATOM      4  C3A BZF d   1       1.347   4.017   4.542  0.00  0.00    -0.107 A 
ATOM      5  C4  BZF d   1       0.201   3.392   4.941  0.00  0.00     0.055 A 
ATOM      6  C5  BZF d   1      -0.536   2.713   4.022  0.00  0.00    -0.016 A 
ATOM      7  C6  BZF d   1      -0.159   2.644   2.697  0.00  0.00     0.022 A 
ATOM      8  C7  BZF d   1       0.973   3.244   2.255  0.00  0.00     0.029 A 
ATOM      9  C7A BZF d   1       1.737   3.903   3.187  0.00  0.00     0.058 A 
ENDROOT
TORSDOF 0
ENDMDL
