MODEL 1
REMARK minimizedAffinity 8.23926258
REMARK minimizedRMSD -1
REMARK  0 active torsions:
REMARK  status: ('A' for Active; 'I' for Inactive)
ROOT
ATOM      1  O1  BZF d   1      -0.403   0.988   1.411  0.00  0.00    -0.204 OA
ATOM      2  C2  BZF d   1      -1.633   0.359   1.430  0.00  0.00     0.174 A 
ATOM      3  C3  BZF d   1      -2.373   0.785   2.473  0.00  0.00    -0.012 A 
ATOM      4  C3A BZF d   1      -1.590   1.808   3.096  0.00  0.00    -0.107 A 
ATOM      5  C4  BZF d   1      -1.795   2.621   4.174  0.00  0.00     0.055 A 
ATOM      6  C5  BZF d   1      -0.802   3.462   4.565  0.00  0.00    -0.016 A 
ATOM      7  C6  BZF d   1       0.409   3.513   3.905  0.00  0.00     0.022 A 
ATOM      8  C7  BZF d   1       0.656   2.729   2.828  0.00  0.00     0.029 A 
ATOM      9  C7A BZF d   1      -0.358   1.902   2.410  0.00  0.00     0.058 A 
ENDROOT
TORSDOF 0
ENDMDL
