MODEL 1
REMARK minimizedAffinity 10.5722389
REMARK minimizedRMSD -1
REMARK  0 active torsions:
REMARK  status: ('A' for Active; 'I' for Inactive)
ROOT
ATOM      1  O1  BZF d   1      -1.213   2.958   4.532  0.00  0.00    -0.204 OA
ATOM      2  C2  BZF d   1      -0.024   3.637   4.714  0.00  0.00     0.174 A 
ATOM      3  C3  BZF d   1       0.884   3.270   3.786  0.00  0.00    -0.012 A 
ATOM      4  C3A BZF d   1       0.191   2.369   2.918  0.00  0.00    -0.107 A 
ATOM      5  C4  BZF d   1       0.555   1.679   1.797  0.00  0.00     0.055 A 
ATOM      6  C5  BZF d   1      -0.337   0.826   1.227  0.00  0.00    -0.016 A 
ATOM      7  C6  BZF d   1      -1.598   0.635   1.755  0.00  0.00     0.022 A 
ATOM      8  C7  BZF d   1      -2.006   1.301   2.862  0.00  0.00     0.029 A 
ATOM      9  C7A BZF d   1      -1.118   2.188   3.421  0.00  0.00     0.058 A 
ENDROOT
TORSDOF 0
ENDMDL
