MODEL 1
REMARK minimizedAffinity 5.06235504
REMARK minimizedRMSD -1
REMARK  0 active torsions:
REMARK  status: ('A' for Active; 'I' for Inactive)
ROOT
ATOM      1  O1  BZF d   1       1.551   3.404   4.362  0.00  0.00    -0.204 OA
ATOM      2  C2  BZF d   1       0.710   3.872   3.372  0.00  0.00     0.174 A 
ATOM      3  C3  BZF d   1       1.355   4.741   2.567  0.00  0.00    -0.012 A 
ATOM      4  C3A BZF d   1       2.709   4.751   3.032  0.00  0.00    -0.107 A 
ATOM      5  C4  BZF d   1       3.836   5.406   2.627  0.00  0.00     0.055 A 
ATOM      6  C5  BZF d   1       4.982   5.251   3.341  0.00  0.00    -0.016 A 
ATOM      7  C6  BZF d   1       5.036   4.454   4.465  0.00  0.00     0.022 A 
ATOM      8  C7  BZF d   1       3.944   3.780   4.903  0.00  0.00     0.029 A 
ATOM      9  C7A BZF d   1       2.793   3.908   4.165  0.00  0.00     0.058 A 
ENDROOT
TORSDOF 0
ENDMDL
