MODEL 1
REMARK minimizedAffinity 7.56575727
REMARK minimizedRMSD -1
REMARK  0 active torsions:
REMARK  status: ('A' for Active; 'I' for Inactive)
ROOT
ATOM      1  N1  IND d   1      -2.025   2.788   1.643  0.00  0.00    -0.196 N 
ATOM      2  C2  IND d   1      -0.922   3.184   2.347  0.00  0.00     0.054 A 
ATOM      3  C3  IND d   1       0.205   2.896   1.658  0.00  0.00    -0.031 A 
ATOM      4  C4  IND d   1       0.470   1.869  -0.688  0.00  0.00     0.051 A 
ATOM      5  C5  IND d   1      -0.250   1.312  -1.707  0.00  0.00    -0.031 A 
ATOM      6  C6  IND d   1      -1.626   1.218  -1.662  0.00  0.00     0.015 A 
ATOM      7  C7  IND d   1      -2.338   1.692  -0.596  0.00  0.00    -0.016 A 
ATOM      8  C8  IND d   1      -1.610   2.252   0.444  0.00  0.00    -0.047 A 
ATOM      9  C9  IND d   1      -0.210   2.311   0.423  0.00  0.00    -0.096 A 
ATOM     10  HN1 IND d   1      -2.840   2.862   1.905  0.00  0.00     0.298 HD
ENDROOT
TORSDOF 0
ENDMDL
