MODEL 1
REMARK minimizedAffinity 0.794770241
REMARK minimizedRMSD -1
REMARK  0 active torsions:
REMARK  status: ('A' for Active; 'I' for Inactive)
ROOT
ATOM      1  N1  IND d   1      -0.801   2.132   2.827  0.00  0.00    -0.196 N 
ATOM      2  C2  IND d   1      -1.696   2.766   2.010  0.00  0.00     0.054 A 
ATOM      3  C3  IND d   1      -1.899   2.044   0.886  0.00  0.00    -0.031 A 
ATOM      4  C4  IND d   1      -0.947  -0.254   0.222  0.00  0.00     0.051 A 
ATOM      5  C5  IND d   1      -0.059  -1.210   0.628  0.00  0.00    -0.031 A 
ATOM      6  C6  IND d   1       0.640  -1.100   1.813  0.00  0.00     0.015 A 
ATOM      7  C7  IND d   1       0.466  -0.030   2.646  0.00  0.00    -0.016 A 
ATOM      8  C8  IND d   1      -0.429   0.946   2.233  0.00  0.00    -0.047 A 
ATOM      9  C9  IND d   1      -1.109   0.861   1.011  0.00  0.00    -0.096 A 
ATOM     10  HN1 IND d   1      -0.518   2.425   3.584  0.00  0.00     0.298 HD
ENDROOT
TORSDOF 0
ENDMDL
