MODEL 1
REMARK minimizedAffinity -3.7908411
REMARK minimizedRMSD -1
REMARK  0 active torsions:
REMARK  status: ('A' for Active; 'I' for Inactive)
ROOT
ATOM      1  N1  IND d   1       0.500  -0.150   1.665  0.00  0.00    -0.196 N 
ATOM      2  C2  IND d   1       0.879  -0.717   0.480  0.00  0.00     0.054 A 
ATOM      3  C3  IND d   1       0.378  -0.013  -0.559  0.00  0.00    -0.031 A 
ATOM      4  C4  IND d   1      -1.005   2.159  -0.549  0.00  0.00     0.051 A 
ATOM      5  C5  IND d   1      -1.629   3.034   0.294  0.00  0.00    -0.031 A 
ATOM      6  C6  IND d   1      -1.572   2.892   1.666  0.00  0.00     0.015 A 
ATOM      7  C7  IND d   1      -0.877   1.870   2.247  0.00  0.00    -0.016 A 
ATOM      8  C8  IND d   1      -0.247   0.975   1.394  0.00  0.00    -0.047 A 
ATOM      9  C9  IND d   1      -0.336   1.090   0.001  0.00  0.00    -0.096 A 
ATOM     10  HN1 IND d   1       0.695  -0.447   2.448  0.00  0.00     0.298 HD
ENDROOT
TORSDOF 0
ENDMDL
