MODEL 1
REMARK minimizedAffinity -2.51831722
REMARK minimizedRMSD -1
REMARK  0 active torsions:
REMARK  status: ('A' for Active; 'I' for Inactive)
ROOT
ATOM      1  N1  IND d   1       0.074   0.391  -1.410  0.00  0.00    -0.196 N 
ATOM      2  C2  IND d   1       0.878  -0.676  -1.119  0.00  0.00     0.054 A 
ATOM      3  C3  IND d   1       0.854  -0.935   0.207  0.00  0.00    -0.031 A 
ATOM      4  C4  IND d   1      -0.513   0.199   2.071  0.00  0.00     0.051 A 
ATOM      5  C5  IND d   1      -1.362   1.245   2.300  0.00  0.00    -0.031 A 
ATOM      6  C6  IND d   1      -1.787   2.075   1.283  0.00  0.00     0.015 A 
ATOM      7  C7  IND d   1      -1.386   1.882  -0.009  0.00  0.00    -0.016 A 
ATOM      8  C8  IND d   1      -0.517   0.825  -0.244  0.00  0.00    -0.047 A 
ATOM      9  C9  IND d   1      -0.049   0.005   0.791  0.00  0.00    -0.096 A 
ATOM     10  HN1 IND d   1      -0.043   0.734  -2.190  0.00  0.00     0.298 HD
ENDROOT
TORSDOF 0
ENDMDL
