MODEL 1
REMARK minimizedAffinity -3.99864483
REMARK minimizedRMSD -1
REMARK  0 active torsions:
REMARK  status: ('A' for Active; 'I' for Inactive)
ROOT
ATOM      1  N1  IND d   1      -0.934   0.957   2.120  0.00  0.00    -0.196 N 
ATOM      2  C2  IND d   1      -1.600   2.039   1.616  0.00  0.00     0.054 A 
ATOM      3  C3  IND d   1      -1.353   2.170   0.293  0.00  0.00    -0.031 A 
ATOM      4  C4  IND d   1       0.032   0.663  -1.268  0.00  0.00     0.051 A 
ATOM      5  C5  IND d   1       0.860  -0.425  -1.261  0.00  0.00    -0.031 A 
ATOM      6  C6  IND d   1       1.134  -1.123  -0.103  0.00  0.00     0.015 A 
ATOM      7  C7  IND d   1       0.581  -0.765   1.094  0.00  0.00    -0.016 A 
ATOM      8  C8  IND d   1      -0.254   0.343   1.091  0.00  0.00    -0.047 A 
ATOM      9  C9  IND d   1      -0.503   1.082  -0.073  0.00  0.00    -0.096 A 
ATOM     10  HN1 IND d   1      -0.939   0.703   2.941  0.00  0.00     0.298 HD
ENDROOT
TORSDOF 0
ENDMDL
