MODEL 1
REMARK minimizedAffinity -2.77636957
REMARK minimizedRMSD -1
REMARK  0 active torsions:
REMARK  status: ('A' for Active; 'I' for Inactive)
ROOT
ATOM      1  N1  IND d   1       1.137  -1.101  -1.455  0.00  0.00    -0.196 N 
ATOM      2  C2  IND d   1       0.671  -2.384  -1.517  0.00  0.00     0.054 A 
ATOM      3  C3  IND d   1      -0.469  -2.506  -0.799  0.00  0.00    -0.031 A 
ATOM      4  C4  IND d   1      -1.800  -0.707   0.474  0.00  0.00     0.051 A 
ATOM      5  C5  IND d   1      -1.750   0.607   0.848  0.00  0.00    -0.031 A 
ATOM      6  C6  IND d   1      -0.717   1.436   0.463  0.00  0.00     0.015 A 
ATOM      7  C7  IND d   1       0.305   0.983  -0.323  0.00  0.00    -0.016 A 
ATOM      8  C8  IND d   1       0.262  -0.352  -0.698  0.00  0.00    -0.047 A 
ATOM      9  C9  IND d   1      -0.762  -1.209  -0.276  0.00  0.00    -0.096 A 
ATOM     10  HN1 IND d   1       1.856  -0.810  -1.825  0.00  0.00     0.298 HD
ENDROOT
TORSDOF 0
ENDMDL
