MODEL 1
REMARK minimizedAffinity -5.20552778
REMARK minimizedRMSD -1
REMARK  0 active torsions:
REMARK  status: ('A' for Active; 'I' for Inactive)
ROOT
ATOM      1  N1  IND d   1       1.078  -1.182   0.627  0.00  0.00    -0.196 N 
ATOM      2  C2  IND d   1       0.821  -0.986  -0.701  0.00  0.00     0.054 A 
ATOM      3  C3  IND d   1      -0.110  -0.019  -0.862  0.00  0.00    -0.031 A 
ATOM      4  C4  IND d   1      -1.272   1.444   0.909  0.00  0.00     0.051 A 
ATOM      5  C5  IND d   1      -1.391   1.609   2.261  0.00  0.00    -0.031 A 
ATOM      6  C6  IND d   1      -0.675   0.839   3.155  0.00  0.00     0.015 A 
ATOM      7  C7  IND d   1       0.197  -0.122   2.728  0.00  0.00    -0.016 A 
ATOM      8  C8  IND d   1       0.314  -0.298   1.357  0.00  0.00    -0.047 A 
ATOM      9  C9  IND d   1      -0.441   0.452   0.446  0.00  0.00    -0.096 A 
ATOM     10  HN1 IND d   1       1.625  -1.761   0.952  0.00  0.00     0.298 HD
ENDROOT
TORSDOF 0
ENDMDL
