MODEL 1
REMARK minimizedAffinity -3.72162008
REMARK minimizedRMSD -1
REMARK  0 active torsions:
REMARK  status: ('A' for Active; 'I' for Inactive)
ROOT
ATOM      1  N1  IND d   1       0.298   0.974  -1.178  0.00  0.00    -0.196 N 
ATOM      2  C2  IND d   1       1.149  -0.095  -1.220  0.00  0.00     0.054 A 
ATOM      3  C3  IND d   1       1.046  -0.823  -0.085  0.00  0.00    -0.031 A 
ATOM      4  C4  IND d   1      -0.528  -0.502   1.927  0.00  0.00     0.051 A 
ATOM      5  C5  IND d   1      -1.461   0.356   2.438  0.00  0.00    -0.031 A 
ATOM      6  C6  IND d   1      -1.865   1.485   1.755  0.00  0.00     0.015 A 
ATOM      7  C7  IND d   1      -1.358   1.793   0.525  0.00  0.00    -0.016 A 
ATOM      8  C8  IND d   1      -0.405   0.928   0.005  0.00  0.00    -0.047 A 
ATOM      9  C9  IND d   1       0.040  -0.196   0.713  0.00  0.00    -0.096 A 
ATOM     10  HN1 IND d   1       0.215   1.573  -1.789  0.00  0.00     0.298 HD
ENDROOT
TORSDOF 0
ENDMDL
