MODEL 1
REMARK minimizedAffinity -4.46301603
REMARK minimizedRMSD -1
REMARK  0 active torsions:
REMARK  status: ('A' for Active; 'I' for Inactive)
ROOT
ATOM      1  N1  IND d   1       1.251  -5.806  -1.394  0.00  0.00    -0.196 N 
ATOM      2  C2  IND d   1       2.126  -5.940  -0.353  0.00  0.00     0.054 A 
ATOM      3  C3  IND d   1       2.493  -4.725   0.112  0.00  0.00    -0.031 A 
ATOM      4  C4  IND d   1       1.704  -2.387  -0.620  0.00  0.00     0.051 A 
ATOM      5  C5  IND d   1       0.936  -1.753  -1.557  0.00  0.00    -0.031 A 
ATOM      6  C6  IND d   1       0.218  -2.453  -2.504  0.00  0.00     0.015 A 
ATOM      7  C7  IND d   1       0.231  -3.818  -2.544  0.00  0.00    -0.016 A 
ATOM      8  C8  IND d   1       1.015  -4.465  -1.599  0.00  0.00    -0.047 A 
ATOM      9  C9  IND d   1       1.780  -3.759  -0.661  0.00  0.00    -0.096 A 
ATOM     10  HN1 IND d   1       0.906  -6.452  -1.846  0.00  0.00     0.298 HD
ENDROOT
TORSDOF 0
ENDMDL
