MODEL 1
REMARK minimizedAffinity -4.60556984
REMARK minimizedRMSD -1
REMARK  0 active torsions:
REMARK  status: ('A' for Active; 'I' for Inactive)
ROOT
ATOM      1  N1  IND d   1       0.048   0.080  -1.191  0.00  0.00    -0.196 N 
ATOM      2  C2  IND d   1       0.817  -1.030  -0.981  0.00  0.00     0.054 A 
ATOM      3  C3  IND d   1       0.828  -1.353   0.332  0.00  0.00    -0.031 A 
ATOM      4  C4  IND d   1      -0.427  -0.259   2.296  0.00  0.00     0.051 A 
ATOM      5  C5  IND d   1      -1.225   0.807   2.604  0.00  0.00    -0.031 A 
ATOM      6  C6  IND d   1      -1.651   1.702   1.643  0.00  0.00     0.015 A 
ATOM      7  C7  IND d   1      -1.301   1.556   0.330  0.00  0.00    -0.016 A 
ATOM      8  C8  IND d   1      -0.485   0.479   0.015  0.00  0.00    -0.047 A 
ATOM      9  C9  IND d   1      -0.016  -0.407   0.992  0.00  0.00    -0.096 A 
ATOM     10  HN1 IND d   1      -0.081   0.465  -1.949  0.00  0.00     0.298 HD
ENDROOT
TORSDOF 0
ENDMDL
