MODEL 1
REMARK minimizedAffinity -5.40125179
REMARK minimizedRMSD -1
REMARK  0 active torsions:
REMARK  status: ('A' for Active; 'I' for Inactive)
ROOT
ATOM      1  N1  IND d   1      -1.137   0.076   3.182  0.00  0.00    -0.196 N 
ATOM      2  C2  IND d   1      -0.495  -1.088   2.865  0.00  0.00     0.054 A 
ATOM      3  C3  IND d   1      -0.191  -1.114   1.548  0.00  0.00    -0.031 A 
ATOM      4  C4  IND d   1      -0.562   0.689  -0.252  0.00  0.00     0.051 A 
ATOM      5  C5  IND d   1      -1.144   1.910  -0.450  0.00  0.00    -0.031 A 
ATOM      6  C6  IND d   1      -1.763   2.597   0.574  0.00  0.00     0.015 A 
ATOM      7  C7  IND d   1      -1.814   2.091   1.843  0.00  0.00    -0.016 A 
ATOM      8  C8  IND d   1      -1.231   0.849   2.046  0.00  0.00    -0.047 A 
ATOM      9  C9  IND d   1      -0.638   0.128   1.001  0.00  0.00    -0.096 A 
ATOM     10  HN1 IND d   1      -1.433   0.290   3.961  0.00  0.00     0.298 HD
ENDROOT
TORSDOF 0
ENDMDL
