MODEL 1
REMARK minimizedAffinity -4.74735498
REMARK minimizedRMSD -1
REMARK  0 active torsions:
REMARK  status: ('A' for Active; 'I' for Inactive)
ROOT
ATOM      1  N1  IND d   1       0.329  -0.007  -0.913  0.00  0.00    -0.196 N 
ATOM      2  C2  IND d   1       0.867  -1.165  -0.424  0.00  0.00     0.054 A 
ATOM      3  C3  IND d   1       0.539  -1.323   0.878  0.00  0.00    -0.031 A 
ATOM      4  C4  IND d   1      -0.954   0.144   2.378  0.00  0.00     0.051 A 
ATOM      5  C5  IND d   1      -1.641   1.325   2.388  0.00  0.00    -0.031 A 
ATOM      6  C6  IND d   1      -1.710   2.138   1.275  0.00  0.00     0.015 A 
ATOM      7  C7  IND d   1      -1.102   1.792   0.102  0.00  0.00    -0.016 A 
ATOM      8  C8  IND d   1      -0.397   0.597   0.090  0.00  0.00    -0.047 A 
ATOM      9  C9  IND d   1      -0.288  -0.211   1.229  0.00  0.00    -0.096 A 
ATOM     10  HN1 IND d   1       0.428   0.293  -1.712  0.00  0.00     0.298 HD
ENDROOT
TORSDOF 0
ENDMDL
