MODEL 1
REMARK minimizedAffinity -1.21839952
REMARK minimizedRMSD -1
REMARK  0 active torsions:
REMARK  status: ('A' for Active; 'I' for Inactive)
ROOT
ATOM      1  N1  IND d   1       0.233  -0.292  -1.955  0.00  0.00    -0.196 N 
ATOM      2  C2  IND d   1       0.640   0.207  -0.749  0.00  0.00     0.054 A 
ATOM      3  C3  IND d   1       1.162  -0.779   0.015  0.00  0.00    -0.031 A 
ATOM      4  C4  IND d   1       1.541  -3.261  -0.552  0.00  0.00     0.051 A 
ATOM      5  C5  IND d   1       1.297  -4.194  -1.521  0.00  0.00    -0.031 A 
ATOM      6  C6  IND d   1       0.677  -3.867  -2.709  0.00  0.00     0.015 A 
ATOM      7  C7  IND d   1       0.285  -2.586  -2.978  0.00  0.00    -0.016 A 
ATOM      8  C8  IND d   1       0.524  -1.638  -1.994  0.00  0.00    -0.047 A 
ATOM      9  C9  IND d   1       1.115  -1.972  -0.769  0.00  0.00    -0.096 A 
ATOM     10  HN1 IND d   1      -0.142   0.160  -2.584  0.00  0.00     0.298 HD
ENDROOT
TORSDOF 0
ENDMDL
