MODEL 1
REMARK minimizedAffinity 11.3504448
REMARK minimizedRMSD -1
REMARK  0 active torsions:
REMARK  status: ('A' for Active; 'I' for Inactive)
ROOT
ATOM      1  C2' OXE d   1      -4.776   0.545   5.949  0.00  0.00     0.078 C 
ATOM      2  C1' OXE d   1      -5.821  -2.060   6.000  0.00  0.00     0.078 C 
ATOM      3  C1  OXE d   1      -5.459  -1.473   4.658  0.00  0.00    -0.078 A 
ATOM      4  C2  OXE d   1      -4.992  -0.181   4.639  0.00  0.00    -0.078 A 
ATOM      5  C3  OXE d   1      -4.592   0.389   3.434  0.00  0.00     0.003 A 
ATOM      6  C4  OXE d   1      -4.805  -0.286   2.225  0.00  0.00    -0.002 A 
ATOM      7  C5  OXE d   1      -5.316  -1.588   2.219  0.00  0.00    -0.002 A 
ATOM      8  C6  OXE d   1      -5.608  -2.210   3.428  0.00  0.00     0.003 A 
ENDROOT
TORSDOF 0
ENDMDL
