MODEL 1
REMARK minimizedAffinity 0.862433553
REMARK minimizedRMSD -1
REMARK  0 active torsions:
REMARK  status: ('A' for Active; 'I' for Inactive)
ROOT
ATOM      1  C2' OXE d   1      -5.257  -1.142   2.725  0.00  0.00     0.078 C 
ATOM      2  C1' OXE d   1      -5.255  -1.562   5.501  0.00  0.00     0.078 C 
ATOM      3  C1  OXE d   1      -4.430  -0.420   4.961  0.00  0.00    -0.078 A 
ATOM      4  C2  OXE d   1      -4.400  -0.251   3.598  0.00  0.00    -0.078 A 
ATOM      5  C3  OXE d   1      -3.699   0.820   3.052  0.00  0.00     0.003 A 
ATOM      6  C4  OXE d   1      -2.900   1.633   3.865  0.00  0.00    -0.002 A 
ATOM      7  C5  OXE d   1      -2.885   1.453   5.252  0.00  0.00    -0.002 A 
ATOM      8  C6  OXE d   1      -3.676   0.460   5.819  0.00  0.00     0.003 A 
ENDROOT
TORSDOF 0
ENDMDL
