MODEL 1
REMARK minimizedAffinity 7.96880007
REMARK minimizedRMSD -1
REMARK  0 active torsions:
REMARK  status: ('A' for Active; 'I' for Inactive)
ROOT
ATOM      1  C2' OXE d   1      -2.673   0.985   2.920  0.00  0.00     0.078 C 
ATOM      2  C1' OXE d   1      -3.730   0.829   5.516  0.00  0.00     0.078 C 
ATOM      3  C1  OXE d   1      -4.142  -0.229   4.524  0.00  0.00    -0.078 A 
ATOM      4  C2  OXE d   1      -3.656  -0.119   3.243  0.00  0.00    -0.078 A 
ATOM      5  C3  OXE d   1      -3.961  -1.099   2.303  0.00  0.00     0.003 A 
ATOM      6  C4  OXE d   1      -4.880  -2.111   2.607  0.00  0.00    -0.002 A 
ATOM      7  C5  OXE d   1      -5.417  -2.219   3.895  0.00  0.00    -0.002 A 
ATOM      8  C6  OXE d   1      -5.026  -1.313   4.874  0.00  0.00     0.003 A 
ENDROOT
TORSDOF 0
ENDMDL
