MODEL 1
REMARK minimizedAffinity -3.42736363
REMARK minimizedRMSD -1
REMARK  0 active torsions:
REMARK  status: ('A' for Active; 'I' for Inactive)
ROOT
ATOM      1  C2' OXE d   1       1.645  -3.000   0.375  0.00  0.00     0.078 C 
ATOM      2  C1' OXE d   1       2.317  -1.875  -2.107  0.00  0.00     0.078 C 
ATOM      3  C1  OXE d   1       3.279  -2.865  -1.500  0.00  0.00    -0.078 A 
ATOM      4  C2  OXE d   1       2.965  -3.375  -0.263  0.00  0.00    -0.078 A 
ATOM      5  C3  OXE d   1       3.791  -4.333   0.317  0.00  0.00     0.003 A 
ATOM      6  C4  OXE d   1       5.015  -4.667  -0.275  0.00  0.00    -0.002 A 
ATOM      7  C5  OXE d   1       5.373  -4.129  -1.515  0.00  0.00    -0.002 A 
ATOM      8  C6  OXE d   1       4.499  -3.261  -2.160  0.00  0.00     0.003 A 
ENDROOT
TORSDOF 0
ENDMDL
