MODEL 1
REMARK minimizedAffinity 7.84605122
REMARK minimizedRMSD -1
REMARK  0 active torsions:
REMARK  status: ('A' for Active; 'I' for Inactive)
ROOT
ATOM      1  C2' OXE d   1      -0.013  -3.823   0.787  0.00  0.00     0.078 C 
ATOM      2  C1' OXE d   1       1.295  -1.517   1.712  0.00  0.00     0.078 C 
ATOM      3  C1  OXE d   1      -0.212  -1.498   1.659  0.00  0.00    -0.078 A 
ATOM      4  C2  OXE d   1      -0.842  -2.613   1.162  0.00  0.00    -0.078 A 
ATOM      5  C3  OXE d   1      -2.232  -2.668   1.142  0.00  0.00     0.003 A 
ATOM      6  C4  OXE d   1      -2.991  -1.542   1.481  0.00  0.00    -0.002 A 
ATOM      7  C5  OXE d   1      -2.368  -0.381   1.953  0.00  0.00    -0.002 A 
ATOM      8  C6  OXE d   1      -0.984  -0.358   2.088  0.00  0.00     0.003 A 
ENDROOT
TORSDOF 0
ENDMDL
