MODEL 1
REMARK minimizedAffinity -4.39260054
REMARK minimizedRMSD -1
REMARK  0 active torsions:
REMARK  status: ('A' for Active; 'I' for Inactive)
ROOT
ATOM      1  C2' OXE d   1       3.006  -2.598  -1.423  0.00  0.00     0.078 C 
ATOM      2  C1' OXE d   1       1.857  -4.245   0.539  0.00  0.00     0.078 C 
ATOM      3  C1  OXE d   1       3.246  -4.585   0.061  0.00  0.00    -0.078 A 
ATOM      4  C2  OXE d   1       3.782  -3.801  -0.933  0.00  0.00    -0.078 A 
ATOM      5  C3  OXE d   1       5.082  -4.038  -1.372  0.00  0.00     0.003 A 
ATOM      6  C4  OXE d   1       5.789  -5.159  -0.920  0.00  0.00    -0.002 A 
ATOM      7  C5  OXE d   1       5.246  -5.993   0.063  0.00  0.00    -0.002 A 
ATOM      8  C6  OXE d   1       3.996  -5.696   0.593  0.00  0.00     0.003 A 
ENDROOT
TORSDOF 0
ENDMDL
