MODEL 1
REMARK minimizedAffinity -1.37829447
REMARK minimizedRMSD -1
REMARK  0 active torsions:
REMARK  status: ('A' for Active; 'I' for Inactive)
ROOT
ATOM      1  C2' OXE d   1       4.095  -3.993  -1.439  0.00  0.00     0.078 C 
ATOM      2  C1' OXE d   1       3.216  -1.359  -1.854  0.00  0.00     0.078 C 
ATOM      3  C1  OXE d   1       2.575  -2.147  -0.739  0.00  0.00    -0.078 A 
ATOM      4  C2  OXE d   1       2.978  -3.450  -0.573  0.00  0.00    -0.078 A 
ATOM      5  C3  OXE d   1       2.459  -4.205   0.475  0.00  0.00     0.003 A 
ATOM      6  C4  OXE d   1       1.420  -3.699   1.266  0.00  0.00    -0.002 A 
ATOM      7  C5  OXE d   1       0.966  -2.388   1.088  0.00  0.00    -0.002 A 
ATOM      8  C6  OXE d   1       1.562  -1.586   0.120  0.00  0.00     0.003 A 
ENDROOT
TORSDOF 0
ENDMDL
