MODEL 1
REMARK minimizedAffinity -0.936533034
REMARK minimizedRMSD -1
REMARK  0 active torsions:
REMARK  status: ('A' for Active; 'I' for Inactive)
ROOT
ATOM      1  C2' OXE d   1       2.831  -4.695  -1.163  0.00  0.00     0.078 C 
ATOM      2  C1' OXE d   1       3.079  -1.899  -1.205  0.00  0.00     0.078 C 
ATOM      3  C1  OXE d   1       2.124  -2.506  -0.207  0.00  0.00    -0.078 A 
ATOM      4  C2  OXE d   1       1.974  -3.871  -0.225  0.00  0.00    -0.078 A 
ATOM      5  C3  OXE d   1       1.148  -4.487   0.711  0.00  0.00     0.003 A 
ATOM      6  C4  OXE d   1       0.352  -3.717   1.568  0.00  0.00    -0.002 A 
ATOM      7  C5  OXE d   1       0.459  -2.322   1.575  0.00  0.00    -0.002 A 
ATOM      8  C6  OXE d   1       1.370  -1.705   0.726  0.00  0.00     0.003 A 
ENDROOT
TORSDOF 0
ENDMDL
