MODEL 1
REMARK minimizedAffinity -2.89163828
REMARK minimizedRMSD -1
REMARK  0 active torsions:
REMARK  status: ('A' for Active; 'I' for Inactive)
ROOT
ATOM      1  C2' OXE d   1       1.999  -3.104   0.167  0.00  0.00     0.078 C 
ATOM      2  C1' OXE d   1       3.240  -2.198  -2.183  0.00  0.00     0.078 C 
ATOM      3  C1  OXE d   1       3.918  -3.301  -1.409  0.00  0.00    -0.078 A 
ATOM      4  C2  OXE d   1       3.328  -3.706  -0.236  0.00  0.00    -0.078 A 
ATOM      5  C3  OXE d   1       3.883  -4.757   0.488  0.00  0.00     0.003 A 
ATOM      6  C4  OXE d   1       5.117  -5.302   0.113  0.00  0.00    -0.002 A 
ATOM      7  C5  OXE d   1       5.755  -4.877  -1.057  0.00  0.00    -0.002 A 
ATOM      8  C6  OXE d   1       5.149  -3.909  -1.850  0.00  0.00     0.003 A 
ENDROOT
TORSDOF 0
ENDMDL
