MODEL 1
REMARK minimizedAffinity -1.6461376
REMARK minimizedRMSD -1
REMARK  0 active torsions:
REMARK  status: ('A' for Active; 'I' for Inactive)
ROOT
ATOM      1  C2' OXE d   1       1.059  -3.866   0.817  0.00  0.00     0.078 C 
ATOM      2  C1' OXE d   1       1.814  -1.732  -0.842  0.00  0.00     0.078 C 
ATOM      3  C1  OXE d   1       2.732  -2.926  -0.771  0.00  0.00    -0.078 A 
ATOM      4  C2  OXE d   1       2.378  -3.946   0.079  0.00  0.00    -0.078 A 
ATOM      5  C3  OXE d   1       3.161  -5.095   0.142  0.00  0.00     0.003 A 
ATOM      6  C4  OXE d   1       4.385  -5.156  -0.536  0.00  0.00    -0.002 A 
ATOM      7  C5  OXE d   1       4.784  -4.112  -1.376  0.00  0.00    -0.002 A 
ATOM      8  C6  OXE d   1       3.951  -3.010  -1.538  0.00  0.00     0.003 A 
ENDROOT
TORSDOF 0
ENDMDL
