MODEL 1
REMARK minimizedAffinity -1.64551556
REMARK minimizedRMSD -1
REMARK  0 active torsions:
REMARK  status: ('A' for Active; 'I' for Inactive)
ROOT
ATOM      1  C2' OXE d   1       1.813  -3.467  -0.843  0.00  0.00     0.078 C 
ATOM      2  C1' OXE d   1       3.015  -1.076   0.006  0.00  0.00     0.078 C 
ATOM      3  C1  OXE d   1       3.875  -2.313  -0.056  0.00  0.00    -0.078 A 
ATOM      4  C2  OXE d   1       3.268  -3.488  -0.428  0.00  0.00    -0.078 A 
ATOM      5  C3  OXE d   1       4.028  -4.648  -0.555  0.00  0.00     0.003 A 
ATOM      6  C4  OXE d   1       5.371  -4.661  -0.159  0.00  0.00    -0.002 A 
ATOM      7  C5  OXE d   1       6.000  -3.484   0.261  0.00  0.00    -0.002 A 
ATOM      8  C6  OXE d   1       5.278  -2.295   0.277  0.00  0.00     0.003 A 
ENDROOT
TORSDOF 0
ENDMDL
