MODEL 1
REMARK minimizedAffinity 8.62091732
REMARK minimizedRMSD -1
REMARK  0 active torsions:
REMARK  status: ('A' for Active; 'I' for Inactive)
ROOT
ATOM      1  C2' OXE d   1      -3.634  -4.370  -3.810  0.00  0.00     0.078 C 
ATOM      2  C1' OXE d   1      -1.655  -2.380  -3.768  0.00  0.00     0.078 C 
ATOM      3  C1  OXE d   1      -1.383  -3.626  -4.574  0.00  0.00    -0.078 A 
ATOM      4  C2  OXE d   1      -2.337  -4.615  -4.551  0.00  0.00    -0.078 A 
ATOM      5  C3  OXE d   1      -2.161  -5.761  -5.320  0.00  0.00     0.003 A 
ATOM      6  C4  OXE d   1      -0.954  -5.983  -5.995  0.00  0.00    -0.002 A 
ATOM      7  C5  OXE d   1       0.047  -5.006  -5.999  0.00  0.00    -0.002 A 
ATOM      8  C6  OXE d   1      -0.168  -3.807  -5.330  0.00  0.00     0.003 A 
ENDROOT
TORSDOF 0
ENDMDL
