MODEL 1
REMARK minimizedAffinity 3.5836556
REMARK minimizedRMSD -1
REMARK  0 active torsions:
REMARK  status: ('A' for Active; 'I' for Inactive)
ROOT
ATOM      1  C2' OXE d   1       5.890  -3.192  -2.144  0.00  0.00     0.078 C 
ATOM      2  C1' OXE d   1       5.940  -5.999  -2.126  0.00  0.00     0.078 C 
ATOM      3  C1  OXE d   1       5.937  -5.287  -0.797  0.00  0.00    -0.078 A 
ATOM      4  C2  OXE d   1       5.959  -3.913  -0.815  0.00  0.00    -0.078 A 
ATOM      5  C3  OXE d   1       5.902  -3.206   0.383  0.00  0.00     0.003 A 
ATOM      6  C4  OXE d   1       5.977  -3.880   1.607  0.00  0.00    -0.002 A 
ATOM      7  C5  OXE d   1       5.995  -5.278   1.648  0.00  0.00    -0.002 A 
ATOM      8  C6  OXE d   1       5.933  -5.996   0.459  0.00  0.00     0.003 A 
ENDROOT
TORSDOF 0
ENDMDL
