MODEL 1
REMARK minimizedAffinity 12.0979242
REMARK minimizedRMSD -1
REMARK  0 active torsions:
REMARK  status: ('A' for Active; 'I' for Inactive)
ROOT
ATOM      1  C2' OXE d   1      -3.935   4.119  -1.120  0.00  0.00     0.078 C 
ATOM      2  C1' OXE d   1      -1.843   4.236   0.748  0.00  0.00     0.078 C 
ATOM      3  C1  OXE d   1      -2.677   2.981   0.704  0.00  0.00    -0.078 A 
ATOM      4  C2  OXE d   1      -3.728   2.950  -0.181  0.00  0.00    -0.078 A 
ATOM      5  C3  OXE d   1      -4.495   1.795  -0.300  0.00  0.00     0.003 A 
ATOM      6  C4  OXE d   1      -4.303   0.723   0.579  0.00  0.00    -0.002 A 
ATOM      7  C5  OXE d   1      -3.264   0.749   1.515  0.00  0.00    -0.002 A 
ATOM      8  C6  OXE d   1      -2.416   1.851   1.561  0.00  0.00     0.003 A 
ENDROOT
TORSDOF 0
ENDMDL
