MODEL 1
REMARK minimizedAffinity 7.99831247
REMARK minimizedRMSD -1
REMARK  0 active torsions:
REMARK  status: ('A' for Active; 'I' for Inactive)
ROOT
ATOM      1  C2' OXE d   1       2.296   2.619  -3.011  0.00  0.00     0.078 C 
ATOM      2  C1' OXE d   1       0.341   4.382  -3.983  0.00  0.00     0.078 C 
ATOM      3  C1  OXE d   1       0.450   4.207  -2.489  0.00  0.00    -0.078 A 
ATOM      4  C2  OXE d   1       1.378   3.307  -2.024  0.00  0.00    -0.078 A 
ATOM      5  C3  OXE d   1       1.558   3.148  -0.653  0.00  0.00     0.003 A 
ATOM      6  C4  OXE d   1       0.698   3.781   0.252  0.00  0.00    -0.002 A 
ATOM      7  C5  OXE d   1      -0.281   4.672  -0.202  0.00  0.00    -0.002 A 
ATOM      8  C6  OXE d   1      -0.389   4.928  -1.564  0.00  0.00     0.003 A 
ENDROOT
TORSDOF 0
ENDMDL
