MODEL 1
REMARK minimizedAffinity -0.389855444
REMARK minimizedRMSD -1
REMARK  0 active torsions:
REMARK  status: ('A' for Active; 'I' for Inactive)
ROOT
ATOM      1  C2' OXE d   1       0.542  -3.355   0.499  0.00  0.00     0.078 C 
ATOM      2  C1' OXE d   1       2.299  -1.179   0.738  0.00  0.00     0.078 C 
ATOM      3  C1  OXE d   1       2.882  -2.514   0.348  0.00  0.00    -0.078 A 
ATOM      4  C2  OXE d   1       2.022  -3.584   0.278  0.00  0.00    -0.078 A 
ATOM      5  C3  OXE d   1       2.498  -4.826  -0.131  0.00  0.00     0.003 A 
ATOM      6  C4  OXE d   1       3.869  -5.031  -0.323  0.00  0.00    -0.002 A 
ATOM      7  C5  OXE d   1       4.768  -3.964  -0.219  0.00  0.00    -0.002 A 
ATOM      8  C6  OXE d   1       4.286  -2.693   0.073  0.00  0.00     0.003 A 
ENDROOT
TORSDOF 0
ENDMDL
