MODEL 1
REMARK minimizedAffinity 7.34112215
REMARK minimizedRMSD -1
REMARK  0 active torsions:
REMARK  status: ('A' for Active; 'I' for Inactive)
ROOT
ATOM      1  C2' OXE d   1       4.965   2.866  -1.415  0.00  0.00     0.078 C 
ATOM      2  C1' OXE d   1       2.901   2.807   0.486  0.00  0.00     0.078 C 
ATOM      3  C1  OXE d   1       3.881   3.951   0.548  0.00  0.00    -0.078 A 
ATOM      4  C2  OXE d   1       4.916   3.947  -0.357  0.00  0.00    -0.078 A 
ATOM      5  C3  OXE d   1       5.817   5.007  -0.379  0.00  0.00     0.003 A 
ATOM      6  C4  OXE d   1       5.770   5.998   0.610  0.00  0.00    -0.002 A 
ATOM      7  C5  OXE d   1       4.748   6.000   1.565  0.00  0.00    -0.002 A 
ATOM      8  C6  OXE d   1       3.773   5.009   1.522  0.00  0.00     0.003 A 
ENDROOT
TORSDOF 0
ENDMDL
