MODEL 1
REMARK minimizedAffinity 2.83767366
REMARK minimizedRMSD -1
REMARK  0 active torsions:
REMARK  status: ('A' for Active; 'I' for Inactive)
ROOT
ATOM      1  C2' OXE d   1       4.494   3.454  -1.056  0.00  0.00     0.078 C 
ATOM      2  C1' OXE d   1       5.704   5.538   0.385  0.00  0.00     0.078 C 
ATOM      3  C1  OXE d   1       4.245   5.258   0.645  0.00  0.00    -0.078 A 
ATOM      4  C2  OXE d   1       3.650   4.267  -0.098  0.00  0.00    -0.078 A 
ATOM      5  C3  OXE d   1       2.320   3.931   0.141  0.00  0.00     0.003 A 
ATOM      6  C4  OXE d   1       1.543   4.695   1.020  0.00  0.00    -0.002 A 
ATOM      7  C5  OXE d   1       2.120   5.734   1.758  0.00  0.00    -0.002 A 
ATOM      8  C6  OXE d   1       3.478   6.000   1.614  0.00  0.00     0.003 A 
ENDROOT
TORSDOF 0
ENDMDL
