MODEL 1
REMARK minimizedAffinity 5.75432968
REMARK minimizedRMSD -1
REMARK  0 active torsions:
REMARK  status: ('A' for Active; 'I' for Inactive)
ROOT
ATOM      1  C2' OXE d   1       4.938   2.478   0.541  0.00  0.00     0.078 C 
ATOM      2  C1' OXE d   1       4.341   2.392  -2.201  0.00  0.00     0.078 C 
ATOM      3  C1  OXE d   1       3.609   1.438  -1.291  0.00  0.00    -0.078 A 
ATOM      4  C2  OXE d   1       3.941   1.454   0.042  0.00  0.00    -0.078 A 
ATOM      5  C3  OXE d   1       3.257   0.632   0.933  0.00  0.00     0.003 A 
ATOM      6  C4  OXE d   1       2.344  -0.319   0.462  0.00  0.00    -0.002 A 
ATOM      7  C5  OXE d   1       2.020  -0.380  -0.897  0.00  0.00    -0.002 A 
ATOM      8  C6  OXE d   1       2.611   0.518  -1.780  0.00  0.00     0.003 A 
ENDROOT
TORSDOF 0
ENDMDL
