MODEL 1
REMARK minimizedAffinity 11.2939482
REMARK minimizedRMSD -1
REMARK  0 active torsions:
REMARK  status: ('A' for Active; 'I' for Inactive)
ROOT
ATOM      1  C2' OXE d   1       2.166  -1.864  -1.461  0.00  0.00     0.078 C 
ATOM      2  C1' OXE d   1       1.381  -0.229   0.682  0.00  0.00     0.078 C 
ATOM      3  C1  OXE d   1       2.342   0.347  -0.327  0.00  0.00    -0.078 A 
ATOM      4  C2  OXE d   1       2.757  -0.476  -1.347  0.00  0.00    -0.078 A 
ATOM      5  C3  OXE d   1       3.601   0.023  -2.336  0.00  0.00     0.003 A 
ATOM      6  C4  OXE d   1       4.150   1.306  -2.217  0.00  0.00    -0.002 A 
ATOM      7  C5  OXE d   1       3.772   2.146  -1.165  0.00  0.00    -0.002 A 
ATOM      8  C6  OXE d   1       2.838   1.698  -0.237  0.00  0.00     0.003 A 
ENDROOT
TORSDOF 0
ENDMDL
