MODEL 1
REMARK minimizedAffinity 13.2054319
REMARK minimizedRMSD -1
REMARK  0 active torsions:
REMARK  status: ('A' for Active; 'I' for Inactive)
ROOT
ATOM      1  C2' OXE d   1       0.564  -1.388  -2.314  0.00  0.00     0.078 C 
ATOM      2  C1' OXE d   1       1.795  -2.599  -0.101  0.00  0.00     0.078 C 
ATOM      3  C1  OXE d   1       1.866  -1.096  -0.210  0.00  0.00    -0.078 A 
ATOM      4  C2  OXE d   1       1.301  -0.516  -1.321  0.00  0.00    -0.078 A 
ATOM      5  C3  OXE d   1       1.291   0.870  -1.444  0.00  0.00     0.003 A 
ATOM      6  C4  OXE d   1       1.983   1.669  -0.526  0.00  0.00    -0.002 A 
ATOM      7  C5  OXE d   1       2.599   1.095   0.591  0.00  0.00    -0.002 A 
ATOM      8  C6  OXE d   1       2.513  -0.279   0.786  0.00  0.00     0.003 A 
ENDROOT
TORSDOF 0
ENDMDL
