MODEL 1
REMARK minimizedAffinity 17.4411697
REMARK minimizedRMSD -1
REMARK  0 active torsions:
REMARK  status: ('A' for Active; 'I' for Inactive)
ROOT
ATOM      1  C2' OXE d   1       2.321  -1.672   1.241  0.00  0.00     0.078 C 
ATOM      2  C1' OXE d   1       2.011   0.639  -0.323  0.00  0.00     0.078 C 
ATOM      3  C1  OXE d   1       3.365   0.380   0.290  0.00  0.00    -0.078 A 
ATOM      4  C2  OXE d   1       3.494  -0.728   1.092  0.00  0.00    -0.078 A 
ATOM      5  C3  OXE d   1       4.736  -1.043   1.637  0.00  0.00     0.003 A 
ATOM      6  C4  OXE d   1       5.814  -0.160   1.503  0.00  0.00    -0.002 A 
ATOM      7  C5  OXE d   1       5.692   0.995   0.723  0.00  0.00    -0.002 A 
ATOM      8  C6  OXE d   1       4.489   1.257   0.077  0.00  0.00     0.003 A 
ENDROOT
TORSDOF 0
ENDMDL
