MODEL 1
REMARK minimizedAffinity 11.0063915
REMARK minimizedRMSD -1
REMARK  0 active torsions:
REMARK  status: ('A' for Active; 'I' for Inactive)
ROOT
ATOM      1  C2' OXE d   1       2.169  -2.303   0.048  0.00  0.00     0.078 C 
ATOM      2  C1' OXE d   1       0.679  -0.546  -1.556  0.00  0.00     0.078 C 
ATOM      3  C1  OXE d   1       1.966  -0.033  -0.958  0.00  0.00    -0.078 A 
ATOM      4  C2  OXE d   1       2.665  -0.885  -0.137  0.00  0.00    -0.078 A 
ATOM      5  C3  OXE d   1       3.885  -0.481   0.397  0.00  0.00     0.003 A 
ATOM      6  C4  OXE d   1       4.331   0.836   0.229  0.00  0.00    -0.002 A 
ATOM      7  C5  OXE d   1       3.614   1.732  -0.571  0.00  0.00    -0.002 A 
ATOM      8  C6  OXE d   1       2.454   1.301  -1.205  0.00  0.00     0.003 A 
ENDROOT
TORSDOF 0
ENDMDL
