MODEL 1
REMARK minimizedAffinity 17.7683964
REMARK minimizedRMSD -1
REMARK  0 active torsions:
REMARK  status: ('A' for Active; 'I' for Inactive)
ROOT
ATOM      1  C2' OXE d   1       4.894   3.204   3.457  0.00  0.00     0.078 C 
ATOM      2  C1' OXE d   1       4.653   6.000   3.392  0.00  0.00     0.078 C 
ATOM      3  C1  OXE d   1       3.386   5.183   3.356  0.00  0.00    -0.078 A 
ATOM      4  C2  OXE d   1       3.515   3.815   3.341  0.00  0.00    -0.078 A 
ATOM      5  C3  OXE d   1       2.376   3.015   3.364  0.00  0.00     0.003 A 
ATOM      6  C4  OXE d   1       1.104   3.589   3.247  0.00  0.00    -0.002 A 
ATOM      7  C5  OXE d   1       0.952   4.979   3.221  0.00  0.00    -0.002 A 
ATOM      8  C6  OXE d   1       2.078   5.790   3.318  0.00  0.00     0.003 A 
ENDROOT
TORSDOF 0
ENDMDL
