MODEL 1
REMARK minimizedAffinity 11.6813126
REMARK minimizedRMSD -1
REMARK  0 active torsions:
REMARK  status: ('A' for Active; 'I' for Inactive)
ROOT
ATOM      1  C2' OXE d   1       4.460   1.525   1.313  0.00  0.00     0.078 C 
ATOM      2  C1' OXE d   1       4.368   2.124  -1.428  0.00  0.00     0.078 C 
ATOM      3  C1  OXE d   1       3.402   1.093  -0.900  0.00  0.00    -0.078 A 
ATOM      4  C2  OXE d   1       3.486   0.772   0.434  0.00  0.00    -0.078 A 
ATOM      5  C3  OXE d   1       2.582  -0.133   0.983  0.00  0.00     0.003 A 
ATOM      6  C4  OXE d   1       1.690  -0.832   0.161  0.00  0.00    -0.002 A 
ATOM      7  C5  OXE d   1       1.616  -0.550  -1.207  0.00  0.00    -0.002 A 
ATOM      8  C6  OXE d   1       2.433   0.438  -1.744  0.00  0.00     0.003 A 
ENDROOT
TORSDOF 0
ENDMDL
