MODEL 1
REMARK minimizedAffinity 18.7434025
REMARK minimizedRMSD -1
REMARK  0 active torsions:
REMARK  status: ('A' for Active; 'I' for Inactive)
ROOT
ATOM      1  C2' OXE d   1      -4.309   0.808  -0.000  0.00  0.00     0.078 C 
ATOM      2  C1' OXE d   1      -4.128   3.585  -0.375  0.00  0.00     0.078 C 
ATOM      3  C1  OXE d   1      -4.806   2.772  -1.450  0.00  0.00    -0.078 A 
ATOM      4  C2  OXE d   1      -4.849   1.409  -1.280  0.00  0.00    -0.078 A 
ATOM      5  C3  OXE d   1      -5.511   0.618  -2.215  0.00  0.00     0.003 A 
ATOM      6  C4  OXE d   1      -5.998   1.181  -3.401  0.00  0.00    -0.002 A 
ATOM      7  C5  OXE d   1      -5.930   2.562  -3.612  0.00  0.00    -0.002 A 
ATOM      8  C6  OXE d   1      -5.376   3.375  -2.630  0.00  0.00     0.003 A 
ENDROOT
TORSDOF 0
ENDMDL
