MODEL 1
REMARK minimizedAffinity 26.4123936
REMARK minimizedRMSD -1
REMARK  0 active torsions:
REMARK  status: ('A' for Active; 'I' for Inactive)
ROOT
ATOM      1  C2' OXE d   1       1.956  -2.056  -1.860  0.00  0.00     0.078 C 
ATOM      2  C1' OXE d   1      -0.303  -2.013  -3.526  0.00  0.00     0.078 C 
ATOM      3  C1  OXE d   1      -0.252  -3.054  -2.436  0.00  0.00    -0.078 A 
ATOM      4  C2  OXE d   1       0.878  -3.098  -1.655  0.00  0.00    -0.078 A 
ATOM      5  C3  OXE d   1       0.953  -4.003  -0.600  0.00  0.00     0.003 A 
ATOM      6  C4  OXE d   1      -0.044  -4.970  -0.424  0.00  0.00    -0.002 A 
ATOM      7  C5  OXE d   1      -1.186  -4.969  -1.233  0.00  0.00    -0.002 A 
ATOM      8  C6  OXE d   1      -1.324  -3.993  -2.214  0.00  0.00     0.003 A 
ENDROOT
TORSDOF 0
ENDMDL
