MODEL 1
REMARK minimizedAffinity 12.3143101
REMARK minimizedRMSD -1
REMARK  0 active torsions:
REMARK  status: ('A' for Active; 'I' for Inactive)
ROOT
ATOM      1  C2' OXE d   1      -3.219   1.138   0.652  0.00  0.00     0.078 C 
ATOM      2  C1' OXE d   1      -5.087   2.210  -1.149  0.00  0.00     0.078 C 
ATOM      3  C1  OXE d   1      -5.093   2.734   0.266  0.00  0.00    -0.078 A 
ATOM      4  C2  OXE d   1      -4.207   2.171   1.152  0.00  0.00    -0.078 A 
ATOM      5  C3  OXE d   1      -4.133   2.655   2.455  0.00  0.00     0.003 A 
ATOM      6  C4  OXE d   1      -5.056   3.603   2.912  0.00  0.00    -0.002 A 
ATOM      7  C5  OXE d   1      -5.993   4.162   2.036  0.00  0.00    -0.002 A 
ATOM      8  C6  OXE d   1      -5.997   3.770   0.702  0.00  0.00     0.003 A 
ENDROOT
TORSDOF 0
ENDMDL
