MODEL 1
REMARK minimizedAffinity 0.73714751
REMARK minimizedRMSD -1
REMARK  1 active torsions:
REMARK  status: ('A' for Active; 'I' for Inactive)
REMARK    1  A    between atoms: C1_2  and  C2_3 
ROOT
ATOM      1  C2  UNL d   1       3.841   3.135  -5.388  0.00  0.00    -0.077 A 
ATOM      2  C3  UNL d   1       2.439   3.155  -5.392  0.00  0.00     0.002 A 
ATOM      3  C4  UNL d   1       1.751   4.332  -5.694  0.00  0.00     0.002 A 
ATOM      4  C5  UNL d   1       2.454   5.495  -5.999  0.00  0.00    -0.004 A 
ATOM      5  C6  UNL d   1       3.849   5.485  -5.996  0.00  0.00     0.002 A 
ATOM      6  C7  UNL d   1       4.539   4.311  -5.693  0.00  0.00     0.002 A 
ENDROOT
BRANCH   1   7
ATOM      7  C1  UNL d   1       4.586   1.856  -5.111  0.00  0.00     0.055 C 
ATOM      8  C   UNL d   1       4.359   1.382  -3.683  0.00  0.00     0.019 C 
ENDBRANCH   1   7
TORSDOF 1
ENDMDL
