MODEL 1
REMARK minimizedAffinity -3.39140511
REMARK minimizedRMSD -1
REMARK  1 active torsions:
REMARK  status: ('A' for Active; 'I' for Inactive)
REMARK    1  A    between atoms: C1_2  and  C2_3 
ROOT
ATOM      1  C2  UNL d   1       2.540   4.330  -5.377  0.00  0.00    -0.077 A 
ATOM      2  C3  UNL d   1       3.000   3.006  -5.376  0.00  0.00     0.002 A 
ATOM      3  C4  UNL d   1       4.331   2.720  -5.686  0.00  0.00     0.002 A 
ATOM      4  C5  UNL d   1       5.214   3.753  -5.994  0.00  0.00    -0.004 A 
ATOM      5  C6  UNL d   1       4.765   5.073  -6.000  0.00  0.00     0.002 A 
ATOM      6  C7  UNL d   1       3.435   5.361  -5.692  0.00  0.00     0.002 A 
ENDROOT
BRANCH   1   7
ATOM      7  C1  UNL d   1       1.117   4.645  -4.996  0.00  0.00     0.055 C 
ATOM      8  C   UNL d   1       0.470   5.588  -6.000  0.00  0.00     0.019 C 
ENDBRANCH   1   7
TORSDOF 1
ENDMDL
