MODEL 1
REMARK minimizedAffinity -0.65380156
REMARK minimizedRMSD -1
REMARK  1 active torsions:
REMARK  status: ('A' for Active; 'I' for Inactive)
REMARK    1  A    between atoms: C1_2  and  C2_3 
ROOT
ATOM      1  C2  UNL d   1       3.036   4.686  -5.249  0.00  0.00    -0.077 A 
ATOM      2  C3  UNL d   1       2.728   3.542  -5.998  0.00  0.00     0.002 A 
ATOM      3  C4  UNL d   1       3.386   2.336  -5.748  0.00  0.00     0.002 A 
ATOM      4  C5  UNL d   1       4.353   2.263  -4.747  0.00  0.00    -0.004 A 
ATOM      5  C6  UNL d   1       4.667   3.396  -3.998  0.00  0.00     0.002 A 
ATOM      6  C7  UNL d   1       4.011   4.602  -4.248  0.00  0.00     0.002 A 
ENDROOT
BRANCH   1   7
ATOM      7  C1  UNL d   1       2.292   5.975  -5.484  0.00  0.00     0.055 C 
ATOM      8  C   UNL d   1       0.813   5.829  -5.156  0.00  0.00     0.019 C 
ENDBRANCH   1   7
TORSDOF 1
ENDMDL
