MODEL 1
REMARK minimizedAffinity -4.17477226
REMARK minimizedRMSD -1
REMARK  1 active torsions:
REMARK  status: ('A' for Active; 'I' for Inactive)
REMARK    1  A    between atoms: C1_2  and  C2_3 
ROOT
ATOM      1  C2  UNL d   1       2.349   4.459  -5.127  0.00  0.00    -0.077 A 
ATOM      2  C3  UNL d   1       2.487   3.122  -4.729  0.00  0.00     0.002 A 
ATOM      3  C4  UNL d   1       3.723   2.480  -4.829  0.00  0.00     0.002 A 
ATOM      4  C5  UNL d   1       4.830   3.168  -5.322  0.00  0.00    -0.004 A 
ATOM      5  C6  UNL d   1       4.702   4.497  -5.723  0.00  0.00     0.002 A 
ATOM      6  C7  UNL d   1       3.467   5.140  -5.625  0.00  0.00     0.002 A 
ENDROOT
BRANCH   1   7
ATOM      7  C1  UNL d   1       1.029   5.168  -4.975  0.00  0.00     0.055 C 
ATOM      8  C   UNL d   1      -0.002   4.639  -5.962  0.00  0.00     0.019 C 
ENDBRANCH   1   7
TORSDOF 1
ENDMDL
