MODEL 1
REMARK minimizedAffinity -1.14995921
REMARK minimizedRMSD -1
REMARK  1 active torsions:
REMARK  status: ('A' for Active; 'I' for Inactive)
REMARK    1  A    between atoms: C1_2  and  C2_3 
ROOT
ATOM      1  C2  UNL d   1       2.525   3.801  -5.258  0.00  0.00    -0.077 A 
ATOM      2  C3  UNL d   1       2.982   2.476  -5.263  0.00  0.00     0.002 A 
ATOM      3  C4  UNL d   1       4.296   2.183  -5.635  0.00  0.00     0.002 A 
ATOM      4  C5  UNL d   1       5.164   3.209  -6.000  0.00  0.00    -0.004 A 
ATOM      5  C6  UNL d   1       4.718   4.531  -6.000  0.00  0.00     0.002 A 
ATOM      6  C7  UNL d   1       3.405   4.825  -5.630  0.00  0.00     0.002 A 
ENDROOT
BRANCH   1   7
ATOM      7  C1  UNL d   1       1.124   4.124  -4.810  0.00  0.00     0.055 C 
ATOM      8  C   UNL d   1       0.218   4.420  -5.997  0.00  0.00     0.019 C 
ENDBRANCH   1   7
TORSDOF 1
ENDMDL
