MODEL 1
REMARK minimizedAffinity -2.6151154
REMARK minimizedRMSD -1
REMARK  1 active torsions:
REMARK  status: ('A' for Active; 'I' for Inactive)
REMARK    1  A    between atoms: C1_2  and  C2_3 
ROOT
ATOM      1  C2  UNL d   1       2.977   4.728  -5.859  0.00  0.00    -0.077 A 
ATOM      2  C3  UNL d   1       4.070   5.604  -5.935  0.00  0.00     0.002 A 
ATOM      3  C4  UNL d   1       5.372   5.104  -6.000  0.00  0.00     0.002 A 
ATOM      4  C5  UNL d   1       5.594   3.729  -5.994  0.00  0.00    -0.004 A 
ATOM      5  C6  UNL d   1       4.514   2.850  -5.916  0.00  0.00     0.002 A 
ATOM      6  C7  UNL d   1       3.212   3.347  -5.851  0.00  0.00     0.002 A 
ENDROOT
BRANCH   1   7
ATOM      7  C1  UNL d   1       1.570   5.263  -5.839  0.00  0.00     0.055 C 
ATOM      8  C   UNL d   1       0.550   4.145  -5.999  0.00  0.00     0.019 C 
ENDBRANCH   1   7
TORSDOF 1
ENDMDL
