MODEL 1
REMARK minimizedAffinity 3.16294909
REMARK minimizedRMSD -1
REMARK  1 active torsions:
REMARK  status: ('A' for Active; 'I' for Inactive)
REMARK    1  A    between atoms: C1_2  and  C2_3 
ROOT
ATOM      1  C2  UNL d   1       3.063   3.359  -5.629  0.00  0.00    -0.077 A 
ATOM      2  C3  UNL d   1       3.434   4.476  -4.866  0.00  0.00     0.002 A 
ATOM      3  C4  UNL d   1       2.478   5.419  -4.484  0.00  0.00     0.002 A 
ATOM      4  C5  UNL d   1       1.145   5.253  -4.856  0.00  0.00    -0.004 A 
ATOM      5  C6  UNL d   1       0.767   4.147  -5.616  0.00  0.00     0.002 A 
ATOM      6  C7  UNL d   1       1.722   3.204  -6.000  0.00  0.00     0.002 A 
ENDROOT
BRANCH   1   7
ATOM      7  C1  UNL d   1       4.084   2.316  -6.000  0.00  0.00     0.055 C 
ATOM      8  C   UNL d   1       3.733   0.961  -5.402  0.00  0.00     0.019 C 
ENDBRANCH   1   7
TORSDOF 1
ENDMDL
