MODEL 1
REMARK minimizedAffinity -2.91206765
REMARK minimizedRMSD -1
REMARK  1 active torsions:
REMARK  status: ('A' for Active; 'I' for Inactive)
REMARK    1  A    between atoms: C1_2  and  C2_3 
ROOT
ATOM      1  C2  UNL d   1       2.783   4.761  -5.611  0.00  0.00    -0.077 A 
ATOM      2  C3  UNL d   1       3.962   5.415  -5.996  0.00  0.00     0.002 A 
ATOM      3  C4  UNL d   1       5.179   4.732  -6.000  0.00  0.00     0.002 A 
ATOM      4  C5  UNL d   1       5.229   3.391  -5.624  0.00  0.00    -0.004 A 
ATOM      5  C6  UNL d   1       4.062   2.732  -5.238  0.00  0.00     0.002 A 
ATOM      6  C7  UNL d   1       2.845   3.414  -5.232  0.00  0.00     0.002 A 
ENDROOT
BRANCH   1   7
ATOM      7  C1  UNL d   1       1.461   5.482  -5.654  0.00  0.00     0.055 C 
ATOM      8  C   UNL d   1       0.323   4.533  -5.999  0.00  0.00     0.019 C 
ENDBRANCH   1   7
TORSDOF 1
ENDMDL
