MODEL 1
REMARK minimizedAffinity -2.83927727
REMARK minimizedRMSD -1
REMARK  1 active torsions:
REMARK  status: ('A' for Active; 'I' for Inactive)
REMARK    1  A    between atoms: C1_2  and  C2_3 
ROOT
ATOM      1  C2  UNL d   1       3.755   3.360  -5.663  0.00  0.00    -0.077 A 
ATOM      2  C3  UNL d   1       2.494   3.364  -5.051  0.00  0.00     0.002 A 
ATOM      3  C4  UNL d   1       1.843   4.569  -4.781  0.00  0.00     0.002 A 
ATOM      4  C5  UNL d   1       2.444   5.779  -5.123  0.00  0.00    -0.004 A 
ATOM      5  C6  UNL d   1       3.699   5.786  -5.730  0.00  0.00     0.002 A 
ATOM      6  C7  UNL d   1       4.352   4.582  -6.000  0.00  0.00     0.002 A 
ENDROOT
BRANCH   1   7
ATOM      7  C1  UNL d   1       4.437   2.060  -6.000  0.00  0.00     0.055 C 
ATOM      8  C   UNL d   1       3.823   0.898  -5.232  0.00  0.00     0.019 C 
ENDBRANCH   1   7
TORSDOF 1
ENDMDL
