MODEL 1
REMARK minimizedAffinity -1.74253786
REMARK minimizedRMSD -1
REMARK  1 active torsions:
REMARK  status: ('A' for Active; 'I' for Inactive)
REMARK    1  A    between atoms: C1_2  and  C2_3 
ROOT
ATOM      1  C2  UNL d   1       3.790   3.181  -5.948  0.00  0.00    -0.077 A 
ATOM      2  C3  UNL d   1       2.575   3.878  -5.895  0.00  0.00     0.002 A 
ATOM      3  C4  UNL d   1       2.560   5.274  -5.893  0.00  0.00     0.002 A 
ATOM      4  C5  UNL d   1       3.757   5.985  -5.949  0.00  0.00    -0.004 A 
ATOM      5  C6  UNL d   1       4.971   5.301  -5.999  0.00  0.00     0.002 A 
ATOM      6  C7  UNL d   1       4.988   3.906  -6.000  0.00  0.00     0.002 A 
ENDROOT
BRANCH   1   7
ATOM      7  C1  UNL d   1       3.806   1.676  -5.999  0.00  0.00     0.055 C 
ATOM      8  C   UNL d   1       4.506   1.088  -4.783  0.00  0.00     0.019 C 
ENDBRANCH   1   7
TORSDOF 1
ENDMDL
