MODEL 1
REMARK minimizedAffinity -3.45619369
REMARK minimizedRMSD -1
REMARK  1 active torsions:
REMARK  status: ('A' for Active; 'I' for Inactive)
REMARK    1  A    between atoms: C1_2  and  C2_3 
ROOT
ATOM      1  C2  UNL d   1       3.417   4.328  -5.366  0.00  0.00    -0.077 A 
ATOM      2  C3  UNL d   1       4.505   5.212  -5.354  0.00  0.00     0.002 A 
ATOM      3  C4  UNL d   1       5.789   4.756  -5.660  0.00  0.00     0.002 A 
ATOM      4  C5  UNL d   1       5.995   3.417  -5.985  0.00  0.00    -0.004 A 
ATOM      5  C6  UNL d   1       4.920   2.530  -5.998  0.00  0.00     0.002 A 
ATOM      6  C7  UNL d   1       3.636   2.983  -5.691  0.00  0.00     0.002 A 
ENDROOT
BRANCH   1   7
ATOM      7  C1  UNL d   1       2.024   4.828  -5.084  0.00  0.00     0.055 C 
ATOM      8  C   UNL d   1       0.993   4.102  -5.935  0.00  0.00     0.019 C 
ENDBRANCH   1   7
TORSDOF 1
ENDMDL
