MODEL 1
REMARK minimizedAffinity 7.09642363
REMARK minimizedRMSD -1
REMARK  0 active torsions:
REMARK  status: ('A' for Active; 'I' for Inactive)
ROOT
ATOM      1  C1  DEN d   1       0.423  -2.744   4.356  0.00  0.00     0.130 A 
ATOM      2  C2  DEN d   1       1.723  -2.701   5.020  0.00  0.00    -0.031 A 
ATOM      3  C3  DEN d   1       2.487  -1.570   4.456  0.00  0.00     0.027 A 
ATOM      4  C4  DEN d   1       1.785   0.112   2.630  0.00  0.00     0.027 A 
ATOM      5  C5  DEN d   1       0.779   0.470   1.762  0.00  0.00    -0.003 A 
ATOM      6  C6  DEN d   1      -0.394  -0.232   1.673  0.00  0.00     0.001 A 
ATOM      7  C7  DEN d   1      -0.608  -1.303   2.500  0.00  0.00     0.017 A 
ATOM      8  C8  DEN d   1       0.406  -1.675   3.373  0.00  0.00    -0.094 A 
ATOM      9  C9  DEN d   1       1.579  -0.945   3.456  0.00  0.00    -0.072 A 
ENDROOT
TORSDOF 0
ENDMDL
