MODEL 1
REMARK minimizedAffinity 8.67954636
REMARK minimizedRMSD -1
REMARK  0 active torsions:
REMARK  status: ('A' for Active; 'I' for Inactive)
ROOT
ATOM      1  C1  DEN d   1      -1.925  -0.295   2.040  0.00  0.00     0.130 A 
ATOM      2  C2  DEN d   1      -1.813   0.133   0.649  0.00  0.00    -0.031 A 
ATOM      3  C3  DEN d   1      -0.383   0.118   0.281  0.00  0.00     0.027 A 
ATOM      4  C4  DEN d   1       1.657  -0.527   1.721  0.00  0.00     0.027 A 
ATOM      5  C5  DEN d   1       2.063  -0.946   2.969  0.00  0.00    -0.003 A 
ATOM      6  C6  DEN d   1       1.178  -1.142   3.996  0.00  0.00     0.001 A 
ATOM      7  C7  DEN d   1      -0.163  -0.964   3.781  0.00  0.00     0.017 A 
ATOM      8  C8  DEN d   1      -0.579  -0.535   2.528  0.00  0.00    -0.094 A 
ATOM      9  C9  DEN d   1       0.330  -0.353   1.499  0.00  0.00    -0.072 A 
ENDROOT
TORSDOF 0
ENDMDL
