MODEL 1
REMARK minimizedAffinity 5.8397069
REMARK minimizedRMSD -1
REMARK  0 active torsions:
REMARK  status: ('A' for Active; 'I' for Inactive)
ROOT
ATOM      1  C1  DEN d   1      -0.211   0.619   0.967  0.00  0.00     0.130 A 
ATOM      2  C2  DEN d   1      -1.556   0.359   0.461  0.00  0.00    -0.031 A 
ATOM      3  C3  DEN d   1      -2.115  -0.781   1.215  0.00  0.00     0.027 A 
ATOM      4  C4  DEN d   1      -1.036  -2.159   3.110  0.00  0.00     0.027 A 
ATOM      5  C5  DEN d   1       0.098  -2.320   3.875  0.00  0.00    -0.003 A 
ATOM      6  C6  DEN d   1       1.212  -1.541   3.703  0.00  0.00     0.001 A 
ATOM      7  C7  DEN d   1       1.200  -0.535   2.773  0.00  0.00     0.017 A 
ATOM      8  C8  DEN d   1       0.063  -0.371   1.993  0.00  0.00    -0.094 A 
ATOM      9  C9  DEN d   1      -1.057  -1.161   2.190  0.00  0.00    -0.072 A 
ENDROOT
TORSDOF 0
ENDMDL
