MODEL 1
REMARK minimizedAffinity 2.0703311
REMARK minimizedRMSD -1
REMARK  0 active torsions:
REMARK  status: ('A' for Active; 'I' for Inactive)
ROOT
ATOM      1  C1  DEN d   1       0.243   0.384   1.989  0.00  0.00     0.130 A 
ATOM      2  C2  DEN d   1      -1.083   0.401   1.377  0.00  0.00    -0.031 A 
ATOM      3  C3  DEN d   1      -1.834  -0.765   1.884  0.00  0.00     0.027 A 
ATOM      4  C4  DEN d   1      -1.080  -2.583   3.551  0.00  0.00     0.027 A 
ATOM      5  C5  DEN d   1      -0.034  -3.026   4.331  0.00  0.00    -0.003 A 
ATOM      6  C6  DEN d   1       1.177  -2.388   4.359  0.00  0.00     0.001 A 
ATOM      7  C7  DEN d   1       1.360  -1.245   3.627  0.00  0.00     0.017 A 
ATOM      8  C8  DEN d   1       0.313  -0.796   2.832  0.00  0.00    -0.094 A 
ATOM      9  C9  DEN d   1      -0.908  -1.448   2.827  0.00  0.00    -0.072 A 
ENDROOT
TORSDOF 0
ENDMDL
