MODEL 1
REMARK minimizedAffinity 3.18859911
REMARK minimizedRMSD -1
REMARK  0 active torsions:
REMARK  status: ('A' for Active; 'I' for Inactive)
ROOT
ATOM      1  C1  DEN d   1      -0.427   1.269   2.921  0.00  0.00     0.130 A 
ATOM      2  C2  DEN d   1      -0.408   0.501   1.679  0.00  0.00    -0.031 A 
ATOM      3  C3  DEN d   1       0.372  -0.730   1.916  0.00  0.00     0.027 A 
ATOM      4  C4  DEN d   1       1.541  -1.520   4.075  0.00  0.00     0.027 A 
ATOM      5  C5  DEN d   1       1.813  -1.199   5.387  0.00  0.00    -0.003 A 
ATOM      6  C6  DEN d   1       1.389  -0.026   5.954  0.00  0.00     0.001 A 
ATOM      7  C7  DEN d   1       0.632   0.848   5.220  0.00  0.00     0.017 A 
ATOM      8  C8  DEN d   1       0.361   0.534   3.895  0.00  0.00    -0.094 A 
ATOM      9  C9  DEN d   1       0.787  -0.662   3.343  0.00  0.00    -0.072 A 
ENDROOT
TORSDOF 0
ENDMDL
