MODEL 1
REMARK minimizedAffinity 0.272710085
REMARK minimizedRMSD -1
REMARK  0 active torsions:
REMARK  status: ('A' for Active; 'I' for Inactive)
ROOT
ATOM      1  C1  DEN d   1      -1.822  -1.849   4.066  0.00  0.00     0.130 A 
ATOM      2  C2  DEN d   1      -2.956  -1.426   3.250  0.00  0.00    -0.031 A 
ATOM      3  C3  DEN d   1      -2.431  -0.669   2.095  0.00  0.00     0.027 A 
ATOM      4  C4  DEN d   1       0.016  -0.120   1.492  0.00  0.00     0.027 A 
ATOM      5  C5  DEN d   1       1.327  -0.258   1.889  0.00  0.00    -0.003 A 
ATOM      6  C6  DEN d   1       1.676  -0.900   3.047  0.00  0.00     0.001 A 
ATOM      7  C7  DEN d   1       0.705  -1.470   3.827  0.00  0.00     0.017 A 
ATOM      8  C8  DEN d   1      -0.621  -1.329   3.437  0.00  0.00    -0.094 A 
ATOM      9  C9  DEN d   1      -0.953  -0.686   2.256  0.00  0.00    -0.072 A 
ENDROOT
TORSDOF 0
ENDMDL
