MODEL 1
REMARK minimizedAffinity 13.0983086
REMARK minimizedRMSD -1
REMARK  0 active torsions:
REMARK  status: ('A' for Active; 'I' for Inactive)
ROOT
ATOM      1  C1  DEN d   1       0.370  -1.191   2.061  0.00  0.00     0.130 A 
ATOM      2  C2  DEN d   1      -0.228   0.124   1.850  0.00  0.00    -0.031 A 
ATOM      3  C3  DEN d   1      -0.093   0.893   3.103  0.00  0.00     0.027 A 
ATOM      4  C4  DEN d   1       0.984   0.181   5.336  0.00  0.00     0.027 A 
ATOM      5  C5  DEN d   1       1.616  -0.847   6.000  0.00  0.00    -0.003 A 
ATOM      6  C6  DEN d   1       1.845  -2.063   5.413  0.00  0.00     0.001 A 
ATOM      7  C7  DEN d   1       1.479  -2.268   4.109  0.00  0.00     0.017 A 
ATOM      8  C8  DEN d   1       0.835  -1.238   3.435  0.00  0.00    -0.094 A 
ATOM      9  C9  DEN d   1       0.623  -0.012   4.042  0.00  0.00    -0.072 A 
ENDROOT
TORSDOF 0
ENDMDL
