MODEL 1
REMARK minimizedAffinity 3.96537709
REMARK minimizedRMSD -1
REMARK  0 active torsions:
REMARK  status: ('A' for Active; 'I' for Inactive)
ROOT
ATOM      1  C1  DEN d   1      -1.306  -0.566  -6.000  0.00  0.00     0.130 A 
ATOM      2  C2  DEN d   1       0.010  -0.004  -5.705  0.00  0.00    -0.031 A 
ATOM      3  C3  DEN d   1      -0.116   0.846  -4.504  0.00  0.00     0.027 A 
ATOM      4  C4  DEN d   1      -2.208   1.341  -3.078  0.00  0.00     0.027 A 
ATOM      5  C5  DEN d   1      -3.557   1.101  -2.944  0.00  0.00    -0.003 A 
ATOM      6  C6  DEN d   1      -4.252   0.322  -3.831  0.00  0.00     0.001 A 
ATOM      7  C7  DEN d   1      -3.590  -0.282  -4.867  0.00  0.00     0.017 A 
ATOM      8  C8  DEN d   1      -2.231  -0.038  -5.014  0.00  0.00    -0.094 A 
ATOM      9  C9  DEN d   1      -1.544   0.742  -4.099  0.00  0.00    -0.072 A 
ENDROOT
TORSDOF 0
ENDMDL
