MODEL 1
REMARK minimizedAffinity 4.97295427
REMARK minimizedRMSD -1
REMARK  0 active torsions:
REMARK  status: ('A' for Active; 'I' for Inactive)
ROOT
ATOM      1  C1  DEN d   1       2.031  -0.746   3.718  0.00  0.00     0.130 A 
ATOM      2  C2  DEN d   1       1.744  -1.976   4.450  0.00  0.00    -0.031 A 
ATOM      3  C3  DEN d   1       0.392  -2.431   4.066  0.00  0.00     0.027 A 
ATOM      4  C4  DEN d   1      -1.272  -1.358   2.413  0.00  0.00     0.027 A 
ATOM      5  C5  DEN d   1      -1.479  -0.299   1.558  0.00  0.00    -0.003 A 
ATOM      6  C6  DEN d   1      -0.552   0.696   1.389  0.00  0.00     0.001 A 
ATOM      7  C7  DEN d   1       0.645   0.628   2.053  0.00  0.00     0.017 A 
ATOM      8  C8  DEN d   1       0.858  -0.434   2.923  0.00  0.00    -0.094 A 
ATOM      9  C9  DEN d   1      -0.087  -1.435   3.070  0.00  0.00    -0.072 A 
ENDROOT
TORSDOF 0
ENDMDL
