MODEL 1
REMARK minimizedAffinity -3.67527366
REMARK minimizedRMSD -1
REMARK  2 active torsions:
REMARK  status: ('A' for Active; 'I' for Inactive)
REMARK    1  A    between atoms: C1_2  and  C2_3 
REMARK    2  A    between atoms: C2_3  and  C3_4 
ROOT
ATOM      1  C3  UNL d   1       0.451  -0.352  -0.769  0.00  0.00    -0.075 A 
ATOM      2  C4  UNL d   1      -0.865   0.031  -0.475  0.00  0.00     0.002 A 
ATOM      3  C5  UNL d   1      -1.204   0.481   0.801  0.00  0.00     0.002 A 
ATOM      4  C6  UNL d   1      -0.235   0.543   1.801  0.00  0.00    -0.004 A 
ATOM      5  C7  UNL d   1       1.072   0.148   1.525  0.00  0.00     0.002 A 
ATOM      6  C8  UNL d   1       1.415  -0.298   0.247  0.00  0.00     0.002 A 
ENDROOT
BRANCH   1   7
ATOM      7  C2  UNL d   1       0.831  -0.812  -2.157  0.00  0.00     0.056 C 
BRANCH   7   8
ATOM      8  C1  UNL d   1       2.006  -0.042  -2.769  0.00  0.00     0.007 C 
ATOM      9  C   UNL d   1       1.755   0.392  -4.207  0.00  0.00     0.009 C 
ENDBRANCH   7   8
ENDBRANCH   1   7
TORSDOF 2
ENDMDL
