MODEL 1
REMARK minimizedAffinity -3.62006187
REMARK minimizedRMSD -1
REMARK  2 active torsions:
REMARK  status: ('A' for Active; 'I' for Inactive)
REMARK    1  A    between atoms: C1_2  and  C2_3 
REMARK    2  A    between atoms: C2_3  and  C3_4 
ROOT
ATOM      1  C3  UNL d   1       0.044  -0.406  -0.777  0.00  0.00    -0.075 A 
ATOM      2  C4  UNL d   1      -1.346  -0.231  -0.698  0.00  0.00     0.002 A 
ATOM      3  C5  UNL d   1      -1.930   0.290   0.457  0.00  0.00     0.002 A 
ATOM      4  C6  UNL d   1      -1.135   0.632   1.549  0.00  0.00    -0.004 A 
ATOM      5  C7  UNL d   1       0.244   0.447   1.488  0.00  0.00     0.002 A 
ATOM      6  C8  UNL d   1       0.832  -0.070   0.332  0.00  0.00     0.002 A 
ENDROOT
BRANCH   1   7
ATOM      7  C2  UNL d   1       0.685  -0.942  -2.034  0.00  0.00     0.056 C 
BRANCH   7   8
ATOM      8  C1  UNL d   1       1.448   0.112  -2.843  0.00  0.00     0.007 C 
ATOM      9  C   UNL d   1       0.817   0.402  -4.198  0.00  0.00     0.009 C 
ENDBRANCH   7   8
ENDBRANCH   1   7
TORSDOF 2
ENDMDL
