MODEL 1
REMARK minimizedAffinity -3.79481864
REMARK minimizedRMSD -1
REMARK  2 active torsions:
REMARK  status: ('A' for Active; 'I' for Inactive)
REMARK    1  A    between atoms: C1_2  and  C2_3 
REMARK    2  A    between atoms: C2_3  and  C3_4 
ROOT
ATOM      1  C3  UNL d   1      -0.302   0.166   0.267  0.00  0.00    -0.075 A 
ATOM      2  C4  UNL d   1       0.424   1.359   0.394  0.00  0.00     0.002 A 
ATOM      3  C5  UNL d   1       0.345   2.115   1.563  0.00  0.00     0.002 A 
ATOM      4  C6  UNL d   1      -0.467   1.696   2.614  0.00  0.00    -0.004 A 
ATOM      5  C7  UNL d   1      -1.206   0.521   2.493  0.00  0.00     0.002 A 
ATOM      6  C8  UNL d   1      -1.125  -0.240   1.326  0.00  0.00     0.002 A 
ENDROOT
BRANCH   1   7
ATOM      7  C2  UNL d   1      -0.198  -0.673  -0.984  0.00  0.00     0.056 C 
BRANCH   7   8
ATOM      8  C1  UNL d   1       0.875  -0.195  -1.968  0.00  0.00     0.007 C 
ATOM      9  C   UNL d   1       0.487  -0.402  -3.426  0.00  0.00     0.009 C 
ENDBRANCH   7   8
ENDBRANCH   1   7
TORSDOF 2
ENDMDL
