MODEL 1
REMARK minimizedAffinity -4.88300419
REMARK minimizedRMSD -1
REMARK  2 active torsions:
REMARK  status: ('A' for Active; 'I' for Inactive)
REMARK    1  A    between atoms: C1_2  and  C2_3 
REMARK    2  A    between atoms: C2_3  and  C3_4 
ROOT
ATOM      1  C3  UNL d   1       0.061  -0.185  -0.059  0.00  0.00    -0.075 A 
ATOM      2  C4  UNL d   1       0.700   0.453   1.014  0.00  0.00     0.002 A 
ATOM      3  C5  UNL d   1      -0.047   1.057   2.025  0.00  0.00     0.002 A 
ATOM      4  C6  UNL d   1      -1.439   1.040   1.972  0.00  0.00    -0.004 A 
ATOM      5  C7  UNL d   1      -2.084   0.423   0.903  0.00  0.00     0.002 A 
ATOM      6  C8  UNL d   1      -1.339  -0.185  -0.109  0.00  0.00     0.002 A 
ENDROOT
BRANCH   1   7
ATOM      7  C2  UNL d   1       0.864  -0.866  -1.142  0.00  0.00     0.056 C 
BRANCH   7   8
ATOM      8  C1  UNL d   1       0.600  -0.322  -2.550  0.00  0.00     0.007 C 
ATOM      9  C   UNL d   1       1.789   0.426  -3.137  0.00  0.00     0.009 C 
ENDBRANCH   7   8
ENDBRANCH   1   7
TORSDOF 2
ENDMDL
