MODEL 1
REMARK minimizedAffinity -3.55510545
REMARK minimizedRMSD -1
REMARK  2 active torsions:
REMARK  status: ('A' for Active; 'I' for Inactive)
REMARK    1  A    between atoms: C1_2  and  C2_3 
REMARK    2  A    between atoms: C2_3  and  C3_4 
ROOT
ATOM      1  C3  UNL d   1      -0.505   0.062   0.877  0.00  0.00    -0.075 A 
ATOM      2  C4  UNL d   1       0.831  -0.208   1.208  0.00  0.00     0.002 A 
ATOM      3  C5  UNL d   1       1.270  -0.092   2.528  0.00  0.00     0.002 A 
ATOM      4  C6  UNL d   1       0.385   0.305   3.528  0.00  0.00    -0.004 A 
ATOM      5  C7  UNL d   1      -0.940   0.591   3.206  0.00  0.00     0.002 A 
ATOM      6  C8  UNL d   1      -1.383   0.472   1.888  0.00  0.00     0.002 A 
ENDROOT
BRANCH   1   7
ATOM      7  C2  UNL d   1      -0.994  -0.090  -0.544  0.00  0.00     0.056 C 
BRANCH   7   8
ATOM      8  C1  UNL d   1      -0.104  -0.980  -1.418  0.00  0.00     0.007 C 
ATOM      9  C   UNL d   1       0.300  -0.321  -2.730  0.00  0.00     0.009 C 
ENDBRANCH   7   8
ENDBRANCH   1   7
TORSDOF 2
ENDMDL
