MODEL 1
REMARK minimizedAffinity -3.33669567
REMARK minimizedRMSD -1
REMARK  2 active torsions:
REMARK  status: ('A' for Active; 'I' for Inactive)
REMARK    1  A    between atoms: C1_2  and  C2_3 
REMARK    2  A    between atoms: C2_3  and  C3_4 
ROOT
ATOM      1  C3  UNL d   1      -0.172   0.406   0.641  0.00  0.00    -0.075 A 
ATOM      2  C4  UNL d   1       0.195   0.877   1.910  0.00  0.00     0.002 A 
ATOM      3  C5  UNL d   1      -0.727   0.883   2.958  0.00  0.00     0.002 A 
ATOM      4  C6  UNL d   1      -2.027   0.428   2.748  0.00  0.00    -0.004 A 
ATOM      5  C7  UNL d   1      -2.407  -0.026   1.487  0.00  0.00     0.002 A 
ATOM      6  C8  UNL d   1      -1.486  -0.037   0.438  0.00  0.00     0.002 A 
ENDROOT
BRANCH   1   7
ATOM      7  C2  UNL d   1       0.829   0.370  -0.489  0.00  0.00     0.056 C 
BRANCH   7   8
ATOM      8  C1  UNL d   1       0.662  -0.826  -1.432  0.00  0.00     0.007 C 
ATOM      9  C   UNL d   1       1.047  -0.514  -2.872  0.00  0.00     0.009 C 
ENDBRANCH   7   8
ENDBRANCH   1   7
TORSDOF 2
ENDMDL
