MODEL 1
REMARK minimizedAffinity -5.07798862
REMARK minimizedRMSD -1
REMARK  2 active torsions:
REMARK  status: ('A' for Active; 'I' for Inactive)
REMARK    1  A    between atoms: C1_2  and  C2_3 
REMARK    2  A    between atoms: C2_3  and  C3_4 
ROOT
ATOM      1  C3  UNL d   1      -0.029   0.104   0.376  0.00  0.00    -0.075 A 
ATOM      2  C4  UNL d   1      -1.096  -0.293   1.195  0.00  0.00     0.002 A 
ATOM      3  C5  UNL d   1      -1.479   0.486   2.287  0.00  0.00     0.002 A 
ATOM      4  C6  UNL d   1      -0.796   1.664   2.580  0.00  0.00    -0.004 A 
ATOM      5  C7  UNL d   1       0.276   2.060   1.783  0.00  0.00     0.002 A 
ATOM      6  C8  UNL d   1       0.659   1.285   0.687  0.00  0.00     0.002 A 
ENDROOT
BRANCH   1   7
ATOM      7  C2  UNL d   1       0.372  -0.719  -0.825  0.00  0.00     0.056 C 
BRANCH   7   8
ATOM      8  C1  UNL d   1       1.187   0.054  -1.867  0.00  0.00     0.007 C 
ATOM      9  C   UNL d   1       0.655  -0.106  -3.285  0.00  0.00     0.009 C 
ENDBRANCH   7   8
ENDBRANCH   1   7
TORSDOF 2
ENDMDL
