MODEL 1
REMARK minimizedAffinity -4.95722294
REMARK minimizedRMSD -1
REMARK  2 active torsions:
REMARK  status: ('A' for Active; 'I' for Inactive)
REMARK    1  A    between atoms: C1_2  and  C2_3 
REMARK    2  A    between atoms: C2_3  and  C3_4 
ROOT
ATOM      1  C3  UNL d   1       0.101   0.032  -0.017  0.00  0.00    -0.075 A 
ATOM      2  C4  UNL d   1       0.867   0.708   0.943  0.00  0.00     0.002 A 
ATOM      3  C5  UNL d   1       0.249   1.369   2.005  0.00  0.00     0.002 A 
ATOM      4  C6  UNL d   1      -1.140   1.370   2.115  0.00  0.00    -0.004 A 
ATOM      5  C7  UNL d   1      -1.911   0.716   1.157  0.00  0.00     0.002 A 
ATOM      6  C8  UNL d   1      -1.295   0.050   0.096  0.00  0.00     0.002 A 
ENDROOT
BRANCH   1   7
ATOM      7  C2  UNL d   1       0.765  -0.710  -1.153  0.00  0.00     0.056 C 
BRANCH   7   8
ATOM      8  C1  UNL d   1       0.366  -0.207  -2.544  0.00  0.00     0.007 C 
ATOM      9  C   UNL d   1       1.366   0.775  -3.138  0.00  0.00     0.009 C 
ENDBRANCH   7   8
ENDBRANCH   1   7
TORSDOF 2
ENDMDL
