MODEL 1
REMARK minimizedAffinity 5.80604887
REMARK minimizedRMSD -1
REMARK  0 active torsions:
REMARK  status: ('A' for Active; 'I' for Inactive)
ROOT
ATOM      1  C4' PXY d   1       0.485  -6.000  -3.249  0.00  0.00     0.077 C 
ATOM      2  C1' PXY d   1      -4.432  -4.708  -5.999  0.00  0.00     0.077 C 
ATOM      3  C1  PXY d   1      -3.140  -5.055  -5.287  0.00  0.00    -0.082 A 
ATOM      4  C2  PXY d   1      -3.019  -4.808  -3.993  0.00  0.00     0.003 A 
ATOM      5  C3  PXY d   1      -1.846  -5.087  -3.340  0.00  0.00     0.003 A 
ATOM      6  C4  PXY d   1      -0.804  -5.674  -4.007  0.00  0.00    -0.082 A 
ATOM      7  C5  PXY d   1      -0.923  -5.939  -5.325  0.00  0.00     0.003 A 
ATOM      8  C6  PXY d   1      -2.107  -5.610  -5.979  0.00  0.00     0.003 A 
ENDROOT
TORSDOF 0
ENDMDL
