MODEL 1
REMARK minimizedAffinity -1.15054929
REMARK minimizedRMSD -1
REMARK  0 active torsions:
REMARK  status: ('A' for Active; 'I' for Inactive)
ROOT
ATOM      1  C4' PXY d   1      -3.977  -0.698  -0.807  0.00  0.00     0.077 C 
ATOM      2  C1' PXY d   1       0.419  -3.283   1.914  0.00  0.00     0.077 C 
ATOM      3  C1  PXY d   1      -0.732  -2.613   1.190  0.00  0.00    -0.082 A 
ATOM      4  C2  PXY d   1      -1.044  -1.360   1.476  0.00  0.00     0.003 A 
ATOM      5  C3  PXY d   1      -2.103  -0.749   0.854  0.00  0.00     0.003 A 
ATOM      6  C4  PXY d   1      -2.817  -1.411  -0.108  0.00  0.00    -0.082 A 
ATOM      7  C5  PXY d   1      -2.498  -2.687  -0.413  0.00  0.00     0.003 A 
ATOM      8  C6  PXY d   1      -1.446  -3.303   0.259  0.00  0.00     0.003 A 
ENDROOT
TORSDOF 0
ENDMDL
