MODEL 1
REMARK minimizedAffinity 1.12152231
REMARK minimizedRMSD -1
REMARK  0 active torsions:
REMARK  status: ('A' for Active; 'I' for Inactive)
ROOT
ATOM      1  C4' PXY d   1       0.272  -1.708  -0.810  0.00  0.00     0.077 C 
ATOM      2  C1' PXY d   1      -3.298  -0.199   3.479  0.00  0.00     0.077 C 
ATOM      3  C1  PXY d   1      -2.359  -0.605   2.361  0.00  0.00    -0.082 A 
ATOM      4  C2  PXY d   1      -1.892   0.314   1.532  0.00  0.00     0.003 A 
ATOM      5  C3  PXY d   1      -1.066  -0.040   0.496  0.00  0.00     0.003 A 
ATOM      6  C4  PXY d   1      -0.672  -1.342   0.339  0.00  0.00    -0.082 A 
ATOM      7  C5  PXY d   1      -1.136  -2.285   1.187  0.00  0.00     0.003 A 
ATOM      8  C6  PXY d   1      -2.005  -1.910   2.207  0.00  0.00     0.003 A 
ENDROOT
TORSDOF 0
ENDMDL
