MODEL 1
REMARK minimizedAffinity -0.0150865214
REMARK minimizedRMSD -1
REMARK  0 active torsions:
REMARK  status: ('A' for Active; 'I' for Inactive)
ROOT
ATOM      1  C4' PXY d   1      -5.638  -3.109  -5.516  0.00  0.00     0.077 C 
ATOM      2  C1' PXY d   1      -0.949  -5.999  -3.762  0.00  0.00     0.077 C 
ATOM      3  C1  PXY d   1      -2.173  -5.239  -4.233  0.00  0.00    -0.082 A 
ATOM      4  C2  PXY d   1      -3.025  -4.755  -3.344  0.00  0.00     0.003 A 
ATOM      5  C3  PXY d   1      -4.153  -4.093  -3.753  0.00  0.00     0.003 A 
ATOM      6  C4  PXY d   1      -4.385  -3.876  -5.085  0.00  0.00    -0.082 A 
ATOM      7  C5  PXY d   1      -3.514  -4.356  -5.999  0.00  0.00     0.003 A 
ATOM      8  C6  PXY d   1      -2.396  -5.062  -5.564  0.00  0.00     0.003 A 
ENDROOT
TORSDOF 0
ENDMDL
