MODEL 1
REMARK minimizedAffinity -2.04908681
REMARK minimizedRMSD -1
REMARK  0 active torsions:
REMARK  status: ('A' for Active; 'I' for Inactive)
ROOT
ATOM      1  C4' PXY d   1      -5.712  -3.440  -4.460  0.00  0.00     0.077 C 
ATOM      2  C1' PXY d   1      -0.504  -5.853  -5.144  0.00  0.00     0.077 C 
ATOM      3  C1  PXY d   1      -1.872  -5.227  -4.954  0.00  0.00    -0.082 A 
ATOM      4  C2  PXY d   1      -2.509  -4.718  -5.996  0.00  0.00     0.003 A 
ATOM      5  C3  PXY d   1      -3.732  -4.120  -5.836  0.00  0.00     0.003 A 
ATOM      6  C4  PXY d   1      -4.334  -4.090  -4.607  0.00  0.00    -0.082 A 
ATOM      7  C5  PXY d   1      -3.695  -4.617  -3.540  0.00  0.00     0.003 A 
ATOM      8  C6  PXY d   1      -2.435  -5.183  -3.716  0.00  0.00     0.003 A 
ENDROOT
TORSDOF 0
ENDMDL
