MODEL 1
REMARK minimizedAffinity 0.353479922
REMARK minimizedRMSD -1
REMARK  0 active torsions:
REMARK  status: ('A' for Active; 'I' for Inactive)
ROOT
ATOM      1  C4' PXY d   1      -5.737  -2.481  -4.360  0.00  0.00     0.077 C 
ATOM      2  C1' PXY d   1      -0.996  -5.680  -5.200  0.00  0.00     0.077 C 
ATOM      3  C1  PXY d   1      -2.240  -4.846  -4.967  0.00  0.00    -0.082 A 
ATOM      4  C2  PXY d   1      -2.978  -4.470  -5.999  0.00  0.00     0.003 A 
ATOM      5  C3  PXY d   1      -4.089  -3.689  -5.810  0.00  0.00     0.003 A 
ATOM      6  C4  PXY d   1      -4.478  -3.332  -4.547  0.00  0.00    -0.082 A 
ATOM      7  C5  PXY d   1      -3.736  -3.720  -3.488  0.00  0.00     0.003 A 
ATOM      8  C6  PXY d   1      -2.590  -4.479  -3.704  0.00  0.00     0.003 A 
ENDROOT
TORSDOF 0
ENDMDL
