MODEL 1
REMARK minimizedAffinity 0.301423818
REMARK minimizedRMSD -1
REMARK  0 active torsions:
REMARK  status: ('A' for Active; 'I' for Inactive)
ROOT
ATOM      1  C4' PXY d   1      -0.286  -5.069  -5.963  0.00  0.00     0.077 C 
ATOM      2  C1' PXY d   1      -5.999  -4.452  -5.335  0.00  0.00     0.077 C 
ATOM      3  C1  PXY d   1      -4.502  -4.626  -5.497  0.00  0.00    -0.082 A 
ATOM      4  C2  PXY d   1      -3.698  -3.596  -5.294  0.00  0.00     0.003 A 
ATOM      5  C3  PXY d   1      -2.344  -3.728  -5.468  0.00  0.00     0.003 A 
ATOM      6  C4  PXY d   1      -1.803  -4.941  -5.801  0.00  0.00    -0.082 A 
ATOM      7  C5  PXY d   1      -2.617  -6.000  -6.000  0.00  0.00     0.003 A 
ATOM      8  C6  PXY d   1      -3.992  -5.835  -5.859  0.00  0.00     0.003 A 
ENDROOT
TORSDOF 0
ENDMDL
