MODEL 1
REMARK minimizedAffinity -1.03970289
REMARK minimizedRMSD -1
REMARK  0 active torsions:
REMARK  status: ('A' for Active; 'I' for Inactive)
ROOT
ATOM      1  C4' PXY d   1      -0.896  -6.000  -5.463  0.00  0.00     0.077 C 
ATOM      2  C1' PXY d   1      -6.000  -3.308  -5.810  0.00  0.00     0.077 C 
ATOM      3  C1  PXY d   1      -4.667  -4.022  -5.710  0.00  0.00    -0.082 A 
ATOM      4  C2  PXY d   1      -3.552  -3.370  -6.000  0.00  0.00     0.003 A 
ATOM      5  C3  PXY d   1      -2.341  -4.010  -5.946  0.00  0.00     0.003 A 
ATOM      6  C4  PXY d   1      -2.264  -5.316  -5.540  0.00  0.00    -0.082 A 
ATOM      7  C5  PXY d   1      -3.395  -5.984  -5.233  0.00  0.00     0.003 A 
ATOM      8  C6  PXY d   1      -4.619  -5.329  -5.333  0.00  0.00     0.003 A 
ENDROOT
TORSDOF 0
ENDMDL
