MODEL 1
REMARK minimizedAffinity 0.686308801
REMARK minimizedRMSD -1
REMARK  0 active torsions:
REMARK  status: ('A' for Active; 'I' for Inactive)
ROOT
ATOM      1  C4' PXY d   1      -5.960  -3.131  -4.316  0.00  0.00     0.077 C 
ATOM      2  C1' PXY d   1      -1.223  -5.998  -5.976  0.00  0.00     0.077 C 
ATOM      3  C1  PXY d   1      -2.471  -5.251  -5.551  0.00  0.00    -0.082 A 
ATOM      4  C2  PXY d   1      -2.366  -4.206  -4.746  0.00  0.00     0.003 A 
ATOM      5  C3  PXY d   1      -3.488  -3.538  -4.327  0.00  0.00     0.003 A 
ATOM      6  C4  PXY d   1      -4.725  -3.910  -4.778  0.00  0.00    -0.082 A 
ATOM      7  C5  PXY d   1      -4.840  -4.969  -5.608  0.00  0.00     0.003 A 
ATOM      8  C6  PXY d   1      -3.693  -5.659  -5.989  0.00  0.00     0.003 A 
ENDROOT
TORSDOF 0
ENDMDL
