MODEL 1
REMARK minimizedAffinity -0.322321802
REMARK minimizedRMSD -1
REMARK  0 active torsions:
REMARK  status: ('A' for Active; 'I' for Inactive)
ROOT
ATOM      1  C4' PXY d   1      -4.514  -0.866  -2.817  0.00  0.00     0.077 C 
ATOM      2  C1' PXY d   1      -1.681  -0.572   2.213  0.00  0.00     0.077 C 
ATOM      3  C1  PXY d   1      -2.426  -0.636   0.894  0.00  0.00    -0.082 A 
ATOM      4  C2  PXY d   1      -2.982  -1.774   0.512  0.00  0.00     0.003 A 
ATOM      5  C3  PXY d   1      -3.632  -1.859  -0.692  0.00  0.00     0.003 A 
ATOM      6  C4  PXY d   1      -3.761  -0.753  -1.489  0.00  0.00    -0.082 A 
ATOM      7  C5  PXY d   1      -3.205   0.415  -1.101  0.00  0.00     0.003 A 
ATOM      8  C6  PXY d   1      -2.514   0.469   0.106  0.00  0.00     0.003 A 
ENDROOT
TORSDOF 0
ENDMDL
