MODEL 1
REMARK minimizedAffinity 2.27650833
REMARK minimizedRMSD -1
REMARK  0 active torsions:
REMARK  status: ('A' for Active; 'I' for Inactive)
ROOT
ATOM      1  C4' PXY d   1      -3.188  -0.505   3.365  0.00  0.00     0.077 C 
ATOM      2  C1' PXY d   1       0.741  -1.493  -0.758  0.00  0.00     0.077 C 
ATOM      3  C1  PXY d   1      -0.297  -1.243   0.318  0.00  0.00    -0.082 A 
ATOM      4  C2  PXY d   1      -0.312  -0.084   0.956  0.00  0.00     0.003 A 
ATOM      5  C3  PXY d   1      -1.223   0.147   1.954  0.00  0.00     0.003 A 
ATOM      6  C4  PXY d   1      -2.164  -0.798   2.265  0.00  0.00    -0.082 A 
ATOM      7  C5  PXY d   1      -2.162  -1.979   1.611  0.00  0.00     0.003 A 
ATOM      8  C6  PXY d   1      -1.202  -2.209   0.630  0.00  0.00     0.003 A 
ENDROOT
TORSDOF 0
ENDMDL
