MODEL 1
REMARK minimizedAffinity -0.879962683
REMARK minimizedRMSD -1
REMARK  0 active torsions:
REMARK  status: ('A' for Active; 'I' for Inactive)
ROOT
ATOM      1  C4' PXY d   1      -0.849  -5.988  -5.212  0.00  0.00     0.077 C 
ATOM      2  C1' PXY d   1      -6.000  -3.502  -4.372  0.00  0.00     0.077 C 
ATOM      3  C1  PXY d   1      -4.644  -4.148  -4.582  0.00  0.00    -0.082 A 
ATOM      4  C2  PXY d   1      -4.307  -4.585  -5.784  0.00  0.00     0.003 A 
ATOM      5  C3  PXY d   1      -3.099  -5.200  -5.985  0.00  0.00     0.003 A 
ATOM      6  C4  PXY d   1      -2.204  -5.321  -4.956  0.00  0.00    -0.082 A 
ATOM      7  C5  PXY d   1      -2.536  -4.868  -3.728  0.00  0.00     0.003 A 
ATOM      8  C6  PXY d   1      -3.784  -4.284  -3.536  0.00  0.00     0.003 A 
ENDROOT
TORSDOF 0
ENDMDL
