MODEL 1
REMARK minimizedAffinity 0.163626656
REMARK minimizedRMSD -1
REMARK  0 active torsions:
REMARK  status: ('A' for Active; 'I' for Inactive)
ROOT
ATOM      1  C4' PXY d   1      -1.046  -6.000  -3.698  0.00  0.00     0.077 C 
ATOM      2  C1' PXY d   1      -5.993  -4.086  -5.995  0.00  0.00     0.077 C 
ATOM      3  C1  PXY d   1      -4.694  -4.576  -5.386  0.00  0.00    -0.082 A 
ATOM      4  C2  PXY d   1      -4.000  -5.521  -5.999  0.00  0.00     0.003 A 
ATOM      5  C3  PXY d   1      -2.840  -5.999  -5.446  0.00  0.00     0.003 A 
ATOM      6  C4  PXY d   1      -2.358  -5.467  -4.281  0.00  0.00    -0.082 A 
ATOM      7  C5  PXY d   1      -3.055  -4.495  -3.654  0.00  0.00     0.003 A 
ATOM      8  C6  PXY d   1      -4.251  -4.053  -4.211  0.00  0.00     0.003 A 
ENDROOT
TORSDOF 0
ENDMDL
