MODEL 1
REMARK minimizedAffinity -0.615922093
REMARK minimizedRMSD -1
REMARK  0 active torsions:
REMARK  status: ('A' for Active; 'I' for Inactive)
ROOT
ATOM      1  C4' PXY d   1      -5.945  -0.875  -3.584  0.00  0.00     0.077 C 
ATOM      2  C1' PXY d   1      -4.427  -5.952  -5.894  0.00  0.00     0.077 C 
ATOM      3  C1  PXY d   1      -4.827  -4.616  -5.301  0.00  0.00    -0.082 A 
ATOM      4  C2  PXY d   1      -4.390  -4.277  -4.098  0.00  0.00     0.003 A 
ATOM      5  C3  PXY d   1      -4.768  -3.087  -3.533  0.00  0.00     0.003 A 
ATOM      6  C4  PXY d   1      -5.559  -2.210  -4.227  0.00  0.00    -0.082 A 
ATOM      7  C5  PXY d   1      -6.000  -2.544  -5.459  0.00  0.00     0.003 A 
ATOM      8  C6  PXY d   1      -5.638  -3.775  -5.998  0.00  0.00     0.003 A 
ENDROOT
TORSDOF 0
ENDMDL
