MODEL 1
REMARK minimizedAffinity 4.45545673
REMARK minimizedRMSD -1
REMARK  0 active torsions:
REMARK  status: ('A' for Active; 'I' for Inactive)
ROOT
ATOM      1  C4' PXY d   1      -5.997  -0.604  -3.308  0.00  0.00     0.077 C 
ATOM      2  C1' PXY d   1      -4.301  -5.431  -5.999  0.00  0.00     0.077 C 
ATOM      3  C1  PXY d   1      -4.747  -4.159  -5.305  0.00  0.00    -0.082 A 
ATOM      4  C2  PXY d   1      -4.390  -3.939  -4.050  0.00  0.00     0.003 A 
ATOM      5  C3  PXY d   1      -4.812  -2.810  -3.397  0.00  0.00     0.003 A 
ATOM      6  C4  PXY d   1      -5.562  -1.870  -4.051  0.00  0.00    -0.082 A 
ATOM      7  C5  PXY d   1      -5.921  -2.082  -5.335  0.00  0.00     0.003 A 
ATOM      8  C6  PXY d   1      -5.518  -3.254  -5.968  0.00  0.00     0.003 A 
ENDROOT
TORSDOF 0
ENDMDL
