MODEL 1
REMARK minimizedAffinity 1.92371225
REMARK minimizedRMSD -1
REMARK  0 active torsions:
REMARK  status: ('A' for Active; 'I' for Inactive)
ROOT
ATOM      1  C4' PXY d   1      -3.013  -3.377   0.721  0.00  0.00     0.077 C 
ATOM      2  C1' PXY d   1       1.053   0.725   0.497  0.00  0.00     0.077 C 
ATOM      3  C1  PXY d   1      -0.022  -0.342   0.553  0.00  0.00    -0.082 A 
ATOM      4  C2  PXY d   1       0.175  -1.432   1.277  0.00  0.00     0.003 A 
ATOM      5  C3  PXY d   1      -0.774  -2.421   1.313  0.00  0.00     0.003 A 
ATOM      6  C4  PXY d   1      -1.959  -2.269   0.643  0.00  0.00    -0.082 A 
ATOM      7  C5  PXY d   1      -2.172  -1.155  -0.089  0.00  0.00     0.003 A 
ATOM      8  C6  PXY d   1      -1.179  -0.182  -0.145  0.00  0.00     0.003 A 
ENDROOT
TORSDOF 0
ENDMDL
