MODEL 1
REMARK minimizedAffinity -3.74112892
REMARK minimizedRMSD -1
REMARK  0 active torsions:
REMARK  status: ('A' for Active; 'I' for Inactive)
ROOT
ATOM      1  C4' PXY d   1      -1.508  -5.953  -5.306  0.00  0.00     0.077 C 
ATOM      2  C1' PXY d   1      -6.000  -2.316  -5.227  0.00  0.00     0.077 C 
ATOM      3  C1  PXY d   1      -4.814  -3.260  -5.244  0.00  0.00    -0.082 A 
ATOM      4  C2  PXY d   1      -4.856  -4.350  -5.994  0.00  0.00     0.003 A 
ATOM      5  C3  PXY d   1      -3.805  -5.231  -5.997  0.00  0.00     0.003 A 
ATOM      6  C4  PXY d   1      -2.678  -4.967  -5.265  0.00  0.00    -0.082 A 
ATOM      7  C5  PXY d   1      -2.623  -3.852  -4.506  0.00  0.00     0.003 A 
ATOM      8  C6  PXY d   1      -3.717  -2.991  -4.485  0.00  0.00     0.003 A 
ENDROOT
TORSDOF 0
ENDMDL
