MODEL 1
REMARK minimizedAffinity -2.71580601
REMARK minimizedRMSD -1
REMARK  0 active torsions:
REMARK  status: ('A' for Active; 'I' for Inactive)
ROOT
ATOM      1  C4' PXY d   1      -0.837  -5.993  -5.916  0.00  0.00     0.077 C 
ATOM      2  C1' PXY d   1      -5.941  -3.437  -5.008  0.00  0.00     0.077 C 
ATOM      3  C1  PXY d   1      -4.608  -4.119  -5.246  0.00  0.00    -0.082 A 
ATOM      4  C2  PXY d   1      -3.487  -3.489  -4.935  0.00  0.00     0.003 A 
ATOM      5  C3  PXY d   1      -2.272  -4.079  -5.173  0.00  0.00     0.003 A 
ATOM      6  C4  PXY d   1      -2.205  -5.347  -5.685  0.00  0.00    -0.082 A 
ATOM      7  C5  PXY d   1      -3.345  -6.000  -5.995  0.00  0.00     0.003 A 
ATOM      8  C6  PXY d   1      -4.568  -5.368  -5.784  0.00  0.00     0.003 A 
ENDROOT
TORSDOF 0
ENDMDL
