MODEL 1
REMARK minimizedAffinity 1.07832932
REMARK minimizedRMSD -1
REMARK  0 active torsions:
REMARK  status: ('A' for Active; 'I' for Inactive)
ROOT
ATOM      1  C4' PXY d   1      -2.143  -5.999  -5.836  0.00  0.00     0.077 C 
ATOM      2  C1' PXY d   1      -5.997  -2.349  -3.547  0.00  0.00     0.077 C 
ATOM      3  C1  PXY d   1      -4.979  -3.305  -4.136  0.00  0.00    -0.082 A 
ATOM      4  C2  PXY d   1      -4.874  -3.421  -5.450  0.00  0.00     0.003 A 
ATOM      5  C3  PXY d   1      -3.981  -4.305  -6.000  0.00  0.00     0.003 A 
ATOM      6  C4  PXY d   1      -3.150  -5.039  -5.197  0.00  0.00    -0.082 A 
ATOM      7  C5  PXY d   1      -3.243  -4.919  -3.856  0.00  0.00     0.003 A 
ATOM      8  C6  PXY d   1      -4.184  -4.046  -3.317  0.00  0.00     0.003 A 
ENDROOT
TORSDOF 0
ENDMDL
