MODEL 1
REMARK minimizedAffinity 9.7768364
REMARK minimizedRMSD -1
REMARK  0 active torsions:
REMARK  status: ('A' for Active; 'I' for Inactive)
ROOT
ATOM      1  C   UNL d   1       0.914   4.536   2.244  0.00  0.00     0.124 A 
ATOM      2  C1  UNL d   1       0.635   3.359   2.924  0.00  0.00     0.062 A 
ATOM      3  C2  UNL d   1       0.320   2.201   2.220  0.00  0.00     0.162 A 
ATOM      4  C3  UNL d   1       0.283   2.213   0.825  0.00  0.00    -0.034 A 
ATOM      5  C4  UNL d   1       0.563   3.401   0.148  0.00  0.00     0.162 A 
ATOM      6  C5  UNL d   1       0.877   4.556   0.856  0.00  0.00     0.062 A 
ATOM      7  F   UNL d   1       1.145   5.693   0.197  0.00  0.00    -0.097 F 
ATOM      8  F1  UNL d   1       0.535   3.449  -1.192  0.00  0.00    -0.096 F 
ATOM      9  I   UNL d   1      -0.188   0.483  -0.232  0.00  0.00    -0.060 I 
ATOM     10  F2  UNL d   1       0.056   1.077   2.904  0.00  0.00    -0.096 F 
ATOM     11  F3  UNL d   1       0.669   3.337   4.264  0.00  0.00    -0.097 F 
ATOM     12  F4  UNL d   1       1.215   5.649   2.924  0.00  0.00    -0.092 F 
ENDROOT
TORSDOF 0
ENDMDL
