MODEL 1
REMARK minimizedAffinity 6.47157288
REMARK minimizedRMSD -1
REMARK  0 active torsions:
REMARK  status: ('A' for Active; 'I' for Inactive)
ROOT
ATOM      1  C   UNL d   1      -3.145   4.435  -3.815  0.00  0.00     0.124 A 
ATOM      2  C1  UNL d   1      -2.920   3.132  -3.390  0.00  0.00     0.062 A 
ATOM      3  C2  UNL d   1      -3.734   2.098  -3.843  0.00  0.00     0.162 A 
ATOM      4  C3  UNL d   1      -4.780   2.362  -4.727  0.00  0.00    -0.034 A 
ATOM      5  C4  UNL d   1      -5.001   3.674  -5.149  0.00  0.00     0.162 A 
ATOM      6  C5  UNL d   1      -4.184   4.704  -4.694  0.00  0.00     0.062 A 
ATOM      7  F   UNL d   1      -4.403   5.962  -5.106  0.00  0.00    -0.097 F 
ATOM      8  F1  UNL d   1      -5.997   3.962  -5.999  0.00  0.00    -0.096 F 
ATOM      9  I   UNL d   1      -6.000   0.818  -5.407  0.00  0.00    -0.060 I 
ATOM     10  F2  UNL d   1      -3.494   0.850  -3.416  0.00  0.00    -0.096 F 
ATOM     11  F3  UNL d   1      -1.917   2.870  -2.540  0.00  0.00    -0.097 F 
ATOM     12  F4  UNL d   1      -2.361   5.428  -3.377  0.00  0.00    -0.092 F 
ENDROOT
TORSDOF 0
ENDMDL
