MODEL 1
REMARK minimizedAffinity 13.2859955
REMARK minimizedRMSD -1
REMARK  0 active torsions:
REMARK  status: ('A' for Active; 'I' for Inactive)
ROOT
ATOM      1  C   UNL d   1      -2.110   2.772  -3.640  0.00  0.00     0.124 A 
ATOM      2  C1  UNL d   1      -3.303   2.062  -3.640  0.00  0.00     0.062 A 
ATOM      3  C2  UNL d   1      -4.415   2.560  -4.313  0.00  0.00     0.162 A 
ATOM      4  C3  UNL d   1      -4.340   3.775  -4.993  0.00  0.00    -0.034 A 
ATOM      5  C4  UNL d   1      -3.137   4.485  -4.988  0.00  0.00     0.162 A 
ATOM      6  C5  UNL d   1      -2.029   3.983  -4.314  0.00  0.00     0.062 A 
ATOM      7  F   UNL d   1      -0.878   4.671  -4.315  0.00  0.00    -0.097 F 
ATOM      8  F1  UNL d   1      -3.030   5.657  -5.631  0.00  0.00    -0.096 F 
ATOM      9  I   UNL d   1      -6.000   4.524  -6.000  0.00  0.00    -0.060 I 
ATOM     10  F2  UNL d   1      -5.554   1.852  -4.296  0.00  0.00    -0.096 F 
ATOM     11  F3  UNL d   1      -3.384   0.892  -2.989  0.00  0.00    -0.097 F 
ATOM     12  F4  UNL d   1      -1.042   2.291  -2.991  0.00  0.00    -0.092 F 
ENDROOT
TORSDOF 0
ENDMDL
