MODEL 1
REMARK minimizedAffinity 20.2214718
REMARK minimizedRMSD -1
REMARK  0 active torsions:
REMARK  status: ('A' for Active; 'I' for Inactive)
ROOT
ATOM      1  C   UNL d   1      -5.328   2.316  -4.840  0.00  0.00     0.124 A 
ATOM      2  C1  UNL d   1      -5.451   3.048  -3.667  0.00  0.00     0.062 A 
ATOM      3  C2  UNL d   1      -5.005   2.517  -2.460  0.00  0.00     0.162 A 
ATOM      4  C3  UNL d   1      -4.432   1.246  -2.420  0.00  0.00    -0.034 A 
ATOM      5  C4  UNL d   1      -4.314   0.515  -3.603  0.00  0.00     0.162 A 
ATOM      6  C5  UNL d   1      -4.760   1.051  -4.807  0.00  0.00     0.062 A 
ATOM      7  F   UNL d   1      -4.642   0.342  -5.939  0.00  0.00    -0.097 F 
ATOM      8  F1  UNL d   1      -3.768  -0.710  -3.601  0.00  0.00    -0.096 F 
ATOM      9  I   UNL d   1      -3.765   0.447  -0.618  0.00  0.00    -0.060 I 
ATOM     10  F2  UNL d   1      -5.136   3.247  -1.342  0.00  0.00    -0.096 F 
ATOM     11  F3  UNL d   1      -6.000   4.271  -3.696  0.00  0.00    -0.097 F 
ATOM     12  F4  UNL d   1      -5.759   2.830  -5.999  0.00  0.00    -0.092 F 
ENDROOT
TORSDOF 0
ENDMDL
