MODEL 1
REMARK minimizedAffinity 16.463541
REMARK minimizedRMSD -1
REMARK  0 active torsions:
REMARK  status: ('A' for Active; 'I' for Inactive)
ROOT
ATOM      1  C   UNL d   1      -4.595   1.322  -2.366  0.00  0.00     0.124 A 
ATOM      2  C1  UNL d   1      -5.147   2.565  -2.087  0.00  0.00     0.062 A 
ATOM      3  C2  UNL d   1      -5.456   3.442  -3.123  0.00  0.00     0.162 A 
ATOM      4  C3  UNL d   1      -5.214   3.079  -4.448  0.00  0.00    -0.034 A 
ATOM      5  C4  UNL d   1      -4.657   1.828  -4.720  0.00  0.00     0.162 A 
ATOM      6  C5  UNL d   1      -4.351   0.955  -3.681  0.00  0.00     0.062 A 
ATOM      7  F   UNL d   1      -3.817  -0.245  -3.952  0.00  0.00    -0.097 F 
ATOM      8  F1  UNL d   1      -4.411   1.447  -5.983  0.00  0.00    -0.096 F 
ATOM      9  I   UNL d   1      -5.673   4.388  -6.000  0.00  0.00    -0.060 I 
ATOM     10  F2  UNL d   1      -5.989   4.636  -2.825  0.00  0.00    -0.096 F 
ATOM     11  F3  UNL d   1      -5.384   2.922  -0.817  0.00  0.00    -0.097 F 
ATOM     12  F4  UNL d   1      -4.299   0.481  -1.367  0.00  0.00    -0.092 F 
ENDROOT
TORSDOF 0
ENDMDL
