MODEL 1
REMARK minimizedAffinity 6.10418558
REMARK minimizedRMSD -1
REMARK  0 active torsions:
REMARK  status: ('A' for Active; 'I' for Inactive)
ROOT
ATOM      1  C   UNL d   1      -0.063  -2.780   4.770  0.00  0.00     0.124 A 
ATOM      2  C1  UNL d   1       1.272  -2.585   4.446  0.00  0.00     0.062 A 
ATOM      3  C2  UNL d   1       1.621  -2.018   3.224  0.00  0.00     0.162 A 
ATOM      4  C3  UNL d   1       0.632  -1.640   2.316  0.00  0.00    -0.034 A 
ATOM      5  C4  UNL d   1      -0.709  -1.840   2.648  0.00  0.00     0.162 A 
ATOM      6  C5  UNL d   1      -1.053  -2.407   3.871  0.00  0.00     0.062 A 
ATOM      7  F   UNL d   1      -2.343  -2.595   4.182  0.00  0.00    -0.097 F 
ATOM      8  F1  UNL d   1      -1.686  -1.488   1.798  0.00  0.00    -0.096 F 
ATOM      9  I   UNL d   1       1.148  -0.792   0.487  0.00  0.00    -0.060 I 
ATOM     10  F2  UNL d   1       2.919  -1.842   2.937  0.00  0.00    -0.096 F 
ATOM     11  F3  UNL d   1       2.230  -2.945   5.312  0.00  0.00    -0.097 F 
ATOM     12  F4  UNL d   1      -0.396  -3.327   5.946  0.00  0.00    -0.092 F 
ENDROOT
TORSDOF 0
ENDMDL
