MODEL 1
REMARK minimizedAffinity 3.46988606
REMARK minimizedRMSD -1
REMARK  0 active torsions:
REMARK  status: ('A' for Active; 'I' for Inactive)
ROOT
ATOM      1  C   UNL d   1       0.895   4.081   3.376  0.00  0.00     0.124 A 
ATOM      2  C1  UNL d   1       0.318   3.145   4.223  0.00  0.00     0.062 A 
ATOM      3  C2  UNL d   1      -0.033   1.887   3.741  0.00  0.00     0.162 A 
ATOM      4  C3  UNL d   1       0.193   1.557   2.405  0.00  0.00    -0.034 A 
ATOM      5  C4  UNL d   1       0.774   2.504   1.559  0.00  0.00     0.162 A 
ATOM      6  C5  UNL d   1       1.123   3.760   2.045  0.00  0.00     0.062 A 
ATOM      7  F   UNL d   1       1.680   4.662   1.225  0.00  0.00    -0.097 F 
ATOM      8  F1  UNL d   1       1.005   2.220   0.269  0.00  0.00    -0.096 F 
ATOM      9  I   UNL d   1      -0.330  -0.322   1.681  0.00  0.00    -0.060 I 
ATOM     10  F2  UNL d   1      -0.590   1.003   4.582  0.00  0.00    -0.096 F 
ATOM     11  F3  UNL d   1       0.096   3.453   5.509  0.00  0.00    -0.097 F 
ATOM     12  F4  UNL d   1       1.231   5.291   3.842  0.00  0.00    -0.092 F 
ENDROOT
TORSDOF 0
ENDMDL
