MODEL 1
REMARK minimizedAffinity 9.74160862
REMARK minimizedRMSD -1
REMARK  0 active torsions:
REMARK  status: ('A' for Active; 'I' for Inactive)
ROOT
ATOM      1  C   UNL d   1       0.720  -0.708  -0.077  0.00  0.00     0.124 A 
ATOM      2  C1  UNL d   1       1.475   0.326  -0.615  0.00  0.00     0.062 A 
ATOM      3  C2  UNL d   1       0.849   1.384  -1.268  0.00  0.00     0.162 A 
ATOM      4  C3  UNL d   1      -0.541   1.414  -1.386  0.00  0.00    -0.034 A 
ATOM      5  C4  UNL d   1      -1.293   0.371  -0.844  0.00  0.00     0.162 A 
ATOM      6  C5  UNL d   1      -0.663  -0.684  -0.192  0.00  0.00     0.062 A 
ATOM      7  F   UNL d   1      -1.394  -1.682   0.327  0.00  0.00    -0.097 F 
ATOM      8  F1  UNL d   1      -2.631   0.369  -0.939  0.00  0.00    -0.096 F 
ATOM      9  I   UNL d   1      -1.481   2.994  -2.362  0.00  0.00    -0.060 I 
ATOM     10  F2  UNL d   1       1.603   2.368  -1.777  0.00  0.00    -0.096 F 
ATOM     11  F3  UNL d   1       2.811   0.305  -0.506  0.00  0.00    -0.097 F 
ATOM     12  F4  UNL d   1       1.325  -1.725   0.550  0.00  0.00    -0.092 F 
ENDROOT
TORSDOF 0
ENDMDL
