MODEL 1
REMARK minimizedAffinity 5.80359507
REMARK minimizedRMSD -1
REMARK  0 active torsions:
REMARK  status: ('A' for Active; 'I' for Inactive)
ROOT
ATOM      1  C   UNL d   1       1.099  -4.055  -3.640  0.00  0.00     0.124 A 
ATOM      2  C1  UNL d   1       1.168  -4.318  -2.279  0.00  0.00     0.062 A 
ATOM      3  C2  UNL d   1       2.374  -4.178  -1.599  0.00  0.00     0.162 A 
ATOM      4  C3  UNL d   1       3.522  -3.772  -2.280  0.00  0.00    -0.034 A 
ATOM      5  C4  UNL d   1       3.445  -3.510  -3.649  0.00  0.00     0.162 A 
ATOM      6  C5  UNL d   1       2.237  -3.652  -4.324  0.00  0.00     0.062 A 
ATOM      7  F   UNL d   1       2.172  -3.398  -5.639  0.00  0.00    -0.097 F 
ATOM      8  F1  UNL d   1       4.530  -3.118  -4.334  0.00  0.00    -0.096 F 
ATOM      9  I   UNL d   1       5.328  -3.561  -1.267  0.00  0.00    -0.060 I 
ATOM     10  F2  UNL d   1       2.411  -4.438  -0.284  0.00  0.00    -0.096 F 
ATOM     11  F3  UNL d   1       0.069  -4.709  -1.617  0.00  0.00    -0.097 F 
ATOM     12  F4  UNL d   1      -0.063  -4.192  -4.292  0.00  0.00    -0.092 F 
ENDROOT
TORSDOF 0
ENDMDL
