MODEL 1
REMARK minimizedAffinity 8.53673649
REMARK minimizedRMSD -1
REMARK  0 active torsions:
REMARK  status: ('A' for Active; 'I' for Inactive)
ROOT
ATOM      1  C   UNL d   1       0.494   4.665   2.110  0.00  0.00     0.124 A 
ATOM      2  C1  UNL d   1       0.468   4.059   0.861  0.00  0.00     0.062 A 
ATOM      3  C2  UNL d   1       0.394   2.674   0.757  0.00  0.00     0.162 A 
ATOM      4  C3  UNL d   1       0.345   1.883   1.904  0.00  0.00    -0.034 A 
ATOM      5  C4  UNL d   1       0.372   2.498   3.157  0.00  0.00     0.162 A 
ATOM      6  C5  UNL d   1       0.446   3.884   3.256  0.00  0.00     0.062 A 
ATOM      7  F   UNL d   1       0.470   4.467   4.464  0.00  0.00    -0.097 F 
ATOM      8  F1  UNL d   1       0.326   1.768   4.281  0.00  0.00    -0.096 F 
ATOM      9  I   UNL d   1       0.235  -0.190   1.752  0.00  0.00    -0.060 I 
ATOM     10  F2  UNL d   1       0.371   2.116  -0.463  0.00  0.00    -0.096 F 
ATOM     11  F3  UNL d   1       0.515   4.812  -0.248  0.00  0.00    -0.097 F 
ATOM     12  F4  UNL d   1       0.565   5.998   2.208  0.00  0.00    -0.092 F 
ENDROOT
TORSDOF 0
ENDMDL
