MODEL 1
REMARK minimizedAffinity 3.36849809
REMARK minimizedRMSD -1
REMARK  0 active torsions:
REMARK  status: ('A' for Active; 'I' for Inactive)
ROOT
ATOM      1  C   UNL d   1      -4.945   0.953  -2.377  0.00  0.00     0.124 A 
ATOM      2  C1  UNL d   1      -4.859   0.534  -3.698  0.00  0.00     0.062 A 
ATOM      3  C2  UNL d   1      -5.158   1.416  -4.732  0.00  0.00     0.162 A 
ATOM      4  C3  UNL d   1      -5.545   2.726  -4.451  0.00  0.00    -0.034 A 
ATOM      5  C4  UNL d   1      -5.630   3.139  -3.120  0.00  0.00     0.162 A 
ATOM      6  C5  UNL d   1      -5.330   2.255  -2.090  0.00  0.00     0.062 A 
ATOM      7  F   UNL d   1      -5.413   2.661  -0.815  0.00  0.00    -0.097 F 
ATOM      8  F1  UNL d   1      -5.999   4.392  -2.814  0.00  0.00    -0.096 F 
ATOM      9  I   UNL d   1      -5.994   4.047  -5.995  0.00  0.00    -0.060 I 
ATOM     10  F2  UNL d   1      -5.067   0.984  -5.999  0.00  0.00    -0.096 F 
ATOM     11  F3  UNL d   1      -4.488  -0.724  -3.978  0.00  0.00    -0.097 F 
ATOM     12  F4  UNL d   1      -4.657   0.102  -1.384  0.00  0.00    -0.092 F 
ENDROOT
TORSDOF 0
ENDMDL
