MODEL 1
REMARK minimizedAffinity 9.33034897
REMARK minimizedRMSD -1
REMARK  0 active torsions:
REMARK  status: ('A' for Active; 'I' for Inactive)
ROOT
ATOM      1  C   UNL d   1      -2.444   0.110  -4.801  0.00  0.00     0.124 A 
ATOM      2  C1  UNL d   1      -3.793   0.037  -5.122  0.00  0.00     0.062 A 
ATOM      3  C2  UNL d   1      -4.700   0.913  -4.533  0.00  0.00     0.162 A 
ATOM      4  C3  UNL d   1      -4.262   1.871  -3.619  0.00  0.00    -0.034 A 
ATOM      5  C4  UNL d   1      -2.904   1.937  -3.301  0.00  0.00     0.162 A 
ATOM      6  C5  UNL d   1      -2.001   1.059  -3.892  0.00  0.00     0.062 A 
ATOM      7  F   UNL d   1      -0.699   1.131  -3.581  0.00  0.00    -0.097 F 
ATOM      8  F1  UNL d   1      -2.449   2.846  -2.425  0.00  0.00    -0.096 F 
ATOM      9  I   UNL d   1      -5.616   3.183  -2.737  0.00  0.00    -0.060 I 
ATOM     10  F2  UNL d   1      -5.997   0.821  -4.862  0.00  0.00    -0.096 F 
ATOM     11  F3  UNL d   1      -4.223  -0.880  -6.000  0.00  0.00    -0.097 F 
ATOM     12  F4  UNL d   1      -1.573  -0.735  -5.368  0.00  0.00    -0.092 F 
ENDROOT
TORSDOF 0
ENDMDL
