MODEL 1
REMARK minimizedAffinity 12.5026922
REMARK minimizedRMSD -1
REMARK  0 active torsions:
REMARK  status: ('A' for Active; 'I' for Inactive)
ROOT
ATOM      1  C   UNL d   1      -3.134   1.909  -3.035  0.00  0.00     0.124 A 
ATOM      2  C1  UNL d   1      -2.910   3.269  -3.203  0.00  0.00     0.062 A 
ATOM      3  C2  UNL d   1      -3.727   4.013  -4.049  0.00  0.00     0.162 A 
ATOM      4  C3  UNL d   1      -4.777   3.400  -4.733  0.00  0.00    -0.034 A 
ATOM      5  C4  UNL d   1      -4.995   2.032  -4.560  0.00  0.00     0.162 A 
ATOM      6  C5  UNL d   1      -4.176   1.292  -3.713  0.00  0.00     0.062 A 
ATOM      7  F   UNL d   1      -4.394  -0.021  -3.552  0.00  0.00    -0.097 F 
ATOM      8  F1  UNL d   1      -5.995   1.411  -5.203  0.00  0.00    -0.096 F 
ATOM      9  I   UNL d   1      -6.000   4.510  -5.999  0.00  0.00    -0.060 I 
ATOM     10  F2  UNL d   1      -3.488   5.325  -4.192  0.00  0.00    -0.096 F 
ATOM     11  F3  UNL d   1      -1.904   3.867  -2.549  0.00  0.00    -0.097 F 
ATOM     12  F4  UNL d   1      -2.346   1.195  -2.221  0.00  0.00    -0.092 F 
ENDROOT
TORSDOF 0
ENDMDL
