MODEL 1
REMARK minimizedAffinity 12.0432272
REMARK minimizedRMSD -1
REMARK  0 active torsions:
REMARK  status: ('A' for Active; 'I' for Inactive)
ROOT
ATOM      1  C   UNL d   1       0.403   0.384   1.617  0.00  0.00     0.124 A 
ATOM      2  C1  UNL d   1      -0.813   0.971   1.937  0.00  0.00     0.062 A 
ATOM      3  C2  UNL d   1      -1.685   1.369   0.928  0.00  0.00     0.162 A 
ATOM      4  C3  UNL d   1      -1.344   1.180  -0.412  0.00  0.00    -0.034 A 
ATOM      5  C4  UNL d   1      -0.119   0.589  -0.726  0.00  0.00     0.162 A 
ATOM      6  C5  UNL d   1       0.749   0.193   0.287  0.00  0.00     0.062 A 
ATOM      7  F   UNL d   1       1.923  -0.375  -0.024  0.00  0.00    -0.097 F 
ATOM      8  F1  UNL d   1       0.240   0.392  -2.003  0.00  0.00    -0.096 F 
ATOM      9  I   UNL d   1      -2.646   1.773  -1.924  0.00  0.00    -0.060 I 
ATOM     10  F2  UNL d   1      -2.853   1.934   1.266  0.00  0.00    -0.096 F 
ATOM     11  F3  UNL d   1      -1.148   1.157   3.222  0.00  0.00    -0.097 F 
ATOM     12  F4  UNL d   1       1.241   0.003   2.590  0.00  0.00    -0.092 F 
ENDROOT
TORSDOF 0
ENDMDL
