MODEL 1
REMARK minimizedAffinity -1.08595121
REMARK minimizedRMSD -1
REMARK  0 active torsions:
REMARK  status: ('A' for Active; 'I' for Inactive)
ROOT
ATOM      1  C   UNL d   1      -0.774  -2.418   1.317  0.00  0.00    -0.002 A 
ATOM      2  C1  UNL d   1      -0.050  -2.975   0.272  0.00  0.00     0.010 A 
ATOM      3  C2  UNL d   1       0.560  -2.159  -0.683  0.00  0.00     0.041 A 
ATOM      4  C3  UNL d   1       0.431  -0.761  -0.567  0.00  0.00    -0.075 A 
ATOM      5  S   UNL d   1       1.094   0.434  -1.619  0.00  0.00     0.015 SA
ATOM      6  C4  UNL d   1       0.432   1.712  -0.705  0.00  0.00     0.022 A 
ATOM      7  C5  UNL d   1      -0.280   1.256   0.379  0.00  0.00     0.026 A 
ATOM      8  C6  UNL d   1      -0.292  -0.177   0.476  0.00  0.00    -0.082 A 
ATOM      9  C7  UNL d   1      -0.900  -1.031   1.428  0.00  0.00     0.045 A 
ENDROOT
TORSDOF 0
ENDMDL
