MODEL 1
REMARK minimizedAffinity -4.69188213
REMARK minimizedRMSD -1
REMARK  0 active torsions:
REMARK  status: ('A' for Active; 'I' for Inactive)
ROOT
ATOM      1  C   UNL d   1       0.298  -2.902   1.342  0.00  0.00    -0.002 A 
ATOM      2  C1  UNL d   1       0.448  -3.135  -0.018  0.00  0.00     0.010 A 
ATOM      3  C2  UNL d   1       0.462  -2.073  -0.923  0.00  0.00     0.041 A 
ATOM      4  C3  UNL d   1       0.323  -0.759  -0.435  0.00  0.00    -0.075 A 
ATOM      5  S   UNL d   1       0.312   0.697  -1.358  0.00  0.00     0.015 SA
ATOM      6  C4  UNL d   1       0.108   1.664   0.031  0.00  0.00     0.022 A 
ATOM      7  C5  UNL d   1       0.047   0.910   1.180  0.00  0.00     0.026 A 
ATOM      8  C6  UNL d   1       0.171  -0.498   0.930  0.00  0.00    -0.082 A 
ATOM      9  C7  UNL d   1       0.159  -1.597   1.823  0.00  0.00     0.045 A 
ENDROOT
TORSDOF 0
ENDMDL
