MODEL 1
REMARK minimizedAffinity -2.19520783
REMARK minimizedRMSD -1
REMARK  0 active torsions:
REMARK  status: ('A' for Active; 'I' for Inactive)
ROOT
ATOM      1  C   UNL d   1      -0.937  -2.149   1.696  0.00  0.00    -0.002 A 
ATOM      2  C1  UNL d   1      -0.138  -2.801   0.767  0.00  0.00     0.010 A 
ATOM      3  C2  UNL d   1       0.446  -2.094  -0.286  0.00  0.00     0.041 A 
ATOM      4  C3  UNL d   1       0.214  -0.709  -0.389  0.00  0.00    -0.075 A 
ATOM      5  S   UNL d   1       0.827   0.361  -1.595  0.00  0.00     0.015 SA
ATOM      6  C4  UNL d   1       0.043   1.708  -0.904  0.00  0.00     0.022 A 
ATOM      7  C5  UNL d   1      -0.673   1.368   0.219  0.00  0.00     0.026 A 
ATOM      8  C6  UNL d   1      -0.586  -0.030   0.535  0.00  0.00    -0.082 A 
ATOM      9  C7  UNL d   1      -1.165  -0.775   1.590  0.00  0.00     0.045 A 
ENDROOT
TORSDOF 0
ENDMDL
