MODEL 1
REMARK minimizedAffinity -3.1062851
REMARK minimizedRMSD -1
REMARK  0 active torsions:
REMARK  status: ('A' for Active; 'I' for Inactive)
ROOT
ATOM      1  C   UNL d   1       2.033   3.591   2.185  0.00  0.00    -0.002 A 
ATOM      2  C1  UNL d   1       2.278   4.087   0.912  0.00  0.00     0.010 A 
ATOM      3  C2  UNL d   1       1.818   3.405  -0.216  0.00  0.00     0.041 A 
ATOM      4  C3  UNL d   1       1.098   2.206  -0.042  0.00  0.00    -0.075 A 
ATOM      5  S   UNL d   1       0.437   1.202  -1.277  0.00  0.00     0.015 SA
ATOM      6  C4  UNL d   1      -0.188   0.093  -0.145  0.00  0.00     0.022 A 
ATOM      7  C5  UNL d   1       0.092   0.464   1.149  0.00  0.00     0.026 A 
ATOM      8  C6  UNL d   1       0.838   1.688   1.230  0.00  0.00    -0.082 A 
ATOM      9  C7  UNL d   1       1.318   2.402   2.354  0.00  0.00     0.045 A 
ENDROOT
TORSDOF 0
ENDMDL
