MODEL 1
REMARK minimizedAffinity -5.62617016
REMARK minimizedRMSD -1
REMARK  0 active torsions:
REMARK  status: ('A' for Active; 'I' for Inactive)
ROOT
ATOM      1  C   UNL d   1      -0.029  -3.786  -0.292  0.00  0.00    -0.002 A 
ATOM      2  C1  UNL d   1       0.253  -3.430  -1.603  0.00  0.00     0.010 A 
ATOM      3  C2  UNL d   1       0.396  -2.087  -1.959  0.00  0.00     0.041 A 
ATOM      4  C3  UNL d   1       0.253  -1.100  -0.964  0.00  0.00    -0.075 A 
ATOM      5  S   UNL d   1       0.387   0.607  -1.167  0.00  0.00     0.015 SA
ATOM      6  C4  UNL d   1       0.076   0.903   0.482  0.00  0.00     0.022 A 
ATOM      7  C5  UNL d   1      -0.128  -0.261   1.185  0.00  0.00     0.026 A 
ATOM      8  C6  UNL d   1      -0.029  -1.434   0.363  0.00  0.00    -0.082 A 
ATOM      9  C7  UNL d   1      -0.170  -2.804   0.692  0.00  0.00     0.045 A 
ENDROOT
TORSDOF 0
ENDMDL
