MODEL 1
REMARK minimizedAffinity -1.28048253
REMARK minimizedRMSD -1
REMARK  0 active torsions:
REMARK  status: ('A' for Active; 'I' for Inactive)
ROOT
ATOM      1  C   UNL d   1      -1.323  -1.635   1.825  0.00  0.00    -0.002 A 
ATOM      2  C1  UNL d   1      -0.788  -0.379   1.580  0.00  0.00     0.010 A 
ATOM      3  C2  UNL d   1      -0.209  -0.082   0.344  0.00  0.00     0.041 A 
ATOM      4  C3  UNL d   1      -0.180  -1.079  -0.652  0.00  0.00    -0.075 A 
ATOM      5  S   UNL d   1       0.476  -0.942  -2.240  0.00  0.00     0.015 SA
ATOM      6  C4  UNL d   1       0.060  -2.548  -2.631  0.00  0.00     0.022 A 
ATOM      7  C5  UNL d   1      -0.565  -3.188  -1.586  0.00  0.00     0.026 A 
ATOM      8  C6  UNL d   1      -0.714  -2.351  -0.428  0.00  0.00    -0.082 A 
ATOM      9  C7  UNL d   1      -1.292  -2.621   0.835  0.00  0.00     0.045 A 
ENDROOT
TORSDOF 0
ENDMDL
