MODEL 1
REMARK minimizedAffinity -4.20058584
REMARK minimizedRMSD -1
REMARK  0 active torsions:
REMARK  status: ('A' for Active; 'I' for Inactive)
ROOT
ATOM      1  C   UNL d   1       0.553  -3.108   0.163  0.00  0.00    -0.002 A 
ATOM      2  C1  UNL d   1      -0.223  -2.594   1.193  0.00  0.00     0.010 A 
ATOM      3  C2  UNL d   1      -0.672  -1.273   1.152  0.00  0.00     0.041 A 
ATOM      4  C3  UNL d   1      -0.326  -0.469   0.047  0.00  0.00    -0.075 A 
ATOM      5  S   UNL d   1      -0.763   1.177  -0.218  0.00  0.00     0.015 SA
ATOM      6  C4  UNL d   1       0.069   1.237  -1.704  0.00  0.00     0.022 A 
ATOM      7  C5  UNL d   1       0.671   0.038  -2.006  0.00  0.00     0.026 A 
ATOM      8  C6  UNL d   1       0.453  -0.965  -1.002  0.00  0.00    -0.082 A 
ATOM      9  C7  UNL d   1       0.894  -2.308  -0.931  0.00  0.00     0.045 A 
ENDROOT
TORSDOF 0
ENDMDL
