MODEL 1
REMARK minimizedAffinity -1.91109538
REMARK minimizedRMSD -1
REMARK  0 active torsions:
REMARK  status: ('A' for Active; 'I' for Inactive)
ROOT
ATOM      1  C   UNL d   1      -2.074  -1.379   2.529  0.00  0.00    -0.002 A 
ATOM      2  C1  UNL d   1      -1.970  -2.227   1.435  0.00  0.00     0.010 A 
ATOM      3  C2  UNL d   1      -1.317  -1.810   0.273  0.00  0.00     0.041 A 
ATOM      4  C3  UNL d   1      -0.764  -0.516   0.229  0.00  0.00    -0.075 A 
ATOM      5  S   UNL d   1       0.082   0.210  -1.087  0.00  0.00     0.015 SA
ATOM      6  C4  UNL d   1       0.326   1.661  -0.228  0.00  0.00     0.022 A 
ATOM      7  C5  UNL d   1      -0.218   1.611   1.034  0.00  0.00     0.026 A 
ATOM      8  C6  UNL d   1      -0.854   0.356   1.318  0.00  0.00    -0.082 A 
ATOM      9  C7  UNL d   1      -1.523  -0.096   2.481  0.00  0.00     0.045 A 
ENDROOT
TORSDOF 0
ENDMDL
