MODEL 1
REMARK minimizedAffinity 8.53421783
REMARK minimizedRMSD -1
REMARK  0 active torsions:
REMARK  status: ('A' for Active; 'I' for Inactive)
ROOT
ATOM      1  C   UNL d   1       4.119  -0.373   4.343  0.00  0.00     0.023 A 
ATOM      2  C1  UNL d   1       3.472  -0.004   5.522  0.00  0.00     0.003 A 
ATOM      3  C2  UNL d   1       3.578   1.304   5.998  0.00  0.00     0.048 A 
ATOM      4  C3  UNL d   1       4.332   2.239   5.290  0.00  0.00     0.023 A 
ATOM      5  C4  UNL d   1       4.981   1.875   4.109  0.00  0.00     0.048 A 
ATOM      6  C5  UNL d   1       4.873   0.566   3.637  0.00  0.00     0.003 A 
ATOM      7  I   UNL d   1       4.491   4.187   5.997  0.00  0.00    -0.146 I 
ENDROOT
TORSDOF 0
ENDMDL
