MODEL 1
REMARK minimizedAffinity 9.73699093
REMARK minimizedRMSD -1
REMARK  0 active torsions:
REMARK  status: ('A' for Active; 'I' for Inactive)
ROOT
ATOM      1  C   UNL d   1      -0.711  -3.493   1.182  0.00  0.00     0.023 A 
ATOM      2  C1  UNL d   1      -1.031  -2.289   0.554  0.00  0.00     0.003 A 
ATOM      3  C2  UNL d   1      -1.269  -1.144   1.316  0.00  0.00     0.048 A 
ATOM      4  C3  UNL d   1      -1.184  -1.209   2.706  0.00  0.00     0.023 A 
ATOM      5  C4  UNL d   1      -0.863  -2.410   3.339  0.00  0.00     0.048 A 
ATOM      6  C5  UNL d   1      -0.627  -3.553   2.573  0.00  0.00     0.003 A 
ATOM      7  I   UNL d   1      -1.537   0.495   3.843  0.00  0.00    -0.146 I 
ENDROOT
TORSDOF 0
ENDMDL
