MODEL 1
REMARK minimizedAffinity 5.08318615
REMARK minimizedRMSD -1
REMARK  0 active torsions:
REMARK  status: ('A' for Active; 'I' for Inactive)
ROOT
ATOM      1  C   UNL d   1      -1.615  -2.965  -0.452  0.00  0.00     0.023 A 
ATOM      2  C1  UNL d   1      -2.197  -1.767  -0.038  0.00  0.00     0.003 A 
ATOM      3  C2  UNL d   1      -2.042  -1.333   1.280  0.00  0.00     0.048 A 
ATOM      4  C3  UNL d   1      -1.304  -2.102   2.179  0.00  0.00     0.023 A 
ATOM      5  C4  UNL d   1      -0.720  -3.301   1.769  0.00  0.00     0.048 A 
ATOM      6  C5  UNL d   1      -0.878  -3.731   0.450  0.00  0.00     0.003 A 
ATOM      7  I   UNL d   1      -1.073  -1.458   4.141  0.00  0.00    -0.146 I 
ENDROOT
TORSDOF 0
ENDMDL
