MODEL 1
REMARK minimizedAffinity 13.8620577
REMARK minimizedRMSD -1
REMARK  0 active torsions:
REMARK  status: ('A' for Active; 'I' for Inactive)
ROOT
ATOM      1  C   UNL d   1      -5.743   5.851  -5.422  0.00  0.00     0.023 A 
ATOM      2  C1  UNL d   1      -6.000   4.604  -5.991  0.00  0.00     0.003 A 
ATOM      3  C2  UNL d   1      -5.214   3.502  -5.647  0.00  0.00     0.048 A 
ATOM      4  C3  UNL d   1      -4.173   3.655  -4.732  0.00  0.00     0.023 A 
ATOM      5  C4  UNL d   1      -3.913   4.901  -4.158  0.00  0.00     0.048 A 
ATOM      6  C5  UNL d   1      -4.701   5.999  -4.506  0.00  0.00     0.003 A 
ATOM      7  I   UNL d   1      -3.002   2.017  -4.217  0.00  0.00    -0.146 I 
ENDROOT
TORSDOF 0
ENDMDL
