MODEL 1
REMARK minimizedAffinity 12.4601192
REMARK minimizedRMSD -1
REMARK  0 active torsions:
REMARK  status: ('A' for Active; 'I' for Inactive)
ROOT
ATOM      1  C   UNL d   1      -5.998  -1.080   0.836  0.00  0.00     0.023 A 
ATOM      2  C1  UNL d   1      -5.786  -2.294   1.492  0.00  0.00     0.003 A 
ATOM      3  C2  UNL d   1      -4.486  -2.757   1.704  0.00  0.00     0.048 A 
ATOM      4  C3  UNL d   1      -3.402  -2.002   1.259  0.00  0.00     0.023 A 
ATOM      5  C4  UNL d   1      -3.608  -0.787   0.603  0.00  0.00     0.048 A 
ATOM      6  C5  UNL d   1      -4.910  -0.328   0.393  0.00  0.00     0.003 A 
ATOM      7  I   UNL d   1      -1.466  -2.690   1.574  0.00  0.00    -0.146 I 
ENDROOT
TORSDOF 0
ENDMDL
