MODEL 1
REMARK minimizedAffinity 3.23917818
REMARK minimizedRMSD -1
REMARK  0 active torsions:
REMARK  status: ('A' for Active; 'I' for Inactive)
ROOT
ATOM      1  C   UNL d   1      -1.067  -3.005   1.701  0.00  0.00     0.023 A 
ATOM      2  C1  UNL d   1      -0.777  -3.960   0.728  0.00  0.00     0.003 A 
ATOM      3  C2  UNL d   1      -1.089  -3.713  -0.611  0.00  0.00     0.048 A 
ATOM      4  C3  UNL d   1      -1.691  -2.507  -0.968  0.00  0.00     0.023 A 
ATOM      5  C4  UNL d   1      -1.983  -1.548   0.002  0.00  0.00     0.048 A 
ATOM      6  C5  UNL d   1      -1.670  -1.800   1.339  0.00  0.00     0.003 A 
ATOM      7  I   UNL d   1      -2.157  -2.136  -2.960  0.00  0.00    -0.146 I 
ENDROOT
TORSDOF 0
ENDMDL
