MODEL 1
REMARK minimizedAffinity 0.517545402
REMARK minimizedRMSD -1
REMARK  0 active torsions:
REMARK  status: ('A' for Active; 'I' for Inactive)
ROOT
ATOM      1  C   UNL d   1      -0.710  -3.108   2.037  0.00  0.00     0.023 A 
ATOM      2  C1  UNL d   1      -0.946  -1.803   1.604  0.00  0.00     0.003 A 
ATOM      3  C2  UNL d   1      -1.383  -1.569   0.298  0.00  0.00     0.048 A 
ATOM      4  C3  UNL d   1      -1.583  -2.643  -0.568  0.00  0.00     0.023 A 
ATOM      5  C4  UNL d   1      -1.349  -3.950  -0.138  0.00  0.00     0.048 A 
ATOM      6  C5  UNL d   1      -0.912  -4.180   1.168  0.00  0.00     0.003 A 
ATOM      7  I   UNL d   1      -2.233  -2.296  -2.511  0.00  0.00    -0.146 I 
ENDROOT
TORSDOF 0
ENDMDL
