MODEL 1
REMARK minimizedAffinity 8.50959873
REMARK minimizedRMSD -1
REMARK  0 active torsions:
REMARK  status: ('A' for Active; 'I' for Inactive)
ROOT
ATOM      1  C   UNL d   1      -1.512  -3.544   0.183  0.00  0.00     0.023 A 
ATOM      2  C1  UNL d   1      -2.513  -2.575   0.252  0.00  0.00     0.003 A 
ATOM      3  C2  UNL d   1      -2.543  -1.674   1.318  0.00  0.00     0.048 A 
ATOM      4  C3  UNL d   1      -1.567  -1.746   2.312  0.00  0.00     0.023 A 
ATOM      5  C4  UNL d   1      -0.563  -2.713   2.247  0.00  0.00     0.048 A 
ATOM      6  C5  UNL d   1      -0.538  -3.613   1.179  0.00  0.00     0.003 A 
ATOM      7  I   UNL d   1      -1.609  -0.406   3.899  0.00  0.00    -0.146 I 
ENDROOT
TORSDOF 0
ENDMDL
