MODEL 1
REMARK minimizedAffinity 9.18644905
REMARK minimizedRMSD -1
REMARK  0 active torsions:
REMARK  status: ('A' for Active; 'I' for Inactive)
ROOT
ATOM      1  C   UNL d   1      -1.287  -2.781   0.684  0.00  0.00     0.023 A 
ATOM      2  C1  UNL d   1      -1.212  -1.388   0.699  0.00  0.00     0.003 A 
ATOM      3  C2  UNL d   1      -1.216  -0.701   1.915  0.00  0.00     0.048 A 
ATOM      4  C3  UNL d   1      -1.293  -1.413   3.111  0.00  0.00     0.023 A 
ATOM      5  C4  UNL d   1      -1.366  -2.806   3.101  0.00  0.00     0.048 A 
ATOM      6  C5  UNL d   1      -1.364  -3.489   1.883  0.00  0.00     0.003 A 
ATOM      7  I   UNL d   1      -1.298  -0.392   4.922  0.00  0.00    -0.146 I 
ENDROOT
TORSDOF 0
ENDMDL
