MODEL 1
REMARK minimizedAffinity 10.1739483
REMARK minimizedRMSD -1
REMARK  0 active torsions:
REMARK  status: ('A' for Active; 'I' for Inactive)
ROOT
ATOM      1  C   UNL d   1      -0.819  -3.561  -0.794  0.00  0.00     0.023 A 
ATOM      2  C1  UNL d   1      -0.973  -2.174  -0.791  0.00  0.00     0.003 A 
ATOM      3  C2  UNL d   1      -1.026  -1.479   0.419  0.00  0.00     0.048 A 
ATOM      4  C3  UNL d   1      -0.923  -2.177   1.622  0.00  0.00     0.023 A 
ATOM      5  C4  UNL d   1      -0.767  -3.564   1.624  0.00  0.00     0.048 A 
ATOM      6  C5  UNL d   1      -0.716  -4.255   0.411  0.00  0.00     0.003 A 
ATOM      7  I   UNL d   1      -1.001  -1.145   3.425  0.00  0.00    -0.146 I 
ENDROOT
TORSDOF 0
ENDMDL
