MODEL 1
REMARK minimizedAffinity 3.34732652
REMARK minimizedRMSD -1
REMARK  0 active torsions:
REMARK  status: ('A' for Active; 'I' for Inactive)
ROOT
ATOM      1  C   UNL d   1      -1.482  -1.776   0.691  0.00  0.00     0.023 A 
ATOM      2  C1  UNL d   1      -1.676  -1.865   2.070  0.00  0.00     0.003 A 
ATOM      3  C2  UNL d   1      -1.456  -3.076   2.730  0.00  0.00     0.048 A 
ATOM      4  C3  UNL d   1      -1.041  -4.193   2.006  0.00  0.00     0.023 A 
ATOM      5  C4  UNL d   1      -0.844  -4.108   0.626  0.00  0.00     0.048 A 
ATOM      6  C5  UNL d   1      -1.067  -2.896  -0.030  0.00  0.00     0.003 A 
ATOM      7  I   UNL d   1      -0.713  -5.996   2.986  0.00  0.00    -0.146 I 
ENDROOT
TORSDOF 0
ENDMDL
