MODEL 1
REMARK minimizedAffinity 4.55884838
REMARK minimizedRMSD -1
REMARK  0 active torsions:
REMARK  status: ('A' for Active; 'I' for Inactive)
ROOT
ATOM      1  C   UNL d   1      -1.850  -1.571  -0.373  0.00  0.00     0.023 A 
ATOM      2  C1  UNL d   1      -0.934  -2.548  -0.764  0.00  0.00     0.003 A 
ATOM      3  C2  UNL d   1      -0.979  -3.820  -0.189  0.00  0.00     0.048 A 
ATOM      4  C3  UNL d   1      -1.943  -4.108   0.777  0.00  0.00     0.023 A 
ATOM      5  C4  UNL d   1      -2.862  -3.134   1.170  0.00  0.00     0.048 A 
ATOM      6  C5  UNL d   1      -2.813  -1.864   0.593  0.00  0.00     0.003 A 
ATOM      7  I   UNL d   1      -2.012  -6.000   1.635  0.00  0.00    -0.146 I 
ENDROOT
TORSDOF 0
ENDMDL
