MODEL 1
REMARK minimizedAffinity 4.77218342
REMARK minimizedRMSD -1
REMARK  0 active torsions:
REMARK  status: ('A' for Active; 'I' for Inactive)
ROOT
ATOM      1  C   UNL d   1      -0.689  -2.619   1.910  0.00  0.00     0.023 A 
ATOM      2  C1  UNL d   1      -1.277  -1.425   1.494  0.00  0.00     0.003 A 
ATOM      3  C2  UNL d   1      -1.713  -1.282   0.176  0.00  0.00     0.048 A 
ATOM      4  C3  UNL d   1      -1.559  -2.338  -0.722  0.00  0.00     0.023 A 
ATOM      5  C4  UNL d   1      -0.972  -3.535  -0.310  0.00  0.00     0.048 A 
ATOM      6  C5  UNL d   1      -0.537  -3.673   1.009  0.00  0.00     0.003 A 
ATOM      7  I   UNL d   1      -2.208  -2.128  -2.685  0.00  0.00    -0.146 I 
ENDROOT
TORSDOF 0
ENDMDL
