MODEL 1
REMARK minimizedAffinity 3.52217555
REMARK minimizedRMSD -1
REMARK  0 active torsions:
REMARK  status: ('A' for Active; 'I' for Inactive)
ROOT
ATOM      1  C   UNL d   1      -1.641  -2.527   2.226  0.00  0.00     0.023 A 
ATOM      2  C1  UNL d   1      -2.504  -1.663   1.551  0.00  0.00     0.003 A 
ATOM      3  C2  UNL d   1      -2.548  -1.667   0.156  0.00  0.00     0.048 A 
ATOM      4  C3  UNL d   1      -1.727  -2.539  -0.559  0.00  0.00     0.023 A 
ATOM      5  C4  UNL d   1      -0.863  -3.406   0.111  0.00  0.00     0.048 A 
ATOM      6  C5  UNL d   1      -0.822  -3.397   1.506  0.00  0.00     0.003 A 
ATOM      7  I   UNL d   1      -1.791  -2.547  -2.637  0.00  0.00    -0.146 I 
ENDROOT
TORSDOF 0
ENDMDL
