MODEL 1
REMARK minimizedAffinity 10.5168581
REMARK minimizedRMSD -1
REMARK  0 active torsions:
REMARK  status: ('A' for Active; 'I' for Inactive)
ROOT
ATOM      1  C   UNL d   1      -1.148  -1.481   0.540  0.00  0.00     0.023 A 
ATOM      2  C1  UNL d   1      -1.436  -1.376   1.900  0.00  0.00     0.003 A 
ATOM      3  C2  UNL d   1      -1.189  -2.454   2.753  0.00  0.00     0.048 A 
ATOM      4  C3  UNL d   1      -0.652  -3.634   2.239  0.00  0.00     0.023 A 
ATOM      5  C4  UNL d   1      -0.361  -3.743   0.878  0.00  0.00     0.048 A 
ATOM      6  C5  UNL d   1      -0.611  -2.663   0.029  0.00  0.00     0.003 A 
ATOM      7  I   UNL d   1      -0.283  -5.239   3.506  0.00  0.00    -0.146 I 
ENDROOT
TORSDOF 0
ENDMDL
