MODEL 1
REMARK minimizedAffinity 10.9379292
REMARK minimizedRMSD -1
REMARK  0 active torsions:
REMARK  status: ('A' for Active; 'I' for Inactive)
ROOT
ATOM      1  C   UNL d   1      -0.730  -2.796   2.060  0.00  0.00     0.023 A 
ATOM      2  C1  UNL d   1      -0.874  -2.350   0.746  0.00  0.00     0.003 A 
ATOM      3  C2  UNL d   1      -1.364  -1.067   0.493  0.00  0.00     0.048 A 
ATOM      4  C3  UNL d   1      -1.706  -0.235   1.558  0.00  0.00     0.023 A 
ATOM      5  C4  UNL d   1      -1.563  -0.676   2.875  0.00  0.00     0.048 A 
ATOM      6  C5  UNL d   1      -1.073  -1.960   3.123  0.00  0.00     0.003 A 
ATOM      7  I   UNL d   1      -2.435   1.675   1.184  0.00  0.00    -0.146 I 
ENDROOT
TORSDOF 0
ENDMDL
