MODEL 1
REMARK minimizedAffinity 1.70380342
REMARK minimizedRMSD -1
REMARK  0 active torsions:
REMARK  status: ('A' for Active; 'I' for Inactive)
ROOT
ATOM      1  C   UNL d   1      -5.323   1.660   5.993  0.00  0.00     0.023 A 
ATOM      2  C1  UNL d   1      -3.942   1.848   5.920  0.00  0.00     0.003 A 
ATOM      3  C2  UNL d   1      -3.088   0.746   5.855  0.00  0.00     0.048 A 
ATOM      4  C3  UNL d   1      -3.621  -0.543   5.862  0.00  0.00     0.023 A 
ATOM      5  C4  UNL d   1      -5.001  -0.737   5.934  0.00  0.00     0.048 A 
ATOM      6  C5  UNL d   1      -5.851   0.369   6.000  0.00  0.00     0.003 A 
ATOM      7  I   UNL d   1      -2.351  -2.186   5.766  0.00  0.00    -0.146 I 
ENDROOT
TORSDOF 0
ENDMDL
