MODEL 1
REMARK minimizedAffinity -4.46776056
REMARK minimizedRMSD -1
REMARK  0 active torsions:
REMARK  status: ('A' for Active; 'I' for Inactive)
ROOT
ATOM      1  C   UNL d   1      -3.159  -0.547  -2.898  0.00  0.00     0.077 C 
ATOM      2  C1  UNL d   1      -1.806  -0.140  -2.396  0.00  0.00    -0.074 A 
ATOM      3  C2  UNL d   1      -0.692  -0.153  -3.241  0.00  0.00    -0.005 A 
ATOM      4  C3  UNL d   1       0.559   0.237  -2.763  0.00  0.00     0.006 A 
ATOM      5  C4  UNL d   1       0.708   0.644  -1.436  0.00  0.00    -0.005 A 
ATOM      6  C5  UNL d   1      -0.395   0.665  -0.576  0.00  0.00    -0.074 A 
ATOM      7  C6  UNL d   1      -0.254   1.109   0.849  0.00  0.00     0.077 C 
ATOM      8  C7  UNL d   1      -1.650   0.277  -1.067  0.00  0.00    -0.001 A 
ENDROOT
TORSDOF 0
ENDMDL
