MODEL 1
REMARK minimizedAffinity -3.91109967
REMARK minimizedRMSD -1
REMARK  0 active torsions:
REMARK  status: ('A' for Active; 'I' for Inactive)
ROOT
ATOM      1  C   UNL d   1       1.507   0.967  -0.382  0.00  0.00     0.077 C 
ATOM      2  C1  UNL d   1       0.154   0.574  -0.897  0.00  0.00    -0.074 A 
ATOM      3  C2  UNL d   1      -0.935   0.443  -0.029  0.00  0.00    -0.005 A 
ATOM      4  C3  UNL d   1      -2.189   0.085  -0.524  0.00  0.00     0.006 A 
ATOM      5  C4  UNL d   1      -2.366  -0.145  -1.889  0.00  0.00    -0.005 A 
ATOM      6  C5  UNL d   1      -1.289  -0.018  -2.771  0.00  0.00    -0.074 A 
ATOM      7  C6  UNL d   1      -1.465  -0.252  -4.242  0.00  0.00     0.077 C 
ATOM      8  C7  UNL d   1      -0.034   0.349  -2.267  0.00  0.00    -0.001 A 
ENDROOT
TORSDOF 0
ENDMDL
