MODEL 1
REMARK minimizedAffinity -0.105458662
REMARK minimizedRMSD -1
REMARK  0 active torsions:
REMARK  status: ('A' for Active; 'I' for Inactive)
ROOT
ATOM      1  C   UNL d   1      -2.375   0.252  -3.221  0.00  0.00     0.077 C 
ATOM      2  C1  UNL d   1      -1.711   0.162  -1.878  0.00  0.00    -0.074 A 
ATOM      3  C2  UNL d   1      -2.240  -0.649  -0.869  0.00  0.00    -0.005 A 
ATOM      4  C3  UNL d   1      -1.606  -0.730   0.372  0.00  0.00     0.006 A 
ATOM      5  C4  UNL d   1      -0.441  -0.003   0.614  0.00  0.00    -0.005 A 
ATOM      6  C5  UNL d   1       0.103   0.813  -0.384  0.00  0.00    -0.074 A 
ATOM      7  C6  UNL d   1       1.360   1.594  -0.143  0.00  0.00     0.077 C 
ATOM      8  C7  UNL d   1      -0.536   0.883  -1.630  0.00  0.00    -0.001 A 
ENDROOT
TORSDOF 0
ENDMDL
