MODEL 1
REMARK minimizedAffinity -3.54441738
REMARK minimizedRMSD -1
REMARK  0 active torsions:
REMARK  status: ('A' for Active; 'I' for Inactive)
ROOT
ATOM      1  C   UNL d   1       1.642  -2.163   3.091  0.00  0.00     0.077 C 
ATOM      2  C1  UNL d   1       1.511  -1.063   2.081  0.00  0.00    -0.074 A 
ATOM      3  C2  UNL d   1       2.551  -0.152   1.871  0.00  0.00    -0.005 A 
ATOM      4  C3  UNL d   1       2.418   0.860   0.921  0.00  0.00     0.006 A 
ATOM      5  C4  UNL d   1       1.246   0.972   0.172  0.00  0.00    -0.005 A 
ATOM      6  C5  UNL d   1       0.195   0.070   0.367  0.00  0.00    -0.074 A 
ATOM      7  C6  UNL d   1      -1.067   0.170  -0.436  0.00  0.00     0.077 C 
ATOM      8  C7  UNL d   1       0.339  -0.949   1.319  0.00  0.00    -0.001 A 
ENDROOT
TORSDOF 0
ENDMDL
