MODEL 1
REMARK minimizedAffinity -4.0458703
REMARK minimizedRMSD -1
REMARK  0 active torsions:
REMARK  status: ('A' for Active; 'I' for Inactive)
ROOT
ATOM      1  C   UNL d   1      -2.953   2.429  -3.475  0.00  0.00     0.077 C 
ATOM      2  C1  UNL d   1      -2.517   1.117  -2.894  0.00  0.00    -0.074 A 
ATOM      3  C2  UNL d   1      -2.880  -0.092  -3.495  0.00  0.00    -0.005 A 
ATOM      4  C3  UNL d   1      -2.459  -1.304  -2.948  0.00  0.00     0.006 A 
ATOM      5  C4  UNL d   1      -1.671  -1.319  -1.796  0.00  0.00    -0.005 A 
ATOM      6  C5  UNL d   1      -1.297  -0.120  -1.182  0.00  0.00    -0.074 A 
ATOM      7  C6  UNL d   1      -0.443  -0.119   0.051  0.00  0.00     0.077 C 
ATOM      8  C7  UNL d   1      -1.719   1.094  -1.741  0.00  0.00    -0.001 A 
ENDROOT
TORSDOF 0
ENDMDL
