MODEL 1
REMARK minimizedAffinity -4.31607008
REMARK minimizedRMSD -1
REMARK  0 active torsions:
REMARK  status: ('A' for Active; 'I' for Inactive)
ROOT
ATOM      1  C   UNL d   1      -1.515   0.734  -0.729  0.00  0.00     0.077 C 
ATOM      2  C1  UNL d   1      -0.108   0.540  -0.249  0.00  0.00    -0.074 A 
ATOM      3  C2  UNL d   1       0.913   1.411  -0.642  0.00  0.00    -0.005 A 
ATOM      4  C3  UNL d   1       2.216   1.223  -0.180  0.00  0.00     0.006 A 
ATOM      5  C4  UNL d   1       2.510   0.164   0.679  0.00  0.00    -0.005 A 
ATOM      6  C5  UNL d   1       1.502  -0.718   1.084  0.00  0.00    -0.074 A 
ATOM      7  C6  UNL d   1       1.800  -1.856   2.014  0.00  0.00     0.077 C 
ATOM      8  C7  UNL d   1       0.195  -0.518   0.621  0.00  0.00    -0.001 A 
ENDROOT
TORSDOF 0
ENDMDL
