MODEL 1
REMARK minimizedAffinity 4.19662619
REMARK minimizedRMSD -1
REMARK  1 active torsions:
REMARK  status: ('A' for Active; 'I' for Inactive)
REMARK    1  A    between atoms: C1_2  and  C2_3 
ROOT
ATOM      1  C2  UNL d   1       4.645  -3.906   0.180  0.00  0.00    -0.073 A 
ATOM      2  C3  UNL d   1       3.403  -3.536  -0.348  0.00  0.00    -0.002 A 
ATOM      3  C4  UNL d   1       2.418  -2.993   0.479  0.00  0.00     0.004 A 
ATOM      4  C5  UNL d   1       2.667  -2.809   1.839  0.00  0.00    -0.004 A 
ATOM      5  C6  UNL d   1       3.906  -3.161   2.383  0.00  0.00    -0.075 A 
ATOM      6  C7  UNL d   1       4.189  -2.971   3.845  0.00  0.00     0.076 C 
ATOM      7  C8  UNL d   1       4.889  -3.708   1.547  0.00  0.00     0.001 A 
ENDROOT
BRANCH   1   8
ATOM      8  C1  UNL d   1       5.713  -4.486  -0.710  0.00  0.00     0.053 C 
ATOM      9  C   UNL d   1       5.613  -6.000  -0.808  0.00  0.00     0.018 C 
ENDBRANCH   1   8
TORSDOF 1
ENDMDL
