MODEL 1
REMARK minimizedAffinity 12.9886894
REMARK minimizedRMSD -1
REMARK  1 active torsions:
REMARK  status: ('A' for Active; 'I' for Inactive)
REMARK    1  A    between atoms: C1_2  and  C2_3 
ROOT
ATOM      1  C2  UNL d   1       3.869   4.837  -5.233  0.00  0.00    -0.073 A 
ATOM      2  C3  UNL d   1       5.117   5.024  -5.839  0.00  0.00    -0.002 A 
ATOM      3  C4  UNL d   1       5.991   3.949  -6.000  0.00  0.00     0.004 A 
ATOM      4  C5  UNL d   1       5.626   2.676  -5.563  0.00  0.00    -0.004 A 
ATOM      5  C6  UNL d   1       4.379   2.466  -4.966  0.00  0.00    -0.075 A 
ATOM      6  C7  UNL d   1       3.971   1.103  -4.489  0.00  0.00     0.076 C 
ATOM      7  C8  UNL d   1       3.507   3.551  -4.806  0.00  0.00     0.001 A 
ENDROOT
BRANCH   1   8
ATOM      8  C1  UNL d   1       2.919   5.994  -5.064  0.00  0.00     0.053 C 
ATOM      9  C   UNL d   1       1.670   5.835  -5.916  0.00  0.00     0.018 C 
ENDBRANCH   1   8
TORSDOF 1
ENDMDL
