MODEL 1
REMARK minimizedAffinity 17.3587723
REMARK minimizedRMSD -1
REMARK  1 active torsions:
REMARK  status: ('A' for Active; 'I' for Inactive)
REMARK    1  A    between atoms: C1_2  and  C2_3 
ROOT
ATOM      1  C2  UNL d   1      -5.081   2.084  -5.092  0.00  0.00    -0.073 A 
ATOM      2  C3  UNL d   1      -5.726   3.277  -5.435  0.00  0.00    -0.002 A 
ATOM      3  C4  UNL d   1      -5.253   4.498  -4.953  0.00  0.00     0.004 A 
ATOM      4  C5  UNL d   1      -4.126   4.540  -4.131  0.00  0.00    -0.004 A 
ATOM      5  C6  UNL d   1      -3.460   3.359  -3.788  0.00  0.00    -0.075 A 
ATOM      6  C7  UNL d   1      -2.249   3.386  -2.903  0.00  0.00     0.076 C 
ATOM      7  C8  UNL d   1      -3.944   2.136  -4.273  0.00  0.00     0.001 A 
ENDROOT
BRANCH   1   8
ATOM      8  C1  UNL d   1      -5.585   0.763  -5.615  0.00  0.00     0.053 C 
ATOM      9  C   UNL d   1      -5.998  -0.174  -4.492  0.00  0.00     0.018 C 
ENDBRANCH   1   8
TORSDOF 1
ENDMDL
