MODEL 1
REMARK minimizedAffinity 11.3382835
REMARK minimizedRMSD -1
REMARK  1 active torsions:
REMARK  status: ('A' for Active; 'I' for Inactive)
REMARK    1  A    between atoms: C1_2  and  C2_3 
ROOT
ATOM      1  C2  UNL d   1       2.101  -0.533   0.675  0.00  0.00    -0.073 A 
ATOM      2  C3  UNL d   1       1.381  -0.025   1.762  0.00  0.00    -0.002 A 
ATOM      3  C4  UNL d   1       1.770   1.170   2.368  0.00  0.00     0.004 A 
ATOM      4  C5  UNL d   1       2.876   1.872   1.891  0.00  0.00    -0.004 A 
ATOM      5  C6  UNL d   1       3.602   1.386   0.799  0.00  0.00    -0.075 A 
ATOM      6  C7  UNL d   1       4.797   2.128   0.275  0.00  0.00     0.076 C 
ATOM      7  C8  UNL d   1       3.207   0.184   0.196  0.00  0.00     0.001 A 
ENDROOT
BRANCH   1   8
ATOM      8  C1  UNL d   1       1.681  -1.820   0.012  0.00  0.00     0.053 C 
ATOM      9  C   UNL d   1       2.580  -2.982   0.403  0.00  0.00     0.018 C 
ENDBRANCH   1   8
TORSDOF 1
ENDMDL
