MODEL 1
REMARK minimizedAffinity 17.1616478
REMARK minimizedRMSD -1
REMARK  1 active torsions:
REMARK  status: ('A' for Active; 'I' for Inactive)
REMARK    1  A    between atoms: C1_2  and  C2_3 
ROOT
ATOM      1  C2  UNL d   1      -4.404   1.870  -4.787  0.00  0.00    -0.073 A 
ATOM      2  C3  UNL d   1      -3.275   1.491  -4.051  0.00  0.00    -0.002 A 
ATOM      3  C4  UNL d   1      -2.483   2.457  -3.430  0.00  0.00     0.004 A 
ATOM      4  C5  UNL d   1      -2.813   3.809  -3.532  0.00  0.00    -0.004 A 
ATOM      5  C6  UNL d   1      -3.944   4.205  -4.253  0.00  0.00    -0.075 A 
ATOM      6  C7  UNL d   1      -4.313   5.655  -4.374  0.00  0.00     0.076 C 
ATOM      7  C8  UNL d   1      -4.734   3.230  -4.876  0.00  0.00     0.001 A 
ENDROOT
BRANCH   1   8
ATOM      8  C1  UNL d   1      -5.267   0.830  -5.454  0.00  0.00     0.053 C 
ATOM      9  C   UNL d   1      -5.998  -0.039  -4.442  0.00  0.00     0.018 C 
ENDBRANCH   1   8
TORSDOF 1
ENDMDL
