MODEL 1
REMARK minimizedAffinity 11.2163839
REMARK minimizedRMSD -1
REMARK  1 active torsions:
REMARK  status: ('A' for Active; 'I' for Inactive)
REMARK    1  A    between atoms: C1_2  and  C2_3 
ROOT
ATOM      1  C2  UNL d   1       4.608  -4.671   2.040  0.00  0.00    -0.073 A 
ATOM      2  C3  UNL d   1       5.226  -5.248   0.924  0.00  0.00    -0.002 A 
ATOM      3  C4  UNL d   1       4.789  -4.935  -0.364  0.00  0.00     0.004 A 
ATOM      4  C5  UNL d   1       3.737  -4.038  -0.549  0.00  0.00    -0.004 A 
ATOM      5  C6  UNL d   1       3.115  -3.442   0.553  0.00  0.00    -0.075 A 
ATOM      6  C7  UNL d   1       1.981  -2.477   0.370  0.00  0.00     0.076 C 
ATOM      7  C8  UNL d   1       3.558  -3.764   1.843  0.00  0.00     0.001 A 
ENDROOT
BRANCH   1   8
ATOM      8  C1  UNL d   1       5.081  -5.001   3.432  0.00  0.00     0.053 C 
ATOM      9  C   UNL d   1       5.673  -3.790   4.135  0.00  0.00     0.018 C 
ENDBRANCH   1   8
TORSDOF 1
ENDMDL
