MODEL 1
REMARK minimizedAffinity 3.60632968
REMARK minimizedRMSD -1
REMARK  0 active torsions:
REMARK  status: ('A' for Active; 'I' for Inactive)
ROOT
ATOM      1  C2' OXE d   1      -4.193  -0.557   0.626  0.00  0.00     0.078 C 
ATOM      2  C1' OXE d   1      -2.060  -2.373   0.450  0.00  0.00     0.078 C 
ATOM      3  C1  OXE d   1      -1.770  -0.919   0.176  0.00  0.00    -0.078 A 
ATOM      4  C2  OXE d   1      -2.829  -0.044   0.219  0.00  0.00    -0.078 A 
ATOM      5  C3  OXE d   1      -2.607   1.317   0.027  0.00  0.00     0.003 A 
ATOM      6  C4  OXE d   1      -1.344   1.782  -0.359  0.00  0.00    -0.002 A 
ATOM      7  C5  OXE d   1      -0.260   0.902  -0.447  0.00  0.00    -0.002 A 
ATOM      8  C6  OXE d   1      -0.446  -0.442  -0.142  0.00  0.00     0.003 A 
ENDROOT
TORSDOF 0
ENDMDL
