MODEL 1
REMARK minimizedAffinity 3.64141822
REMARK minimizedRMSD -1
REMARK  0 active torsions:
REMARK  status: ('A' for Active; 'I' for Inactive)
ROOT
ATOM      1  C2' OXE d   1      -0.330   1.267  -0.583  0.00  0.00     0.078 C 
ATOM      2  C1' OXE d   1       1.109  -0.505   1.051  0.00  0.00     0.078 C 
ATOM      3  C1  OXE d   1      -0.230  -0.960   0.528  0.00  0.00    -0.078 A 
ATOM      4  C2  OXE d   1      -0.948  -0.069  -0.233  0.00  0.00    -0.078 A 
ATOM      5  C3  OXE d   1      -2.165  -0.458  -0.786  0.00  0.00     0.003 A 
ATOM      6  C4  OXE d   1      -2.734  -1.692  -0.449  0.00  0.00    -0.002 A 
ATOM      7  C5  OXE d   1      -2.038  -2.599   0.356  0.00  0.00    -0.002 A 
ATOM      8  C6  OXE d   1      -0.769  -2.267   0.817  0.00  0.00     0.003 A 
ENDROOT
TORSDOF 0
ENDMDL
