MODEL 1
REMARK minimizedAffinity 4.02536392
REMARK minimizedRMSD -1
REMARK  0 active torsions:
REMARK  status: ('A' for Active; 'I' for Inactive)
ROOT
ATOM      1  C2' OXE d   1      -1.754  -3.467  -2.635  0.00  0.00     0.078 C 
ATOM      2  C1' OXE d   1       0.092  -3.966  -0.579  0.00  0.00     0.078 C 
ATOM      3  C1  OXE d   1      -0.338  -2.538  -0.807  0.00  0.00    -0.078 A 
ATOM      4  C2  OXE d   1      -1.206  -2.298  -1.845  0.00  0.00    -0.078 A 
ATOM      5  C3  OXE d   1      -1.677  -1.006  -2.064  0.00  0.00     0.003 A 
ATOM      6  C4  OXE d   1      -1.158   0.071  -1.336  0.00  0.00    -0.002 A 
ATOM      7  C5  OXE d   1      -0.244  -0.148  -0.300  0.00  0.00    -0.002 A 
ATOM      8  C6  OXE d   1       0.143  -1.448   0.005  0.00  0.00     0.003 A 
ENDROOT
TORSDOF 0
ENDMDL
