MODEL 1
REMARK minimizedAffinity 0.722325921
REMARK minimizedRMSD -1
REMARK  0 active torsions:
REMARK  status: ('A' for Active; 'I' for Inactive)
ROOT
ATOM      1  C2' OXE d   1      -1.201  -1.551  -0.309  0.00  0.00     0.078 C 
ATOM      2  C1' OXE d   1      -1.302  -1.950   2.468  0.00  0.00     0.078 C 
ATOM      3  C1  OXE d   1      -0.079  -1.275   1.898  0.00  0.00    -0.078 A 
ATOM      4  C2  OXE d   1      -0.018  -1.126   0.534  0.00  0.00    -0.078 A 
ATOM      5  C3  OXE d   1       1.063  -0.460  -0.039  0.00  0.00     0.003 A 
ATOM      6  C4  OXE d   1       2.157  -0.079   0.746  0.00  0.00    -0.002 A 
ATOM      7  C5  OXE d   1       2.133  -0.257   2.133  0.00  0.00    -0.002 A 
ATOM      8  C6  OXE d   1       1.006  -0.814   2.729  0.00  0.00     0.003 A 
ENDROOT
TORSDOF 0
ENDMDL
