MODEL 1
REMARK minimizedAffinity 0.617759645
REMARK minimizedRMSD -1
REMARK  0 active torsions:
REMARK  status: ('A' for Active; 'I' for Inactive)
ROOT
ATOM      1  C2' OXE d   1      -1.354   0.364  -0.329  0.00  0.00     0.078 C 
ATOM      2  C1' OXE d   1      -0.867  -0.518  -2.949  0.00  0.00     0.078 C 
ATOM      3  C1  OXE d   1      -1.050  -1.563  -1.878  0.00  0.00    -0.078 A 
ATOM      4  C2  OXE d   1      -1.241  -1.123  -0.590  0.00  0.00    -0.078 A 
ATOM      5  C3  OXE d   1      -1.469  -2.045   0.427  0.00  0.00     0.003 A 
ATOM      6  C4  OXE d   1      -1.352  -3.418   0.179  0.00  0.00    -0.002 A 
ATOM      7  C5  OXE d   1      -1.118  -3.887  -1.118  0.00  0.00    -0.002 A 
ATOM      8  C6  OXE d   1      -1.007  -2.976  -2.163  0.00  0.00     0.003 A 
ENDROOT
TORSDOF 0
ENDMDL
