MODEL 1
REMARK minimizedAffinity 5.08873224
REMARK minimizedRMSD -1
REMARK  0 active torsions:
REMARK  status: ('A' for Active; 'I' for Inactive)
ROOT
ATOM      1  C2' OXE d   1      -0.837  -2.516   0.715  0.00  0.00     0.078 C 
ATOM      2  C1' OXE d   1       1.597  -1.123   0.824  0.00  0.00     0.078 C 
ATOM      3  C1  OXE d   1       0.387  -0.386   0.308  0.00  0.00    -0.078 A 
ATOM      4  C2  OXE d   1      -0.789  -1.089   0.214  0.00  0.00    -0.078 A 
ATOM      5  C3  OXE d   1      -1.948  -0.441  -0.204  0.00  0.00     0.003 A 
ATOM      6  C4  OXE d   1      -1.893   0.877  -0.674  0.00  0.00    -0.002 A 
ATOM      7  C5  OXE d   1      -0.696   1.599  -0.624  0.00  0.00    -0.002 A 
ATOM      8  C6  OXE d   1       0.441   0.997  -0.097  0.00  0.00     0.003 A 
ENDROOT
TORSDOF 0
ENDMDL
