MODEL 1
REMARK minimizedAffinity 5.88795471
REMARK minimizedRMSD -1
REMARK  0 active torsions:
REMARK  status: ('A' for Active; 'I' for Inactive)
ROOT
ATOM      1  C2' OXE d   1      -5.933   4.631  -1.855  0.00  0.00     0.078 C 
ATOM      2  C1' OXE d   1      -5.940   1.889  -2.457  0.00  0.00     0.078 C 
ATOM      3  C1  OXE d   1      -5.944   2.862  -3.609  0.00  0.00    -0.078 A 
ATOM      4  C2  OXE d   1      -5.988   4.202  -3.306  0.00  0.00    -0.078 A 
ATOM      5  C3  OXE d   1      -5.938   5.143  -4.330  0.00  0.00     0.003 A 
ATOM      6  C4  OXE d   1      -5.999   4.737  -5.669  0.00  0.00    -0.002 A 
ATOM      7  C5  OXE d   1      -5.995   3.378  -6.000  0.00  0.00    -0.002 A 
ATOM      8  C6  OXE d   1      -5.925   2.430  -4.985  0.00  0.00     0.003 A 
ENDROOT
TORSDOF 0
ENDMDL
