MODEL 1
REMARK minimizedAffinity 14.1751947
REMARK minimizedRMSD -1
REMARK  0 active torsions:
REMARK  status: ('A' for Active; 'I' for Inactive)
ROOT
ATOM      1  C2' OXE d   1      -1.057  -2.416   4.191  0.00  0.00     0.078 C 
ATOM      2  C1' OXE d   1      -1.202  -2.549   1.390  0.00  0.00     0.078 C 
ATOM      3  C1  OXE d   1       0.087  -2.063   2.006  0.00  0.00    -0.078 A 
ATOM      4  C2  OXE d   1       0.133  -1.957   3.375  0.00  0.00    -0.078 A 
ATOM      5  C3  OXE d   1       1.315  -1.567   3.997  0.00  0.00     0.003 A 
ATOM      6  C4  OXE d   1       2.408  -1.134   3.235  0.00  0.00    -0.002 A 
ATOM      7  C5  OXE d   1       2.368  -1.197   1.838  0.00  0.00    -0.002 A 
ATOM      8  C6  OXE d   1       1.233  -1.698   1.210  0.00  0.00     0.003 A 
ENDROOT
TORSDOF 0
ENDMDL
