MODEL 1
REMARK minimizedAffinity 11.9796038
REMARK minimizedRMSD -1
REMARK  0 active torsions:
REMARK  status: ('A' for Active; 'I' for Inactive)
ROOT
ATOM      1  C2' OXE d   1      -2.242   0.056  -4.482  0.00  0.00     0.078 C 
ATOM      2  C1' OXE d   1      -4.520   1.696  -4.483  0.00  0.00     0.078 C 
ATOM      3  C1  OXE d   1      -4.670   0.283  -4.988  0.00  0.00    -0.078 A 
ATOM      4  C2  OXE d   1      -3.540  -0.498  -5.028  0.00  0.00    -0.078 A 
ATOM      5  C3  OXE d   1      -3.634  -1.826  -5.434  0.00  0.00     0.003 A 
ATOM      6  C4  OXE d   1      -4.836  -2.327  -5.946  0.00  0.00    -0.002 A 
ATOM      7  C5  OXE d   1      -5.990  -1.536  -5.952  0.00  0.00    -0.002 A 
ATOM      8  C6  OXE d   1      -5.934  -0.245  -5.438  0.00  0.00     0.003 A 
ENDROOT
TORSDOF 0
ENDMDL
