MODEL 1
REMARK minimizedAffinity 6.41639614
REMARK minimizedRMSD -1
REMARK  0 active torsions:
REMARK  status: ('A' for Active; 'I' for Inactive)
ROOT
ATOM      1  C2' OXE d   1       1.843  -0.671   2.423  0.00  0.00     0.078 C 
ATOM      2  C1' OXE d   1       1.690  -1.044  -0.355  0.00  0.00     0.078 C 
ATOM      3  C1  OXE d   1       0.712  -0.089   0.282  0.00  0.00    -0.078 A 
ATOM      4  C2  OXE d   1       0.763   0.052   1.648  0.00  0.00    -0.078 A 
ATOM      5  C3  OXE d   1      -0.080   0.961   2.279  0.00  0.00     0.003 A 
ATOM      6  C4  OXE d   1      -1.083   1.619   1.556  0.00  0.00    -0.002 A 
ATOM      7  C5  OXE d   1      -1.179   1.459   0.169  0.00  0.00    -0.002 A 
ATOM      8  C6  OXE d   1      -0.264   0.643  -0.487  0.00  0.00     0.003 A 
ENDROOT
TORSDOF 0
ENDMDL
