MODEL 1
REMARK minimizedAffinity 8.27449322
REMARK minimizedRMSD -1
REMARK  0 active torsions:
REMARK  status: ('A' for Active; 'I' for Inactive)
ROOT
ATOM      1  C2' OXE d   1      -2.462   5.647  -2.376  0.00  0.00     0.078 C 
ATOM      2  C1' OXE d   1      -5.141   5.659  -1.538  0.00  0.00     0.078 C 
ATOM      3  C1  OXE d   1      -4.866   5.763  -3.018  0.00  0.00    -0.078 A 
ATOM      4  C2  OXE d   1      -3.551   5.804  -3.415  0.00  0.00    -0.078 A 
ATOM      5  C3  OXE d   1      -3.242   5.844  -4.772  0.00  0.00     0.003 A 
ATOM      6  C4  OXE d   1      -4.256   5.999  -5.725  0.00  0.00    -0.002 A 
ATOM      7  C5  OXE d   1      -5.600   6.000  -5.339  0.00  0.00    -0.002 A 
ATOM      8  C6  OXE d   1      -5.923   5.840  -3.996  0.00  0.00     0.003 A 
ENDROOT
TORSDOF 0
ENDMDL
