MODEL 1
REMARK minimizedAffinity 11.0893736
REMARK minimizedRMSD -1
REMARK  0 active torsions:
REMARK  status: ('A' for Active; 'I' for Inactive)
ROOT
ATOM      1  C   UNL d   1       0.005  -5.962  -4.709  0.00  0.00     0.124 A 
ATOM      2  C1  UNL d   1      -1.380  -5.940  -4.798  0.00  0.00     0.062 A 
ATOM      3  C2  UNL d   1      -2.155  -5.932  -3.642  0.00  0.00     0.162 A 
ATOM      4  C3  UNL d   1      -1.547  -5.945  -2.386  0.00  0.00    -0.034 A 
ATOM      5  C4  UNL d   1      -0.153  -5.968  -2.306  0.00  0.00     0.162 A 
ATOM      6  C5  UNL d   1       0.617  -5.975  -3.464  0.00  0.00     0.062 A 
ATOM      7  F   UNL d   1       1.955  -5.996  -3.377  0.00  0.00    -0.097 F 
ATOM      8  F1  UNL d   1       0.464  -5.980  -1.115  0.00  0.00    -0.096 F 
ATOM      9  I   UNL d   1      -2.702  -5.933  -0.655  0.00  0.00    -0.060 I 
ATOM     10  F2  UNL d   1      -3.492  -5.911  -3.757  0.00  0.00    -0.096 F 
ATOM     11  F3  UNL d   1      -1.974  -5.928  -6.000  0.00  0.00    -0.097 F 
ATOM     12  F4  UNL d   1       0.748  -5.970  -5.823  0.00  0.00    -0.092 F 
ENDROOT
TORSDOF 0
ENDMDL
