MODEL 1
REMARK minimizedAffinity 14.2017479
REMARK minimizedRMSD -1
REMARK  0 active torsions:
REMARK  status: ('A' for Active; 'I' for Inactive)
ROOT
ATOM      1  C   UNL d   1      -0.180  -5.996  -4.839  0.00  0.00     0.124 A 
ATOM      2  C1  UNL d   1       0.512  -5.998  -3.636  0.00  0.00     0.062 A 
ATOM      3  C2  UNL d   1      -0.182  -5.997  -2.429  0.00  0.00     0.162 A 
ATOM      4  C3  UNL d   1      -1.577  -5.996  -2.420  0.00  0.00    -0.034 A 
ATOM      5  C4  UNL d   1      -2.266  -5.993  -3.634  0.00  0.00     0.162 A 
ATOM      6  C5  UNL d   1      -1.568  -5.994  -4.837  0.00  0.00     0.062 A 
ATOM      7  F   UNL d   1      -2.238  -5.992  -5.998  0.00  0.00    -0.097 F 
ATOM      8  F1  UNL d   1      -3.607  -5.992  -3.661  0.00  0.00    -0.096 F 
ATOM      9  I   UNL d   1      -2.618  -5.995  -0.618  0.00  0.00    -0.060 I 
ATOM     10  F2  UNL d   1       0.512  -5.999  -1.282  0.00  0.00    -0.096 F 
ATOM     11  F3  UNL d   1       1.853  -5.999  -3.635  0.00  0.00    -0.097 F 
ATOM     12  F4  UNL d   1       0.490  -5.996  -5.999  0.00  0.00    -0.092 F 
ENDROOT
TORSDOF 0
ENDMDL
