MODEL 1
REMARK minimizedAffinity 13.2013006
REMARK minimizedRMSD -1
REMARK  0 active torsions:
REMARK  status: ('A' for Active; 'I' for Inactive)
ROOT
ATOM      1  C   UNL d   1      -0.276  -5.460  -4.629  0.00  0.00     0.124 A 
ATOM      2  C1  UNL d   1      -1.653  -5.581  -4.755  0.00  0.00     0.062 A 
ATOM      3  C2  UNL d   1      -2.454  -5.685  -3.621  0.00  0.00     0.162 A 
ATOM      4  C3  UNL d   1      -1.879  -5.668  -2.350  0.00  0.00    -0.034 A 
ATOM      5  C4  UNL d   1      -0.493  -5.547  -2.231  0.00  0.00     0.162 A 
ATOM      6  C5  UNL d   1       0.302  -5.443  -3.368  0.00  0.00     0.062 A 
ATOM      7  F   UNL d   1       1.632  -5.327  -3.244  0.00  0.00    -0.097 F 
ATOM      8  F1  UNL d   1       0.092  -5.527  -1.025  0.00  0.00    -0.096 F 
ATOM      9  I   UNL d   1      -3.072  -5.823  -0.652  0.00  0.00    -0.060 I 
ATOM     10  F2  UNL d   1      -3.781  -5.800  -3.772  0.00  0.00    -0.096 F 
ATOM     11  F3  UNL d   1      -2.215  -5.598  -5.972  0.00  0.00    -0.097 F 
ATOM     12  F4  UNL d   1       0.491  -5.361  -5.722  0.00  0.00    -0.092 F 
ENDROOT
TORSDOF 0
ENDMDL
