MODEL 1
REMARK minimizedAffinity 11.3714809
REMARK minimizedRMSD -1
REMARK  0 active torsions:
REMARK  status: ('A' for Active; 'I' for Inactive)
ROOT
ATOM      1  C   UNL d   1       1.540  -1.027   0.747  0.00  0.00     0.124 A 
ATOM      2  C1  UNL d   1       1.308   0.126   0.010  0.00  0.00     0.062 A 
ATOM      3  C2  UNL d   1       0.067   0.340  -0.582  0.00  0.00     0.162 A 
ATOM      4  C3  UNL d   1      -0.953  -0.600  -0.437  0.00  0.00    -0.034 A 
ATOM      5  C4  UNL d   1      -0.712  -1.757   0.305  0.00  0.00     0.162 A 
ATOM      6  C5  UNL d   1       0.530  -1.967   0.894  0.00  0.00     0.062 A 
ATOM      7  F   UNL d   1       0.752  -3.081   1.606  0.00  0.00    -0.097 F 
ATOM      8  F1  UNL d   1      -1.671  -2.682   0.464  0.00  0.00    -0.096 F 
ATOM      9  I   UNL d   1      -2.811  -0.283  -1.320  0.00  0.00    -0.060 I 
ATOM     10  F2  UNL d   1      -0.129   1.463  -1.289  0.00  0.00    -0.096 F 
ATOM     11  F3  UNL d   1       2.283   1.035  -0.135  0.00  0.00    -0.097 F 
ATOM     12  F4  UNL d   1       2.736  -1.231   1.314  0.00  0.00    -0.092 F 
ENDROOT
TORSDOF 0
ENDMDL
