MODEL 1
REMARK minimizedAffinity 13.9372635
REMARK minimizedRMSD -1
REMARK  0 active torsions:
REMARK  status: ('A' for Active; 'I' for Inactive)
ROOT
ATOM      1  C   UNL d   1      -2.601   0.083  -1.026  0.00  0.00     0.124 A 
ATOM      2  C1  UNL d   1      -1.792  -0.949  -0.571  0.00  0.00     0.062 A 
ATOM      3  C2  UNL d   1      -2.266  -1.840   0.387  0.00  0.00     0.162 A 
ATOM      4  C3  UNL d   1      -3.557  -1.703   0.898  0.00  0.00    -0.034 A 
ATOM      5  C4  UNL d   1      -4.364  -0.663   0.436  0.00  0.00     0.162 A 
ATOM      6  C5  UNL d   1      -3.886   0.225  -0.522  0.00  0.00     0.062 A 
ATOM      7  F   UNL d   1      -4.670   1.221  -0.961  0.00  0.00    -0.097 F 
ATOM      8  F1  UNL d   1      -5.611  -0.502   0.905  0.00  0.00    -0.096 F 
ATOM      9  I   UNL d   1      -4.269  -3.033   2.331  0.00  0.00    -0.060 I 
ATOM     10  F2  UNL d   1      -1.462  -2.827   0.809  0.00  0.00    -0.096 F 
ATOM     11  F3  UNL d   1      -0.549  -1.088  -1.056  0.00  0.00    -0.097 F 
ATOM     12  F4  UNL d   1      -2.142   0.939  -1.948  0.00  0.00    -0.092 F 
ENDROOT
TORSDOF 0
ENDMDL
