MODEL 1
REMARK minimizedAffinity 11.728775
REMARK minimizedRMSD -1
REMARK  0 active torsions:
REMARK  status: ('A' for Active; 'I' for Inactive)
ROOT
ATOM      1  C   UNL d   1      -4.924  -0.337  -0.883  0.00  0.00     0.124 A 
ATOM      2  C1  UNL d   1      -4.872  -0.150  -2.257  0.00  0.00     0.062 A 
ATOM      3  C2  UNL d   1      -3.842   0.595  -2.823  0.00  0.00     0.162 A 
ATOM      4  C3  UNL d   1      -2.854   1.159  -2.015  0.00  0.00    -0.034 A 
ATOM      5  C4  UNL d   1      -2.914   0.967  -0.634  0.00  0.00     0.162 A 
ATOM      6  C5  UNL d   1      -3.946   0.221  -0.073  0.00  0.00     0.062 A 
ATOM      7  F   UNL d   1      -3.994   0.041   1.255  0.00  0.00    -0.097 F 
ATOM      8  F1  UNL d   1      -1.981   1.494   0.172  0.00  0.00    -0.096 F 
ATOM      9  I   UNL d   1      -1.313   2.274  -2.858  0.00  0.00    -0.060 I 
ATOM     10  F2  UNL d   1      -3.817   0.760  -4.154  0.00  0.00    -0.096 F 
ATOM     11  F3  UNL d   1      -5.817  -0.688  -3.042  0.00  0.00    -0.097 F 
ATOM     12  F4  UNL d   1      -5.917  -1.054  -0.340  0.00  0.00    -0.092 F 
ENDROOT
TORSDOF 0
ENDMDL
