MODEL 1
REMARK minimizedAffinity 3.35178328
REMARK minimizedRMSD -1
REMARK  0 active torsions:
REMARK  status: ('A' for Active; 'I' for Inactive)
ROOT
ATOM      1  C   UNL d   1      -2.612  -5.998  -3.343  0.00  0.00     0.124 A 
ATOM      2  C1  UNL d   1      -1.864  -5.999  -2.173  0.00  0.00     0.062 A 
ATOM      3  C2  UNL d   1      -0.474  -5.999  -2.232  0.00  0.00     0.162 A 
ATOM      4  C3  UNL d   1       0.179  -5.998  -3.464  0.00  0.00    -0.034 A 
ATOM      5  C4  UNL d   1      -0.580  -5.999  -4.636  0.00  0.00     0.162 A 
ATOM      6  C5  UNL d   1      -1.969  -5.998  -4.573  0.00  0.00     0.062 A 
ATOM      7  F   UNL d   1      -2.690  -5.998  -5.703  0.00  0.00    -0.097 F 
ATOM      8  F1  UNL d   1       0.015  -5.998  -5.838  0.00  0.00    -0.096 F 
ATOM      9  I   UNL d   1       2.258  -5.999  -3.556  0.00  0.00    -0.060 I 
ATOM     10  F2  UNL d   1       0.223  -5.999  -1.086  0.00  0.00    -0.096 F 
ATOM     11  F3  UNL d   1      -2.483  -5.999  -0.984  0.00  0.00    -0.097 F 
ATOM     12  F4  UNL d   1      -3.950  -5.999  -3.284  0.00  0.00    -0.092 F 
ENDROOT
TORSDOF 0
ENDMDL
