MODEL 1
REMARK minimizedAffinity 12.338191
REMARK minimizedRMSD -1
REMARK  0 active torsions:
REMARK  status: ('A' for Active; 'I' for Inactive)
ROOT
ATOM      1  C   UNL d   1      -1.331  -5.440  -2.303  0.00  0.00     0.124 A 
ATOM      2  C1  UNL d   1      -1.787  -5.396  -3.613  0.00  0.00     0.062 A 
ATOM      3  C2  UNL d   1      -0.895  -5.555  -4.671  0.00  0.00     0.162 A 
ATOM      4  C3  UNL d   1       0.462  -5.761  -4.422  0.00  0.00    -0.034 A 
ATOM      5  C4  UNL d   1       0.913  -5.803  -3.102  0.00  0.00     0.162 A 
ATOM      6  C5  UNL d   1       0.018  -5.643  -2.049  0.00  0.00     0.062 A 
ATOM      7  F   UNL d   1       0.461  -5.686  -0.783  0.00  0.00    -0.097 F 
ATOM      8  F1  UNL d   1       2.211  -5.999  -2.827  0.00  0.00    -0.096 F 
ATOM      9  I   UNL d   1       1.798  -5.999  -6.000  0.00  0.00    -0.060 I 
ATOM     10  F2  UNL d   1      -1.364  -5.508  -5.927  0.00  0.00    -0.096 F 
ATOM     11  F3  UNL d   1      -3.089  -5.199  -3.862  0.00  0.00    -0.097 F 
ATOM     12  F4  UNL d   1      -2.190  -5.286  -1.288  0.00  0.00    -0.092 F 
ENDROOT
TORSDOF 0
ENDMDL
