MODEL 1
REMARK minimizedAffinity 2.61542869
REMARK minimizedRMSD -1
REMARK  0 active torsions:
REMARK  status: ('A' for Active; 'I' for Inactive)
ROOT
ATOM      1  C   UNL d   1      -1.996  -5.996  -2.351  0.00  0.00     0.124 A 
ATOM      2  C1  UNL d   1      -0.636  -5.998  -2.073  0.00  0.00     0.062 A 
ATOM      3  C2  UNL d   1       0.291  -5.998  -3.111  0.00  0.00     0.162 A 
ATOM      4  C3  UNL d   1      -0.139  -5.996  -4.438  0.00  0.00    -0.034 A 
ATOM      5  C4  UNL d   1      -1.508  -5.996  -4.710  0.00  0.00     0.162 A 
ATOM      6  C5  UNL d   1      -2.431  -5.995  -3.669  0.00  0.00     0.062 A 
ATOM      7  F   UNL d   1      -3.744  -5.993  -3.939  0.00  0.00    -0.097 F 
ATOM      8  F1  UNL d   1      -1.956  -5.994  -5.974  0.00  0.00    -0.096 F 
ATOM      9  I   UNL d   1       1.243  -5.997  -5.994  0.00  0.00    -0.060 I 
ATOM     10  F2  UNL d   1       1.599  -6.000  -2.813  0.00  0.00    -0.096 F 
ATOM     11  F3  UNL d   1      -0.213  -5.999  -0.800  0.00  0.00    -0.097 F 
ATOM     12  F4  UNL d   1      -2.885  -5.996  -1.350  0.00  0.00    -0.092 F 
ENDROOT
TORSDOF 0
ENDMDL
