MODEL 1
REMARK minimizedAffinity 10.0530863
REMARK minimizedRMSD -1
REMARK  0 active torsions:
REMARK  status: ('A' for Active; 'I' for Inactive)
ROOT
ATOM      1  C   UNL d   1       2.860   0.200   1.163  0.00  0.00     0.124 A 
ATOM      2  C1  UNL d   1       3.586   0.125   2.344  0.00  0.00     0.062 A 
ATOM      3  C2  UNL d   1       3.076  -0.570   3.437  0.00  0.00     0.162 A 
ATOM      4  C3  UNL d   1       1.832  -1.196   3.355  0.00  0.00    -0.034 A 
ATOM      5  C4  UNL d   1       1.107  -1.115   2.165  0.00  0.00     0.162 A 
ATOM      6  C5  UNL d   1       1.621  -0.420   1.075  0.00  0.00     0.062 A 
ATOM      7  F   UNL d   1       0.918  -0.349  -0.065  0.00  0.00    -0.097 F 
ATOM      8  F1  UNL d   1      -0.092  -1.706   2.051  0.00  0.00    -0.096 F 
ATOM      9  I   UNL d   1       1.066  -2.235   4.987  0.00  0.00    -0.060 I 
ATOM     10  F2  UNL d   1       3.800  -0.626   4.565  0.00  0.00    -0.096 F 
ATOM     11  F3  UNL d   1       4.782   0.723   2.432  0.00  0.00    -0.097 F 
ATOM     12  F4  UNL d   1       3.352   0.869   0.114  0.00  0.00    -0.092 F 
ENDROOT
TORSDOF 0
ENDMDL
