MODEL 1
REMARK minimizedAffinity 16.1603069
REMARK minimizedRMSD -1
REMARK  0 active torsions:
REMARK  status: ('A' for Active; 'I' for Inactive)
ROOT
ATOM      1  C   UNL d   1       0.494  -2.174   1.142  0.00  0.00     0.124 A 
ATOM      2  C1  UNL d   1       1.727  -1.554   1.284  0.00  0.00     0.062 A 
ATOM      3  C2  UNL d   1       1.871  -0.203   0.979  0.00  0.00     0.162 A 
ATOM      4  C3  UNL d   1       0.777   0.537   0.531  0.00  0.00    -0.034 A 
ATOM      5  C4  UNL d   1      -0.461  -0.094   0.390  0.00  0.00     0.162 A 
ATOM      6  C5  UNL d   1      -0.599  -1.444   0.696  0.00  0.00     0.062 A 
ATOM      7  F   UNL d   1      -1.791  -2.042   0.559  0.00  0.00    -0.097 F 
ATOM      8  F1  UNL d   1      -1.533   0.588  -0.038  0.00  0.00    -0.096 F 
ATOM      9  I   UNL d   1       0.987   2.557   0.075  0.00  0.00    -0.060 I 
ATOM     10  F2  UNL d   1       3.074   0.370   1.125  0.00  0.00    -0.096 F 
ATOM     11  F3  UNL d   1       2.785  -2.257   1.714  0.00  0.00    -0.097 F 
ATOM     12  F4  UNL d   1       0.359  -3.474   1.435  0.00  0.00    -0.092 F 
ENDROOT
TORSDOF 0
ENDMDL
