MODEL 1
REMARK minimizedAffinity 15.0563841
REMARK minimizedRMSD -1
REMARK  0 active torsions:
REMARK  status: ('A' for Active; 'I' for Inactive)
ROOT
ATOM      1  C   UNL d   1      -1.178  -5.890  -4.773  0.00  0.00     0.124 A 
ATOM      2  C1  UNL d   1      -0.525  -5.884  -3.548  0.00  0.00     0.062 A 
ATOM      3  C2  UNL d   1      -1.256  -5.915  -2.365  0.00  0.00     0.162 A 
ATOM      4  C3  UNL d   1      -2.650  -5.952  -2.399  0.00  0.00    -0.034 A 
ATOM      5  C4  UNL d   1      -3.300  -5.956  -3.635  0.00  0.00     0.162 A 
ATOM      6  C5  UNL d   1      -2.565  -5.926  -4.815  0.00  0.00     0.062 A 
ATOM      7  F   UNL d   1      -3.198  -5.931  -5.997  0.00  0.00    -0.097 F 
ATOM      8  F1  UNL d   1      -4.639  -5.991  -3.704  0.00  0.00    -0.096 F 
ATOM      9  I   UNL d   1      -3.748  -5.998  -0.631  0.00  0.00    -0.060 I 
ATOM     10  F2  UNL d   1      -0.599  -5.909  -1.196  0.00  0.00    -0.096 F 
ATOM     11  F3  UNL d   1       0.815  -5.849  -3.505  0.00  0.00    -0.097 F 
ATOM     12  F4  UNL d   1      -0.472  -5.859  -5.910  0.00  0.00    -0.092 F 
ENDROOT
TORSDOF 0
ENDMDL
