MODEL 1
REMARK minimizedAffinity 10.251895
REMARK minimizedRMSD -1
REMARK  0 active torsions:
REMARK  status: ('A' for Active; 'I' for Inactive)
ROOT
ATOM      1  C   UNL d   1      -0.348  -5.913  -4.627  0.00  0.00     0.124 A 
ATOM      2  C1  UNL d   1      -1.727  -5.953  -4.774  0.00  0.00     0.062 A 
ATOM      3  C2  UNL d   1      -2.551  -5.959  -3.652  0.00  0.00     0.162 A 
ATOM      4  C3  UNL d   1      -1.996  -5.924  -2.372  0.00  0.00    -0.034 A 
ATOM      5  C4  UNL d   1      -0.608  -5.885  -2.233  0.00  0.00     0.162 A 
ATOM      6  C5  UNL d   1       0.211  -5.879  -3.357  0.00  0.00     0.062 A 
ATOM      7  F   UNL d   1       1.543  -5.840  -3.214  0.00  0.00    -0.097 F 
ATOM      8  F1  UNL d   1      -0.042  -5.850  -1.017  0.00  0.00    -0.096 F 
ATOM      9  I   UNL d   1      -3.224  -5.933  -0.692  0.00  0.00    -0.060 I 
ATOM     10  F2  UNL d   1      -3.880  -5.998  -3.823  0.00  0.00    -0.096 F 
ATOM     11  F3  UNL d   1      -2.269  -5.988  -6.000  0.00  0.00    -0.097 F 
ATOM     12  F4  UNL d   1       0.442  -5.909  -5.709  0.00  0.00    -0.092 F 
ENDROOT
TORSDOF 0
ENDMDL
