MODEL 1
REMARK minimizedAffinity 4.12500668
REMARK minimizedRMSD -1
REMARK  0 active torsions:
REMARK  status: ('A' for Active; 'I' for Inactive)
ROOT
ATOM      1  C   UNL d   1      -3.513  -5.995  -2.435  0.00  0.00     0.124 A 
ATOM      2  C1  UNL d   1      -3.612  -5.995  -3.820  0.00  0.00     0.062 A 
ATOM      3  C2  UNL d   1      -2.461  -5.990  -4.603  0.00  0.00     0.162 A 
ATOM      4  C3  UNL d   1      -1.201  -5.987  -4.004  0.00  0.00    -0.034 A 
ATOM      5  C4  UNL d   1      -1.111  -5.986  -2.611  0.00  0.00     0.162 A 
ATOM      6  C5  UNL d   1      -2.264  -5.991  -1.832  0.00  0.00     0.062 A 
ATOM      7  F   UNL d   1      -2.167  -5.992  -0.495  0.00  0.00    -0.097 F 
ATOM      8  F1  UNL d   1       0.084  -5.984  -2.002  0.00  0.00    -0.096 F 
ATOM      9  I   UNL d   1       0.521  -5.979  -5.172  0.00  0.00    -0.060 I 
ATOM     10  F2  UNL d   1      -2.586  -5.989  -5.939  0.00  0.00    -0.096 F 
ATOM     11  F3  UNL d   1      -4.818  -5.998  -4.405  0.00  0.00    -0.097 F 
ATOM     12  F4  UNL d   1      -4.622  -5.999  -1.684  0.00  0.00    -0.092 F 
ENDROOT
TORSDOF 0
ENDMDL
