MODEL 1
REMARK minimizedAffinity 11.5598478
REMARK minimizedRMSD -1
REMARK  0 active torsions:
REMARK  status: ('A' for Active; 'I' for Inactive)
ROOT
ATOM      1  C   UNL d   1      -0.859  -3.268   2.608  0.00  0.00     0.124 A 
ATOM      2  C1  UNL d   1      -1.291  -4.257   3.481  0.00  0.00     0.062 A 
ATOM      3  C2  UNL d   1      -2.399  -5.037   3.164  0.00  0.00     0.162 A 
ATOM      4  C3  UNL d   1      -3.085  -4.831   1.967  0.00  0.00    -0.034 A 
ATOM      5  C4  UNL d   1      -2.646  -3.834   1.094  0.00  0.00     0.162 A 
ATOM      6  C5  UNL d   1      -1.537  -3.058   1.415  0.00  0.00     0.062 A 
ATOM      7  F   UNL d   1      -1.122  -2.103   0.570  0.00  0.00    -0.097 F 
ATOM      8  F1  UNL d   1      -3.281  -3.610  -0.066  0.00  0.00    -0.096 F 
ATOM      9  I   UNL d   1      -4.743  -5.995   1.489  0.00  0.00    -0.060 I 
ATOM     10  F2  UNL d   1      -2.794  -5.985   4.027  0.00  0.00    -0.096 F 
ATOM     11  F3  UNL d   1      -0.638  -4.462   4.635  0.00  0.00    -0.097 F 
ATOM     12  F4  UNL d   1       0.207  -2.519   2.916  0.00  0.00    -0.092 F 
ENDROOT
TORSDOF 0
ENDMDL
