MODEL 1
REMARK minimizedAffinity 8.12380791
REMARK minimizedRMSD -1
REMARK  0 active torsions:
REMARK  status: ('A' for Active; 'I' for Inactive)
ROOT
ATOM      1  C   UNL d   1      -1.983  -5.836  -2.359  0.00  0.00     0.124 A 
ATOM      2  C1  UNL d   1      -0.623  -5.843  -2.081  0.00  0.00     0.062 A 
ATOM      3  C2  UNL d   1       0.303  -5.890  -3.118  0.00  0.00     0.162 A 
ATOM      4  C3  UNL d   1      -0.127  -5.929  -4.445  0.00  0.00    -0.034 A 
ATOM      5  C4  UNL d   1      -1.497  -5.923  -4.716  0.00  0.00     0.162 A 
ATOM      6  C5  UNL d   1      -2.419  -5.876  -3.676  0.00  0.00     0.062 A 
ATOM      7  F   UNL d   1      -3.732  -5.869  -3.946  0.00  0.00    -0.097 F 
ATOM      8  F1  UNL d   1      -1.945  -5.959  -5.980  0.00  0.00    -0.096 F 
ATOM      9  I   UNL d   1       1.255  -6.000  -5.999  0.00  0.00    -0.060 I 
ATOM     10  F2  UNL d   1       1.611  -5.896  -2.820  0.00  0.00    -0.096 F 
ATOM     11  F3  UNL d   1      -0.200  -5.806  -0.809  0.00  0.00    -0.097 F 
ATOM     12  F4  UNL d   1      -2.873  -5.792  -1.358  0.00  0.00    -0.092 F 
ENDROOT
TORSDOF 0
ENDMDL
