MODEL 1
REMARK minimizedAffinity 10.7182856
REMARK minimizedRMSD -1
REMARK  0 active torsions:
REMARK  status: ('A' for Active; 'I' for Inactive)
ROOT
ATOM      1  C   UNL d   1      -4.537   1.102  -2.319  0.00  0.00     0.124 A 
ATOM      2  C1  UNL d   1      -5.053  -0.186  -2.266  0.00  0.00     0.062 A 
ATOM      3  C2  UNL d   1      -5.307  -0.788  -1.037  0.00  0.00     0.162 A 
ATOM      4  C3  UNL d   1      -5.046  -0.104   0.150  0.00  0.00    -0.034 A 
ATOM      5  C4  UNL d   1      -4.527   1.191   0.089  0.00  0.00     0.162 A 
ATOM      6  C5  UNL d   1      -4.275   1.789  -1.142  0.00  0.00     0.062 A 
ATOM      7  F   UNL d   1      -3.777   3.033  -1.191  0.00  0.00    -0.097 F 
ATOM      8  F1  UNL d   1      -4.265   1.878   1.211  0.00  0.00    -0.096 F 
ATOM      9  I   UNL d   1      -5.425  -1.001   1.989  0.00  0.00    -0.060 I 
ATOM     10  F2  UNL d   1      -5.805  -2.034  -1.016  0.00  0.00    -0.096 F 
ATOM     11  F3  UNL d   1      -5.307  -0.852  -3.402  0.00  0.00    -0.097 F 
ATOM     12  F4  UNL d   1      -4.293   1.679  -3.502  0.00  0.00    -0.092 F 
ENDROOT
TORSDOF 0
ENDMDL
