MODEL 1
REMARK minimizedAffinity 3.34475946
REMARK minimizedRMSD -1
REMARK  3 active torsions:
REMARK  status: ('A' for Active; 'I' for Inactive)
REMARK    1  A    between atoms: C3'_2  and  C2'_3 
REMARK    2  A    between atoms: C2'_3  and  C1'_4 
REMARK    3  A    between atoms: C1'_4  and  C1_5 
ROOT
ATOM      1  C1  N4B d   1       0.191  -1.847   2.293  0.00  0.00    -0.075 A 
ATOM      2  C2  N4B d   1       0.957  -2.999   2.577  0.00  0.00     0.002 A 
ATOM      3  C3  N4B d   1       1.777  -3.532   1.613  0.00  0.00     0.002 A 
ATOM      4  C4  N4B d   1       1.833  -2.945   0.358  0.00  0.00    -0.004 A 
ATOM      5  C5  N4B d   1       1.109  -1.818   0.100  0.00  0.00     0.002 A 
ATOM      6  C6  N4B d   1       0.284  -1.268   1.060  0.00  0.00     0.002 A 
ENDROOT
BRANCH   1   7
ATOM      7  C1' N4B d   1      -0.785  -1.278   3.286  0.00  0.00     0.057 C 
BRANCH   7   8
ATOM      8  C2' N4B d   1      -1.250   0.092   2.802  0.00  0.00     0.009 C 
BRANCH   8   9
ATOM      9  C3' N4B d   1      -2.663   0.048   2.245  0.00  0.00     0.004 C 
ATOM     10  C4' N4B d   1      -3.629   0.871   3.045  0.00  0.00     0.003 C 
ENDBRANCH   8   9
ENDBRANCH   7   8
ENDBRANCH   1   7
TORSDOF 3
ENDMDL
