MODEL 1
REMARK minimizedAffinity 4.58796883
REMARK minimizedRMSD -1
REMARK  3 active torsions:
REMARK  status: ('A' for Active; 'I' for Inactive)
REMARK    1  A    between atoms: C3'_2  and  C2'_3 
REMARK    2  A    between atoms: C2'_3  and  C1'_4 
REMARK    3  A    between atoms: C1'_4  and  C1_5 
ROOT
ATOM      1  C1  N4B d   1       1.185  -1.938   2.063  0.00  0.00    -0.075 A 
ATOM      2  C2  N4B d   1       1.668  -1.501   0.810  0.00  0.00     0.002 A 
ATOM      3  C3  N4B d   1       2.480  -2.320   0.064  0.00  0.00     0.002 A 
ATOM      4  C4  N4B d   1       2.836  -3.567   0.557  0.00  0.00    -0.004 A 
ATOM      5  C5  N4B d   1       2.344  -3.991   1.757  0.00  0.00     0.002 A 
ATOM      6  C6  N4B d   1       1.524  -3.180   2.515  0.00  0.00     0.002 A 
ENDROOT
BRANCH   1   7
ATOM      7  C1' N4B d   1       0.365  -1.044   2.953  0.00  0.00     0.057 C 
BRANCH   7   8
ATOM      8  C2' N4B d   1      -1.100  -1.461   2.868  0.00  0.00     0.009 C 
BRANCH   8   9
ATOM      9  C3' N4B d   1      -1.912  -0.514   2.001  0.00  0.00     0.004 C 
ATOM     10  C4' N4B d   1      -2.513   0.616   2.782  0.00  0.00     0.003 C 
ENDBRANCH   8   9
ENDBRANCH   7   8
ENDBRANCH   1   7
TORSDOF 3
ENDMDL
