MODEL 1
REMARK minimizedAffinity 2.03767991
REMARK minimizedRMSD -1
REMARK  3 active torsions:
REMARK  status: ('A' for Active; 'I' for Inactive)
REMARK    1  A    between atoms: C3'_2  and  C2'_3 
REMARK    2  A    between atoms: C2'_3  and  C1'_4 
REMARK    3  A    between atoms: C1'_4  and  C1_5 
ROOT
ATOM      1  C1  N4B d   1       1.637  -3.508   2.053  0.00  0.00    -0.075 A 
ATOM      2  C2  N4B d   1       1.005  -4.758   1.876  0.00  0.00     0.002 A 
ATOM      3  C3  N4B d   1      -0.254  -4.969   2.381  0.00  0.00     0.002 A 
ATOM      4  C4  N4B d   1      -0.891  -3.955   3.080  0.00  0.00    -0.004 A 
ATOM      5  C5  N4B d   1      -0.285  -2.742   3.225  0.00  0.00     0.002 A 
ATOM      6  C6  N4B d   1       0.979  -2.514   2.719  0.00  0.00     0.002 A 
ENDROOT
BRANCH   1   7
ATOM      7  C1' N4B d   1       3.047  -3.258   1.593  0.00  0.00     0.057 C 
BRANCH   7   8
ATOM      8  C2' N4B d   1       3.112  -1.905   0.890  0.00  0.00     0.009 C 
BRANCH   8   9
ATOM      9  C3' N4B d   1       4.535  -1.528   0.515  0.00  0.00     0.004 C 
ATOM     10  C4' N4B d   1       5.559  -2.427   1.143  0.00  0.00     0.003 C 
ENDBRANCH   8   9
ENDBRANCH   7   8
ENDBRANCH   1   7
TORSDOF 3
ENDMDL
