MODEL 1
REMARK minimizedAffinity 12.7657843
REMARK minimizedRMSD -1
REMARK  0 active torsions:
REMARK  status: ('A' for Active; 'I' for Inactive)
ROOT
ATOM      1  O1  BZF d   1      -0.367  -5.774   1.475  0.00  0.00    -0.204 OA
ATOM      2  C2  BZF d   1      -0.486  -6.000   2.833  0.00  0.00     0.174 A 
ATOM      3  C3  BZF d   1      -1.089  -4.958   3.440  0.00  0.00    -0.012 A 
ATOM      4  C3A BZF d   1      -1.448  -4.062   2.382  0.00  0.00    -0.107 A 
ATOM      5  C4  BZF d   1      -2.088  -2.857   2.350  0.00  0.00     0.055 A 
ATOM      6  C5  BZF d   1      -2.215  -2.208   1.162  0.00  0.00    -0.016 A 
ATOM      7  C6  BZF d   1      -1.709  -2.733  -0.009  0.00  0.00     0.022 A 
ATOM      8  C7  BZF d   1      -1.071  -3.928  -0.028  0.00  0.00     0.029 A 
ATOM      9  C7A BZF d   1      -0.970  -4.601   1.165  0.00  0.00     0.058 A 
ENDROOT
TORSDOF 0
ENDMDL
