MODEL 1
REMARK minimizedAffinity 3.95635819
REMARK minimizedRMSD -1
REMARK  0 active torsions:
REMARK  status: ('A' for Active; 'I' for Inactive)
ROOT
ATOM      1  O1  BZF d   1      -1.598  -4.120   3.801  0.00  0.00    -0.204 OA
ATOM      2  C2  BZF d   1      -2.110  -2.851   3.988  0.00  0.00     0.174 A 
ATOM      3  C3  BZF d   1      -2.004  -2.120   2.860  0.00  0.00    -0.012 A 
ATOM      4  C3A BZF d   1      -1.470  -3.017   1.880  0.00  0.00    -0.107 A 
ATOM      5  C4  BZF d   1      -1.154  -2.883   0.559  0.00  0.00     0.055 A 
ATOM      6  C5  BZF d   1      -0.583  -3.930  -0.093  0.00  0.00    -0.016 A 
ATOM      7  C6  BZF d   1      -0.311  -5.122   0.546  0.00  0.00     0.022 A 
ATOM      8  C7  BZF d   1      -0.612  -5.304   1.855  0.00  0.00     0.029 A 
ATOM      9  C7A BZF d   1      -1.219  -4.259   2.508  0.00  0.00     0.058 A 
ENDROOT
TORSDOF 0
ENDMDL
