MODEL 1
REMARK minimizedAffinity 3.8913095
REMARK minimizedRMSD -1
REMARK  0 active torsions:
REMARK  status: ('A' for Active; 'I' for Inactive)
ROOT
ATOM      1  O1  BZF d   1      -3.054   4.798  -3.225  0.00  0.00    -0.204 OA
ATOM      2  C2  BZF d   1      -2.385   3.653  -3.614  0.00  0.00     0.174 A 
ATOM      3  C3  BZF d   1      -3.005   3.070  -4.660  0.00  0.00    -0.012 A 
ATOM      4  C3A BZF d   1      -4.079   3.952  -5.002  0.00  0.00    -0.107 A 
ATOM      5  C4  BZF d   1      -5.044   3.927  -5.968  0.00  0.00     0.055 A 
ATOM      6  C5  BZF d   1      -5.987   4.904  -5.984  0.00  0.00    -0.016 A 
ATOM      7  C6  BZF d   1      -6.000   5.918  -5.048  0.00  0.00     0.022 A 
ATOM      8  C7  BZF d   1      -5.060   5.988  -4.074  0.00  0.00     0.029 A 
ATOM      9  C7A BZF d   1      -4.086   5.020  -4.075  0.00  0.00     0.058 A 
ENDROOT
TORSDOF 0
ENDMDL
