MODEL 1
REMARK minimizedAffinity 15.0960493
REMARK minimizedRMSD -1
REMARK  0 active torsions:
REMARK  status: ('A' for Active; 'I' for Inactive)
ROOT
ATOM      1  O1  BZF d   1      -0.214  -4.514   0.155  0.00  0.00    -0.204 OA
ATOM      2  C2  BZF d   1      -0.379  -5.158   1.366  0.00  0.00     0.174 A 
ATOM      3  C3  BZF d   1      -1.154  -4.428   2.194  0.00  0.00    -0.012 A 
ATOM      4  C3A BZF d   1      -1.571  -3.298   1.421  0.00  0.00    -0.107 A 
ATOM      5  C4  BZF d   1      -2.369  -2.222   1.686  0.00  0.00     0.055 A 
ATOM      6  C5  BZF d   1      -2.515  -1.259   0.739  0.00  0.00    -0.016 A 
ATOM      7  C6  BZF d   1      -1.876  -1.337  -0.481  0.00  0.00     0.022 A 
ATOM      8  C7  BZF d   1      -1.078  -2.388  -0.792  0.00  0.00     0.029 A 
ATOM      9  C7A BZF d   1      -0.955  -3.379   0.151  0.00  0.00     0.058 A 
ENDROOT
TORSDOF 0
ENDMDL
