MODEL 1
REMARK minimizedAffinity 11.0158234
REMARK minimizedRMSD -1
REMARK  0 active torsions:
REMARK  status: ('A' for Active; 'I' for Inactive)
ROOT
ATOM      1  O1  BZF d   1       0.229  -4.837  -0.082  0.00  0.00    -0.204 OA
ATOM      2  C2  BZF d   1      -0.176  -5.742   0.880  0.00  0.00     0.174 A 
ATOM      3  C3  BZF d   1      -1.142  -5.212   1.658  0.00  0.00    -0.012 A 
ATOM      4  C3A BZF d   1      -1.419  -3.928   1.091  0.00  0.00    -0.107 A 
ATOM      5  C4  BZF d   1      -2.295  -2.930   1.410  0.00  0.00     0.055 A 
ATOM      6  C5  BZF d   1      -2.264  -1.771   0.701  0.00  0.00    -0.016 A 
ATOM      7  C6  BZF d   1      -1.367  -1.575  -0.329  0.00  0.00     0.022 A 
ATOM      8  C7  BZF d   1      -0.482  -2.537  -0.686  0.00  0.00     0.029 A 
ATOM      9  C7A BZF d   1      -0.534  -3.722   0.008  0.00  0.00     0.058 A 
ENDROOT
TORSDOF 0
ENDMDL
