MODEL 1
REMARK minimizedAffinity 7.41658163
REMARK minimizedRMSD -1
REMARK  0 active torsions:
REMARK  status: ('A' for Active; 'I' for Inactive)
ROOT
ATOM      1  O1  BZF d   1      -0.828  -4.007  -0.200  0.00  0.00    -0.204 OA
ATOM      2  C2  BZF d   1      -1.161  -3.763   1.118  0.00  0.00     0.174 A 
ATOM      3  C3  BZF d   1      -1.901  -2.641   1.224  0.00  0.00    -0.012 A 
ATOM      4  C3A BZF d   1      -2.116  -2.203  -0.121  0.00  0.00    -0.107 A 
ATOM      5  C4  BZF d   1      -2.793  -1.151  -0.668  0.00  0.00     0.055 A 
ATOM      6  C5  BZF d   1      -2.748  -0.965  -2.014  0.00  0.00    -0.016 A 
ATOM      7  C6  BZF d   1      -2.034  -1.808  -2.840  0.00  0.00     0.022 A 
ATOM      8  C7  BZF d   1      -1.351  -2.868  -2.343  0.00  0.00     0.029 A 
ATOM      9  C7A BZF d   1      -1.421  -3.077  -0.987  0.00  0.00     0.058 A 
ENDROOT
TORSDOF 0
ENDMDL
