MODEL 1
REMARK minimizedAffinity 13.8740749
REMARK minimizedRMSD -1
REMARK  0 active torsions:
REMARK  status: ('A' for Active; 'I' for Inactive)
ROOT
ATOM      1  O1  BZF d   1      -1.986   0.375   5.496  0.00  0.00    -0.204 OA
ATOM      2  C2  BZF d   1      -1.898  -0.943   5.092  0.00  0.00     0.174 A 
ATOM      3  C3  BZF d   1      -3.125  -1.492   4.981  0.00  0.00    -0.012 A 
ATOM      4  C3A BZF d   1      -4.040  -0.425   5.250  0.00  0.00    -0.107 A 
ATOM      5  C4  BZF d   1      -5.403  -0.341   5.277  0.00  0.00     0.055 A 
ATOM      6  C5  BZF d   1      -5.986   0.830   5.646  0.00  0.00    -0.016 A 
ATOM      7  C6  BZF d   1      -5.237   1.933   6.000  0.00  0.00     0.022 A 
ATOM      8  C7  BZF d   1      -3.882   1.900   5.984  0.00  0.00     0.029 A 
ATOM      9  C7A BZF d   1      -3.291   0.728   5.579  0.00  0.00     0.058 A 
ENDROOT
TORSDOF 0
ENDMDL
