MODEL 1
REMARK minimizedAffinity 17.2391148
REMARK minimizedRMSD -1
REMARK  0 active torsions:
REMARK  status: ('A' for Active; 'I' for Inactive)
ROOT
ATOM      1  O1  BZF d   1       1.863   2.203   0.106  0.00  0.00    -0.204 OA
ATOM      2  C2  BZF d   1       3.103   2.775   0.317  0.00  0.00     0.174 A 
ATOM      3  C3  BZF d   1       4.039   2.185  -0.453  0.00  0.00    -0.012 A 
ATOM      4  C3A BZF d   1       3.325   1.244  -1.260  0.00  0.00    -0.107 A 
ATOM      5  C4  BZF d   1       3.702   0.365  -2.235  0.00  0.00     0.055 A 
ATOM      6  C5  BZF d   1       2.770  -0.465  -2.773  0.00  0.00    -0.016 A 
ATOM      7  C6  BZF d   1       1.455  -0.446  -2.358  0.00  0.00     0.022 A 
ATOM      8  C7  BZF d   1       1.032   0.412  -1.398  0.00  0.00     0.029 A 
ATOM      9  C7A BZF d   1       1.964   1.274  -0.875  0.00  0.00     0.058 A 
ENDROOT
TORSDOF 0
ENDMDL
