MODEL 1
REMARK minimizedAffinity 12.9166489
REMARK minimizedRMSD -1
REMARK  0 active torsions:
REMARK  status: ('A' for Active; 'I' for Inactive)
ROOT
ATOM      1  O1  BZF d   1      -0.347  -4.803  -0.418  0.00  0.00    -0.204 OA
ATOM      2  C2  BZF d   1      -0.578  -6.000  -1.068  0.00  0.00     0.174 A 
ATOM      3  C3  BZF d   1      -0.937  -5.787  -2.350  0.00  0.00    -0.012 A 
ATOM      4  C3A BZF d   1      -0.839  -4.372  -2.538  0.00  0.00    -0.107 A 
ATOM      5  C4  BZF d   1      -1.053  -3.549  -3.607  0.00  0.00     0.055 A 
ATOM      6  C5  BZF d   1      -0.940  -2.205  -3.440  0.00  0.00    -0.016 A 
ATOM      7  C6  BZF d   1      -0.622  -1.650  -2.218  0.00  0.00     0.022 A 
ATOM      8  C7  BZF d   1      -0.397  -2.425  -1.129  0.00  0.00     0.029 A 
ATOM      9  C7A BZF d   1      -0.477  -3.785  -1.303  0.00  0.00     0.058 A 
ENDROOT
TORSDOF 0
ENDMDL
