MODEL 1
REMARK minimizedAffinity 18.3642979
REMARK minimizedRMSD -1
REMARK  0 active torsions:
REMARK  status: ('A' for Active; 'I' for Inactive)
ROOT
ATOM      1  O1  BZF d   1      -2.726   0.559   5.148  0.00  0.00    -0.204 OA
ATOM      2  C2  BZF d   1      -3.844   1.201   5.644  0.00  0.00     0.174 A 
ATOM      3  C3  BZF d   1      -4.790   0.308   6.000  0.00  0.00    -0.012 A 
ATOM      4  C3A BZF d   1      -4.192  -0.976   5.794  0.00  0.00    -0.107 A 
ATOM      5  C4  BZF d   1      -4.629  -2.256   5.983  0.00  0.00     0.055 A 
ATOM      6  C5  BZF d   1      -3.826  -3.288   5.615  0.00  0.00    -0.016 A 
ATOM      7  C6  BZF d   1      -2.585  -3.077   5.050  0.00  0.00     0.022 A 
ATOM      8  C7  BZF d   1      -2.107  -1.826   4.848  0.00  0.00     0.029 A 
ATOM      9  C7A BZF d   1      -2.902  -0.780   5.250  0.00  0.00     0.058 A 
ENDROOT
TORSDOF 0
ENDMDL
