MODEL 1
REMARK minimizedAffinity 12.5460787
REMARK minimizedRMSD -1
REMARK  0 active torsions:
REMARK  status: ('A' for Active; 'I' for Inactive)
ROOT
ATOM      1  O1  BZF d   1      -0.400  -5.187  -0.594  0.00  0.00    -0.204 OA
ATOM      2  C2  BZF d   1      -0.399  -5.354   0.778  0.00  0.00     0.174 A 
ATOM      3  C3  BZF d   1      -0.691  -4.194   1.401  0.00  0.00    -0.012 A 
ATOM      4  C3A BZF d   1      -0.979  -3.265   0.352  0.00  0.00    -0.107 A 
ATOM      5  C4  BZF d   1      -1.351  -1.951   0.337  0.00  0.00     0.055 A 
ATOM      6  C5  BZF d   1      -1.481  -1.315  -0.857  0.00  0.00    -0.016 A 
ATOM      7  C6  BZF d   1      -1.243  -1.959  -2.053  0.00  0.00     0.022 A 
ATOM      8  C7  BZF d   1      -0.877  -3.264  -2.089  0.00  0.00     0.029 A 
ATOM      9  C7A BZF d   1      -0.777  -3.919  -0.886  0.00  0.00     0.058 A 
ENDROOT
TORSDOF 0
ENDMDL
