MODEL 1
REMARK minimizedAffinity 19.6719494
REMARK minimizedRMSD -1
REMARK  0 active torsions:
REMARK  status: ('A' for Active; 'I' for Inactive)
ROOT
ATOM      1  O1  BZF d   1      -1.761   0.243   1.255  0.00  0.00    -0.204 OA
ATOM      2  C2  BZF d   1      -1.510  -0.914   0.544  0.00  0.00     0.174 A 
ATOM      3  C3  BZF d   1      -1.276  -1.947   1.379  0.00  0.00    -0.012 A 
ATOM      4  C3A BZF d   1      -1.479  -1.421   2.694  0.00  0.00    -0.107 A 
ATOM      5  C4  BZF d   1      -1.409  -1.967   3.945  0.00  0.00     0.055 A 
ATOM      6  C5  BZF d   1      -1.591  -1.164   5.026  0.00  0.00    -0.016 A 
ATOM      7  C6  BZF d   1      -1.839   0.186   4.895  0.00  0.00     0.022 A 
ATOM      8  C7  BZF d   1      -1.922   0.772   3.675  0.00  0.00     0.029 A 
ATOM      9  C7A BZF d   1      -1.771  -0.043   2.579  0.00  0.00     0.058 A 
ENDROOT
TORSDOF 0
ENDMDL
