MODEL 1
REMARK minimizedAffinity 7.08437061
REMARK minimizedRMSD -1
REMARK  0 active torsions:
REMARK  status: ('A' for Active; 'I' for Inactive)
ROOT
ATOM      1  O1  BZF d   1      -2.935   2.916  -5.250  0.00  0.00    -0.204 OA
ATOM      2  C2  BZF d   1      -1.923   3.483  -4.499  0.00  0.00     0.174 A 
ATOM      3  C3  BZF d   1      -2.241   4.744  -4.143  0.00  0.00    -0.012 A 
ATOM      4  C3A BZF d   1      -3.571   4.948  -4.629  0.00  0.00    -0.107 A 
ATOM      5  C4  BZF d   1      -4.441   6.000  -4.573  0.00  0.00     0.055 A 
ATOM      6  C5  BZF d   1      -5.637   5.903  -5.211  0.00  0.00    -0.016 A 
ATOM      7  C6  BZF d   1      -5.993   4.774  -5.918  0.00  0.00     0.022 A 
ATOM      8  C7  BZF d   1      -5.166   3.703  -5.998  0.00  0.00     0.029 A 
ATOM      9  C7A BZF d   1      -3.971   3.785  -5.327  0.00  0.00     0.058 A 
ENDROOT
TORSDOF 0
ENDMDL
