MODEL 1
REMARK minimizedAffinity 25.1412735
REMARK minimizedRMSD -1
REMARK  0 active torsions:
REMARK  status: ('A' for Active; 'I' for Inactive)
ROOT
ATOM      1  O1  BZF d   1       1.717   0.808  -0.818  0.00  0.00    -0.204 OA
ATOM      2  C2  BZF d   1       1.999  -0.092  -1.827  0.00  0.00     0.174 A 
ATOM      3  C3  BZF d   1       3.169   0.211  -2.426  0.00  0.00    -0.012 A 
ATOM      4  C3A BZF d   1       3.694   1.318  -1.687  0.00  0.00    -0.107 A 
ATOM      5  C4  BZF d   1       4.838   2.056  -1.789  0.00  0.00     0.055 A 
ATOM      6  C5  BZF d   1       5.016   3.117  -0.959  0.00  0.00    -0.016 A 
ATOM      7  C6  BZF d   1       4.069   3.470  -0.019  0.00  0.00     0.022 A 
ATOM      8  C7  BZF d   1       2.920   2.765   0.122  0.00  0.00     0.029 A 
ATOM      9  C7A BZF d   1       2.753   1.673  -0.693  0.00  0.00     0.058 A 
ENDROOT
TORSDOF 0
ENDMDL
