MODEL 1
REMARK minimizedAffinity 8.18159199
REMARK minimizedRMSD -1
REMARK  0 active torsions:
REMARK  status: ('A' for Active; 'I' for Inactive)
ROOT
ATOM      1  O1  BZF d   1      -5.139   0.777   5.987  0.00  0.00    -0.204 OA
ATOM      2  C2  BZF d   1      -4.459   1.977   5.926  0.00  0.00     0.174 A 
ATOM      3  C3  BZF d   1      -3.126   1.772   5.902  0.00  0.00    -0.012 A 
ATOM      4  C3A BZF d   1      -2.965   0.351   5.858  0.00  0.00    -0.107 A 
ATOM      5  C4  BZF d   1      -1.875  -0.470   5.805  0.00  0.00     0.055 A 
ATOM      6  C5  BZF d   1      -2.058  -1.816   5.848  0.00  0.00    -0.016 A 
ATOM      7  C6  BZF d   1      -3.316  -2.374   5.948  0.00  0.00     0.022 A 
ATOM      8  C7  BZF d   1      -4.428  -1.601   5.999  0.00  0.00     0.029 A 
ATOM      9  C7A BZF d   1      -4.248  -0.242   5.923  0.00  0.00     0.058 A 
ENDROOT
TORSDOF 0
ENDMDL
