MODEL 1
REMARK minimizedAffinity 12.7908764
REMARK minimizedRMSD -1
REMARK  0 active torsions:
REMARK  status: ('A' for Active; 'I' for Inactive)
ROOT
ATOM      1  O1  BZF d   1       6.000   0.809   2.306  0.00  0.00    -0.204 OA
ATOM      2  C2  BZF d   1       5.063   0.527   3.281  0.00  0.00     0.174 A 
ATOM      3  C3  BZF d   1       3.933   1.234   3.077  0.00  0.00    -0.012 A 
ATOM      4  C3A BZF d   1       4.145   1.937   1.848  0.00  0.00    -0.107 A 
ATOM      5  C4  BZF d   1       3.377   2.792   1.112  0.00  0.00     0.055 A 
ATOM      6  C5  BZF d   1       3.907   3.362  -0.003  0.00  0.00    -0.016 A 
ATOM      7  C6  BZF d   1       5.200   3.103  -0.406  0.00  0.00     0.022 A 
ATOM      8  C7  BZF d   1       5.999   2.257   0.290  0.00  0.00     0.029 A 
ATOM      9  C7A BZF d   1       5.455   1.654   1.398  0.00  0.00     0.058 A 
ENDROOT
TORSDOF 0
ENDMDL
