MODEL 1
REMARK minimizedAffinity 8.69049358
REMARK minimizedRMSD -1
REMARK  0 active torsions:
REMARK  status: ('A' for Active; 'I' for Inactive)
ROOT
ATOM      1  O1  BZF d   1      -3.789   4.116  -1.695  0.00  0.00    -0.204 OA
ATOM      2  C2  BZF d   1      -4.074   5.131  -2.587  0.00  0.00     0.174 A 
ATOM      3  C3  BZF d   1      -4.963   5.996  -2.060  0.00  0.00    -0.012 A 
ATOM      4  C3A BZF d   1      -5.183   5.541  -0.721  0.00  0.00    -0.107 A 
ATOM      5  C4  BZF d   1      -5.952   5.996   0.311  0.00  0.00     0.055 A 
ATOM      6  C5  BZF d   1      -5.999   5.281   1.466  0.00  0.00    -0.016 A 
ATOM      7  C6  BZF d   1      -5.294   4.105   1.620  0.00  0.00     0.022 A 
ATOM      8  C7  BZF d   1      -4.513   3.616   0.626  0.00  0.00     0.029 A 
ATOM      9  C7A BZF d   1      -4.438   4.354  -0.530  0.00  0.00     0.058 A 
ENDROOT
TORSDOF 0
ENDMDL
