MODEL 1
REMARK minimizedAffinity -3.6109705
REMARK minimizedRMSD -1
REMARK  1 active torsions:
REMARK  status: ('A' for Active; 'I' for Inactive)
REMARK    1  A    between atoms: N_2  and  C1_3 
ROOT
ATOM      1  C1  UNL d   1      -0.464   0.303  -0.180  0.00  0.00     0.143 A 
ATOM      2  C2  UNL d   1       0.341  -0.839  -0.264  0.00  0.00    -0.057 A 
ATOM      3  C3  UNL d   1       1.414  -0.905  -1.160  0.00  0.00     0.033 A 
ATOM      4  C4  UNL d   1       1.684   0.161  -2.012  0.00  0.00    -0.042 A 
ATOM      5  C5  UNL d   1       0.882   1.295  -1.963  0.00  0.00     0.033 A 
ATOM      6  C6  UNL d   1      -0.184   1.359  -1.061  0.00  0.00    -0.057 A 
ENDROOT
BRANCH   1   7
ATOM      7  N   UNL d   1      -1.605   0.392   0.621  0.00  0.00    -0.732 N 
ATOM      8  C   UNL d   1      -1.558   1.070   1.899  0.00  0.00     0.284 C 
ATOM      9  H3  UNL d   1      -2.446   0.583   0.080  0.00  0.00     0.395 HD
ENDBRANCH   1   7
TORSDOF 1
ENDMDL
