MODEL 1
REMARK minimizedAffinity -4.06653547
REMARK minimizedRMSD -1
REMARK  1 active torsions:
REMARK  status: ('A' for Active; 'I' for Inactive)
REMARK    1  A    between atoms: N_2  and  C1_3 
ROOT
ATOM      1  C1  UNL d   1      -0.035   0.013  -0.283  0.00  0.00     0.143 A 
ATOM      2  C2  UNL d   1       0.977   0.372  -1.180  0.00  0.00    -0.057 A 
ATOM      3  C3  UNL d   1       1.975  -0.538  -1.551  0.00  0.00     0.033 A 
ATOM      4  C4  UNL d   1       1.994  -1.818  -1.008  0.00  0.00    -0.042 A 
ATOM      5  C5  UNL d   1       1.012  -2.188  -0.095  0.00  0.00     0.033 A 
ATOM      6  C6  UNL d   1       0.015  -1.277   0.266  0.00  0.00    -0.057 A 
ENDROOT
BRANCH   1   7
ATOM      7  N   UNL d   1      -0.997   0.903   0.200  0.00  0.00    -0.732 N 
ATOM      8  C   UNL d   1      -1.579   0.718   1.512  0.00  0.00     0.284 C 
ATOM      9  H3  UNL d   1      -0.778   1.871  -0.024  0.00  0.00     0.395 HD
ENDBRANCH   1   7
TORSDOF 1
ENDMDL
