MODEL 1
REMARK minimizedAffinity -3.52724838
REMARK minimizedRMSD -1
REMARK  1 active torsions:
REMARK  status: ('A' for Active; 'I' for Inactive)
REMARK    1  A    between atoms: N_2  and  C1_3 
ROOT
ATOM      1  C1  UNL d   1       0.006   0.186  -0.195  0.00  0.00     0.143 A 
ATOM      2  C2  UNL d   1       0.397  -1.069   0.284  0.00  0.00    -0.057 A 
ATOM      3  C3  UNL d   1       1.602  -1.657  -0.119  0.00  0.00     0.033 A 
ATOM      4  C4  UNL d   1       2.426  -1.011  -1.036  0.00  0.00    -0.042 A 
ATOM      5  C5  UNL d   1       2.045   0.225  -1.545  0.00  0.00     0.033 A 
ATOM      6  C6  UNL d   1       0.844   0.811  -1.132  0.00  0.00    -0.057 A 
ENDROOT
BRANCH   1   7
ATOM      7  N   UNL d   1      -1.225   0.779   0.092  0.00  0.00    -0.732 N 
ATOM      8  C   UNL d   1      -1.911   0.491   1.334  0.00  0.00     0.284 C 
ATOM      9  H3  UNL d   1      -1.259   1.758  -0.183  0.00  0.00     0.395 HD
ENDBRANCH   1   7
TORSDOF 1
ENDMDL
