MODEL 1
REMARK minimizedAffinity -3.82155275
REMARK minimizedRMSD -1
REMARK  1 active torsions:
REMARK  status: ('A' for Active; 'I' for Inactive)
REMARK    1  A    between atoms: N_2  and  C1_3 
ROOT
ATOM      1  C1  UNL d   1      -1.424   0.095   1.159  0.00  0.00     0.143 A 
ATOM      2  C2  UNL d   1      -2.570  -0.373   1.811  0.00  0.00    -0.057 A 
ATOM      3  C3  UNL d   1      -3.003   0.194   3.016  0.00  0.00     0.033 A 
ATOM      4  C4  UNL d   1      -2.279   1.225   3.606  0.00  0.00    -0.042 A 
ATOM      5  C5  UNL d   1      -1.123   1.690   2.988  0.00  0.00     0.033 A 
ATOM      6  C6  UNL d   1      -0.700   1.124   1.782  0.00  0.00    -0.057 A 
ENDROOT
BRANCH   1   7
ATOM      7  N   UNL d   1      -0.888  -0.492   0.010  0.00  0.00    -0.732 N 
ATOM      8  C   UNL d   1       0.441  -1.066   0.028  0.00  0.00     0.284 C 
ATOM      9  H3  UNL d   1      -1.573  -1.046  -0.499  0.00  0.00     0.395 HD
ENDBRANCH   1   7
TORSDOF 1
ENDMDL
