MODEL 1
REMARK minimizedAffinity -0.993121922
REMARK minimizedRMSD -1
REMARK  1 active torsions:
REMARK  status: ('A' for Active; 'I' for Inactive)
REMARK    1  A    between atoms: N_2  and  C1_3 
ROOT
ATOM      1  C1  UNL d   1      -0.786   0.721   1.254  0.00  0.00     0.143 A 
ATOM      2  C2  UNL d   1      -1.609  -0.048   2.083  0.00  0.00    -0.057 A 
ATOM      3  C3  UNL d   1      -1.872   0.336   3.404  0.00  0.00     0.033 A 
ATOM      4  C4  UNL d   1      -1.291   1.486   3.928  0.00  0.00    -0.042 A 
ATOM      5  C5  UNL d   1      -0.449   2.253   3.130  0.00  0.00     0.033 A 
ATOM      6  C6  UNL d   1      -0.196   1.867   1.810  0.00  0.00    -0.057 A 
ENDROOT
BRANCH   1   7
ATOM      7  N   UNL d   1      -0.407   0.340  -0.036  0.00  0.00    -0.732 N 
ATOM      8  C   UNL d   1       0.233  -0.936  -0.269  0.00  0.00     0.284 C 
ATOM      9  H3  UNL d   1      -1.103   0.591  -0.735  0.00  0.00     0.395 HD
ENDBRANCH   1   7
TORSDOF 1
ENDMDL
