MODEL 1
REMARK minimizedAffinity -3.29171276
REMARK minimizedRMSD -1
REMARK  1 active torsions:
REMARK  status: ('A' for Active; 'I' for Inactive)
REMARK    1  A    between atoms: N_2  and  C1_3 
ROOT
ATOM      1  C1  UNL d   1       0.546   0.003  -0.625  0.00  0.00     0.143 A 
ATOM      2  C2  UNL d   1       0.531   1.145  -1.434  0.00  0.00    -0.057 A 
ATOM      3  C3  UNL d   1       1.265   1.200  -2.625  0.00  0.00     0.033 A 
ATOM      4  C4  UNL d   1       2.051   0.121  -3.015  0.00  0.00    -0.042 A 
ATOM      5  C5  UNL d   1       2.100  -1.014  -2.215  0.00  0.00     0.033 A 
ATOM      6  C6  UNL d   1       1.360  -1.066  -1.029  0.00  0.00    -0.057 A 
ENDROOT
BRANCH   1   7
ATOM      7  N   UNL d   1      -0.084  -0.076   0.620  0.00  0.00    -0.732 N 
ATOM      8  C   UNL d   1      -1.453   0.361   0.782  0.00  0.00     0.284 C 
ATOM      9  H3  UNL d   1       0.139  -0.938   1.113  0.00  0.00     0.395 HD
ENDBRANCH   1   7
TORSDOF 1
ENDMDL
