MODEL 1
REMARK minimizedAffinity -1.66574621
REMARK minimizedRMSD -1
REMARK  1 active torsions:
REMARK  status: ('A' for Active; 'I' for Inactive)
REMARK    1  A    between atoms: N_2  and  C1_3 
ROOT
ATOM      1  C1  UNL d   1      -0.712   0.446   1.411  0.00  0.00     0.143 A 
ATOM      2  C2  UNL d   1      -0.955   0.908   0.113  0.00  0.00    -0.057 A 
ATOM      3  C3  UNL d   1      -0.483   0.210  -1.006  0.00  0.00     0.033 A 
ATOM      4  C4  UNL d   1       0.268  -0.949  -0.845  0.00  0.00    -0.042 A 
ATOM      5  C5  UNL d   1       0.543  -1.413   0.437  0.00  0.00     0.033 A 
ATOM      6  C6  UNL d   1       0.064  -0.716   1.550  0.00  0.00    -0.057 A 
ENDROOT
BRANCH   1   7
ATOM      7  N   UNL d   1      -1.069   1.147   2.565  0.00  0.00    -0.732 N 
ATOM      8  C   UNL d   1      -1.451   0.439   3.769  0.00  0.00     0.284 C 
ATOM      9  H3  UNL d   1      -0.473   1.955   2.730  0.00  0.00     0.395 HD
ENDBRANCH   1   7
TORSDOF 1
ENDMDL
