MODEL 1
REMARK minimizedAffinity -4.88602209
REMARK minimizedRMSD -1
REMARK  1 active torsions:
REMARK  status: ('A' for Active; 'I' for Inactive)
REMARK    1  A    between atoms: N_2  and  C1_3 
ROOT
ATOM      1  C1  UNL d   1       0.461   0.072  -0.717  0.00  0.00     0.143 A 
ATOM      2  C2  UNL d   1       1.069  -1.186  -0.651  0.00  0.00    -0.057 A 
ATOM      3  C3  UNL d   1       2.358  -1.397  -1.156  0.00  0.00     0.033 A 
ATOM      4  C4  UNL d   1       3.052  -0.356  -1.765  0.00  0.00    -0.042 A 
ATOM      5  C5  UNL d   1       2.457   0.897  -1.864  0.00  0.00     0.033 A 
ATOM      6  C6  UNL d   1       1.172   1.103  -1.352  0.00  0.00    -0.057 A 
ENDROOT
BRANCH   1   7
ATOM      7  N   UNL d   1      -0.856   0.321  -0.322  0.00  0.00    -0.732 N 
ATOM      8  C   UNL d   1      -1.223   0.294   1.078  0.00  0.00     0.284 C 
ATOM      9  H3  UNL d   1      -1.283   1.080  -0.849  0.00  0.00     0.395 HD
ENDBRANCH   1   7
TORSDOF 1
ENDMDL
