MODEL 1
REMARK minimizedAffinity -4.03432083
REMARK minimizedRMSD -1
REMARK  1 active torsions:
REMARK  status: ('A' for Active; 'I' for Inactive)
REMARK    1  A    between atoms: N_2  and  C1_3 
ROOT
ATOM      1  C1  UNL d   1       4.369  -3.068   4.693  0.00  0.00     0.143 A 
ATOM      2  C2  UNL d   1       3.387  -3.192   3.704  0.00  0.00    -0.057 A 
ATOM      3  C3  UNL d   1       3.098  -4.430   3.118  0.00  0.00     0.033 A 
ATOM      4  C4  UNL d   1       3.810  -5.565   3.491  0.00  0.00    -0.042 A 
ATOM      5  C5  UNL d   1       4.807  -5.462   4.453  0.00  0.00     0.033 A 
ATOM      6  C6  UNL d   1       5.086  -4.224   5.040  0.00  0.00    -0.057 A 
ENDROOT
BRANCH   1   7
ATOM      7  N   UNL d   1       4.770  -1.848   5.243  0.00  0.00    -0.732 N 
ATOM      8  C   UNL d   1       6.000  -1.749   5.999  0.00  0.00     0.284 C 
ATOM      9  H3  UNL d   1       4.604  -1.066   4.615  0.00  0.00     0.395 HD
ENDBRANCH   1   7
TORSDOF 1
ENDMDL
