MODEL 1
REMARK minimizedAffinity -0.0644379407
REMARK minimizedRMSD -1
REMARK  1 active torsions:
REMARK  status: ('A' for Active; 'I' for Inactive)
REMARK    1  A    between atoms: N_2  and  C1_3 
ROOT
ATOM      1  C1  UNL d   1      -0.835   2.722   2.117  0.00  0.00     0.143 A 
ATOM      2  C2  UNL d   1       0.557   2.822   2.023  0.00  0.00    -0.057 A 
ATOM      3  C3  UNL d   1       1.208   2.743   0.786  0.00  0.00     0.033 A 
ATOM      4  C4  UNL d   1       0.479   2.534  -0.379  0.00  0.00    -0.042 A 
ATOM      5  C5  UNL d   1      -0.904   2.407  -0.307  0.00  0.00     0.033 A 
ATOM      6  C6  UNL d   1      -1.550   2.493   0.930  0.00  0.00    -0.057 A 
ENDROOT
BRANCH   1   7
ATOM      7  N   UNL d   1      -1.533   2.694   3.327  0.00  0.00    -0.732 N 
ATOM      8  C   UNL d   1      -2.728   1.891   3.470  0.00  0.00     0.284 C 
ATOM      9  H3  UNL d   1      -0.913   2.663   4.132  0.00  0.00     0.395 HD
ENDBRANCH   1   7
TORSDOF 1
ENDMDL
