MODEL 1
REMARK minimizedAffinity -4.33992958
REMARK minimizedRMSD -1
REMARK  1 active torsions:
REMARK  status: ('A' for Active; 'I' for Inactive)
REMARK    1  A    between atoms: N_2  and  C1_3 
ROOT
ATOM      1  C1  UNL d   1       1.121   0.014  -0.967  0.00  0.00     0.143 A 
ATOM      2  C2  UNL d   1       0.267  -0.759  -0.173  0.00  0.00    -0.057 A 
ATOM      3  C3  UNL d   1      -0.988  -0.280   0.223  0.00  0.00     0.033 A 
ATOM      4  C4  UNL d   1      -1.400   0.996  -0.147  0.00  0.00    -0.042 A 
ATOM      5  C5  UNL d   1      -0.557   1.791  -0.916  0.00  0.00     0.033 A 
ATOM      6  C6  UNL d   1       0.692   1.305  -1.313  0.00  0.00    -0.057 A 
ENDROOT
BRANCH   1   7
ATOM      7  N   UNL d   1       2.421  -0.367  -1.310  0.00  0.00    -0.732 N 
ATOM      8  C   UNL d   1       2.679  -1.076  -2.546  0.00  0.00     0.284 C 
ATOM      9  H3  UNL d   1       3.107   0.352  -1.092  0.00  0.00     0.395 HD
ENDBRANCH   1   7
TORSDOF 1
ENDMDL
