MODEL 1
REMARK minimizedAffinity -4.19664145
REMARK minimizedRMSD -1
REMARK  1 active torsions:
REMARK  status: ('A' for Active; 'I' for Inactive)
REMARK    1  A    between atoms: N_2  and  C1_3 
ROOT
ATOM      1  C1  UNL d   1       1.184   0.444  -1.482  0.00  0.00     0.143 A 
ATOM      2  C2  UNL d   1      -0.000   0.640  -0.763  0.00  0.00    -0.057 A 
ATOM      3  C3  UNL d   1      -0.594  -0.405  -0.044  0.00  0.00     0.033 A 
ATOM      4  C4  UNL d   1      -0.027  -1.675  -0.055  0.00  0.00    -0.042 A 
ATOM      5  C5  UNL d   1       1.136  -1.899  -0.784  0.00  0.00     0.033 A 
ATOM      6  C6  UNL d   1       1.728  -0.850  -1.494  0.00  0.00    -0.057 A 
ENDROOT
BRANCH   1   7
ATOM      7  N   UNL d   1       1.769   1.417  -2.297  0.00  0.00    -0.732 N 
ATOM      8  C   UNL d   1       2.714   1.044  -3.328  0.00  0.00     0.284 C 
ATOM      9  H3  UNL d   1       1.107   2.136  -2.580  0.00  0.00     0.395 HD
ENDBRANCH   1   7
TORSDOF 1
ENDMDL
