MODEL 1
REMARK minimizedAffinity -3.97826934
REMARK minimizedRMSD -1
REMARK  0 active torsions:
REMARK  status: ('A' for Active; 'I' for Inactive)
ROOT
ATOM      1  C   UNL d   1      -0.407   0.234   0.854  0.00  0.00     0.172 C 
ATOM      2  N   UNL d   1       0.661  -0.376   0.097  0.00  0.00    -0.070 N 
ATOM      3  C1  UNL d   1       1.907   0.158  -0.098  0.00  0.00    -0.004 A 
ATOM      4  C2  UNL d   1       2.629  -0.726  -0.870  0.00  0.00    -0.047 A 
ATOM      5  C3  UNL d   1       1.788  -1.829  -1.150  0.00  0.00    -0.047 A 
ATOM      6  C4  UNL d   1       0.576  -1.586  -0.540  0.00  0.00    -0.004 A 
ENDROOT
TORSDOF 0
ENDMDL
