MODEL 1
REMARK minimizedAffinity -3.96483946
REMARK minimizedRMSD -1
REMARK  0 active torsions:
REMARK  status: ('A' for Active; 'I' for Inactive)
ROOT
ATOM      1  C   UNL d   1       2.653  -0.484  -0.797  0.00  0.00     0.172 C 
ATOM      2  N   UNL d   1       1.289  -0.097  -0.524  0.00  0.00    -0.070 N 
ATOM      3  C1  UNL d   1       0.776   1.166  -0.657  0.00  0.00    -0.004 A 
ATOM      4  C2  UNL d   1      -0.555   1.120  -0.301  0.00  0.00    -0.047 A 
ATOM      5  C3  UNL d   1      -0.851  -0.216   0.059  0.00  0.00    -0.047 A 
ATOM      6  C4  UNL d   1       0.308  -0.948  -0.088  0.00  0.00    -0.004 A 
ENDROOT
TORSDOF 0
ENDMDL
