MODEL 1
REMARK minimizedAffinity -3.81495523
REMARK minimizedRMSD -1
REMARK  0 active torsions:
REMARK  status: ('A' for Active; 'I' for Inactive)
ROOT
ATOM      1  C   UNL d   1      -0.318  -1.003  -0.703  0.00  0.00     0.172 C 
ATOM      2  N   UNL d   1       0.884  -0.216  -0.850  0.00  0.00    -0.070 N 
ATOM      3  C1  UNL d   1       0.943   1.151  -0.895  0.00  0.00    -0.004 A 
ATOM      4  C2  UNL d   1       2.265   1.512  -1.042  0.00  0.00    -0.047 A 
ATOM      5  C3  UNL d   1       3.027   0.321  -1.088  0.00  0.00    -0.047 A 
ATOM      6  C4  UNL d   1       2.147  -0.734  -0.967  0.00  0.00    -0.004 A 
ENDROOT
TORSDOF 0
ENDMDL
