MODEL 1
REMARK minimizedAffinity -2.64176702
REMARK minimizedRMSD -1
REMARK  0 active torsions:
REMARK  status: ('A' for Active; 'I' for Inactive)
ROOT
ATOM      1  C   UNL d   1      -0.076  -0.120   0.071  0.00  0.00     0.172 C 
ATOM      2  N   UNL d   1       1.008   0.037  -0.870  0.00  0.00    -0.070 N 
ATOM      3  C1  UNL d   1       2.032  -0.851  -1.065  0.00  0.00    -0.004 A 
ATOM      4  C2  UNL d   1       2.855  -0.338  -2.044  0.00  0.00    -0.047 A 
ATOM      5  C3  UNL d   1       2.308   0.902  -2.450  0.00  0.00    -0.047 A 
ATOM      6  C4  UNL d   1       1.165   1.110  -1.708  0.00  0.00    -0.004 A 
ENDROOT
TORSDOF 0
ENDMDL
