MODEL 1
REMARK minimizedAffinity -4.16194677
REMARK minimizedRMSD -1
REMARK  0 active torsions:
REMARK  status: ('A' for Active; 'I' for Inactive)
ROOT
ATOM      1  C   UNL d   1      -0.137   0.279   0.189  0.00  0.00     0.172 C 
ATOM      2  N   UNL d   1       1.038   0.092  -0.629  0.00  0.00    -0.070 N 
ATOM      3  C1  UNL d   1       1.935  -0.937  -0.515  0.00  0.00    -0.004 A 
ATOM      4  C2  UNL d   1       2.908  -0.757  -1.474  0.00  0.00    -0.047 A 
ATOM      5  C3  UNL d   1       2.586   0.422  -2.188  0.00  0.00    -0.047 A 
ATOM      6  C4  UNL d   1       1.424   0.927  -1.645  0.00  0.00    -0.004 A 
ENDROOT
TORSDOF 0
ENDMDL
