MODEL 1
REMARK minimizedAffinity -3.14794159
REMARK minimizedRMSD -1
REMARK  0 active torsions:
REMARK  status: ('A' for Active; 'I' for Inactive)
ROOT
ATOM      1  C   UNL d   1      -0.356  -0.009   0.039  0.00  0.00     0.172 C 
ATOM      2  N   UNL d   1       0.501   0.221  -1.101  0.00  0.00    -0.070 N 
ATOM      3  C1  UNL d   1       0.431   1.294  -1.949  0.00  0.00    -0.004 A 
ATOM      4  C2  UNL d   1       1.415   1.144  -2.901  0.00  0.00    -0.047 A 
ATOM      5  C3  UNL d   1       2.100  -0.061  -2.616  0.00  0.00    -0.047 A 
ATOM      6  C4  UNL d   1       1.513  -0.612  -1.497  0.00  0.00    -0.004 A 
ENDROOT
TORSDOF 0
ENDMDL
