MODEL 1
REMARK minimizedAffinity -4.00891685
REMARK minimizedRMSD -1
REMARK  0 active torsions:
REMARK  status: ('A' for Active; 'I' for Inactive)
ROOT
ATOM      1  C   UNL d   1      -0.596   0.206   0.184  0.00  0.00     0.172 C 
ATOM      2  N   UNL d   1       0.678  -0.145  -0.400  0.00  0.00    -0.070 N 
ATOM      3  C1  UNL d   1       1.676   0.734  -0.726  0.00  0.00    -0.004 A 
ATOM      4  C2  UNL d   1       2.721   0.009  -1.254  0.00  0.00    -0.047 A 
ATOM      5  C3  UNL d   1       2.338  -1.354  -1.246  0.00  0.00    -0.047 A 
ATOM      6  C4  UNL d   1       1.069  -1.420  -0.712  0.00  0.00    -0.004 A 
ENDROOT
TORSDOF 0
ENDMDL
