MODEL 1
REMARK minimizedAffinity -3.07223845
REMARK minimizedRMSD -1
REMARK  0 active torsions:
REMARK  status: ('A' for Active; 'I' for Inactive)
ROOT
ATOM      1  C   UNL d   1      -1.013   0.042   0.324  0.00  0.00     0.172 C 
ATOM      2  N   UNL d   1       0.161   0.551  -0.345  0.00  0.00    -0.070 N 
ATOM      3  C1  UNL d   1       0.188   1.607  -1.216  0.00  0.00    -0.004 A 
ATOM      4  C2  UNL d   1       1.491   1.776  -1.634  0.00  0.00    -0.047 A 
ATOM      5  C3  UNL d   1       2.273   0.785  -0.993  0.00  0.00    -0.047 A 
ATOM      6  C4  UNL d   1       1.424   0.041  -0.201  0.00  0.00    -0.004 A 
ENDROOT
TORSDOF 0
ENDMDL
