MODEL 1
REMARK minimizedAffinity -3.27494502
REMARK minimizedRMSD -1
REMARK  0 active torsions:
REMARK  status: ('A' for Active; 'I' for Inactive)
ROOT
ATOM      1  C   UNL d   1      -0.525   0.127   0.507  0.00  0.00     0.172 C 
ATOM      2  N   UNL d   1       0.726  -0.288  -0.084  0.00  0.00    -0.070 N 
ATOM      3  C1  UNL d   1       1.547   0.498  -0.847  0.00  0.00    -0.004 A 
ATOM      4  C2  UNL d   1       2.635  -0.263  -1.218  0.00  0.00    -0.047 A 
ATOM      5  C3  UNL d   1       2.460  -1.551  -0.658  0.00  0.00    -0.047 A 
ATOM      6  C4  UNL d   1       1.270  -1.538   0.039  0.00  0.00    -0.004 A 
ENDROOT
TORSDOF 0
ENDMDL
