MODEL 1
REMARK minimizedAffinity -1.12090051
REMARK minimizedRMSD -1
REMARK  0 active torsions:
REMARK  status: ('A' for Active; 'I' for Inactive)
ROOT
ATOM      1  C   UNL d   1       2.388  -1.464  -1.626  0.00  0.00     0.172 C 
ATOM      2  N   UNL d   1       1.233  -0.724  -1.173  0.00  0.00    -0.070 N 
ATOM      3  C1  UNL d   1       0.946   0.578  -1.487  0.00  0.00    -0.004 A 
ATOM      4  C2  UNL d   1      -0.236   0.912  -0.862  0.00  0.00    -0.047 A 
ATOM      5  C3  UNL d   1      -0.674  -0.228  -0.148  0.00  0.00    -0.047 A 
ATOM      6  C4  UNL d   1       0.254  -1.226  -0.358  0.00  0.00    -0.004 A 
ENDROOT
TORSDOF 0
ENDMDL
