MODEL 1
REMARK minimizedAffinity -3.43083096
REMARK minimizedRMSD -1
REMARK  0 active torsions:
REMARK  status: ('A' for Active; 'I' for Inactive)
ROOT
ATOM      1  C   UNL d   1       2.564  -0.403  -1.424  0.00  0.00     0.172 C 
ATOM      2  N   UNL d   1       1.251  -0.112  -0.898  0.00  0.00    -0.070 N 
ATOM      3  C1  UNL d   1       0.388  -1.026  -0.354  0.00  0.00    -0.004 A 
ATOM      4  C2  UNL d   1      -0.753  -0.354   0.027  0.00  0.00    -0.047 A 
ATOM      5  C3  UNL d   1      -0.570   1.011  -0.299  0.00  0.00    -0.047 A 
ATOM      6  C4  UNL d   1       0.679   1.133  -0.871  0.00  0.00    -0.004 A 
ENDROOT
TORSDOF 0
ENDMDL
