MODEL 1
REMARK minimizedAffinity -2.54484391
REMARK minimizedRMSD -1
REMARK  0 active torsions:
REMARK  status: ('A' for Active; 'I' for Inactive)
ROOT
ATOM      1  C   UNL d   1       1.795   0.896  -0.289  0.00  0.00     0.172 C 
ATOM      2  N   UNL d   1       0.361   0.823  -0.137  0.00  0.00    -0.070 N 
ATOM      3  C1  UNL d   1      -0.314  -0.072   0.650  0.00  0.00    -0.004 A 
ATOM      4  C2  UNL d   1      -1.661   0.186   0.522  0.00  0.00    -0.047 A 
ATOM      5  C3  UNL d   1      -1.801   1.273  -0.374  0.00  0.00    -0.047 A 
ATOM      6  C4  UNL d   1      -0.534   1.647  -0.766  0.00  0.00    -0.004 A 
ENDROOT
TORSDOF 0
ENDMDL
