MODEL 1
REMARK minimizedAffinity -0.811606467
REMARK minimizedRMSD -1
REMARK  0 active torsions:
REMARK  status: ('A' for Active; 'I' for Inactive)
ROOT
ATOM      1  C   UNL d   1       4.806  -0.315   5.797  0.00  0.00     0.172 C 
ATOM      2  N   UNL d   1       5.238  -1.593   5.281  0.00  0.00    -0.070 N 
ATOM      3  C1  UNL d   1       5.685  -1.830   4.008  0.00  0.00    -0.004 A 
ATOM      4  C2  UNL d   1       5.999  -3.168   3.913  0.00  0.00    -0.047 A 
ATOM      5  C3  UNL d   1       5.732  -3.756   5.172  0.00  0.00    -0.047 A 
ATOM      6  C4  UNL d   1       5.262  -2.758   6.000  0.00  0.00    -0.004 A 
ENDROOT
TORSDOF 0
ENDMDL
