MODEL 1
REMARK minimizedAffinity 5.53999615
REMARK minimizedRMSD -1
REMARK  1 active torsions:
REMARK  status: ('A' for Active; 'I' for Inactive)
REMARK    1  A    between atoms: C1_2  and  C2_3 
ROOT
ATOM      1  C2  UNL d   1       2.082  -1.004  -0.366  0.00  0.00    -0.076 A 
ATOM      2  C3  UNL d   1       2.057   0.383  -0.592  0.00  0.00     0.004 A 
ATOM      3  C4  UNL d   1       1.241   1.220   0.168  0.00  0.00    -0.003 A 
ATOM      4  C5  UNL d   1       0.438   0.683   1.168  0.00  0.00     0.000 A 
ATOM      5  C6  UNL d   1       0.463  -0.689   1.418  0.00  0.00     0.000 A 
ATOM      6  C7  UNL d   1       1.292  -1.544   0.671  0.00  0.00    -0.073 A 
ATOM      7  C8  UNL d   1       1.275  -3.016   0.980  0.00  0.00     0.078 C 
ENDROOT
BRANCH   1   8
ATOM      8  C1  UNL d   1       2.966  -1.864  -1.240  0.00  0.00     0.053 C 
ATOM      9  C   UNL d   1       4.174  -1.108  -1.770  0.00  0.00     0.018 C 
ENDBRANCH   1   8
TORSDOF 1
ENDMDL
