MODEL 1
REMARK minimizedAffinity 2.22935033
REMARK minimizedRMSD -1
REMARK  1 active torsions:
REMARK  status: ('A' for Active; 'I' for Inactive)
REMARK    1  A    between atoms: C1_2  and  C2_3 
ROOT
ATOM      1  C2  UNL d   1       2.045  -0.152  -0.097  0.00  0.00    -0.076 A 
ATOM      2  C3  UNL d   1       1.212  -1.236  -0.425  0.00  0.00     0.004 A 
ATOM      3  C4  UNL d   1       0.038  -1.479   0.286  0.00  0.00    -0.003 A 
ATOM      4  C5  UNL d   1      -0.322  -0.641   1.336  0.00  0.00     0.000 A 
ATOM      5  C6  UNL d   1       0.483   0.449   1.664  0.00  0.00     0.000 A 
ATOM      6  C7  UNL d   1       1.662   0.717   0.947  0.00  0.00    -0.073 A 
ATOM      7  C8  UNL d   1       2.496   1.903   1.347  0.00  0.00     0.078 C 
ENDROOT
BRANCH   1   8
ATOM      8  C1  UNL d   1       3.320   0.046  -0.886  0.00  0.00     0.053 C 
ATOM      9  C   UNL d   1       4.033  -1.265  -1.179  0.00  0.00     0.018 C 
ENDBRANCH   1   8
TORSDOF 1
ENDMDL
