MODEL 1
REMARK minimizedAffinity -5.01789284
REMARK minimizedRMSD -1
REMARK  1 active torsions:
REMARK  status: ('A' for Active; 'I' for Inactive)
REMARK    1  A    between atoms: C1_2  and  C2_3 
ROOT
ATOM      1  C2  UNL d   1       1.207  -0.522   0.073  0.00  0.00    -0.076 A 
ATOM      2  C3  UNL d   1       1.337   0.848  -0.211  0.00  0.00     0.004 A 
ATOM      3  C4  UNL d   1       2.460   1.339  -0.874  0.00  0.00    -0.003 A 
ATOM      4  C5  UNL d   1       3.471   0.468  -1.264  0.00  0.00     0.000 A 
ATOM      5  C6  UNL d   1       3.351  -0.897  -1.006  0.00  0.00     0.000 A 
ATOM      6  C7  UNL d   1       2.217  -1.411  -0.353  0.00  0.00    -0.073 A 
ATOM      7  C8  UNL d   1       2.142  -2.891  -0.094  0.00  0.00     0.078 C 
ENDROOT
BRANCH   1   8
ATOM      8  C1  UNL d   1      -0.021  -0.993   0.819  0.00  0.00     0.053 C 
ATOM      9  C   UNL d   1      -0.427  -0.042   1.934  0.00  0.00     0.018 C 
ENDBRANCH   1   8
TORSDOF 1
ENDMDL
