MODEL 1
REMARK minimizedAffinity 5.12630796
REMARK minimizedRMSD -1
REMARK  1 active torsions:
REMARK  status: ('A' for Active; 'I' for Inactive)
REMARK    1  A    between atoms: C1_2  and  C2_3 
ROOT
ATOM      1  C2  UNL d   1       1.324   0.447   0.945  0.00  0.00    -0.076 A 
ATOM      2  C3  UNL d   1       1.976   1.332   0.069  0.00  0.00     0.004 A 
ATOM      3  C4  UNL d   1       2.425   0.905  -1.179  0.00  0.00    -0.003 A 
ATOM      4  C5  UNL d   1       2.229  -0.414  -1.572  0.00  0.00     0.000 A 
ATOM      5  C6  UNL d   1       1.569  -1.301  -0.723  0.00  0.00     0.000 A 
ATOM      6  C7  UNL d   1       1.095  -0.883   0.532  0.00  0.00    -0.073 A 
ATOM      7  C8  UNL d   1       0.395  -1.884   1.410  0.00  0.00     0.078 C 
ENDROOT
BRANCH   1   8
ATOM      8  C1  UNL d   1       0.884   0.960   2.298  0.00  0.00     0.053 C 
ATOM      9  C   UNL d   1       2.052   1.179   3.247  0.00  0.00     0.018 C 
ENDBRANCH   1   8
TORSDOF 1
ENDMDL
