MODEL 1
REMARK minimizedAffinity -3.80962563
REMARK minimizedRMSD -1
REMARK  1 active torsions:
REMARK  status: ('A' for Active; 'I' for Inactive)
REMARK    1  A    between atoms: C1_2  and  C2_3 
ROOT
ATOM      1  C2  UNL d   1       2.941  -0.548  -1.266  0.00  0.00    -0.076 A 
ATOM      2  C3  UNL d   1       2.570   0.806  -1.204  0.00  0.00     0.004 A 
ATOM      3  C4  UNL d   1       1.522   1.227  -0.388  0.00  0.00    -0.003 A 
ATOM      4  C5  UNL d   1       0.827   0.299   0.380  0.00  0.00     0.000 A 
ATOM      5  C6  UNL d   1       1.193  -1.046   0.345  0.00  0.00     0.000 A 
ATOM      6  C7  UNL d   1       2.258  -1.484  -0.460  0.00  0.00    -0.073 A 
ATOM      7  C8  UNL d   1       2.606  -2.947  -0.463  0.00  0.00     0.078 C 
ENDROOT
BRANCH   1   8
ATOM      8  C1  UNL d   1       4.069  -0.949  -2.190  0.00  0.00     0.053 C 
ATOM      9  C   UNL d   1       4.928   0.234  -2.608  0.00  0.00     0.018 C 
ENDBRANCH   1   8
TORSDOF 1
ENDMDL
