MODEL 1
REMARK minimizedAffinity -5.59107208
REMARK minimizedRMSD -1
REMARK  1 active torsions:
REMARK  status: ('A' for Active; 'I' for Inactive)
REMARK    1  A    between atoms: C1_2  and  C2_3 
ROOT
ATOM      1  C2  UNL d   1       2.447  -0.828  -0.713  0.00  0.00    -0.076 A 
ATOM      2  C3  UNL d   1       1.656  -1.743   0.002  0.00  0.00     0.004 A 
ATOM      3  C4  UNL d   1       0.530  -1.321   0.707  0.00  0.00    -0.003 A 
ATOM      4  C5  UNL d   1       0.177   0.024   0.708  0.00  0.00     0.000 A 
ATOM      5  C6  UNL d   1       0.940   0.943  -0.011  0.00  0.00     0.000 A 
ATOM      6  C7  UNL d   1       2.069   0.532  -0.740  0.00  0.00    -0.073 A 
ATOM      7  C8  UNL d   1       2.859   1.567  -1.493  0.00  0.00     0.078 C 
ENDROOT
BRANCH   1   8
ATOM      8  C1  UNL d   1       3.672  -1.340  -1.437  0.00  0.00     0.053 C 
ATOM      9  C   UNL d   1       4.351  -0.262  -2.267  0.00  0.00     0.018 C 
ENDBRANCH   1   8
TORSDOF 1
ENDMDL
