MODEL 1
REMARK minimizedAffinity 8.51887226
REMARK minimizedRMSD -1
REMARK  1 active torsions:
REMARK  status: ('A' for Active; 'I' for Inactive)
REMARK    1  A    between atoms: C1_2  and  C2_3 
ROOT
ATOM      1  C2  UNL d   1       1.750  -0.839  -0.384  0.00  0.00    -0.076 A 
ATOM      2  C3  UNL d   1       2.364  -2.103  -0.349  0.00  0.00     0.004 A 
ATOM      3  C4  UNL d   1       3.542  -2.347  -1.052  0.00  0.00    -0.003 A 
ATOM      4  C5  UNL d   1       4.127  -1.331  -1.800  0.00  0.00     0.000 A 
ATOM      5  C6  UNL d   1       3.541  -0.066  -1.831  0.00  0.00     0.000 A 
ATOM      6  C7  UNL d   1       2.361   0.202  -1.116  0.00  0.00    -0.073 A 
ATOM      7  C8  UNL d   1       1.769   1.582  -1.190  0.00  0.00     0.078 C 
ENDROOT
BRANCH   1   8
ATOM      8  C1  UNL d   1       0.458  -0.640   0.376  0.00  0.00     0.053 C 
ATOM      9  C   UNL d   1       0.631   0.251   1.596  0.00  0.00     0.018 C 
ENDBRANCH   1   8
TORSDOF 1
ENDMDL
