MODEL 1
REMARK minimizedAffinity -1.74657488
REMARK minimizedRMSD -1
REMARK  1 active torsions:
REMARK  status: ('A' for Active; 'I' for Inactive)
REMARK    1  A    between atoms: C1_2  and  C2_3 
ROOT
ATOM      1  C2  UNL d   1       2.594   0.630  -0.982  0.00  0.00    -0.076 A 
ATOM      2  C3  UNL d   1       2.219  -0.685  -1.308  0.00  0.00     0.004 A 
ATOM      3  C4  UNL d   1       1.375  -1.418  -0.475  0.00  0.00    -0.003 A 
ATOM      4  C5  UNL d   1       0.892  -0.847   0.697  0.00  0.00     0.000 A 
ATOM      5  C6  UNL d   1       1.239   0.462   1.028  0.00  0.00     0.000 A 
ATOM      6  C7  UNL d   1       2.076   1.221   0.191  0.00  0.00    -0.073 A 
ATOM      7  C8  UNL d   1       2.422   2.626   0.599  0.00  0.00     0.078 C 
ENDROOT
BRANCH   1   8
ATOM      8  C1  UNL d   1       3.534   1.367  -1.909  0.00  0.00     0.053 C 
ATOM      9  C   UNL d   1       4.598   0.457  -2.504  0.00  0.00     0.018 C 
ENDBRANCH   1   8
TORSDOF 1
ENDMDL
