MODEL 1
REMARK minimizedAffinity 1.7526623
REMARK minimizedRMSD -1
REMARK  1 active torsions:
REMARK  status: ('A' for Active; 'I' for Inactive)
REMARK    1  A    between atoms: C1_2  and  C2_3 
ROOT
ATOM      1  C2  UNL d   1       2.275  -0.749  -0.744  0.00  0.00    -0.076 A 
ATOM      2  C3  UNL d   1       1.421  -1.556   0.027  0.00  0.00     0.004 A 
ATOM      3  C4  UNL d   1       0.553  -0.995   0.961  0.00  0.00    -0.003 A 
ATOM      4  C5  UNL d   1       0.524   0.384   1.139  0.00  0.00     0.000 A 
ATOM      5  C6  UNL d   1       1.352   1.202   0.371  0.00  0.00     0.000 A 
ATOM      6  C7  UNL d   1       2.221   0.652  -0.587  0.00  0.00    -0.073 A 
ATOM      7  C8  UNL d   1       3.096   1.581  -1.385  0.00  0.00     0.078 C 
ENDROOT
BRANCH   1   8
ATOM      8  C1  UNL d   1       3.215  -1.417  -1.723  0.00  0.00     0.053 C 
ATOM      9  C   UNL d   1       4.577  -0.744  -1.774  0.00  0.00     0.018 C 
ENDBRANCH   1   8
TORSDOF 1
ENDMDL
