MODEL 1
REMARK minimizedAffinity -0.719384193
REMARK minimizedRMSD -1
REMARK  1 active torsions:
REMARK  status: ('A' for Active; 'I' for Inactive)
REMARK    1  A    between atoms: C1_2  and  C2_3 
ROOT
ATOM      1  C2  UNL d   1       2.643  -0.240  -0.706  0.00  0.00    -0.076 A 
ATOM      2  C3  UNL d   1       2.251  -1.585  -0.821  0.00  0.00     0.004 A 
ATOM      3  C4  UNL d   1       1.148  -2.073  -0.123  0.00  0.00    -0.003 A 
ATOM      4  C5  UNL d   1       0.417  -1.224   0.700  0.00  0.00     0.000 A 
ATOM      5  C6  UNL d   1       0.780   0.118   0.812  0.00  0.00     0.000 A 
ATOM      6  C7  UNL d   1       1.880   0.630   0.103  0.00  0.00    -0.073 A 
ATOM      7  C8  UNL d   1       2.231   2.083   0.266  0.00  0.00     0.078 C 
ENDROOT
BRANCH   1   8
ATOM      8  C1  UNL d   1       3.864   0.226  -1.465  0.00  0.00     0.053 C 
ATOM      9  C   UNL d   1       4.714  -0.930  -1.967  0.00  0.00     0.018 C 
ENDBRANCH   1   8
TORSDOF 1
ENDMDL
