MODEL 1
REMARK minimizedAffinity -3.39853239
REMARK minimizedRMSD -1
REMARK  0 active torsions:
REMARK  status: ('A' for Active; 'I' for Inactive)
ROOT
ATOM      1  C   UNL d   1       2.576  -1.652   0.465  0.00  0.00     0.020 A 
ATOM      2  C1  UNL d   1       1.346  -2.232   0.158  0.00  0.00     0.020 A 
ATOM      3  C2  UNL d   1       0.225  -1.424  -0.050  0.00  0.00     0.034 A 
ATOM      4  C3  UNL d   1       0.333  -0.033   0.050  0.00  0.00     0.017 A 
ATOM      5  C4  UNL d   1       1.568   0.549   0.358  0.00  0.00     0.017 A 
ATOM      6  C5  UNL d   1       2.686  -0.264   0.565  0.00  0.00     0.034 A 
ATOM      7 Cl   UNL d   1       1.778   2.259   0.498  0.00  0.00    -0.070 Cl
ATOM      8 Cl1  UNL d   1      -1.094   0.905  -0.220  0.00  0.00    -0.070 Cl
ENDROOT
TORSDOF 0
ENDMDL
