MODEL 1
REMARK minimizedAffinity -3.96532536
REMARK minimizedRMSD -1
REMARK  0 active torsions:
REMARK  status: ('A' for Active; 'I' for Inactive)
ROOT
ATOM      1  C   UNL d   1       2.452  -1.533   0.510  0.00  0.00     0.020 A 
ATOM      2  C1  UNL d   1       2.203  -0.303   1.117  0.00  0.00     0.020 A 
ATOM      3  C2  UNL d   1       1.074   0.436   0.760  0.00  0.00     0.034 A 
ATOM      4  C3  UNL d   1       0.189  -0.053  -0.208  0.00  0.00     0.017 A 
ATOM      5  C4  UNL d   1       0.440  -1.288  -0.817  0.00  0.00     0.017 A 
ATOM      6  C5  UNL d   1       1.572  -2.025  -0.455  0.00  0.00     0.034 A 
ATOM      7 Cl   UNL d   1      -0.606  -1.958  -2.019  0.00  0.00    -0.070 Cl
ATOM      8 Cl1  UNL d   1      -1.188   0.914  -0.600  0.00  0.00    -0.070 Cl
ENDROOT
TORSDOF 0
ENDMDL
