MODEL 1
REMARK minimizedAffinity -1.01989603
REMARK minimizedRMSD -1
REMARK  0 active torsions:
REMARK  status: ('A' for Active; 'I' for Inactive)
ROOT
ATOM      1  C   UNL d   1       1.633  -1.614   0.118  0.00  0.00     0.020 A 
ATOM      2  C1  UNL d   1       0.348  -2.141  -0.006  0.00  0.00     0.020 A 
ATOM      3  C2  UNL d   1      -0.748  -1.286  -0.135  0.00  0.00     0.034 A 
ATOM      4  C3  UNL d   1      -0.562   0.101  -0.141  0.00  0.00     0.017 A 
ATOM      5  C4  UNL d   1       0.728   0.630  -0.017  0.00  0.00     0.017 A 
ATOM      6  C5  UNL d   1       1.822  -0.231   0.112  0.00  0.00     0.034 A 
ATOM      7 Cl   UNL d   1       1.036   2.330  -0.016  0.00  0.00    -0.070 Cl
ATOM      8 Cl1  UNL d   1      -1.963   1.099  -0.304  0.00  0.00    -0.070 Cl
ENDROOT
TORSDOF 0
ENDMDL
