MODEL 1
REMARK minimizedAffinity -1.40901721
REMARK minimizedRMSD -1
REMARK  0 active torsions:
REMARK  status: ('A' for Active; 'I' for Inactive)
ROOT
ATOM      1  C   UNL d   1      -0.679  -0.584  -1.088  0.00  0.00     0.020 A 
ATOM      2  C1  UNL d   1      -0.863   0.798  -1.076  0.00  0.00     0.020 A 
ATOM      3  C2  UNL d   1       0.005   1.612  -0.345  0.00  0.00     0.034 A 
ATOM      4  C3  UNL d   1       1.060   1.044   0.378  0.00  0.00     0.017 A 
ATOM      5  C4  UNL d   1       1.244  -0.343   0.365  0.00  0.00     0.017 A 
ATOM      6  C5  UNL d   1       0.372  -1.153  -0.368  0.00  0.00     0.034 A 
ATOM      7 Cl   UNL d   1       2.524  -1.116   1.232  0.00  0.00    -0.070 Cl
ATOM      8 Cl1  UNL d   1       2.095   2.111   1.259  0.00  0.00    -0.070 Cl
ENDROOT
TORSDOF 0
ENDMDL
