MODEL 1
REMARK minimizedAffinity -2.82357502
REMARK minimizedRMSD -1
REMARK  0 active torsions:
REMARK  status: ('A' for Active; 'I' for Inactive)
ROOT
ATOM      1  C   UNL d   1       3.434  -0.536   0.417  0.00  0.00     0.020 A 
ATOM      2  C1  UNL d   1       3.256   0.835   0.597  0.00  0.00     0.020 A 
ATOM      3  C2  UNL d   1       1.998   1.408   0.401  0.00  0.00     0.034 A 
ATOM      4  C3  UNL d   1       0.912   0.610   0.023  0.00  0.00     0.017 A 
ATOM      5  C4  UNL d   1       1.091  -0.766  -0.157  0.00  0.00     0.017 A 
ATOM      6  C5  UNL d   1       2.353  -1.335   0.041  0.00  0.00     0.034 A 
ATOM      7 Cl   UNL d   1      -0.201  -1.816  -0.622  0.00  0.00    -0.070 Cl
ATOM      8 Cl1  UNL d   1      -0.615   1.386  -0.202  0.00  0.00    -0.070 Cl
ENDROOT
TORSDOF 0
ENDMDL
