MODEL 1
REMARK minimizedAffinity -2.23918009
REMARK minimizedRMSD -1
REMARK  0 active torsions:
REMARK  status: ('A' for Active; 'I' for Inactive)
ROOT
ATOM      1  C   UNL d   1      -0.410   0.087  -0.590  0.00  0.00     0.020 A 
ATOM      2  C1  UNL d   1       0.051  -1.223  -0.460  0.00  0.00     0.020 A 
ATOM      3  C2  UNL d   1       1.341  -1.464   0.019  0.00  0.00     0.034 A 
ATOM      4  C3  UNL d   1       2.173  -0.395   0.370  0.00  0.00     0.017 A 
ATOM      5  C4  UNL d   1       1.709   0.919   0.239  0.00  0.00     0.017 A 
ATOM      6  C5  UNL d   1       0.417   1.155  -0.242  0.00  0.00     0.034 A 
ATOM      7 Cl   UNL d   1       2.678   2.289   0.652  0.00  0.00    -0.070 Cl
ATOM      8 Cl1  UNL d   1       3.755  -0.767   0.956  0.00  0.00    -0.070 Cl
ENDROOT
TORSDOF 0
ENDMDL
