MODEL 1
REMARK minimizedAffinity 1.07763517
REMARK minimizedRMSD -1
REMARK  0 active torsions:
REMARK  status: ('A' for Active; 'I' for Inactive)
ROOT
ATOM      1  O1  BZF d   1       0.778  -1.077  -4.887  0.00  0.00    -0.204 OA
ATOM      2  C2  BZF d   1       0.382  -0.339  -3.788  0.00  0.00     0.174 A 
ATOM      3  C3  BZF d   1      -0.687  -0.905  -3.192  0.00  0.00    -0.012 A 
ATOM      4  C3A BZF d   1      -0.920  -2.120  -3.911  0.00  0.00    -0.107 A 
ATOM      5  C4  BZF d   1      -1.835  -3.126  -3.784  0.00  0.00     0.055 A 
ATOM      6  C5  BZF d   1      -1.838  -4.135  -4.694  0.00  0.00    -0.016 A 
ATOM      7  C6  BZF d   1      -0.945  -4.167  -5.745  0.00  0.00     0.022 A 
ATOM      8  C7  BZF d   1      -0.017  -3.194  -5.910  0.00  0.00     0.029 A 
ATOM      9  C7A BZF d   1       0.010  -2.190  -4.974  0.00  0.00     0.058 A 
ENDROOT
TORSDOF 0
ENDMDL
