MODEL 1
REMARK minimizedAffinity 12.787488
REMARK minimizedRMSD -1
REMARK  0 active torsions:
REMARK  status: ('A' for Active; 'I' for Inactive)
ROOT
ATOM      1  O1  BZF d   1      -1.013  -4.881  -6.000  0.00  0.00    -0.204 OA
ATOM      2  C2  BZF d   1      -2.204  -4.406  -5.487  0.00  0.00     0.174 A 
ATOM      3  C3  BZF d   1      -1.997  -3.302  -4.740  0.00  0.00    -0.012 A 
ATOM      4  C3A BZF d   1      -0.600  -3.020  -4.866  0.00  0.00    -0.107 A 
ATOM      5  C4  BZF d   1       0.207  -2.038  -4.367  0.00  0.00     0.055 A 
ATOM      6  C5  BZF d   1       1.542  -2.089  -4.619  0.00  0.00    -0.016 A 
ATOM      7  C6  BZF d   1       2.102  -3.109  -5.359  0.00  0.00     0.022 A 
ATOM      8  C7  BZF d   1       1.341  -4.103  -5.879  0.00  0.00     0.029 A 
ATOM      9  C7A BZF d   1      -0.012  -4.035  -5.654  0.00  0.00     0.058 A 
ENDROOT
TORSDOF 0
ENDMDL
