MODEL 1
REMARK minimizedAffinity 14.2110958
REMARK minimizedRMSD -1
REMARK  0 active torsions:
REMARK  status: ('A' for Active; 'I' for Inactive)
ROOT
ATOM      1  O1  BZF d   1       3.573   1.848  -5.099  0.00  0.00    -0.204 OA
ATOM      2  C2  BZF d   1       4.919   1.542  -5.154  0.00  0.00     0.174 A 
ATOM      3  C3  BZF d   1       5.133   0.258  -4.804  0.00  0.00    -0.012 A 
ATOM      4  C3A BZF d   1       3.830  -0.298  -4.601  0.00  0.00    -0.107 A 
ATOM      5  C4  BZF d   1       3.383  -1.541  -4.253  0.00  0.00     0.055 A 
ATOM      6  C5  BZF d   1       2.052  -1.737  -4.067  0.00  0.00    -0.016 A 
ATOM      7  C6  BZF d   1       1.140  -0.712  -4.215  0.00  0.00     0.022 A 
ATOM      8  C7  BZF d   1       1.535   0.537  -4.563  0.00  0.00     0.029 A 
ATOM      9  C7A BZF d   1       2.877   0.730  -4.784  0.00  0.00     0.058 A 
ENDROOT
TORSDOF 0
ENDMDL
