MODEL 1
REMARK minimizedAffinity 15.4088049
REMARK minimizedRMSD -1
REMARK  0 active torsions:
REMARK  status: ('A' for Active; 'I' for Inactive)
ROOT
ATOM      1  O1  BZF d   1       0.188   0.035  -3.441  0.00  0.00    -0.204 OA
ATOM      2  C2  BZF d   1       0.380  -0.211  -4.787  0.00  0.00     0.174 A 
ATOM      3  C3  BZF d   1      -0.063  -1.442  -5.116  0.00  0.00    -0.012 A 
ATOM      4  C3A BZF d   1      -0.647  -1.964  -3.919  0.00  0.00    -0.107 A 
ATOM      5  C4  BZF d   1      -1.271  -3.140  -3.615  0.00  0.00     0.055 A 
ATOM      6  C5  BZF d   1      -1.661  -3.369  -2.333  0.00  0.00    -0.016 A 
ATOM      7  C6  BZF d   1      -1.440  -2.446  -1.332  0.00  0.00     0.022 A 
ATOM      8  C7  BZF d   1      -0.829  -1.263  -1.586  0.00  0.00     0.029 A 
ATOM      9  C7A BZF d   1      -0.463  -1.016  -2.887  0.00  0.00     0.058 A 
ENDROOT
TORSDOF 0
ENDMDL
