MODEL 1
REMARK minimizedAffinity 14.1687908
REMARK minimizedRMSD -1
REMARK  0 active torsions:
REMARK  status: ('A' for Active; 'I' for Inactive)
ROOT
ATOM      1  O1  BZF d   1      -1.320   1.988   3.337  0.00  0.00    -0.204 OA
ATOM      2  C2  BZF d   1      -0.563   2.615   4.308  0.00  0.00     0.174 A 
ATOM      3  C3  BZF d   1       0.417   1.800   4.750  0.00  0.00    -0.012 A 
ATOM      4  C3A BZF d   1       0.320   0.623   3.943  0.00  0.00    -0.107 A 
ATOM      5  C4  BZF d   1       1.031  -0.542   3.893  0.00  0.00     0.055 A 
ATOM      6  C5  BZF d   1       0.633  -1.522   3.039  0.00  0.00    -0.016 A 
ATOM      7  C6  BZF d   1      -0.471  -1.374   2.227  0.00  0.00     0.022 A 
ATOM      8  C7  BZF d   1      -1.205  -0.234   2.238  0.00  0.00     0.029 A 
ATOM      9  C7A BZF d   1      -0.787   0.771   3.075  0.00  0.00     0.058 A 
ENDROOT
TORSDOF 0
ENDMDL
