MODEL 1
REMARK minimizedAffinity 8.67155266
REMARK minimizedRMSD -1
REMARK  0 active torsions:
REMARK  status: ('A' for Active; 'I' for Inactive)
ROOT
ATOM      1  O1  BZF d   1      -1.494  -3.748  -1.872  0.00  0.00    -0.204 OA
ATOM      2  C2  BZF d   1      -1.088  -2.448  -2.100  0.00  0.00     0.174 A 
ATOM      3  C3  BZF d   1      -0.935  -2.219  -3.421  0.00  0.00    -0.012 A 
ATOM      4  C3A BZF d   1      -1.355  -3.427  -4.063  0.00  0.00    -0.107 A 
ATOM      5  C4  BZF d   1      -1.448  -3.811  -5.370  0.00  0.00     0.055 A 
ATOM      6  C5  BZF d   1      -1.825  -5.085  -5.658  0.00  0.00    -0.016 A 
ATOM      7  C6  BZF d   1      -2.111  -6.000  -4.666  0.00  0.00     0.022 A 
ATOM      8  C7  BZF d   1      -2.038  -5.663  -3.355  0.00  0.00     0.029 A 
ATOM      9  C7A BZF d   1      -1.689  -4.367  -3.061  0.00  0.00     0.058 A 
ENDROOT
TORSDOF 0
ENDMDL
