MODEL 1
REMARK minimizedAffinity 5.45602083
REMARK minimizedRMSD -1
REMARK  0 active torsions:
REMARK  status: ('A' for Active; 'I' for Inactive)
ROOT
ATOM      1  O1  BZF d   1      -1.315   1.945   2.103  0.00  0.00    -0.204 OA
ATOM      2  C2  BZF d   1      -0.790   2.995   2.830  0.00  0.00     0.174 A 
ATOM      3  C3  BZF d   1       0.126   2.553   3.716  0.00  0.00    -0.012 A 
ATOM      4  C3A BZF d   1       0.244   1.149   3.466  0.00  0.00    -0.107 A 
ATOM      5  C4  BZF d   1       1.008   0.158   4.014  0.00  0.00     0.055 A 
ATOM      6  C5  BZF d   1       0.830  -1.122   3.593  0.00  0.00    -0.016 A 
ATOM      7  C6  BZF d   1      -0.105  -1.447   2.632  0.00  0.00     0.022 A 
ATOM      8  C7  BZF d   1      -0.882  -0.499   2.056  0.00  0.00     0.029 A 
ATOM      9  C7A BZF d   1      -0.682   0.800   2.455  0.00  0.00     0.058 A 
ENDROOT
TORSDOF 0
ENDMDL
