MODEL 1
REMARK minimizedAffinity 8.0775032
REMARK minimizedRMSD -1
REMARK  0 active torsions:
REMARK  status: ('A' for Active; 'I' for Inactive)
ROOT
ATOM      1  O1  BZF d   1      -1.856   0.895   2.332  0.00  0.00    -0.204 OA
ATOM      2  C2  BZF d   1      -2.845  -0.065   2.233  0.00  0.00     0.174 A 
ATOM      3  C3  BZF d   1      -2.384  -1.269   2.628  0.00  0.00    -0.012 A 
ATOM      4  C3A BZF d   1      -1.050  -1.030   3.085  0.00  0.00    -0.107 A 
ATOM      5  C4  BZF d   1      -0.080  -1.833   3.613  0.00  0.00     0.055 A 
ATOM      6  C5  BZF d   1       1.141  -1.303   3.887  0.00  0.00    -0.016 A 
ATOM      7  C6  BZF d   1       1.428   0.024   3.641  0.00  0.00     0.022 A 
ATOM      8  C7  BZF d   1       0.496   0.861   3.122  0.00  0.00     0.029 A 
ATOM      9  C7A BZF d   1      -0.748   0.336   2.875  0.00  0.00     0.058 A 
ENDROOT
TORSDOF 0
ENDMDL
