MODEL 1
REMARK minimizedAffinity 7.59227276
REMARK minimizedRMSD -1
REMARK  0 active torsions:
REMARK  status: ('A' for Active; 'I' for Inactive)
ROOT
ATOM      1  O1  BZF d   1       0.825  -0.004  -2.958  0.00  0.00    -0.204 OA
ATOM      2  C2  BZF d   1       0.914  -0.006  -4.336  0.00  0.00     0.174 A 
ATOM      3  C3  BZF d   1       0.131  -0.968  -4.865  0.00  0.00    -0.012 A 
ATOM      4  C3A BZF d   1      -0.557  -1.547  -3.752  0.00  0.00    -0.107 A 
ATOM      5  C4  BZF d   1      -1.486  -2.542  -3.636  0.00  0.00     0.055 A 
ATOM      6  C5  BZF d   1      -1.901  -2.916  -2.398  0.00  0.00    -0.016 A 
ATOM      7  C6  BZF d   1      -1.406  -2.323  -1.255  0.00  0.00     0.022 A 
ATOM      8  C7  BZF d   1      -0.487  -1.329  -1.320  0.00  0.00     0.029 A 
ATOM      9  C7A BZF d   1      -0.090  -0.925  -2.571  0.00  0.00     0.058 A 
ENDROOT
TORSDOF 0
ENDMDL
