MODEL 1
REMARK minimizedAffinity 16.932766
REMARK minimizedRMSD -1
REMARK  0 active torsions:
REMARK  status: ('A' for Active; 'I' for Inactive)
ROOT
ATOM      1  O1  BZF d   1      -0.702  -0.743  -5.482  0.00  0.00    -0.204 OA
ATOM      2  C2  BZF d   1       0.514  -0.092  -5.565  0.00  0.00     0.174 A 
ATOM      3  C3  BZF d   1       1.162  -0.138  -4.383  0.00  0.00    -0.012 A 
ATOM      4  C3A BZF d   1       0.338  -0.941  -3.532  0.00  0.00    -0.107 A 
ATOM      5  C4  BZF d   1       0.454  -1.363  -2.239  0.00  0.00     0.055 A 
ATOM      6  C5  BZF d   1      -0.561  -2.076  -1.683  0.00  0.00    -0.016 A 
ATOM      7  C6  BZF d   1      -1.706  -2.379  -2.389  0.00  0.00     0.022 A 
ATOM      8  C7  BZF d   1      -1.865  -1.987  -3.676  0.00  0.00     0.029 A 
ATOM      9  C7A BZF d   1      -0.827  -1.295  -4.251  0.00  0.00     0.058 A 
ENDROOT
TORSDOF 0
ENDMDL
