MODEL 1
REMARK minimizedAffinity 12.9590082
REMARK minimizedRMSD -1
REMARK  0 active torsions:
REMARK  status: ('A' for Active; 'I' for Inactive)
ROOT
ATOM      1  O1  BZF d   1      -2.682   2.676   2.221  0.00  0.00    -0.204 OA
ATOM      2  C2  BZF d   1      -1.955   2.402   1.079  0.00  0.00     0.174 A 
ATOM      3  C3  BZF d   1      -2.606   2.837  -0.019  0.00  0.00    -0.012 A 
ATOM      4  C3A BZF d   1      -3.773   3.502   0.474  0.00  0.00    -0.107 A 
ATOM      5  C4  BZF d   1      -4.807   4.158  -0.131  0.00  0.00     0.055 A 
ATOM      6  C5  BZF d   1      -5.826   4.631   0.633  0.00  0.00    -0.016 A 
ATOM      7  C6  BZF d   1      -5.847   4.463   2.002  0.00  0.00     0.022 A 
ATOM      8  C7  BZF d   1      -4.841   3.824   2.648  0.00  0.00     0.029 A 
ATOM      9  C7A BZF d   1      -3.793   3.373   1.882  0.00  0.00     0.058 A 
ENDROOT
TORSDOF 0
ENDMDL
