MODEL 1
REMARK minimizedAffinity 14.744729
REMARK minimizedRMSD -1
REMARK  0 active torsions:
REMARK  status: ('A' for Active; 'I' for Inactive)
ROOT
ATOM      1  O1  BZF d   1       1.595  -0.833   4.533  0.00  0.00    -0.204 OA
ATOM      2  C2  BZF d   1       1.406  -2.137   4.946  0.00  0.00     0.174 A 
ATOM      3  C3  BZF d   1       1.146  -2.939   3.893  0.00  0.00    -0.012 A 
ATOM      4  C3A BZF d   1       1.265  -2.099   2.741  0.00  0.00    -0.107 A 
ATOM      5  C4  BZF d   1       1.136  -2.321   1.400  0.00  0.00     0.055 A 
ATOM      6  C5  BZF d   1       1.243  -1.271   0.544  0.00  0.00    -0.016 A 
ATOM      7  C6  BZF d   1       1.472   0.013   0.994  0.00  0.00     0.022 A 
ATOM      8  C7  BZF d   1       1.612   0.281   2.315  0.00  0.00     0.029 A 
ATOM      9  C7A BZF d   1       1.537  -0.783   3.180  0.00  0.00     0.058 A 
ENDROOT
TORSDOF 0
ENDMDL
