MODEL 1
REMARK minimizedAffinity 6.8093276
REMARK minimizedRMSD -1
REMARK  0 active torsions:
REMARK  status: ('A' for Active; 'I' for Inactive)
ROOT
ATOM      1  O1  BZF d   1       0.575  -1.981   2.552  0.00  0.00    -0.204 OA
ATOM      2  C2  BZF d   1       0.864  -2.725   1.424  0.00  0.00     0.174 A 
ATOM      3  C3  BZF d   1       1.816  -2.121   0.684  0.00  0.00    -0.012 A 
ATOM      4  C3A BZF d   1       2.208  -0.971   1.440  0.00  0.00    -0.107 A 
ATOM      5  C4  BZF d   1       3.126   0.018   1.236  0.00  0.00     0.055 A 
ATOM      6  C5  BZF d   1       3.211   1.036   2.132  0.00  0.00    -0.016 A 
ATOM      7  C6  BZF d   1       2.391   1.099   3.239  0.00  0.00     0.022 A 
ATOM      8  C7  BZF d   1       1.467   0.138   3.487  0.00  0.00     0.029 A 
ATOM      9  C7A BZF d   1       1.402  -0.909   2.600  0.00  0.00     0.058 A 
ENDROOT
TORSDOF 0
ENDMDL
