MODEL 1
REMARK minimizedAffinity 0.263024688
REMARK minimizedRMSD -1
REMARK  0 active torsions:
REMARK  status: ('A' for Active; 'I' for Inactive)
ROOT
ATOM      1  O1  BZF d   1       3.815   5.662  -5.444  0.00  0.00    -0.204 OA
ATOM      2  C2  BZF d   1       5.055   5.908  -6.000  0.00  0.00     0.174 A 
ATOM      3  C3  BZF d   1       5.999   6.000  -5.041  0.00  0.00    -0.012 A 
ATOM      4  C3A BZF d   1       5.321   5.707  -3.816  0.00  0.00    -0.107 A 
ATOM      5  C4  BZF d   1       5.727   5.625  -2.514  0.00  0.00     0.055 A 
ATOM      6  C5  BZF d   1       4.801   5.391  -1.547  0.00  0.00    -0.016 A 
ATOM      7  C6  BZF d   1       3.463   5.238  -1.845  0.00  0.00     0.022 A 
ATOM      8  C7  BZF d   1       3.013   5.306  -3.122  0.00  0.00     0.029 A 
ATOM      9  C7A BZF d   1       3.951   5.510  -4.105  0.00  0.00     0.058 A 
ENDROOT
TORSDOF 0
ENDMDL
