MODEL 1
REMARK minimizedAffinity 4.86809921
REMARK minimizedRMSD -1
REMARK  0 active torsions:
REMARK  status: ('A' for Active; 'I' for Inactive)
ROOT
ATOM      1  O1  BZF d   1       3.981   0.189  -4.776  0.00  0.00    -0.204 OA
ATOM      2  C2  BZF d   1       3.125   0.015  -3.705  0.00  0.00     0.174 A 
ATOM      3  C3  BZF d   1       3.147  -1.265  -3.279  0.00  0.00    -0.012 A 
ATOM      4  C3A BZF d   1       4.143  -1.910  -4.077  0.00  0.00    -0.107 A 
ATOM      5  C4  BZF d   1       4.636  -3.183  -4.115  0.00  0.00     0.055 A 
ATOM      6  C5  BZF d   1       5.554  -3.508  -5.063  0.00  0.00    -0.016 A 
ATOM      7  C6  BZF d   1       5.997  -2.588  -5.990  0.00  0.00     0.022 A 
ATOM      8  C7  BZF d   1       5.542  -1.312  -5.989  0.00  0.00     0.029 A 
ATOM      9  C7A BZF d   1       4.638  -0.972  -5.012  0.00  0.00     0.058 A 
ENDROOT
TORSDOF 0
ENDMDL
