MODEL 1
REMARK minimizedAffinity 15.6693459
REMARK minimizedRMSD -1
REMARK  0 active torsions:
REMARK  status: ('A' for Active; 'I' for Inactive)
ROOT
ATOM      1  O1  BZF d   1       3.099   2.405   2.562  0.00  0.00    -0.204 OA
ATOM      2  C2  BZF d   1       2.045   2.812   3.357  0.00  0.00     0.174 A 
ATOM      3  C3  BZF d   1       1.144   1.819   3.501  0.00  0.00    -0.012 A 
ATOM      4  C3A BZF d   1       1.712   0.694   2.825  0.00  0.00    -0.107 A 
ATOM      5  C4  BZF d   1       1.297  -0.593   2.631  0.00  0.00     0.055 A 
ATOM      6  C5  BZF d   1       2.051  -1.421   1.862  0.00  0.00    -0.016 A 
ATOM      7  C6  BZF d   1       3.222  -0.996   1.268  0.00  0.00     0.022 A 
ATOM      8  C7  BZF d   1       3.676   0.270   1.436  0.00  0.00     0.029 A 
ATOM      9  C7A BZF d   1       2.933   1.100   2.239  0.00  0.00     0.058 A 
ENDROOT
TORSDOF 0
ENDMDL
