MODEL 1
REMARK minimizedAffinity 7.41539574
REMARK minimizedRMSD -1
REMARK  1 active torsions:
REMARK  status: ('A' for Active; 'I' for Inactive)
REMARK    1  A    between atoms: N_2  and  C1_3 
ROOT
ATOM      1  C1  UNL d   1      -1.390   0.048   2.595  0.00  0.00     0.143 A 
ATOM      2  C2  UNL d   1      -2.315  -0.423   1.657  0.00  0.00    -0.057 A 
ATOM      3  C3  UNL d   1      -3.441  -1.156   2.052  0.00  0.00     0.033 A 
ATOM      4  C4  UNL d   1      -3.646  -1.457   3.394  0.00  0.00    -0.042 A 
ATOM      5  C5  UNL d   1      -2.727  -1.020   4.342  0.00  0.00     0.033 A 
ATOM      6  C6  UNL d   1      -1.608  -0.283   3.942  0.00  0.00    -0.057 A 
ENDROOT
BRANCH   1   7
ATOM      7  N   UNL d   1      -0.200   0.696   2.256  0.00  0.00    -0.732 N 
ATOM      8  C   UNL d   1       1.050  -0.032   2.210  0.00  0.00     0.284 C 
ATOM      9  H3  UNL d   1      -0.323   1.360   1.495  0.00  0.00     0.395 HD
ENDBRANCH   1   7
TORSDOF 1
ENDMDL
