MODEL 1
REMARK minimizedAffinity 1.08230054
REMARK minimizedRMSD -1
REMARK  1 active torsions:
REMARK  status: ('A' for Active; 'I' for Inactive)
REMARK    1  A    between atoms: N_2  and  C1_3 
ROOT
ATOM      1  C1  UNL d   1       1.077  -0.760   0.833  0.00  0.00     0.143 A 
ATOM      2  C2  UNL d   1       1.608   0.425   1.353  0.00  0.00    -0.057 A 
ATOM      3  C3  UNL d   1       0.776   1.455   1.809  0.00  0.00     0.033 A 
ATOM      4  C4  UNL d   1      -0.607   1.328   1.727  0.00  0.00    -0.042 A 
ATOM      5  C5  UNL d   1      -1.157   0.168   1.191  0.00  0.00     0.033 A 
ATOM      6  C6  UNL d   1      -0.320  -0.859   0.743  0.00  0.00    -0.057 A 
ENDROOT
BRANCH   1   7
ATOM      7  N   UNL d   1       1.851  -1.779   0.273  0.00  0.00    -0.732 N 
ATOM      8  C   UNL d   1       3.076  -1.470  -0.433  0.00  0.00     0.284 C 
ATOM      9  H3  UNL d   1       1.913  -2.596   0.875  0.00  0.00     0.395 HD
ENDBRANCH   1   7
TORSDOF 1
ENDMDL
