MODEL 1
REMARK minimizedAffinity 5.89421844
REMARK minimizedRMSD -1
REMARK  1 active torsions:
REMARK  status: ('A' for Active; 'I' for Inactive)
REMARK    1  A    between atoms: N_2  and  C1_3 
ROOT
ATOM      1  C1  UNL d   1       2.113   0.720  -4.025  0.00  0.00     0.143 A 
ATOM      2  C2  UNL d   1       1.940   0.712  -5.414  0.00  0.00    -0.057 A 
ATOM      3  C3  UNL d   1       0.801   0.146  -6.000  0.00  0.00     0.033 A 
ATOM      4  C4  UNL d   1      -0.174  -0.449  -5.206  0.00  0.00    -0.042 A 
ATOM      5  C5  UNL d   1      -0.011  -0.475  -3.826  0.00  0.00     0.033 A 
ATOM      6  C6  UNL d   1       1.125   0.098  -3.246  0.00  0.00    -0.057 A 
ENDROOT
BRANCH   1   7
ATOM      7  N   UNL d   1       3.269   1.179  -3.389  0.00  0.00    -0.732 N 
ATOM      8  C   UNL d   1       4.556   0.583  -3.678  0.00  0.00     0.284 C 
ATOM      9  H3  UNL d   1       3.290   2.193  -3.304  0.00  0.00     0.395 HD
ENDBRANCH   1   7
TORSDOF 1
ENDMDL
