MODEL 1
REMARK minimizedAffinity 1.87596798
REMARK minimizedRMSD -1
REMARK  1 active torsions:
REMARK  status: ('A' for Active; 'I' for Inactive)
REMARK    1  A    between atoms: N_2  and  C1_3 
ROOT
ATOM      1  C1  UNL d   1       2.288   0.590  -3.772  0.00  0.00     0.143 A 
ATOM      2  C2  UNL d   1       1.732   0.645  -2.489  0.00  0.00    -0.057 A 
ATOM      3  C3  UNL d   1       2.467   0.260  -1.362  0.00  0.00     0.033 A 
ATOM      4  C4  UNL d   1       3.767  -0.214  -1.500  0.00  0.00    -0.042 A 
ATOM      5  C5  UNL d   1       4.332  -0.300  -2.768  0.00  0.00     0.033 A 
ATOM      6  C6  UNL d   1       3.595   0.091  -3.889  0.00  0.00    -0.057 A 
ENDROOT
BRANCH   1   7
ATOM      7  N   UNL d   1       1.576   0.865  -4.941  0.00  0.00    -0.732 N 
ATOM      8  C   UNL d   1       0.365   0.137  -5.255  0.00  0.00     0.284 C 
ATOM      9  H3  UNL d   1       1.525   1.861  -5.140  0.00  0.00     0.395 HD
ENDBRANCH   1   7
TORSDOF 1
ENDMDL
