MODEL 1
REMARK minimizedAffinity 7.08710194
REMARK minimizedRMSD -1
REMARK  1 active torsions:
REMARK  status: ('A' for Active; 'I' for Inactive)
REMARK    1  A    between atoms: N_2  and  C1_3 
ROOT
ATOM      1  C1  UNL d   1       1.061  -2.049   0.036  0.00  0.00     0.143 A 
ATOM      2  C2  UNL d   1       0.572  -1.278   1.096  0.00  0.00    -0.057 A 
ATOM      3  C3  UNL d   1       1.438  -0.683   2.021  0.00  0.00     0.033 A 
ATOM      4  C4  UNL d   1       2.812  -0.873   1.919  0.00  0.00    -0.042 A 
ATOM      5  C5  UNL d   1       3.319  -1.656   0.888  0.00  0.00     0.033 A 
ATOM      6  C6  UNL d   1       2.450  -2.242  -0.037  0.00  0.00    -0.057 A 
ENDROOT
BRANCH   1   7
ATOM      7  N   UNL d   1       0.247  -2.747  -0.859  0.00  0.00    -0.732 N 
ATOM      8  C   UNL d   1      -0.266  -2.101  -2.047  0.00  0.00     0.284 C 
ATOM      9  H3  UNL d   1       0.565  -3.702  -1.009  0.00  0.00     0.395 HD
ENDBRANCH   1   7
TORSDOF 1
ENDMDL
