MODEL 1
REMARK minimizedAffinity 4.97531319
REMARK minimizedRMSD -1
REMARK  1 active torsions:
REMARK  status: ('A' for Active; 'I' for Inactive)
REMARK    1  A    between atoms: N_2  and  C1_3 
ROOT
ATOM      1  C1  UNL d   1       2.362   1.029  -3.283  0.00  0.00     0.143 A 
ATOM      2  C2  UNL d   1       1.852   0.869  -4.575  0.00  0.00    -0.057 A 
ATOM      3  C3  UNL d   1       0.667   0.159  -4.805  0.00  0.00     0.033 A 
ATOM      4  C4  UNL d   1      -0.015  -0.430  -3.745  0.00  0.00    -0.042 A 
ATOM      5  C5  UNL d   1       0.487  -0.305  -2.455  0.00  0.00     0.033 A 
ATOM      6  C6  UNL d   1       1.667   0.411  -2.231  0.00  0.00    -0.057 A 
ENDROOT
BRANCH   1   7
ATOM      7  N   UNL d   1       3.587   1.639  -3.000  0.00  0.00    -0.732 N 
ATOM      8  C   UNL d   1       4.823   1.076  -3.498  0.00  0.00     0.284 C 
ATOM      9  H3  UNL d   1       3.538   2.654  -3.061  0.00  0.00     0.395 HD
ENDBRANCH   1   7
TORSDOF 1
ENDMDL
