MODEL 1
REMARK minimizedAffinity 4.85960102
REMARK minimizedRMSD -1
REMARK  1 active torsions:
REMARK  status: ('A' for Active; 'I' for Inactive)
REMARK    1  A    between atoms: N_2  and  C1_3 
ROOT
ATOM      1  C1  UNL d   1       0.530   0.182  -4.541  0.00  0.00     0.143 A 
ATOM      2  C2  UNL d   1       0.527  -0.108  -3.172  0.00  0.00    -0.057 A 
ATOM      3  C3  UNL d   1       1.558   0.334  -2.334  0.00  0.00     0.033 A 
ATOM      4  C4  UNL d   1       2.629   1.051  -2.858  0.00  0.00    -0.042 A 
ATOM      5  C5  UNL d   1       2.665   1.330  -4.219  0.00  0.00     0.033 A 
ATOM      6  C6  UNL d   1       1.629   0.892  -5.050  0.00  0.00    -0.057 A 
ENDROOT
BRANCH   1   7
ATOM      7  N   UNL d   1      -0.415  -0.313  -5.442  0.00  0.00    -0.732 N 
ATOM      8  C   UNL d   1      -0.380  -1.697  -5.862  0.00  0.00     0.284 C 
ATOM      9  H3  UNL d   1      -1.351   0.042  -5.258  0.00  0.00     0.395 HD
ENDBRANCH   1   7
TORSDOF 1
ENDMDL
