MODEL 1
REMARK minimizedAffinity 5.19082022
REMARK minimizedRMSD -1
REMARK  1 active torsions:
REMARK  status: ('A' for Active; 'I' for Inactive)
REMARK    1  A    between atoms: N_2  and  C1_3 
ROOT
ATOM      1  C1  UNL d   1       1.381  -0.704  -2.264  0.00  0.00     0.143 A 
ATOM      2  C2  UNL d   1       0.536  -0.857  -3.368  0.00  0.00    -0.057 A 
ATOM      3  C3  UNL d   1       0.669  -0.047  -4.502  0.00  0.00     0.033 A 
ATOM      4  C4  UNL d   1       1.635   0.954  -4.541  0.00  0.00    -0.042 A 
ATOM      5  C5  UNL d   1       2.469   1.141  -3.444  0.00  0.00     0.033 A 
ATOM      6  C6  UNL d   1       2.335   0.324  -2.317  0.00  0.00    -0.057 A 
ENDROOT
BRANCH   1   7
ATOM      7  N   UNL d   1       1.235  -1.412  -1.068  0.00  0.00    -0.732 N 
ATOM      8  C   UNL d   1       2.244  -1.329  -0.035  0.00  0.00     0.284 C 
ATOM      9  H3  UNL d   1       0.279  -1.391  -0.719  0.00  0.00     0.395 HD
ENDBRANCH   1   7
TORSDOF 1
ENDMDL
