MODEL 1
REMARK minimizedAffinity 7.16060352
REMARK minimizedRMSD -1
REMARK  0 active torsions:
REMARK  status: ('A' for Active; 'I' for Inactive)
ROOT
ATOM      1  C   UNL d   1       2.465  -1.141   3.132  0.00  0.00     0.077 C 
ATOM      2  C1  UNL d   1       0.984  -0.911   3.190  0.00  0.00    -0.074 A 
ATOM      3  C2  UNL d   1       0.101  -1.967   3.439  0.00  0.00    -0.005 A 
ATOM      4  C3  UNL d   1      -1.273  -1.735   3.499  0.00  0.00     0.006 A 
ATOM      5  C4  UNL d   1      -1.778  -0.448   3.313  0.00  0.00    -0.005 A 
ATOM      6  C5  UNL d   1      -0.910   0.621   3.064  0.00  0.00    -0.074 A 
ATOM      7  C6  UNL d   1      -1.435   2.012   2.871  0.00  0.00     0.077 C 
ATOM      8  C7  UNL d   1       0.470   0.381   3.012  0.00  0.00    -0.001 A 
ENDROOT
TORSDOF 0
ENDMDL
