MODEL 1
REMARK minimizedAffinity -4.42905235
REMARK minimizedRMSD -1
REMARK  0 active torsions:
REMARK  status: ('A' for Active; 'I' for Inactive)
ROOT
ATOM      1  C   UNL d   1      -0.219  -0.779  -1.906  0.00  0.00     0.077 C 
ATOM      2  C1  UNL d   1       0.187  -0.330  -0.534  0.00  0.00    -0.074 A 
ATOM      3  C2  UNL d   1       1.211   0.606  -0.357  0.00  0.00    -0.005 A 
ATOM      4  C3  UNL d   1       1.571   1.020   0.925  0.00  0.00     0.006 A 
ATOM      5  C4  UNL d   1       0.911   0.504   2.042  0.00  0.00    -0.005 A 
ATOM      6  C5  UNL d   1      -0.115  -0.432   1.884  0.00  0.00    -0.074 A 
ATOM      7  C6  UNL d   1      -0.841  -0.990   3.073  0.00  0.00     0.077 C 
ATOM      8  C7  UNL d   1      -0.476  -0.839   0.592  0.00  0.00    -0.001 A 
ENDROOT
TORSDOF 0
ENDMDL
