MODEL 1
REMARK minimizedAffinity -2.15720916
REMARK minimizedRMSD -1
REMARK  0 active torsions:
REMARK  status: ('A' for Active; 'I' for Inactive)
ROOT
ATOM      1  C   UNL d   1      -3.229   0.811  -0.927  0.00  0.00     0.077 C 
ATOM      2  C1  UNL d   1      -1.884   0.508  -0.336  0.00  0.00    -0.074 A 
ATOM      3  C2  UNL d   1      -0.728   0.547  -1.122  0.00  0.00    -0.005 A 
ATOM      4  C3  UNL d   1       0.517   0.273  -0.556  0.00  0.00     0.006 A 
ATOM      5  C4  UNL d   1       0.618  -0.042   0.799  0.00  0.00    -0.005 A 
ATOM      6  C5  UNL d   1      -0.527  -0.085   1.602  0.00  0.00    -0.074 A 
ATOM      7  C6  UNL d   1      -0.434  -0.413   3.062  0.00  0.00     0.077 C 
ATOM      8  C7  UNL d   1      -1.773   0.198   1.027  0.00  0.00    -0.001 A 
ENDROOT
TORSDOF 0
ENDMDL
