MODEL 1
REMARK minimizedAffinity 5.12103415
REMARK minimizedRMSD -1
REMARK  0 active torsions:
REMARK  status: ('A' for Active; 'I' for Inactive)
ROOT
ATOM      1  C   UNL d   1      -0.652  -1.157   3.101  0.00  0.00     0.077 C 
ATOM      2  C1  UNL d   1      -1.804  -0.509   2.393  0.00  0.00    -0.074 A 
ATOM      3  C2  UNL d   1      -2.906  -0.027   3.105  0.00  0.00    -0.005 A 
ATOM      4  C3  UNL d   1      -3.966   0.583   2.433  0.00  0.00     0.006 A 
ATOM      5  C4  UNL d   1      -3.934   0.716   1.045  0.00  0.00    -0.005 A 
ATOM      6  C5  UNL d   1      -2.840   0.240   0.316  0.00  0.00    -0.074 A 
ATOM      7  C6  UNL d   1      -2.785   0.384  -1.176  0.00  0.00     0.077 C 
ATOM      8  C7  UNL d   1      -1.776  -0.365   0.998  0.00  0.00    -0.001 A 
ENDROOT
TORSDOF 0
ENDMDL
