MODEL 1
REMARK minimizedAffinity 6.71922302
REMARK minimizedRMSD -1
REMARK  0 active torsions:
REMARK  status: ('A' for Active; 'I' for Inactive)
ROOT
ATOM      1  C   UNL d   1       0.166  -0.024   3.035  0.00  0.00     0.077 C 
ATOM      2  C1  UNL d   1      -1.191   0.114   2.410  0.00  0.00    -0.074 A 
ATOM      3  C2  UNL d   1      -2.337   0.240   3.200  0.00  0.00    -0.005 A 
ATOM      4  C3  UNL d   1      -3.591   0.377   2.605  0.00  0.00     0.006 A 
ATOM      5  C4  UNL d   1      -3.711   0.389   1.215  0.00  0.00    -0.005 A 
ATOM      6  C5  UNL d   1      -2.575   0.265   0.408  0.00  0.00    -0.074 A 
ATOM      7  C6  UNL d   1      -2.686   0.286  -1.088  0.00  0.00     0.077 C 
ATOM      8  C7  UNL d   1      -1.318   0.134   1.014  0.00  0.00    -0.001 A 
ENDROOT
TORSDOF 0
ENDMDL
