MODEL 1
REMARK minimizedAffinity 4.60883045
REMARK minimizedRMSD -1
REMARK  0 active torsions:
REMARK  status: ('A' for Active; 'I' for Inactive)
ROOT
ATOM      1  C   UNL d   1      -1.663  -0.069  -2.343  0.00  0.00     0.077 C 
ATOM      2  C1  UNL d   1      -2.113   0.182  -0.934  0.00  0.00    -0.074 A 
ATOM      3  C2  UNL d   1      -3.397   0.667  -0.666  0.00  0.00    -0.005 A 
ATOM      4  C3  UNL d   1      -3.805   0.887   0.649  0.00  0.00     0.006 A 
ATOM      5  C4  UNL d   1      -2.934   0.626   1.708  0.00  0.00    -0.005 A 
ATOM      6  C5  UNL d   1      -1.647   0.140   1.459  0.00  0.00    -0.074 A 
ATOM      7  C6  UNL d   1      -0.702  -0.155   2.586  0.00  0.00     0.077 C 
ATOM      8  C7  UNL d   1      -1.247  -0.085   0.135  0.00  0.00    -0.001 A 
ENDROOT
TORSDOF 0
ENDMDL
