MODEL 1
REMARK minimizedAffinity 3.79163384
REMARK minimizedRMSD -1
REMARK  0 active torsions:
REMARK  status: ('A' for Active; 'I' for Inactive)
ROOT
ATOM      1  C   UNL d   1      -4.007   0.490   1.981  0.00  0.00     0.077 C 
ATOM      2  C1  UNL d   1      -2.611   0.119   2.386  0.00  0.00    -0.074 A 
ATOM      3  C2  UNL d   1      -2.379  -0.900   3.314  0.00  0.00    -0.005 A 
ATOM      4  C3  UNL d   1      -1.075  -1.241   3.673  0.00  0.00     0.006 A 
ATOM      5  C4  UNL d   1       0.008  -0.567   3.109  0.00  0.00    -0.005 A 
ATOM      6  C5  UNL d   1      -0.204   0.455   2.178  0.00  0.00    -0.074 A 
ATOM      7  C6  UNL d   1       0.949   1.183   1.554  0.00  0.00     0.077 C 
ATOM      8  C7  UNL d   1      -1.517   0.787   1.817  0.00  0.00    -0.001 A 
ENDROOT
TORSDOF 0
ENDMDL
