MODEL 1
REMARK minimizedAffinity 5.95919132
REMARK minimizedRMSD -1
REMARK  0 active torsions:
REMARK  status: ('A' for Active; 'I' for Inactive)
ROOT
ATOM      1  C   UNL d   1      -0.328   0.137   3.304  0.00  0.00     0.077 C 
ATOM      2  C1  UNL d   1      -1.560   0.315   2.467  0.00  0.00    -0.074 A 
ATOM      3  C2  UNL d   1      -2.815   0.484   3.062  0.00  0.00    -0.005 A 
ATOM      4  C3  UNL d   1      -3.950   0.658   2.271  0.00  0.00     0.006 A 
ATOM      5  C4  UNL d   1      -3.843   0.666   0.879  0.00  0.00    -0.005 A 
ATOM      6  C5  UNL d   1      -2.597   0.501   0.267  0.00  0.00    -0.074 A 
ATOM      7  C6  UNL d   1      -2.463   0.517  -1.227  0.00  0.00     0.077 C 
ATOM      8  C7  UNL d   1      -1.460   0.333   1.069  0.00  0.00    -0.001 A 
ENDROOT
TORSDOF 0
ENDMDL
