MODEL 1
REMARK minimizedAffinity 2.65429711
REMARK minimizedRMSD -1
REMARK  0 active torsions:
REMARK  status: ('A' for Active; 'I' for Inactive)
ROOT
ATOM      1  C   UNL d   1       1.865   2.565  -0.070  0.00  0.00     0.077 C 
ATOM      2  C1  UNL d   1       1.400   2.069   1.267  0.00  0.00    -0.074 A 
ATOM      3  C2  UNL d   1       1.891   2.627   2.452  0.00  0.00    -0.005 A 
ATOM      4  C3  UNL d   1       1.442   2.161   3.688  0.00  0.00     0.006 A 
ATOM      5  C4  UNL d   1       0.500   1.135   3.751  0.00  0.00    -0.005 A 
ATOM      6  C5  UNL d   1      -0.004   0.565   2.578  0.00  0.00    -0.074 A 
ATOM      7  C6  UNL d   1      -1.025  -0.533   2.628  0.00  0.00     0.077 C 
ATOM      8  C7  UNL d   1       0.447   1.043   1.340  0.00  0.00    -0.001 A 
ENDROOT
TORSDOF 0
ENDMDL
