MODEL 1
REMARK minimizedAffinity 6.83419752
REMARK minimizedRMSD -1
REMARK  0 active torsions:
REMARK  status: ('A' for Active; 'I' for Inactive)
ROOT
ATOM      1  C   UNL d   1       0.005   1.475   1.965  0.00  0.00     0.077 C 
ATOM      2  C1  UNL d   1      -1.339   0.809   1.987  0.00  0.00    -0.074 A 
ATOM      3  C2  UNL d   1      -1.563  -0.333   2.762  0.00  0.00    -0.005 A 
ATOM      4  C3  UNL d   1      -2.821  -0.936   2.780  0.00  0.00     0.006 A 
ATOM      5  C4  UNL d   1      -3.866  -0.403   2.025  0.00  0.00    -0.005 A 
ATOM      6  C5  UNL d   1      -3.662   0.740   1.245  0.00  0.00    -0.074 A 
ATOM      7  C6  UNL d   1      -4.777   1.332   0.435  0.00  0.00     0.077 C 
ATOM      8  C7  UNL d   1      -2.397   1.344   1.237  0.00  0.00    -0.001 A 
ENDROOT
TORSDOF 0
ENDMDL
