MODEL 1
REMARK minimizedAffinity -3.52391362
REMARK minimizedRMSD -1
REMARK  0 active torsions:
REMARK  status: ('A' for Active; 'I' for Inactive)
ROOT
ATOM      1  C   UNL d   1       1.781  -0.083   1.418  0.00  0.00     0.077 C 
ATOM      2  C1  UNL d   1       0.884   0.259   0.266  0.00  0.00    -0.074 A 
ATOM      3  C2  UNL d   1      -0.464   0.568   0.471  0.00  0.00    -0.005 A 
ATOM      4  C3  UNL d   1      -1.284   0.893  -0.609  0.00  0.00     0.006 A 
ATOM      5  C4  UNL d   1      -0.765   0.913  -1.904  0.00  0.00    -0.005 A 
ATOM      6  C5  UNL d   1       0.582   0.608  -2.129  0.00  0.00    -0.074 A 
ATOM      7  C6  UNL d   1       1.158   0.635  -3.514  0.00  0.00     0.077 C 
ATOM      8  C7  UNL d   1       1.401   0.289  -1.038  0.00  0.00    -0.001 A 
ENDROOT
TORSDOF 0
ENDMDL
