MODEL 1
REMARK minimizedAffinity 7.19345236
REMARK minimizedRMSD -1
REMARK  0 active torsions:
REMARK  status: ('A' for Active; 'I' for Inactive)
ROOT
ATOM      1  C   UNL d   1      -2.983   0.588   2.215  0.00  0.00     0.077 C 
ATOM      2  C1  UNL d   1      -1.531   0.255   2.394  0.00  0.00    -0.074 A 
ATOM      3  C2  UNL d   1      -0.572   1.266   2.519  0.00  0.00    -0.005 A 
ATOM      4  C3  UNL d   1       0.773   0.941   2.695  0.00  0.00     0.006 A 
ATOM      5  C4  UNL d   1       1.172  -0.395   2.747  0.00  0.00    -0.005 A 
ATOM      6  C5  UNL d   1       0.228  -1.419   2.624  0.00  0.00    -0.074 A 
ATOM      7  C6  UNL d   1       0.639  -2.860   2.688  0.00  0.00     0.077 C 
ATOM      8  C7  UNL d   1      -1.123  -1.085   2.455  0.00  0.00    -0.001 A 
ENDROOT
TORSDOF 0
ENDMDL
