MODEL 1
REMARK minimizedAffinity -0.745370746
REMARK minimizedRMSD -1
REMARK  0 active torsions:
REMARK  status: ('A' for Active; 'I' for Inactive)
ROOT
ATOM      1  C   UNL d   1       1.603   1.912   1.098  0.00  0.00     0.077 C 
ATOM      2  C1  UNL d   1       0.540   0.912   1.440  0.00  0.00    -0.074 A 
ATOM      3  C2  UNL d   1       0.216  -0.124   0.558  0.00  0.00    -0.005 A 
ATOM      4  C3  UNL d   1      -0.769  -1.052   0.894  0.00  0.00     0.006 A 
ATOM      5  C4  UNL d   1      -1.439  -0.955   2.114  0.00  0.00    -0.005 A 
ATOM      6  C5  UNL d   1      -1.128   0.073   3.010  0.00  0.00    -0.074 A 
ATOM      7  C6  UNL d   1      -1.832   0.186   4.329  0.00  0.00     0.077 C 
ATOM      8  C7  UNL d   1      -0.133   0.998   2.668  0.00  0.00    -0.001 A 
ENDROOT
TORSDOF 0
ENDMDL
