MODEL 1
REMARK minimizedAffinity 2.27832794
REMARK minimizedRMSD -1
REMARK  0 active torsions:
REMARK  status: ('A' for Active; 'I' for Inactive)
ROOT
ATOM      1  C   UNL d   1      -2.271   1.041   2.502  0.00  0.00     0.077 C 
ATOM      2  C1  UNL d   1      -0.870   0.821   2.012  0.00  0.00    -0.074 A 
ATOM      3  C2  UNL d   1       0.156   0.479   2.898  0.00  0.00    -0.005 A 
ATOM      4  C3  UNL d   1       1.452   0.268   2.426  0.00  0.00     0.006 A 
ATOM      5  C4  UNL d   1       1.733   0.396   1.066  0.00  0.00    -0.005 A 
ATOM      6  C5  UNL d   1       0.720   0.736   0.164  0.00  0.00    -0.074 A 
ATOM      7  C6  UNL d   1       1.004   0.869  -1.303  0.00  0.00     0.077 C 
ATOM      8  C7  UNL d   1      -0.581   0.940   0.645  0.00  0.00    -0.001 A 
ENDROOT
TORSDOF 0
ENDMDL
