MODEL 1
REMARK minimizedAffinity -1.81769061
REMARK minimizedRMSD -1
REMARK  0 active torsions:
REMARK  status: ('A' for Active; 'I' for Inactive)
ROOT
ATOM      1  C   UNL d   1      -2.626   0.691  -0.570  0.00  0.00     0.077 C 
ATOM      2  C1  UNL d   1      -1.204   0.534  -0.120  0.00  0.00    -0.074 A 
ATOM      3  C2  UNL d   1      -0.167   0.399  -1.049  0.00  0.00    -0.005 A 
ATOM      4  C3  UNL d   1       1.152   0.264  -0.616  0.00  0.00     0.006 A 
ATOM      5  C4  UNL d   1       1.447   0.262   0.748  0.00  0.00    -0.005 A 
ATOM      6  C5  UNL d   1       0.424   0.396   1.691  0.00  0.00    -0.074 A 
ATOM      7  C6  UNL d   1       0.725   0.406   3.160  0.00  0.00     0.077 C 
ATOM      8  C7  UNL d   1      -0.898   0.539   1.248  0.00  0.00    -0.001 A 
ENDROOT
TORSDOF 0
ENDMDL
