MODEL 1
REMARK minimizedAffinity -3.36821556
REMARK minimizedRMSD -1
REMARK  0 active torsions:
REMARK  status: ('A' for Active; 'I' for Inactive)
ROOT
ATOM      1  C   UNL d   1      -0.002  -1.321  -1.721  0.00  0.00     0.077 C 
ATOM      2  C1  UNL d   1       0.135  -0.723  -0.353  0.00  0.00    -0.074 A 
ATOM      3  C2  UNL d   1       0.918   0.417  -0.141  0.00  0.00    -0.005 A 
ATOM      4  C3  UNL d   1       1.028   0.967   1.136  0.00  0.00     0.006 A 
ATOM      5  C4  UNL d   1       0.358   0.385   2.212  0.00  0.00    -0.005 A 
ATOM      6  C5  UNL d   1      -0.429  -0.755   2.020  0.00  0.00    -0.074 A 
ATOM      7  C6  UNL d   1      -1.164  -1.388   3.164  0.00  0.00     0.077 C 
ATOM      8  C7  UNL d   1      -0.541  -1.298   0.733  0.00  0.00    -0.001 A 
ENDROOT
TORSDOF 0
ENDMDL
