MODEL 1
REMARK minimizedAffinity -4.18185949
REMARK minimizedRMSD -1
REMARK  0 active torsions:
REMARK  status: ('A' for Active; 'I' for Inactive)
ROOT
ATOM      1  C   UNL d   1      -0.759  -0.771   3.012  0.00  0.00     0.077 C 
ATOM      2  C1  UNL d   1      -1.046  -0.358   1.599  0.00  0.00    -0.074 A 
ATOM      3  C2  UNL d   1      -2.343  -0.019   1.198  0.00  0.00    -0.005 A 
ATOM      4  C3  UNL d   1      -2.593   0.372  -0.117  0.00  0.00     0.006 A 
ATOM      5  C4  UNL d   1      -1.551   0.428  -1.044  0.00  0.00    -0.005 A 
ATOM      6  C5  UNL d   1      -0.248   0.093  -0.661  0.00  0.00    -0.074 A 
ATOM      7  C6  UNL d   1       0.885   0.158  -1.642  0.00  0.00     0.077 C 
ATOM      8  C7  UNL d   1      -0.003  -0.292   0.664  0.00  0.00    -0.001 A 
ENDROOT
TORSDOF 0
ENDMDL
