MODEL 1
REMARK minimizedAffinity -2.14993024
REMARK minimizedRMSD -1
REMARK  0 active torsions:
REMARK  status: ('A' for Active; 'I' for Inactive)
ROOT
ATOM      1  C   UNL d   1       2.593   1.113   0.884  0.00  0.00     0.077 C 
ATOM      2  C1  UNL d   1       1.216   0.532   1.006  0.00  0.00    -0.074 A 
ATOM      3  C2  UNL d   1       0.338   0.529  -0.083  0.00  0.00    -0.005 A 
ATOM      4  C3  UNL d   1      -0.936  -0.023   0.042  0.00  0.00     0.006 A 
ATOM      5  C4  UNL d   1      -1.346  -0.577   1.256  0.00  0.00    -0.005 A 
ATOM      6  C5  UNL d   1      -0.482  -0.583   2.355  0.00  0.00    -0.074 A 
ATOM      7  C6  UNL d   1      -0.903  -1.183   3.664  0.00  0.00     0.077 C 
ATOM      8  C7  UNL d   1       0.800  -0.033   2.219  0.00  0.00    -0.001 A 
ENDROOT
TORSDOF 0
ENDMDL
