MODEL 1
REMARK minimizedAffinity 3.11506581
REMARK minimizedRMSD -1
REMARK  1 active torsions:
REMARK  status: ('A' for Active; 'I' for Inactive)
REMARK    1  A    between atoms: C1_2  and  C2_3 
ROOT
ATOM      1  C2  UNL d   1       4.312  -2.543   3.973  0.00  0.00    -0.073 A 
ATOM      2  C3  UNL d   1       4.887  -1.733   4.959  0.00  0.00    -0.002 A 
ATOM      3  C4  UNL d   1       5.668  -2.298   5.968  0.00  0.00     0.004 A 
ATOM      4  C5  UNL d   1       5.889  -3.675   5.996  0.00  0.00    -0.004 A 
ATOM      5  C6  UNL d   1       5.334  -4.499   5.012  0.00  0.00    -0.075 A 
ATOM      6  C7  UNL d   1       5.560  -5.982   5.030  0.00  0.00     0.076 C 
ATOM      7  C8  UNL d   1       4.548  -3.925   4.005  0.00  0.00     0.001 A 
ENDROOT
BRANCH   1   8
ATOM      8  C1  UNL d   1       3.473  -1.936   2.878  0.00  0.00     0.053 C 
ATOM      9  C   UNL d   1       3.696  -2.625   1.541  0.00  0.00     0.018 C 
ENDBRANCH   1   8
TORSDOF 1
ENDMDL
