MODEL 1
REMARK minimizedAffinity 3.47812581
REMARK minimizedRMSD -1
REMARK  1 active torsions:
REMARK  status: ('A' for Active; 'I' for Inactive)
REMARK    1  A    between atoms: C1_2  and  C2_3 
ROOT
ATOM      1  C2  UNL d   1       1.462  -1.055   0.141  0.00  0.00    -0.073 A 
ATOM      2  C3  UNL d   1       2.753  -1.413   0.544  0.00  0.00    -0.002 A 
ATOM      3  C4  UNL d   1       2.989  -1.854   1.847  0.00  0.00     0.004 A 
ATOM      4  C5  UNL d   1       1.936  -1.948   2.757  0.00  0.00    -0.004 A 
ATOM      5  C6  UNL d   1       0.636  -1.607   2.369  0.00  0.00    -0.075 A 
ATOM      6  C7  UNL d   1      -0.507  -1.702   3.337  0.00  0.00     0.076 C 
ATOM      7  C8  UNL d   1       0.408  -1.163   1.060  0.00  0.00     0.001 A 
ENDROOT
BRANCH   1   8
ATOM      8  C1  UNL d   1       1.201  -0.585  -1.267  0.00  0.00     0.053 C 
ATOM      9  C   UNL d   1       1.373   0.920  -1.406  0.00  0.00     0.018 C 
ENDBRANCH   1   8
TORSDOF 1
ENDMDL
