MODEL 1
REMARK minimizedAffinity -2.70697665
REMARK minimizedRMSD -1
REMARK  1 active torsions:
REMARK  status: ('A' for Active; 'I' for Inactive)
REMARK    1  A    between atoms: C1_2  and  C2_3 
ROOT
ATOM      1  C2  UNL d   1       3.703  -2.345   2.952  0.00  0.00    -0.073 A 
ATOM      2  C3  UNL d   1       4.125  -2.875   1.728  0.00  0.00    -0.002 A 
ATOM      3  C4  UNL d   1       3.226  -3.007   0.669  0.00  0.00     0.004 A 
ATOM      4  C5  UNL d   1       1.899  -2.603   0.821  0.00  0.00    -0.004 A 
ATOM      5  C6  UNL d   1       1.462  -2.060   2.033  0.00  0.00    -0.075 A 
ATOM      6  C7  UNL d   1       0.037  -1.623   2.213  0.00  0.00     0.076 C 
ATOM      7  C8  UNL d   1       2.370  -1.933   3.092  0.00  0.00     0.001 A 
ENDROOT
BRANCH   1   8
ATOM      8  C1  UNL d   1       4.673  -2.195   4.096  0.00  0.00     0.053 C 
ATOM      9  C   UNL d   1       4.272  -3.037   5.297  0.00  0.00     0.018 C 
ENDBRANCH   1   8
TORSDOF 1
ENDMDL
