MODEL 1
REMARK minimizedAffinity -0.113262668
REMARK minimizedRMSD -1
REMARK  1 active torsions:
REMARK  status: ('A' for Active; 'I' for Inactive)
REMARK    1  A    between atoms: C1_2  and  C2_3 
ROOT
ATOM      1  C2  UNL d   1       4.509  -2.673   3.282  0.00  0.00    -0.073 A 
ATOM      2  C3  UNL d   1       5.642  -2.009   2.799  0.00  0.00    -0.002 A 
ATOM      3  C4  UNL d   1       5.728  -1.648   1.454  0.00  0.00     0.004 A 
ATOM      4  C5  UNL d   1       4.680  -1.941   0.580  0.00  0.00    -0.004 A 
ATOM      5  C6  UNL d   1       3.535  -2.594   1.047  0.00  0.00    -0.075 A 
ATOM      6  C7  UNL d   1       2.400  -2.918   0.120  0.00  0.00     0.076 C 
ATOM      7  C8  UNL d   1       3.458  -2.955   2.398  0.00  0.00     0.001 A 
ENDROOT
BRANCH   1   8
ATOM      8  C1  UNL d   1       4.410  -3.059   4.735  0.00  0.00     0.053 C 
ATOM      9  C   UNL d   1       5.109  -2.058   5.640  0.00  0.00     0.018 C 
ENDBRANCH   1   8
TORSDOF 1
ENDMDL
