MODEL 1
REMARK minimizedAffinity -0.188152373
REMARK minimizedRMSD -1
REMARK  0 active torsions:
REMARK  status: ('A' for Active; 'I' for Inactive)
ROOT
ATOM      1  C   UNL d   1       5.868   5.116   5.868  0.00  0.00     0.172 C 
ATOM      2  N   UNL d   1       5.393   5.310   4.518  0.00  0.00    -0.070 N 
ATOM      3  C1  UNL d   1       5.999   4.839   3.384  0.00  0.00    -0.004 A 
ATOM      4  C2  UNL d   1       5.238   5.234   2.305  0.00  0.00    -0.047 A 
ATOM      5  C3  UNL d   1       4.138   5.968   2.808  0.00  0.00    -0.047 A 
ATOM      6  C4  UNL d   1       4.259   6.000   4.181  0.00  0.00    -0.004 A 
ENDROOT
TORSDOF 0
ENDMDL
