MODEL 1
REMARK minimizedAffinity 0.117792748
REMARK minimizedRMSD -1
REMARK  0 active torsions:
REMARK  status: ('A' for Active; 'I' for Inactive)
ROOT
ATOM      1  C   UNL d   1      -3.038   0.084   3.105  0.00  0.00     0.172 C 
ATOM      2  N   UNL d   1      -2.581  -0.307   1.791  0.00  0.00    -0.070 N 
ATOM      3  C1  UNL d   1      -3.103  -1.321   1.034  0.00  0.00    -0.004 A 
ATOM      4  C2  UNL d   1      -2.395  -1.373  -0.147  0.00  0.00    -0.047 A 
ATOM      5  C3  UNL d   1      -1.414  -0.354  -0.098  0.00  0.00    -0.047 A 
ATOM      6  C4  UNL d   1      -1.552   0.290   1.113  0.00  0.00    -0.004 A 
ENDROOT
TORSDOF 0
ENDMDL
