MODEL 1
REMARK minimizedAffinity 0.876143813
REMARK minimizedRMSD -1
REMARK  0 active torsions:
REMARK  status: ('A' for Active; 'I' for Inactive)
ROOT
ATOM      1  C   UNL d   1      -4.949   5.972   4.346  0.00  0.00     0.172 C 
ATOM      2  N   UNL d   1      -3.554   5.979   4.719  0.00  0.00    -0.070 N 
ATOM      3  C1  UNL d   1      -3.070   5.997   6.000  0.00  0.00    -0.004 A 
ATOM      4  C2  UNL d   1      -1.693   5.998   5.931  0.00  0.00    -0.047 A 
ATOM      5  C3  UNL d   1      -1.338   5.982   4.561  0.00  0.00    -0.047 A 
ATOM      6  C4  UNL d   1      -2.509   5.970   3.833  0.00  0.00    -0.004 A 
ENDROOT
TORSDOF 0
ENDMDL
