MODEL 1
REMARK minimizedAffinity -2.77915287
REMARK minimizedRMSD -1
REMARK  0 active torsions:
REMARK  status: ('A' for Active; 'I' for Inactive)
ROOT
ATOM      1  C   UNL d   1       5.993  -2.631   6.000  0.00  0.00     0.172 C 
ATOM      2  N   UNL d   1       5.210  -3.764   5.564  0.00  0.00    -0.070 N 
ATOM      3  C1  UNL d   1       5.394  -5.061   5.961  0.00  0.00    -0.004 A 
ATOM      4  C2  UNL d   1       4.449  -5.836   5.324  0.00  0.00    -0.047 A 
ATOM      5  C3  UNL d   1       3.670  -4.974   4.516  0.00  0.00    -0.047 A 
ATOM      6  C4  UNL d   1       4.163  -3.697   4.684  0.00  0.00    -0.004 A 
ENDROOT
TORSDOF 0
ENDMDL
