MODEL 1
REMARK minimizedAffinity 0.0425914563
REMARK minimizedRMSD -1
REMARK  0 active torsions:
REMARK  status: ('A' for Active; 'I' for Inactive)
ROOT
ATOM      1  C   UNL d   1       4.830   4.962   0.680  0.00  0.00     0.172 C 
ATOM      2  N   UNL d   1       5.119   5.028   2.093  0.00  0.00    -0.070 N 
ATOM      3  C1  UNL d   1       5.889   4.137   2.792  0.00  0.00    -0.004 A 
ATOM      4  C2  UNL d   1       5.920   4.548   4.107  0.00  0.00    -0.047 A 
ATOM      5  C3  UNL d   1       5.141   5.726   4.202  0.00  0.00    -0.047 A 
ATOM      6  C4  UNL d   1       4.656   6.000   2.940  0.00  0.00    -0.004 A 
ENDROOT
TORSDOF 0
ENDMDL
