MODEL 1
REMARK minimizedAffinity 5.44325304
REMARK minimizedRMSD -1
REMARK  0 active torsions:
REMARK  status: ('A' for Active; 'I' for Inactive)
ROOT
ATOM      1  C   UNL d   1       4.548   4.419   2.678  0.00  0.00     0.172 C 
ATOM      2  N   UNL d   1       4.992   4.818   3.992  0.00  0.00    -0.070 N 
ATOM      3  C1  UNL d   1       4.683   5.998   4.615  0.00  0.00    -0.004 A 
ATOM      4  C2  UNL d   1       5.297   5.997   5.849  0.00  0.00    -0.047 A 
ATOM      5  C3  UNL d   1       6.000   4.775   5.972  0.00  0.00    -0.047 A 
ATOM      6  C4  UNL d   1       5.794   4.064   4.808  0.00  0.00    -0.004 A 
ENDROOT
TORSDOF 0
ENDMDL
