MODEL 1
REMARK minimizedAffinity 8.19871807
REMARK minimizedRMSD -1
REMARK  0 active torsions:
REMARK  status: ('A' for Active; 'I' for Inactive)
ROOT
ATOM      1  C   UNL d   1      -2.450  -1.521  -0.146  0.00  0.00     0.172 C 
ATOM      2  N   UNL d   1      -3.894  -1.534  -0.140  0.00  0.00    -0.070 N 
ATOM      3  C1  UNL d   1      -4.685  -1.909   0.913  0.00  0.00    -0.004 A 
ATOM      4  C2  UNL d   1      -6.000  -1.780   0.520  0.00  0.00    -0.047 A 
ATOM      5  C3  UNL d   1      -5.999  -1.313  -0.816  0.00  0.00    -0.047 A 
ATOM      6  C4  UNL d   1      -4.682  -1.169  -1.200  0.00  0.00    -0.004 A 
ENDROOT
TORSDOF 0
ENDMDL
