MODEL 1
REMARK minimizedAffinity 5.93366098
REMARK minimizedRMSD -1
REMARK  0 active torsions:
REMARK  status: ('A' for Active; 'I' for Inactive)
ROOT
ATOM      1  C   UNL d   1      -2.242  -0.912  -0.091  0.00  0.00     0.172 C 
ATOM      2  N   UNL d   1      -2.221  -0.291   1.212  0.00  0.00    -0.070 N 
ATOM      3  C1  UNL d   1      -3.314  -0.056   2.003  0.00  0.00    -0.004 A 
ATOM      4  C2  UNL d   1      -2.875   0.549   3.161  0.00  0.00    -0.047 A 
ATOM      5  C3  UNL d   1      -1.470   0.683   3.063  0.00  0.00    -0.047 A 
ATOM      6  C4  UNL d   1      -1.091   0.154   1.847  0.00  0.00    -0.004 A 
ENDROOT
TORSDOF 0
ENDMDL
