MODEL 1
REMARK minimizedAffinity 3.40188789
REMARK minimizedRMSD -1
REMARK  0 active torsions:
REMARK  status: ('A' for Active; 'I' for Inactive)
ROOT
ATOM      1  C   UNL d   1      -1.867   1.226   3.098  0.00  0.00     0.172 C 
ATOM      2  N   UNL d   1      -2.125   0.747   1.760  0.00  0.00    -0.070 N 
ATOM      3  C1  UNL d   1      -2.406   1.530   0.672  0.00  0.00    -0.004 A 
ATOM      4  C2  UNL d   1      -2.587   0.697  -0.411  0.00  0.00    -0.047 A 
ATOM      5  C3  UNL d   1      -2.409  -0.632   0.042  0.00  0.00    -0.047 A 
ATOM      6  C4  UNL d   1      -2.124  -0.572   1.389  0.00  0.00    -0.004 A 
ENDROOT
TORSDOF 0
ENDMDL
