MODEL 1
REMARK minimizedAffinity 2.93242431
REMARK minimizedRMSD -1
REMARK  0 active torsions:
REMARK  status: ('A' for Active; 'I' for Inactive)
ROOT
ATOM      1  C   UNL d   1      -2.370  -0.650  -0.078  0.00  0.00     0.172 C 
ATOM      2  N   UNL d   1      -2.250  -0.096   1.250  0.00  0.00    -0.070 N 
ATOM      3  C1  UNL d   1      -3.181  -0.204   2.248  0.00  0.00    -0.004 A 
ATOM      4  C2  UNL d   1      -2.694   0.457   3.355  0.00  0.00    -0.047 A 
ATOM      5  C3  UNL d   1      -1.425   0.981   3.010  0.00  0.00    -0.047 A 
ATOM      6  C4  UNL d   1      -1.175   0.625   1.702  0.00  0.00    -0.004 A 
ENDROOT
TORSDOF 0
ENDMDL
