MODEL 1
REMARK minimizedAffinity 7.66729021
REMARK minimizedRMSD -1
REMARK  0 active torsions:
REMARK  status: ('A' for Active; 'I' for Inactive)
ROOT
ATOM      1  C   UNL d   1      -2.486  -0.399  -0.129  0.00  0.00     0.172 C 
ATOM      2  N   UNL d   1      -2.686   0.269   1.135  0.00  0.00    -0.070 N 
ATOM      3  C1  UNL d   1      -3.676   1.174   1.413  0.00  0.00    -0.004 A 
ATOM      4  C2  UNL d   1      -3.524   1.578   2.722  0.00  0.00    -0.047 A 
ATOM      5  C3  UNL d   1      -2.404   0.892   3.249  0.00  0.00    -0.047 A 
ATOM      6  C4  UNL d   1      -1.904   0.089   2.246  0.00  0.00    -0.004 A 
ENDROOT
TORSDOF 0
ENDMDL
