MODEL 1
REMARK minimizedAffinity -0.383987844
REMARK minimizedRMSD -1
REMARK  0 active torsions:
REMARK  status: ('A' for Active; 'I' for Inactive)
ROOT
ATOM      1  C   UNL d   1       6.000   5.725   3.711  0.00  0.00     0.172 C 
ATOM      2  N   UNL d   1       5.369   5.672   2.412  0.00  0.00    -0.070 N 
ATOM      3  C1  UNL d   1       4.060   5.974   2.148  0.00  0.00    -0.004 A 
ATOM      4  C2  UNL d   1       3.851   5.800   0.797  0.00  0.00    -0.047 A 
ATOM      5  C3  UNL d   1       5.078   5.378   0.230  0.00  0.00    -0.047 A 
ATOM      6  C4  UNL d   1       6.000   5.308   1.252  0.00  0.00    -0.004 A 
ENDROOT
TORSDOF 0
ENDMDL
