MODEL 1
REMARK minimizedAffinity 3.46489549
REMARK minimizedRMSD -1
REMARK  0 active torsions:
REMARK  status: ('A' for Active; 'I' for Inactive)
ROOT
ATOM      1  C   UNL d   1       6.000   4.844  -0.284  0.00  0.00     0.172 C 
ATOM      2  N   UNL d   1       5.073   5.314   0.718  0.00  0.00    -0.070 N 
ATOM      3  C1  UNL d   1       5.376   5.571   2.029  0.00  0.00    -0.004 A 
ATOM      4  C2  UNL d   1       4.224   5.999   2.653  0.00  0.00    -0.047 A 
ATOM      5  C3  UNL d   1       3.193   6.000   1.684  0.00  0.00    -0.047 A 
ATOM      6  C4  UNL d   1       3.746   5.571   0.495  0.00  0.00    -0.004 A 
ENDROOT
TORSDOF 0
ENDMDL
