MODEL 1
REMARK minimizedAffinity 2.26378417
REMARK minimizedRMSD -1
REMARK  1 active torsions:
REMARK  status: ('A' for Active; 'I' for Inactive)
REMARK    1  A    between atoms: N_2  and  C1_3 
ROOT
ATOM      1  C1  UNL d   1      -0.742  -0.013   1.530  0.00  0.00     0.143 A 
ATOM      2  C2  UNL d   1      -1.909  -0.087   2.299  0.00  0.00    -0.057 A 
ATOM      3  C3  UNL d   1      -1.877  -0.533   3.626  0.00  0.00     0.033 A 
ATOM      4  C4  UNL d   1      -0.678  -0.942   4.200  0.00  0.00    -0.042 A 
ATOM      5  C5  UNL d   1       0.490  -0.900   3.446  0.00  0.00     0.033 A 
ATOM      6  C6  UNL d   1       0.453  -0.447   2.124  0.00  0.00    -0.057 A 
ENDROOT
BRANCH   1   7
ATOM      7  N   UNL d   1      -0.724   0.328   0.176  0.00  0.00    -0.732 N 
ATOM      8  C   UNL d   1      -1.599  -0.338  -0.765  0.00  0.00     0.284 C 
ATOM      9  H3  UNL d   1      -0.643   1.332   0.029  0.00  0.00     0.395 HD
ENDBRANCH   1   7
TORSDOF 1
ENDMDL
