MODEL 1
REMARK minimizedAffinity 1.24305427
REMARK minimizedRMSD -1
REMARK  1 active torsions:
REMARK  status: ('A' for Active; 'I' for Inactive)
REMARK    1  A    between atoms: N_2  and  C1_3 
ROOT
ATOM      1  C1  UNL d   1       0.273   0.017   1.465  0.00  0.00     0.143 A 
ATOM      2  C2  UNL d   1      -0.885   0.646   0.994  0.00  0.00    -0.057 A 
ATOM      3  C3  UNL d   1      -2.070   0.635   1.739  0.00  0.00     0.033 A 
ATOM      4  C4  UNL d   1      -2.127  -0.032   2.958  0.00  0.00    -0.042 A 
ATOM      5  C5  UNL d   1      -0.996  -0.686   3.433  0.00  0.00     0.033 A 
ATOM      6  C6  UNL d   1       0.187  -0.666   2.688  0.00  0.00    -0.057 A 
ENDROOT
BRANCH   1   7
ATOM      7  N   UNL d   1       1.454  -0.091   0.726  0.00  0.00    -0.732 N 
ATOM      8  C   UNL d   1       2.137   1.092   0.249  0.00  0.00     0.284 C 
ATOM      9  H3  UNL d   1       2.075  -0.811   1.089  0.00  0.00     0.395 HD
ENDBRANCH   1   7
TORSDOF 1
ENDMDL
