MODEL 1
REMARK minimizedAffinity 1.96236122
REMARK minimizedRMSD -1
REMARK  1 active torsions:
REMARK  status: ('A' for Active; 'I' for Inactive)
REMARK    1  A    between atoms: N_2  and  C1_3 
ROOT
ATOM      1  C1  UNL d   1      -2.258  -0.185   2.423  0.00  0.00     0.143 A 
ATOM      2  C2  UNL d   1      -3.311  -0.769   3.135  0.00  0.00    -0.057 A 
ATOM      3  C3  UNL d   1      -3.070  -1.605   4.233  0.00  0.00     0.033 A 
ATOM      4  C4  UNL d   1      -1.766  -1.894   4.621  0.00  0.00    -0.042 A 
ATOM      5  C5  UNL d   1      -0.704  -1.345   3.912  0.00  0.00     0.033 A 
ATOM      6  C6  UNL d   1      -0.951  -0.506   2.821  0.00  0.00    -0.057 A 
ENDROOT
BRANCH   1   7
ATOM      7  N   UNL d   1      -2.431   0.575   1.263  0.00  0.00    -0.732 N 
ATOM      8  C   UNL d   1      -2.506  -0.065  -0.033  0.00  0.00     0.284 C 
ATOM      9  H3  UNL d   1      -3.096   1.334   1.392  0.00  0.00     0.395 HD
ENDBRANCH   1   7
TORSDOF 1
ENDMDL
