MODEL 1
REMARK minimizedAffinity 0.10424643
REMARK minimizedRMSD -1
REMARK  1 active torsions:
REMARK  status: ('A' for Active; 'I' for Inactive)
REMARK    1  A    between atoms: N_2  and  C1_3 
ROOT
ATOM      1  C1  UNL d   1      -0.485  -0.385   2.962  0.00  0.00     0.143 A 
ATOM      2  C2  UNL d   1      -0.039  -0.385   1.636  0.00  0.00    -0.057 A 
ATOM      3  C3  UNL d   1      -0.812   0.172   0.610  0.00  0.00     0.033 A 
ATOM      4  C4  UNL d   1      -2.062   0.715   0.889  0.00  0.00    -0.042 A 
ATOM      5  C5  UNL d   1      -2.537   0.704   2.196  0.00  0.00     0.033 A 
ATOM      6  C6  UNL d   1      -1.757   0.152   3.218  0.00  0.00    -0.057 A 
ENDROOT
BRANCH   1   7
ATOM      7  N   UNL d   1       0.193  -1.011   4.011  0.00  0.00    -0.732 N 
ATOM      8  C   UNL d   1       1.605  -1.307   3.903  0.00  0.00     0.284 C 
ATOM      9  H3  UNL d   1      -0.089  -0.657   4.922  0.00  0.00     0.395 HD
ENDBRANCH   1   7
TORSDOF 1
ENDMDL
