MODEL 1
REMARK minimizedAffinity 6.18825626
REMARK minimizedRMSD -1
REMARK  1 active torsions:
REMARK  status: ('A' for Active; 'I' for Inactive)
REMARK    1  A    between atoms: N_2  and  C1_3 
ROOT
ATOM      1  C1  UNL d   1      -1.806  -0.101   2.243  0.00  0.00     0.143 A 
ATOM      2  C2  UNL d   1      -2.861  -0.731   2.912  0.00  0.00    -0.057 A 
ATOM      3  C3  UNL d   1      -2.633  -1.526   4.041  0.00  0.00     0.033 A 
ATOM      4  C4  UNL d   1      -1.339  -1.729   4.507  0.00  0.00    -0.042 A 
ATOM      5  C5  UNL d   1      -0.272  -1.133   3.844  0.00  0.00     0.033 A 
ATOM      6  C6  UNL d   1      -0.506  -0.334   2.720  0.00  0.00    -0.057 A 
ENDROOT
BRANCH   1   7
ATOM      7  N   UNL d   1      -1.957   0.621   1.057  0.00  0.00    -0.732 N 
ATOM      8  C   UNL d   1      -2.186  -0.062  -0.198  0.00  0.00     0.284 C 
ATOM      9  H3  UNL d   1      -2.519   1.461   1.182  0.00  0.00     0.395 HD
ENDBRANCH   1   7
TORSDOF 1
ENDMDL
