MODEL 1
REMARK minimizedAffinity -0.918733597
REMARK minimizedRMSD -1
REMARK  1 active torsions:
REMARK  status: ('A' for Active; 'I' for Inactive)
REMARK    1  A    between atoms: N_2  and  C1_3 
ROOT
ATOM      1  C1  UNL d   1       0.061  -1.432   3.724  0.00  0.00     0.143 A 
ATOM      2  C2  UNL d   1      -1.298  -1.098   3.749  0.00  0.00    -0.057 A 
ATOM      3  C3  UNL d   1      -1.922  -0.513   2.640  0.00  0.00     0.033 A 
ATOM      4  C4  UNL d   1      -1.189  -0.223   1.494  0.00  0.00    -0.042 A 
ATOM      5  C5  UNL d   1       0.168  -0.523   1.456  0.00  0.00     0.033 A 
ATOM      6  C6  UNL d   1       0.784  -1.113   2.563  0.00  0.00    -0.057 A 
ENDROOT
BRANCH   1   7
ATOM      7  N   UNL d   1       0.761  -1.925   4.827  0.00  0.00    -0.732 N 
ATOM      8  C   UNL d   1       2.199  -2.076   4.780  0.00  0.00     0.284 C 
ATOM      9  H3  UNL d   1       0.411  -1.552   5.707  0.00  0.00     0.395 HD
ENDBRANCH   1   7
TORSDOF 1
ENDMDL
