MODEL 1
REMARK minimizedAffinity -2.67635322
REMARK minimizedRMSD -1
REMARK  0 active torsions:
REMARK  status: ('A' for Active; 'I' for Inactive)
ROOT
ATOM      1  C   UNL d   1       1.095  -0.864   2.592  0.00  0.00     0.020 A 
ATOM      2  C1  UNL d   1       1.937  -0.334   1.615  0.00  0.00     0.020 A 
ATOM      3  C2  UNL d   1       1.396   0.214   0.450  0.00  0.00     0.034 A 
ATOM      4  C3  UNL d   1       0.010   0.234   0.259  0.00  0.00     0.017 A 
ATOM      5  C4  UNL d   1      -0.834  -0.298   1.240  0.00  0.00     0.017 A 
ATOM      6  C5  UNL d   1      -0.288  -0.846   2.404  0.00  0.00     0.034 A 
ATOM      7 Cl   UNL d   1      -2.555  -0.310   1.075  0.00  0.00    -0.070 Cl
ATOM      8 Cl1  UNL d   1      -0.589   0.928  -1.206  0.00  0.00    -0.070 Cl
ENDROOT
TORSDOF 0
ENDMDL
