MODEL 1
REMARK minimizedAffinity -3.23179674
REMARK minimizedRMSD -1
REMARK  0 active torsions:
REMARK  status: ('A' for Active; 'I' for Inactive)
ROOT
ATOM      1  C   UNL d   1      -1.429   0.115   0.355  0.00  0.00     0.020 A 
ATOM      2  C1  UNL d   1      -0.870   0.062  -0.922  0.00  0.00     0.020 A 
ATOM      3  C2  UNL d   1       0.459  -0.333  -1.086  0.00  0.00     0.034 A 
ATOM      4  C3  UNL d   1       1.234  -0.676   0.028  0.00  0.00     0.017 A 
ATOM      5  C4  UNL d   1       0.672  -0.623   1.309  0.00  0.00     0.017 A 
ATOM      6  C5  UNL d   1      -0.660  -0.227   1.467  0.00  0.00     0.034 A 
ATOM      7 Cl   UNL d   1       1.565  -1.033   2.731  0.00  0.00    -0.070 Cl
ATOM      8 Cl1  UNL d   1       2.871  -1.156  -0.249  0.00  0.00    -0.070 Cl
ENDROOT
TORSDOF 0
ENDMDL
