MODEL 1
REMARK minimizedAffinity -1.41800928
REMARK minimizedRMSD -1
REMARK  0 active torsions:
REMARK  status: ('A' for Active; 'I' for Inactive)
ROOT
ATOM      1  C   UNL d   1      -0.379  -0.897  -0.337  0.00  0.00     0.020 A 
ATOM      2  C1  UNL d   1       0.759  -0.093  -0.375  0.00  0.00     0.020 A 
ATOM      3  C2  UNL d   1       0.716   1.150  -1.011  0.00  0.00     0.034 A 
ATOM      4  C3  UNL d   1      -0.468   1.592  -1.612  0.00  0.00     0.017 A 
ATOM      5  C4  UNL d   1      -1.611   0.785  -1.573  0.00  0.00     0.017 A 
ATOM      6  C5  UNL d   1      -1.562  -0.459  -0.935  0.00  0.00     0.034 A 
ATOM      7 Cl   UNL d   1      -3.108   1.262  -2.292  0.00  0.00    -0.070 Cl
ATOM      8 Cl1  UNL d   1      -0.450   3.140  -2.380  0.00  0.00    -0.070 Cl
ENDROOT
TORSDOF 0
ENDMDL
