MODEL 1
REMARK minimizedAffinity -1.49816716
REMARK minimizedRMSD -1
REMARK  0 active torsions:
REMARK  status: ('A' for Active; 'I' for Inactive)
ROOT
ATOM      1  C   UNL d   1      -0.002  -1.207   2.656  0.00  0.00     0.020 A 
ATOM      2  C1  UNL d   1      -1.070  -0.415   2.236  0.00  0.00     0.020 A 
ATOM      3  C2  UNL d   1      -1.145   0.008   0.907  0.00  0.00     0.034 A 
ATOM      4  C3  UNL d   1      -0.151  -0.362  -0.006  0.00  0.00     0.017 A 
ATOM      5  C4  UNL d   1       0.920  -1.157   0.417  0.00  0.00     0.017 A 
ATOM      6  C5  UNL d   1       0.991  -1.577   1.749  0.00  0.00     0.034 A 
ATOM      7 Cl   UNL d   1       2.185  -1.653  -0.652  0.00  0.00    -0.070 Cl
ATOM      8 Cl1  UNL d   1      -0.308   0.196  -1.634  0.00  0.00    -0.070 Cl
ENDROOT
TORSDOF 0
ENDMDL
