MODEL 1
REMARK minimizedAffinity -4.240695
REMARK minimizedRMSD -1
REMARK  0 active torsions:
REMARK  status: ('A' for Active; 'I' for Inactive)
ROOT
ATOM      1  C   UNL d   1      -1.030   0.154   1.222  0.00  0.00     0.020 A 
ATOM      2  C1  UNL d   1      -0.397  -0.329   2.366  0.00  0.00     0.020 A 
ATOM      3  C2  UNL d   1       0.699  -1.187   2.248  0.00  0.00     0.034 A 
ATOM      4  C3  UNL d   1       1.165  -1.564   0.983  0.00  0.00     0.017 A 
ATOM      5  C4  UNL d   1       0.528  -1.079  -0.165  0.00  0.00     0.017 A 
ATOM      6  C5  UNL d   1      -0.569  -0.220  -0.041  0.00  0.00     0.034 A 
ATOM      7 Cl   UNL d   1       1.045  -1.500  -1.760  0.00  0.00    -0.070 Cl
ATOM      8 Cl1  UNL d   1       2.525  -2.628   0.912  0.00  0.00    -0.070 Cl
ENDROOT
TORSDOF 0
ENDMDL
