MODEL 1
REMARK minimizedAffinity -2.52650499
REMARK minimizedRMSD -1
REMARK  0 active torsions:
REMARK  status: ('A' for Active; 'I' for Inactive)
ROOT
ATOM      1  C   UNL d   1       1.659  -0.404  -0.508  0.00  0.00     0.020 A 
ATOM      2  C1  UNL d   1       2.343  -1.134   0.463  0.00  0.00     0.020 A 
ATOM      3  C2  UNL d   1       1.647  -1.696   1.535  0.00  0.00     0.034 A 
ATOM      4  C3  UNL d   1       0.261  -1.529   1.638  0.00  0.00     0.017 A 
ATOM      5  C4  UNL d   1      -0.426  -0.797   0.663  0.00  0.00     0.017 A 
ATOM      6  C5  UNL d   1       0.277  -0.236  -0.408  0.00  0.00     0.034 A 
ATOM      7 Cl   UNL d   1      -2.135  -0.549   0.723  0.00  0.00    -0.070 Cl
ATOM      8 Cl1  UNL d   1      -0.537  -2.253   2.990  0.00  0.00    -0.070 Cl
ENDROOT
TORSDOF 0
ENDMDL
