MODEL 1
REMARK minimizedAffinity -4.30118704
REMARK minimizedRMSD -1
REMARK  0 active torsions:
REMARK  status: ('A' for Active; 'I' for Inactive)
ROOT
ATOM      1  C   UNL d   1       1.310  -0.468   2.668  0.00  0.00     0.020 A 
ATOM      2  C1  UNL d   1       2.383  -0.454   1.777  0.00  0.00     0.020 A 
ATOM      3  C2  UNL d   1       2.172  -0.727   0.424  0.00  0.00     0.034 A 
ATOM      4  C3  UNL d   1       0.884  -1.015  -0.042  0.00  0.00     0.017 A 
ATOM      5  C4  UNL d   1      -0.192  -1.029   0.852  0.00  0.00     0.017 A 
ATOM      6  C5  UNL d   1       0.025  -0.755   2.206  0.00  0.00     0.034 A 
ATOM      7 Cl   UNL d   1      -1.810  -1.376   0.350  0.00  0.00    -0.070 Cl
ATOM      8 Cl1  UNL d   1       0.695  -1.343  -1.728  0.00  0.00    -0.070 Cl
ENDROOT
TORSDOF 0
ENDMDL
