MODEL 1
REMARK minimizedAffinity -0.437876135
REMARK minimizedRMSD -1
REMARK  0 active torsions:
REMARK  status: ('A' for Active; 'I' for Inactive)
ROOT
ATOM      1  C4' PXY d   1       0.604   3.269   1.682  0.00  0.00     0.077 C 
ATOM      2  C1' PXY d   1       3.013  -1.759   0.157  0.00  0.00     0.077 C 
ATOM      3  C1  PXY d   1       2.377  -0.439   0.545  0.00  0.00    -0.082 A 
ATOM      4  C2  PXY d   1       2.862   0.245   1.568  0.00  0.00     0.003 A 
ATOM      5  C3  PXY d   1       2.278   1.425   1.953  0.00  0.00     0.003 A 
ATOM      6  C4  PXY d   1       1.221   1.936   1.249  0.00  0.00    -0.082 A 
ATOM      7  C5  PXY d   1       0.727   1.250   0.197  0.00  0.00     0.003 A 
ATOM      8  C6  PXY d   1       1.307   0.033  -0.151  0.00  0.00     0.003 A 
ENDROOT
TORSDOF 0
ENDMDL
