MODEL 1
REMARK minimizedAffinity 1.21783328
REMARK minimizedRMSD -1
REMARK  0 active torsions:
REMARK  status: ('A' for Active; 'I' for Inactive)
ROOT
ATOM      1  C4' PXY d   1       1.073   2.498   0.544  0.00  0.00     0.077 C 
ATOM      2  C1' PXY d   1      -0.500  -2.690  -1.462  0.00  0.00     0.077 C 
ATOM      3  C1  PXY d   1      -0.079  -1.335  -0.928  0.00  0.00    -0.082 A 
ATOM      4  C2  PXY d   1      -0.900  -0.303  -1.042  0.00  0.00     0.003 A 
ATOM      5  C3  PXY d   1      -0.522   0.936  -0.593  0.00  0.00     0.003 A 
ATOM      6  C4  PXY d   1       0.686   1.110   0.027  0.00  0.00    -0.082 A 
ATOM      7  C5  PXY d   1       1.524   0.059   0.157  0.00  0.00     0.003 A 
ATOM      8  C6  PXY d   1       1.139  -1.181  -0.342  0.00  0.00     0.003 A 
ENDROOT
TORSDOF 0
ENDMDL
