MODEL 1
REMARK minimizedAffinity 6.76453686
REMARK minimizedRMSD -1
REMARK  0 active torsions:
REMARK  status: ('A' for Active; 'I' for Inactive)
ROOT
ATOM      1  C4' PXY d   1      -1.671  -3.077  -4.367  0.00  0.00     0.077 C 
ATOM      2  C1' PXY d   1       0.149  -0.944   0.687  0.00  0.00     0.077 C 
ATOM      3  C1  PXY d   1      -0.338  -1.495  -0.638  0.00  0.00    -0.082 A 
ATOM      4  C2  PXY d   1      -0.046  -2.740  -0.976  0.00  0.00     0.003 A 
ATOM      5  C3  PXY d   1      -0.451  -3.244  -2.185  0.00  0.00     0.003 A 
ATOM      6  C4  PXY d   1      -1.209  -2.482  -3.035  0.00  0.00    -0.082 A 
ATOM      7  C5  PXY d   1      -1.520  -1.214  -2.692  0.00  0.00     0.003 A 
ATOM      8  C6  PXY d   1      -1.064  -0.708  -1.479  0.00  0.00     0.003 A 
ENDROOT
TORSDOF 0
ENDMDL
