MODEL 1
REMARK minimizedAffinity 3.16498613
REMARK minimizedRMSD -1
REMARK  0 active torsions:
REMARK  status: ('A' for Active; 'I' for Inactive)
ROOT
ATOM      1  C4' PXY d   1       1.102  -2.208  -0.582  0.00  0.00     0.077 C 
ATOM      2  C1' PXY d   1       4.101   2.694   0.050  0.00  0.00     0.077 C 
ATOM      3  C1  PXY d   1       3.309   1.410  -0.104  0.00  0.00    -0.082 A 
ATOM      4  C2  PXY d   1       3.746   0.466  -0.922  0.00  0.00     0.003 A 
ATOM      5  C3  PXY d   1       3.025  -0.687  -1.098  0.00  0.00     0.003 A 
ATOM      6  C4  PXY d   1       1.874  -0.900  -0.388  0.00  0.00    -0.082 A 
ATOM      7  C5  PXY d   1       1.427   0.054   0.456  0.00  0.00     0.003 A 
ATOM      8  C6  PXY d   1       2.151   1.235   0.589  0.00  0.00     0.003 A 
ENDROOT
TORSDOF 0
ENDMDL
