MODEL 1
REMARK minimizedAffinity 3.02105474
REMARK minimizedRMSD -1
REMARK  0 active torsions:
REMARK  status: ('A' for Active; 'I' for Inactive)
ROOT
ATOM      1  C4' PXY d   1       4.343   0.712  -1.010  0.00  0.00     0.077 C 
ATOM      2  C1' PXY d   1      -0.113  -2.811   0.059  0.00  0.00     0.077 C 
ATOM      3  C1  PXY d   1       1.064  -1.897  -0.219  0.00  0.00    -0.082 A 
ATOM      4  C2  PXY d   1       0.931  -0.591  -0.053  0.00  0.00     0.003 A 
ATOM      5  C3  PXY d   1       1.975   0.253  -0.331  0.00  0.00     0.003 A 
ATOM      6  C4  PXY d   1       3.184  -0.249  -0.732  0.00  0.00    -0.082 A 
ATOM      7  C5  PXY d   1       3.331  -1.581  -0.893  0.00  0.00     0.003 A 
ATOM      8  C6  PXY d   1       2.246  -2.418  -0.645  0.00  0.00     0.003 A 
ENDROOT
TORSDOF 0
ENDMDL
