MODEL 1
REMARK minimizedAffinity 9.20200253
REMARK minimizedRMSD -1
REMARK  0 active torsions:
REMARK  status: ('A' for Active; 'I' for Inactive)
ROOT
ATOM      1  C4' PXY d   1       1.113  -0.225   0.219  0.00  0.00     0.077 C 
ATOM      2  C1' PXY d   1       1.245  -0.057   5.995  0.00  0.00     0.077 C 
ATOM      3  C1  PXY d   1       1.204  -0.089   4.480  0.00  0.00    -0.082 A 
ATOM      4  C2  PXY d   1       1.277  -1.250   3.849  0.00  0.00     0.003 A 
ATOM      5  C3  PXY d   1       1.273  -1.295   2.478  0.00  0.00     0.003 A 
ATOM      6  C4  PXY d   1       1.141  -0.145   1.748  0.00  0.00    -0.082 A 
ATOM      7  C5  PXY d   1       1.055   1.042   2.385  0.00  0.00     0.003 A 
ATOM      8  C6  PXY d   1       1.102   1.070   3.776  0.00  0.00     0.003 A 
ENDROOT
TORSDOF 0
ENDMDL
