MODEL 1
REMARK minimizedAffinity -3.1890521
REMARK minimizedRMSD -1
REMARK  0 active torsions:
REMARK  status: ('A' for Active; 'I' for Inactive)
ROOT
ATOM      1  C4' PXY d   1       1.854   1.105   1.151  0.00  0.00     0.077 C 
ATOM      2  C1' PXY d   1       3.305  -2.946  -2.708  0.00  0.00     0.077 C 
ATOM      3  C1  PXY d   1       2.912  -1.889  -1.696  0.00  0.00    -0.082 A 
ATOM      4  C2  PXY d   1       3.592  -0.755  -1.638  0.00  0.00     0.003 A 
ATOM      5  C3  PXY d   1       3.270   0.199  -0.707  0.00  0.00     0.003 A 
ATOM      6  C4  PXY d   1       2.209   0.013   0.138  0.00  0.00    -0.082 A 
ATOM      7  C5  PXY d   1       1.505  -1.137   0.078  0.00  0.00     0.003 A 
ATOM      8  C6  PXY d   1       1.873  -2.110  -0.847  0.00  0.00     0.003 A 
ENDROOT
TORSDOF 0
ENDMDL
