MODEL 1
REMARK minimizedAffinity 3.65678501
REMARK minimizedRMSD -1
REMARK  0 active torsions:
REMARK  status: ('A' for Active; 'I' for Inactive)
ROOT
ATOM      1  C4' PXY d   1       1.523   1.787   0.047  0.00  0.00     0.077 C 
ATOM      2  C1' PXY d   1      -0.827  -3.217  -1.641  0.00  0.00     0.077 C 
ATOM      3  C1  PXY d   1      -0.218  -1.898  -1.208  0.00  0.00    -0.082 A 
ATOM      4  C2  PXY d   1       0.962  -1.888  -0.609  0.00  0.00     0.003 A 
ATOM      5  C3  PXY d   1       1.513  -0.708  -0.182  0.00  0.00     0.003 A 
ATOM      6  C4  PXY d   1       0.874   0.480  -0.417  0.00  0.00    -0.082 A 
ATOM      7  C5  PXY d   1      -0.325   0.479  -1.036  0.00  0.00     0.003 A 
ATOM      8  C6  PXY d   1      -0.887  -0.733  -1.425  0.00  0.00     0.003 A 
ENDROOT
TORSDOF 0
ENDMDL
