MODEL 1
REMARK minimizedAffinity -2.64321399
REMARK minimizedRMSD -1
REMARK  0 active torsions:
REMARK  status: ('A' for Active; 'I' for Inactive)
ROOT
ATOM      1  C4' PXY d   1      -1.949   0.759   0.380  0.00  0.00     0.077 C 
ATOM      2  C1' PXY d   1       3.363  -1.396  -0.365  0.00  0.00     0.077 C 
ATOM      3  C1  PXY d   1       1.975  -0.819  -0.166  0.00  0.00    -0.082 A 
ATOM      4  C2  PXY d   1       0.954  -1.633   0.050  0.00  0.00     0.003 A 
ATOM      5  C3  PXY d   1      -0.313  -1.130   0.200  0.00  0.00     0.003 A 
ATOM      6  C4  PXY d   1      -0.529   0.222   0.182  0.00  0.00    -0.082 A 
ATOM      7  C5  PXY d   1       0.509   1.059  -0.027  0.00  0.00     0.003 A 
ATOM      8  C6  PXY d   1       1.781   0.526  -0.218  0.00  0.00     0.003 A 
ENDROOT
TORSDOF 0
ENDMDL
