MODEL 1
REMARK minimizedAffinity 1.86195338
REMARK minimizedRMSD -1
REMARK  0 active torsions:
REMARK  status: ('A' for Active; 'I' for Inactive)
ROOT
ATOM      1  C4' PXY d   1       3.681  -3.049  -2.721  0.00  0.00     0.077 C 
ATOM      2  C1' PXY d   1      -1.433  -1.581  -0.461  0.00  0.00     0.077 C 
ATOM      3  C1  PXY d   1      -0.086  -1.957  -1.046  0.00  0.00    -0.082 A 
ATOM      4  C2  PXY d   1      -0.028  -2.543  -2.231  0.00  0.00     0.003 A 
ATOM      5  C3  PXY d   1       1.180  -2.919  -2.761  0.00  0.00     0.003 A 
ATOM      6  C4  PXY d   1       2.344  -2.643  -2.095  0.00  0.00    -0.082 A 
ATOM      7  C5  PXY d   1       2.294  -2.035  -0.891  0.00  0.00     0.003 A 
ATOM      8  C6  PXY d   1       1.056  -1.699  -0.352  0.00  0.00     0.003 A 
ENDROOT
TORSDOF 0
ENDMDL
