MODEL 1
REMARK minimizedAffinity -1.18804419
REMARK minimizedRMSD -1
REMARK  0 active torsions:
REMARK  status: ('A' for Active; 'I' for Inactive)
ROOT
ATOM      1  C4' PXY d   1       3.503  -2.602  -2.576  0.00  0.00     0.077 C 
ATOM      2  C1' PXY d   1       0.701   1.514   0.360  0.00  0.00     0.077 C 
ATOM      3  C1  PXY d   1       1.446   0.443  -0.412  0.00  0.00    -0.082 A 
ATOM      4  C2  PXY d   1       0.767  -0.516  -1.020  0.00  0.00     0.003 A 
ATOM      5  C3  PXY d   1       1.427  -1.511  -1.695  0.00  0.00     0.003 A 
ATOM      6  C4  PXY d   1       2.792  -1.494  -1.793  0.00  0.00    -0.082 A 
ATOM      7  C5  PXY d   1       3.491  -0.513  -1.184  0.00  0.00     0.003 A 
ATOM      8  C6  PXY d   1       2.805   0.465  -0.469  0.00  0.00     0.003 A 
ENDROOT
TORSDOF 0
ENDMDL
