MODEL 1
REMARK minimizedAffinity 11.772687
REMARK minimizedRMSD -1
REMARK  0 active torsions:
REMARK  status: ('A' for Active; 'I' for Inactive)
ROOT
ATOM      1  O1  BZF d   1       0.169   1.534  -1.318  0.00  0.00    -0.204 OA
ATOM      2  C2  BZF d   1       0.696   2.444  -0.422  0.00  0.00     0.174 A 
ATOM      3  C3  BZF d   1       1.568   1.843   0.414  0.00  0.00    -0.012 A 
ATOM      4  C3A BZF d   1       1.656   0.491  -0.044  0.00  0.00    -0.107 A 
ATOM      5  C4  BZF d   1       2.373  -0.596   0.369  0.00  0.00     0.055 A 
ATOM      6  C5  BZF d   1       2.176  -1.791  -0.247  0.00  0.00    -0.016 A 
ATOM      7  C6  BZF d   1       1.268  -1.936  -1.276  0.00  0.00     0.022 A 
ATOM      8  C7  BZF d   1       0.538  -0.886  -1.724  0.00  0.00     0.029 A 
ATOM      9  C7A BZF d   1       0.759   0.330  -1.125  0.00  0.00     0.058 A 
ENDROOT
TORSDOF 0
ENDMDL
