MODEL 1
REMARK minimizedAffinity 0.10507118
REMARK minimizedRMSD -1
REMARK  0 active torsions:
REMARK  status: ('A' for Active; 'I' for Inactive)
ROOT
ATOM      1  O1  BZF d   1      -3.870   1.472  -1.512  0.00  0.00    -0.204 OA
ATOM      2  C2  BZF d   1      -5.106   2.082  -1.422  0.00  0.00     0.174 A 
ATOM      3  C3  BZF d   1      -5.542   2.463  -2.640  0.00  0.00    -0.012 A 
ATOM      4  C3A BZF d   1      -4.556   1.983  -3.559  0.00  0.00    -0.107 A 
ATOM      5  C4  BZF d   1      -4.434   2.037  -4.918  0.00  0.00     0.055 A 
ATOM      6  C5  BZF d   1      -3.314   1.536  -5.501  0.00  0.00    -0.016 A 
ATOM      7  C6  BZF d   1      -2.294   0.981  -4.757  0.00  0.00     0.022 A 
ATOM      8  C7  BZF d   1      -2.371   0.901  -3.406  0.00  0.00     0.029 A 
ATOM      9  C7A BZF d   1      -3.517   1.376  -2.816  0.00  0.00     0.058 A 
ENDROOT
TORSDOF 0
ENDMDL
