MODEL 1
REMARK minimizedAffinity 7.02981138
REMARK minimizedRMSD -1
REMARK  0 active torsions:
REMARK  status: ('A' for Active; 'I' for Inactive)
ROOT
ATOM      1  O1  BZF d   1       1.265   0.661  -0.711  0.00  0.00    -0.204 OA
ATOM      2  C2  BZF d   1       1.072   1.798   0.050  0.00  0.00     0.174 A 
ATOM      3  C3  BZF d   1       1.628   1.657   1.271  0.00  0.00    -0.012 A 
ATOM      4  C3A BZF d   1       2.284   0.386   1.241  0.00  0.00    -0.107 A 
ATOM      5  C4  BZF d   1       3.027  -0.308   2.152  0.00  0.00     0.055 A 
ATOM      6  C5  BZF d   1       3.463  -1.556   1.835  0.00  0.00    -0.016 A 
ATOM      7  C6  BZF d   1       3.170  -2.141   0.621  0.00  0.00     0.022 A 
ATOM      8  C7  BZF d   1       2.441  -1.489  -0.317  0.00  0.00     0.029 A 
ATOM      9  C7A BZF d   1       2.027  -0.215  -0.013  0.00  0.00     0.058 A 
ENDROOT
TORSDOF 0
ENDMDL
