MODEL 1
REMARK minimizedAffinity 15.6001472
REMARK minimizedRMSD -1
REMARK  0 active torsions:
REMARK  status: ('A' for Active; 'I' for Inactive)
ROOT
ATOM      1  O1  BZF d   1       2.854  -2.651   0.733  0.00  0.00    -0.204 OA
ATOM      2  C2  BZF d   1       3.260  -1.371   0.407  0.00  0.00     0.174 A 
ATOM      3  C3  BZF d   1       2.510  -0.873  -0.597  0.00  0.00    -0.012 A 
ATOM      4  C3A BZF d   1       1.518  -1.870  -0.857  0.00  0.00    -0.107 A 
ATOM      5  C4  BZF d   1       0.474  -1.949  -1.733  0.00  0.00     0.055 A 
ATOM      6  C5  BZF d   1      -0.261  -3.091  -1.784  0.00  0.00    -0.016 A 
ATOM      7  C6  BZF d   1       0.023  -4.174  -0.977  0.00  0.00     0.022 A 
ATOM      8  C7  BZF d   1       1.046  -4.140  -0.088  0.00  0.00     0.029 A 
ATOM      9  C7A BZF d   1       1.769  -2.975  -0.012  0.00  0.00     0.058 A 
ENDROOT
TORSDOF 0
ENDMDL
