MODEL 1
REMARK minimizedAffinity 11.6739559
REMARK minimizedRMSD -1
REMARK  0 active torsions:
REMARK  status: ('A' for Active; 'I' for Inactive)
ROOT
ATOM      1  O1  BZF d   1      -0.784   1.348  -2.205  0.00  0.00    -0.204 OA
ATOM      2  C2  BZF d   1      -2.127   1.040  -2.310  0.00  0.00     0.174 A 
ATOM      3  C3  BZF d   1      -2.675   0.868  -1.089  0.00  0.00    -0.012 A 
ATOM      4  C3A BZF d   1      -1.629   1.173  -0.161  0.00  0.00    -0.107 A 
ATOM      5  C4  BZF d   1      -1.562   1.198   1.203  0.00  0.00     0.055 A 
ATOM      6  C5  BZF d   1      -0.371   1.465   1.801  0.00  0.00    -0.016 A 
ATOM      7  C6  BZF d   1       0.772   1.706   1.067  0.00  0.00     0.022 A 
ATOM      8  C7  BZF d   1       0.754   1.696  -0.288  0.00  0.00     0.029 A 
ATOM      9  C7A BZF d   1      -0.455   1.459  -0.896  0.00  0.00     0.058 A 
ENDROOT
TORSDOF 0
ENDMDL
