MODEL 1
REMARK minimizedAffinity 5.84425402
REMARK minimizedRMSD -1
REMARK  0 active torsions:
REMARK  status: ('A' for Active; 'I' for Inactive)
ROOT
ATOM      1  O1  BZF d   1       0.996   1.390  -0.652  0.00  0.00    -0.204 OA
ATOM      2  C2  BZF d   1       1.172   2.409   0.264  0.00  0.00     0.174 A 
ATOM      3  C3  BZF d   1       1.929   1.996   1.301  0.00  0.00    -0.012 A 
ATOM      4  C3A BZF d   1       2.322   0.660   0.970  0.00  0.00    -0.107 A 
ATOM      5  C4  BZF d   1       3.094  -0.274   1.599  0.00  0.00     0.055 A 
ATOM      6  C5  BZF d   1       3.222  -1.508   1.044  0.00  0.00    -0.016 A 
ATOM      7  C6  BZF d   1       2.587  -1.843  -0.134  0.00  0.00     0.022 A 
ATOM      8  C7  BZF d   1       1.814  -0.948  -0.797  0.00  0.00     0.029 A 
ATOM      9  C7A BZF d   1       1.711   0.310  -0.256  0.00  0.00     0.058 A 
ENDROOT
TORSDOF 0
ENDMDL
