MODEL 1
REMARK minimizedAffinity 2.54341555
REMARK minimizedRMSD -1
REMARK  0 active torsions:
REMARK  status: ('A' for Active; 'I' for Inactive)
ROOT
ATOM      1  O1  BZF d   1       1.366  -1.032   0.279  0.00  0.00    -0.204 OA
ATOM      2  C2  BZF d   1       2.328  -2.022   0.327  0.00  0.00     0.174 A 
ATOM      3  C3  BZF d   1       3.566  -1.491   0.254  0.00  0.00    -0.012 A 
ATOM      4  C3A BZF d   1       3.367  -0.074   0.246  0.00  0.00    -0.107 A 
ATOM      5  C4  BZF d   1       4.219   0.993   0.202  0.00  0.00     0.055 A 
ATOM      6  C5  BZF d   1       3.702   2.248   0.134  0.00  0.00    -0.016 A 
ATOM      7  C6  BZF d   1       2.341   2.472   0.104  0.00  0.00     0.022 A 
ATOM      8  C7  BZF d   1       1.457   1.445   0.151  0.00  0.00     0.029 A 
ATOM      9  C7A BZF d   1       1.976   0.178   0.253  0.00  0.00     0.058 A 
ENDROOT
TORSDOF 0
ENDMDL
