MODEL 1
REMARK minimizedAffinity 0.778993547
REMARK minimizedRMSD -1
REMARK  0 active torsions:
REMARK  status: ('A' for Active; 'I' for Inactive)
ROOT
ATOM      1  O1  BZF d   1       0.168  -0.421  -1.617  0.00  0.00    -0.204 OA
ATOM      2  C2  BZF d   1      -0.651   0.683  -1.478  0.00  0.00     0.174 A 
ATOM      3  C3  BZF d   1      -0.144   1.545  -0.573  0.00  0.00    -0.012 A 
ATOM      4  C3A BZF d   1       1.115   0.985  -0.185  0.00  0.00    -0.107 A 
ATOM      5  C4  BZF d   1       2.096   1.388   0.676  0.00  0.00     0.055 A 
ATOM      6  C5  BZF d   1       3.166   0.576   0.883  0.00  0.00    -0.016 A 
ATOM      7  C6  BZF d   1       3.284  -0.645   0.252  0.00  0.00     0.022 A 
ATOM      8  C7  BZF d   1       2.339  -1.084  -0.614  0.00  0.00     0.029 A 
ATOM      9  C7A BZF d   1       1.273  -0.252  -0.851  0.00  0.00     0.058 A 
ENDROOT
TORSDOF 0
ENDMDL
