MODEL 1
REMARK minimizedAffinity 0.499694109
REMARK minimizedRMSD -1
REMARK  0 active torsions:
REMARK  status: ('A' for Active; 'I' for Inactive)
ROOT
ATOM      1  O1  BZF d   1       4.153   0.395  -2.170  0.00  0.00    -0.204 OA
ATOM      2  C2  BZF d   1       4.428   1.265  -1.133  0.00  0.00     0.174 A 
ATOM      3  C3  BZF d   1       3.798   0.878  -0.005  0.00  0.00    -0.012 A 
ATOM      4  C3A BZF d   1       3.160  -0.359  -0.335  0.00  0.00    -0.107 A 
ATOM      5  C4  BZF d   1       2.393  -1.239   0.374  0.00  0.00     0.055 A 
ATOM      6  C5  BZF d   1       1.862  -2.315  -0.264  0.00  0.00    -0.016 A 
ATOM      7  C6  BZF d   1       2.072  -2.539  -1.609  0.00  0.00     0.022 A 
ATOM      8  C7  BZF d   1       2.829  -1.696  -2.353  0.00  0.00     0.029 A 
ATOM      9  C7A BZF d   1       3.395  -0.626  -1.704  0.00  0.00     0.058 A 
ENDROOT
TORSDOF 0
ENDMDL
