MODEL 1
REMARK minimizedAffinity -4.90816259
REMARK minimizedRMSD -1
REMARK  0 active torsions:
REMARK  status: ('A' for Active; 'I' for Inactive)
ROOT
ATOM      1  O1  BZF d   1      -0.007   1.348  -1.889  0.00  0.00    -0.204 OA
ATOM      2  C2  BZF d   1       0.011   0.242  -1.061  0.00  0.00     0.174 A 
ATOM      3  C3  BZF d   1      -0.286   0.589   0.208  0.00  0.00    -0.012 A 
ATOM      4  C3A BZF d   1      -0.594   1.985   0.154  0.00  0.00    -0.107 A 
ATOM      5  C4  BZF d   1      -0.978   2.899   1.094  0.00  0.00     0.055 A 
ATOM      6  C5  BZF d   1      -1.129   4.199   0.728  0.00  0.00    -0.016 A 
ATOM      7  C6  BZF d   1      -0.898   4.621  -0.565  0.00  0.00     0.022 A 
ATOM      8  C7  BZF d   1      -0.520   3.751  -1.533  0.00  0.00     0.029 A 
ATOM      9  C7A BZF d   1      -0.399   2.430  -1.174  0.00  0.00     0.058 A 
ENDROOT
TORSDOF 0
ENDMDL
