MODEL 1
REMARK minimizedAffinity -0.790888965
REMARK minimizedRMSD -1
REMARK  0 active torsions:
REMARK  status: ('A' for Active; 'I' for Inactive)
ROOT
ATOM      1  O1  BZF d   1       1.371   0.015   0.451  0.00  0.00    -0.204 OA
ATOM      2  C2  BZF d   1       0.978  -0.950  -0.456  0.00  0.00     0.174 A 
ATOM      3  C3  BZF d   1      -0.233  -0.657  -0.972  0.00  0.00    -0.012 A 
ATOM      4  C3A BZF d   1      -0.580   0.615  -0.417  0.00  0.00    -0.107 A 
ATOM      5  C4  BZF d   1      -1.659   1.440  -0.562  0.00  0.00     0.055 A 
ATOM      6  C5  BZF d   1      -1.725   2.578   0.177  0.00  0.00    -0.016 A 
ATOM      7  C6  BZF d   1      -0.733   2.920   1.074  0.00  0.00     0.022 A 
ATOM      8  C7  BZF d   1       0.358   2.136   1.249  0.00  0.00     0.029 A 
ATOM      9  C7A BZF d   1       0.443   1.002   0.479  0.00  0.00     0.058 A 
ENDROOT
TORSDOF 0
ENDMDL
