MODEL 1
REMARK minimizedAffinity -1.15934539
REMARK minimizedRMSD -1
REMARK  0 active torsions:
REMARK  status: ('A' for Active; 'I' for Inactive)
ROOT
ATOM      1  O1  BZF d   1       0.460  -0.735  -0.729  0.00  0.00    -0.204 OA
ATOM      2  C2  BZF d   1      -0.068   0.050  -1.736  0.00  0.00     0.174 A 
ATOM      3  C3  BZF d   1      -0.469   1.244  -1.251  0.00  0.00    -0.012 A 
ATOM      4  C3A BZF d   1      -0.088   1.237   0.128  0.00  0.00    -0.107 A 
ATOM      5  C4  BZF d   1      -0.203   2.149   1.138  0.00  0.00     0.055 A 
ATOM      6  C5  BZF d   1       0.204   1.805   2.388  0.00  0.00    -0.016 A 
ATOM      7  C6  BZF d   1       0.724   0.558   2.664  0.00  0.00     0.022 A 
ATOM      8  C7  BZF d   1       0.862  -0.379   1.694  0.00  0.00     0.029 A 
ATOM      9  C7A BZF d   1       0.482  -0.022   0.423  0.00  0.00     0.058 A 
ENDROOT
TORSDOF 0
ENDMDL
