MODEL 1
REMARK minimizedAffinity -2.8981781
REMARK minimizedRMSD -1
REMARK  0 active torsions:
REMARK  status: ('A' for Active; 'I' for Inactive)
ROOT
ATOM      1  O1  BZF d   1       0.763  -0.422   2.034  0.00  0.00    -0.204 OA
ATOM      2  C2  BZF d   1       0.221   0.700   2.630  0.00  0.00     0.174 A 
ATOM      3  C3  BZF d   1      -0.208   1.576   1.700  0.00  0.00    -0.012 A 
ATOM      4  C3A BZF d   1       0.001   0.924   0.443  0.00  0.00    -0.107 A 
ATOM      5  C4  BZF d   1      -0.243   1.281  -0.852  0.00  0.00     0.055 A 
ATOM      6  C5  BZF d   1       0.145   0.446  -1.851  0.00  0.00    -0.016 A 
ATOM      7  C6  BZF d   1       0.782  -0.750  -1.592  0.00  0.00     0.022 A 
ATOM      8  C7  BZF d   1       1.040  -1.150  -0.323  0.00  0.00     0.029 A 
ATOM      9  C7A BZF d   1       0.620  -0.323   0.690  0.00  0.00     0.058 A 
ENDROOT
TORSDOF 0
ENDMDL
