MODEL 1
REMARK minimizedAffinity 2.05131245
REMARK minimizedRMSD -1
REMARK  0 active torsions:
REMARK  status: ('A' for Active; 'I' for Inactive)
ROOT
ATOM      1  O1  BZF d   1      -0.515  -0.497  -1.716  0.00  0.00    -0.204 OA
ATOM      2  C2  BZF d   1       0.623   0.054  -1.160  0.00  0.00     0.174 A 
ATOM      3  C3  BZF d   1       1.397  -0.903  -0.609  0.00  0.00    -0.012 A 
ATOM      4  C3A BZF d   1       0.744  -2.139  -0.916  0.00  0.00    -0.107 A 
ATOM      5  C4  BZF d   1       1.037  -3.446  -0.651  0.00  0.00     0.055 A 
ATOM      6  C5  BZF d   1       0.154  -4.409  -1.027  0.00  0.00    -0.016 A 
ATOM      7  C6  BZF d   1      -1.031  -4.101  -1.662  0.00  0.00     0.022 A 
ATOM      8  C7  BZF d   1      -1.362  -2.818  -1.950  0.00  0.00     0.029 A 
ATOM      9  C7A BZF d   1      -0.457  -1.846  -1.602  0.00  0.00     0.058 A 
ENDROOT
TORSDOF 0
ENDMDL
