MODEL 1
REMARK minimizedAffinity -5.19966745
REMARK minimizedRMSD -1
REMARK  0 active torsions:
REMARK  status: ('A' for Active; 'I' for Inactive)
ROOT
ATOM      1  O1  BZF d   1       0.676  -0.021  -0.855  0.00  0.00    -0.204 OA
ATOM      2  C2  BZF d   1       1.201  -0.837   0.128  0.00  0.00     0.174 A 
ATOM      3  C3  BZF d   1       1.032  -0.287   1.348  0.00  0.00    -0.012 A 
ATOM      4  C3A BZF d   1       0.278   0.907   1.121  0.00  0.00    -0.107 A 
ATOM      5  C4  BZF d   1      -0.216   1.877   1.946  0.00  0.00     0.055 A 
ATOM      6  C5  BZF d   1      -0.846   2.950   1.401  0.00  0.00    -0.016 A 
ATOM      7  C6  BZF d   1      -0.996   3.088   0.037  0.00  0.00     0.022 A 
ATOM      8  C7  BZF d   1      -0.528   2.150  -0.822  0.00  0.00     0.029 A 
ATOM      9  C7A BZF d   1       0.081   1.048  -0.272  0.00  0.00     0.058 A 
ENDROOT
TORSDOF 0
ENDMDL
