MODEL 1
REMARK minimizedAffinity -3.85115337
REMARK minimizedRMSD -1
REMARK  0 active torsions:
REMARK  status: ('A' for Active; 'I' for Inactive)
ROOT
ATOM      1  O1  BZF d   1       0.369   1.588   2.106  0.00  0.00    -0.204 OA
ATOM      2  C2  BZF d   1      -0.734   2.414   2.002  0.00  0.00     0.174 A 
ATOM      3  C3  BZF d   1      -1.458   2.110   0.906  0.00  0.00    -0.012 A 
ATOM      4  C3A BZF d   1      -0.816   0.965   0.337  0.00  0.00    -0.107 A 
ATOM      5  C4  BZF d   1      -1.076   0.189  -0.757  0.00  0.00     0.055 A 
ATOM      6  C5  BZF d   1      -0.213  -0.810  -1.079  0.00  0.00    -0.016 A 
ATOM      7  C6  BZF d   1       0.922  -1.057  -0.334  0.00  0.00     0.022 A 
ATOM      8  C7  BZF d   1       1.220  -0.317   0.762  0.00  0.00     0.029 A 
ATOM      9  C7A BZF d   1       0.332   0.672   1.109  0.00  0.00     0.058 A 
ENDROOT
TORSDOF 0
ENDMDL
