MODEL 1
REMARK minimizedAffinity -4.34807062
REMARK minimizedRMSD -1
REMARK  0 active torsions:
REMARK  status: ('A' for Active; 'I' for Inactive)
ROOT
ATOM      1  O1  BZF d   1       0.037   0.406  -0.997  0.00  0.00    -0.204 OA
ATOM      2  C2  BZF d   1       0.408  -0.519  -0.041  0.00  0.00     0.174 A 
ATOM      3  C3  BZF d   1       0.257  -0.012   1.199  0.00  0.00    -0.012 A 
ATOM      4  C3A BZF d   1      -0.327   1.280   1.009  0.00  0.00    -0.107 A 
ATOM      5  C4  BZF d   1      -0.728   2.265   1.866  0.00  0.00     0.055 A 
ATOM      6  C5  BZF d   1      -1.190   3.437   1.356  0.00  0.00    -0.016 A 
ATOM      7  C6  BZF d   1      -1.260   3.659  -0.004  0.00  0.00     0.022 A 
ATOM      8  C7  BZF d   1      -0.878   2.711  -0.893  0.00  0.00     0.029 A 
ATOM      9  C7A BZF d   1      -0.441   1.513  -0.381  0.00  0.00     0.058 A 
ENDROOT
TORSDOF 0
ENDMDL
