MODEL 1
REMARK minimizedAffinity -6.24881458
REMARK minimizedRMSD -1
REMARK  0 active torsions:
REMARK  status: ('A' for Active; 'I' for Inactive)
ROOT
ATOM      1  O1  BZF d   1       0.149   0.364  -1.092  0.00  0.00    -0.204 OA
ATOM      2  C2  BZF d   1       0.918  -0.499  -0.335  0.00  0.00     0.174 A 
ATOM      3  C3  BZF d   1       0.953  -0.103   0.953  0.00  0.00    -0.012 A 
ATOM      4  C3A BZF d   1       0.081   1.029   1.023  0.00  0.00    -0.107 A 
ATOM      5  C4  BZF d   1      -0.311   1.851   2.041  0.00  0.00     0.055 A 
ATOM      6  C5  BZF d   1      -1.116   2.910   1.763  0.00  0.00    -0.016 A 
ATOM      7  C6  BZF d   1      -1.543   3.180   0.479  0.00  0.00     0.022 A 
ATOM      8  C7  BZF d   1      -1.184   2.390  -0.563  0.00  0.00     0.029 A 
ATOM      9  C7A BZF d   1      -0.398   1.300  -0.279  0.00  0.00     0.058 A 
ENDROOT
TORSDOF 0
ENDMDL
