MODEL 1
REMARK minimizedAffinity -3.0225625
REMARK minimizedRMSD -1
REMARK  0 active torsions:
REMARK  status: ('A' for Active; 'I' for Inactive)
ROOT
ATOM      1  O1  BZF d   1       0.916   0.454  -1.794  0.00  0.00    -0.204 OA
ATOM      2  C2  BZF d   1       0.427   1.417  -2.655  0.00  0.00     0.174 A 
ATOM      3  C3  BZF d   1      -0.505   2.177  -2.044  0.00  0.00    -0.012 A 
ATOM      4  C3A BZF d   1      -0.538   1.715  -0.690  0.00  0.00    -0.107 A 
ATOM      5  C4  BZF d   1      -1.254   2.088   0.412  0.00  0.00     0.055 A 
ATOM      6  C5  BZF d   1      -1.103   1.386   1.566  0.00  0.00    -0.016 A 
ATOM      7  C6  BZF d   1      -0.251   0.304   1.652  0.00  0.00     0.022 A 
ATOM      8  C7  BZF d   1       0.483  -0.100   0.587  0.00  0.00     0.029 A 
ATOM      9  C7A BZF d   1       0.358   0.627  -0.572  0.00  0.00     0.058 A 
ENDROOT
TORSDOF 0
ENDMDL
