MODEL 1
REMARK minimizedAffinity -0.930591941
REMARK minimizedRMSD -1
REMARK  1 active torsions:
REMARK  status: ('A' for Active; 'I' for Inactive)
REMARK    1  A    between atoms: C3_4  and  O_7 
ROOT
ATOM      1  C   UNL d   1      -2.072  -0.063   1.334  0.00  0.00    -0.033 A 
ATOM      2  C1  UNL d   1      -1.168   0.616   2.153  0.00  0.00     0.039 A 
ATOM      3  C2  UNL d   1       0.111   0.920   1.682  0.00  0.00    -0.080 A 
ATOM      4  C3  UNL d   1       0.472   0.540   0.392  0.00  0.00     0.150 A 
ATOM      5  C4  UNL d   1      -0.425  -0.133  -0.430  0.00  0.00    -0.007 A 
ATOM      6  C5  UNL d   1      -1.702  -0.437   0.042  0.00  0.00     0.039 A 
ENDROOT
BRANCH   4   7
ATOM      7  O   UNL d   1       1.710   0.810  -0.110  0.00  0.00    -0.526 OA
ATOM      8  H5  UNL d   1       2.232   1.253   0.580  0.00  0.00     0.418 HD
ENDBRANCH   4   7
TORSDOF 1
ENDMDL
