MODEL 1
REMARK minimizedAffinity -4.56805515
REMARK minimizedRMSD -1
REMARK  1 active torsions:
REMARK  status: ('A' for Active; 'I' for Inactive)
REMARK    1  A    between atoms: C3_4  and  O_7 
ROOT
ATOM      1  C   UNL d   1       1.811   1.974   1.893  0.00  0.00    -0.033 A 
ATOM      2  C1  UNL d   1       0.722   2.735   2.321  0.00  0.00     0.039 A 
ATOM      3  C2  UNL d   1      -0.523   2.132   2.510  0.00  0.00    -0.080 A 
ATOM      4  C3  UNL d   1      -0.665   0.768   2.269  0.00  0.00     0.150 A 
ATOM      5  C4  UNL d   1       0.417   0.003   1.846  0.00  0.00    -0.007 A 
ATOM      6  C5  UNL d   1       1.659   0.607   1.657  0.00  0.00     0.039 A 
ENDROOT
BRANCH   4   7
ATOM      7  O   UNL d   1      -1.861   0.136   2.435  0.00  0.00    -0.526 OA
ATOM      8  H5  UNL d   1      -2.523   0.796   2.702  0.00  0.00     0.418 HD
ENDBRANCH   4   7
TORSDOF 1
ENDMDL
