MODEL 1
REMARK minimizedAffinity -3.57408786
REMARK minimizedRMSD -1
REMARK  1 active torsions:
REMARK  status: ('A' for Active; 'I' for Inactive)
REMARK    1  A    between atoms: C3_4  and  O_7 
ROOT
ATOM      1  C   UNL d   1       0.566  -0.753  -0.007  0.00  0.00    -0.033 A 
ATOM      2  C1  UNL d   1      -0.783  -0.392  -0.005  0.00  0.00     0.039 A 
ATOM      3  C2  UNL d   1      -1.332   0.257   1.103  0.00  0.00    -0.080 A 
ATOM      4  C3  UNL d   1      -0.522   0.539   2.200  0.00  0.00     0.150 A 
ATOM      5  C4  UNL d   1       0.823   0.186   2.203  0.00  0.00    -0.007 A 
ATOM      6  C5  UNL d   1       1.369  -0.462   1.096  0.00  0.00     0.039 A 
ENDROOT
BRANCH   4   7
ATOM      7  O   UNL d   1      -1.015   1.167   3.305  0.00  0.00    -0.526 OA
ATOM      8  H5  UNL d   1      -1.964   1.324   3.173  0.00  0.00     0.418 HD
ENDBRANCH   4   7
TORSDOF 1
ENDMDL
