MODEL 1
REMARK minimizedAffinity 7.82889795
REMARK minimizedRMSD -1
REMARK  0 active torsions:
REMARK  status: ('A' for Active; 'I' for Inactive)
ROOT
ATOM      1  N1  IND d   1       2.656   3.715  -5.974  0.00  0.00    -0.196 N 
ATOM      2  C2  IND d   1       1.508   2.973  -5.974  0.00  0.00     0.054 A 
ATOM      3  C3  IND d   1       1.800   1.653  -5.997  0.00  0.00    -0.031 A 
ATOM      4  C4  IND d   1       4.093   0.485  -5.935  0.00  0.00     0.051 A 
ATOM      5  C5  IND d   1       5.435   0.743  -5.966  0.00  0.00    -0.031 A 
ATOM      6  C6  IND d   1       5.929   2.031  -5.999  0.00  0.00     0.015 A 
ATOM      7  C7  IND d   1       5.096   3.114  -5.991  0.00  0.00    -0.016 A 
ATOM      8  C8  IND d   1       3.733   2.855  -5.967  0.00  0.00    -0.047 A 
ATOM      9  C9  IND d   1       3.225   1.550  -5.976  0.00  0.00    -0.096 A 
ATOM     10  HN1 IND d   1       2.699   4.573  -5.977  0.00  0.00     0.298 HD
ENDROOT
TORSDOF 0
ENDMDL
