MODEL 1
REMARK minimizedAffinity 8.72083473
REMARK minimizedRMSD -1
REMARK  0 active torsions:
REMARK  status: ('A' for Active; 'I' for Inactive)
ROOT
ATOM      1  N1  IND d   1      -2.298  -1.598  -1.758  0.00  0.00    -0.196 N 
ATOM      2  C2  IND d   1      -2.708  -2.235  -2.896  0.00  0.00     0.054 A 
ATOM      3  C3  IND d   1      -2.096  -3.435  -3.010  0.00  0.00    -0.031 A 
ATOM      4  C4  IND d   1      -0.463  -4.599  -1.396  0.00  0.00     0.051 A 
ATOM      5  C5  IND d   1       0.238  -4.396  -0.241  0.00  0.00    -0.031 A 
ATOM      6  C6  IND d   1       0.125  -3.227   0.484  0.00  0.00     0.015 A 
ATOM      7  C7  IND d   1      -0.705  -2.218   0.085  0.00  0.00    -0.016 A 
ATOM      8  C8  IND d   1      -1.413  -2.418  -1.092  0.00  0.00    -0.047 A 
ATOM      9  C9  IND d   1      -1.271  -3.585  -1.854  0.00  0.00    -0.096 A 
ATOM     10  HN1 IND d   1      -2.549  -0.817  -1.501  0.00  0.00     0.298 HD
ENDROOT
TORSDOF 0
ENDMDL
