MODEL 1
REMARK minimizedAffinity -0.0285279006
REMARK minimizedRMSD -1
REMARK  0 active torsions:
REMARK  status: ('A' for Active; 'I' for Inactive)
ROOT
ATOM      1  N1  IND d   1       4.687   1.465  -5.882  0.00  0.00    -0.196 N 
ATOM      2  C2  IND d   1       5.975   1.921  -5.907  0.00  0.00     0.054 A 
ATOM      3  C3  IND d   1       5.995   3.271  -5.983  0.00  0.00    -0.031 A 
ATOM      4  C4  IND d   1       4.033   4.938  -5.974  0.00  0.00     0.051 A 
ATOM      5  C5  IND d   1       2.667   4.994  -6.000  0.00  0.00    -0.031 A 
ATOM      6  C6  IND d   1       1.890   3.855  -5.985  0.00  0.00     0.015 A 
ATOM      7  C7  IND d   1       2.451   2.610  -5.931  0.00  0.00    -0.016 A 
ATOM      8  C8  IND d   1       3.837   2.548  -5.912  0.00  0.00    -0.047 A 
ATOM      9  C9  IND d   1       4.632   3.700  -5.970  0.00  0.00    -0.096 A 
ATOM     10  HN1 IND d   1       4.448   0.639  -5.852  0.00  0.00     0.298 HD
ENDROOT
TORSDOF 0
ENDMDL
