MODEL 1
REMARK minimizedAffinity 3.7288053
REMARK minimizedRMSD -1
REMARK  0 active torsions:
REMARK  status: ('A' for Active; 'I' for Inactive)
ROOT
ATOM      1  N1  IND d   1      -1.104  -1.472  -2.714  0.00  0.00    -0.196 N 
ATOM      2  C2  IND d   1      -1.316  -2.191  -1.571  0.00  0.00     0.054 A 
ATOM      3  C3  IND d   1      -1.883  -3.383  -1.863  0.00  0.00    -0.031 A 
ATOM      4  C4  IND d   1      -2.456  -4.403  -4.156  0.00  0.00     0.051 A 
ATOM      5  C5  IND d   1      -2.479  -4.109  -5.491  0.00  0.00    -0.031 A 
ATOM      6  C6  IND d   1      -2.033  -2.898  -5.978  0.00  0.00     0.015 A 
ATOM      7  C7  IND d   1      -1.534  -1.935  -5.146  0.00  0.00    -0.016 A 
ATOM      8  C8  IND d   1      -1.516  -2.228  -3.790  0.00  0.00    -0.047 A 
ATOM      9  C9  IND d   1      -2.007  -3.439  -3.285  0.00  0.00    -0.096 A 
ATOM     10  HN1 IND d   1      -0.769  -0.681  -2.755  0.00  0.00     0.298 HD
ENDROOT
TORSDOF 0
ENDMDL
