MODEL 1
REMARK minimizedAffinity -0.727426946
REMARK minimizedRMSD -1
REMARK  0 active torsions:
REMARK  status: ('A' for Active; 'I' for Inactive)
ROOT
ATOM      1  N1  IND d   1       5.999   4.504  -3.828  0.00  0.00    -0.196 N 
ATOM      2  C2  IND d   1       6.000   5.173  -5.020  0.00  0.00     0.054 A 
ATOM      3  C3  IND d   1       5.491   4.391  -5.999  0.00  0.00    -0.031 A 
ATOM      4  C4  IND d   1       4.505   2.018  -5.849  0.00  0.00     0.051 A 
ATOM      5  C5  IND d   1       4.319   0.981  -4.977  0.00  0.00    -0.031 A 
ATOM      6  C6  IND d   1       4.689   1.069  -3.651  0.00  0.00     0.015 A 
ATOM      7  C7  IND d   1       5.251   2.205  -3.141  0.00  0.00    -0.016 A 
ATOM      8  C8  IND d   1       5.447   3.257  -4.025  0.00  0.00    -0.047 A 
ATOM      9  C9  IND d   1       5.113   3.159  -5.382  0.00  0.00    -0.096 A 
ATOM     10  HN1 IND d   1       6.294   4.810  -3.081  0.00  0.00     0.298 HD
ENDROOT
TORSDOF 0
ENDMDL
