MODEL 1
REMARK minimizedAffinity 7.03974247
REMARK minimizedRMSD -1
REMARK  0 active torsions:
REMARK  status: ('A' for Active; 'I' for Inactive)
ROOT
ATOM      1  N1  IND d   1      -2.317  -1.990  -2.810  0.00  0.00    -0.196 N 
ATOM      2  C2  IND d   1      -1.886  -2.925  -3.709  0.00  0.00     0.054 A 
ATOM      3  C3  IND d   1      -0.922  -3.697  -3.159  0.00  0.00    -0.031 A 
ATOM      4  C4  IND d   1       0.030  -3.670  -0.767  0.00  0.00     0.051 A 
ATOM      5  C5  IND d   1      -0.026  -2.971   0.406  0.00  0.00    -0.031 A 
ATOM      6  C6  IND d   1      -0.867  -1.890   0.572  0.00  0.00     0.015 A 
ATOM      7  C7  IND d   1      -1.696  -1.472  -0.431  0.00  0.00    -0.016 A 
ATOM      8  C8  IND d   1      -1.637  -2.174  -1.626  0.00  0.00    -0.047 A 
ATOM      9  C9  IND d   1      -0.755  -3.246  -1.814  0.00  0.00    -0.096 A 
ATOM     10  HN1 IND d   1      -2.913  -1.388  -2.958  0.00  0.00     0.298 HD
ENDROOT
TORSDOF 0
ENDMDL
