MODEL 1
REMARK minimizedAffinity 7.96984625
REMARK minimizedRMSD -1
REMARK  0 active torsions:
REMARK  status: ('A' for Active; 'I' for Inactive)
ROOT
ATOM      1  N1  IND d   1      -1.404  -3.999   3.528  0.00  0.00    -0.196 N 
ATOM      2  C2  IND d   1      -1.788  -2.726   3.847  0.00  0.00     0.054 A 
ATOM      3  C3  IND d   1      -1.321  -1.850   2.929  0.00  0.00    -0.031 A 
ATOM      4  C4  IND d   1       0.005  -2.297   0.768  0.00  0.00     0.051 A 
ATOM      5  C5  IND d   1       0.620  -3.298   0.069  0.00  0.00    -0.031 A 
ATOM      6  C6  IND d   1       0.589  -4.610   0.494  0.00  0.00     0.015 A 
ATOM      7  C7  IND d   1      -0.072  -4.974   1.634  0.00  0.00    -0.016 A 
ATOM      8  C8  IND d   1      -0.691  -3.960   2.350  0.00  0.00    -0.047 A 
ATOM      9  C9  IND d   1      -0.627  -2.620   1.946  0.00  0.00    -0.096 A 
ATOM     10  HN1 IND d   1      -1.579  -4.705   3.986  0.00  0.00     0.298 HD
ENDROOT
TORSDOF 0
ENDMDL
