MODEL 1
REMARK minimizedAffinity 14.2756195
REMARK minimizedRMSD -1
REMARK  0 active torsions:
REMARK  status: ('A' for Active; 'I' for Inactive)
ROOT
ATOM      1  N1  IND d   1       1.744  -0.603   4.695  0.00  0.00    -0.196 N 
ATOM      2  C2  IND d   1       0.486  -0.167   4.387  0.00  0.00     0.054 A 
ATOM      3  C3  IND d   1       0.460   0.351   3.138  0.00  0.00    -0.031 A 
ATOM      4  C4  IND d   1       2.341   0.492   1.387  0.00  0.00     0.051 A 
ATOM      5  C5  IND d   1       3.677   0.256   1.219  0.00  0.00    -0.031 A 
ATOM      6  C6  IND d   1       4.452  -0.291   2.221  0.00  0.00     0.015 A 
ATOM      7  C7  IND d   1       3.915  -0.636   3.429  0.00  0.00    -0.016 A 
ATOM      8  C8  IND d   1       2.560  -0.391   3.605  0.00  0.00    -0.047 A 
ATOM      9  C9  IND d   1       1.778   0.204   2.607  0.00  0.00    -0.096 A 
ATOM     10  HN1 IND d   1       1.985  -0.950   5.443  0.00  0.00     0.298 HD
ENDROOT
TORSDOF 0
ENDMDL
