MODEL 1
REMARK minimizedAffinity 13.3707905
REMARK minimizedRMSD -1
REMARK  0 active torsions:
REMARK  status: ('A' for Active; 'I' for Inactive)
ROOT
ATOM      1  N1  IND d   1      -2.999  -1.968  -5.043  0.00  0.00    -0.196 N 
ATOM      2  C2  IND d   1      -2.915  -2.940  -6.000  0.00  0.00     0.054 A 
ATOM      3  C3  IND d   1      -2.164  -3.973  -5.556  0.00  0.00    -0.031 A 
ATOM      4  C4  IND d   1      -1.059  -4.323  -3.258  0.00  0.00     0.051 A 
ATOM      5  C5  IND d   1      -0.827  -3.694  -2.067  0.00  0.00    -0.031 A 
ATOM      6  C6  IND d   1      -1.320  -2.432  -1.801  0.00  0.00     0.015 A 
ATOM      7  C7  IND d   1      -2.075  -1.755  -2.716  0.00  0.00    -0.016 A 
ATOM      8  C8  IND d   1      -2.307  -2.388  -3.929  0.00  0.00    -0.047 A 
ATOM      9  C9  IND d   1      -1.774  -3.651  -4.220  0.00  0.00    -0.096 A 
ATOM     10  HN1 IND d   1      -3.414  -1.219  -5.123  0.00  0.00     0.298 HD
ENDROOT
TORSDOF 0
ENDMDL
