MODEL 1
REMARK minimizedAffinity 12.2750044
REMARK minimizedRMSD -1
REMARK  0 active torsions:
REMARK  status: ('A' for Active; 'I' for Inactive)
ROOT
ATOM      1  N1  IND d   1      -1.681  -3.619  -3.087  0.00  0.00    -0.196 N 
ATOM      2  C2  IND d   1      -2.332  -2.417  -3.050  0.00  0.00     0.054 A 
ATOM      3  C3  IND d   1      -2.096  -1.790  -1.876  0.00  0.00    -0.031 A 
ATOM      4  C4  IND d   1      -0.592  -2.505   0.087  0.00  0.00     0.051 A 
ATOM      5  C5  IND d   1       0.179  -3.543   0.531  0.00  0.00    -0.031 A 
ATOM      6  C6  IND d   1       0.376  -4.681  -0.225  0.00  0.00     0.015 A 
ATOM      7  C7  IND d   1      -0.185  -4.819  -1.463  0.00  0.00    -0.016 A 
ATOM      8  C8  IND d   1      -0.974  -3.770  -1.914  0.00  0.00    -0.047 A 
ATOM      9  C9  IND d   1      -1.212  -2.632  -1.134  0.00  0.00    -0.096 A 
ATOM     10  HN1 IND d   1      -1.709  -4.185  -3.733  0.00  0.00     0.298 HD
ENDROOT
TORSDOF 0
ENDMDL
