MODEL 1
REMARK minimizedAffinity 12.3897028
REMARK minimizedRMSD -1
REMARK  0 active torsions:
REMARK  status: ('A' for Active; 'I' for Inactive)
ROOT
ATOM      1  N1  IND d   1      -3.242  -1.811  -5.049  0.00  0.00    -0.196 N 
ATOM      2  C2  IND d   1      -2.689  -2.623  -6.000  0.00  0.00     0.054 A 
ATOM      3  C3  IND d   1      -1.834  -3.501  -5.429  0.00  0.00    -0.031 A 
ATOM      4  C4  IND d   1      -1.267  -3.851  -2.942  0.00  0.00     0.051 A 
ATOM      5  C5  IND d   1      -1.495  -3.326  -1.701  0.00  0.00    -0.031 A 
ATOM      6  C6  IND d   1      -2.337  -2.249  -1.509  0.00  0.00     0.015 A 
ATOM      7  C7  IND d   1      -2.993  -1.662  -2.553  0.00  0.00    -0.016 A 
ATOM      8  C8  IND d   1      -2.758  -2.188  -3.816  0.00  0.00    -0.047 A 
ATOM      9  C9  IND d   1      -1.872  -3.253  -4.023  0.00  0.00    -0.096 A 
ATOM     10  HN1 IND d   1      -3.799  -1.173  -5.197  0.00  0.00     0.298 HD
ENDROOT
TORSDOF 0
ENDMDL
