MODEL 1
REMARK minimizedAffinity 12.8489771
REMARK minimizedRMSD -1
REMARK  0 active torsions:
REMARK  status: ('A' for Active; 'I' for Inactive)
ROOT
ATOM      1  N1  IND d   1      -0.488  -2.855   2.503  0.00  0.00    -0.196 N 
ATOM      2  C2  IND d   1      -1.426  -2.089   3.137  0.00  0.00     0.054 A 
ATOM      3  C3  IND d   1      -2.188  -1.434   2.232  0.00  0.00    -0.031 A 
ATOM      4  C4  IND d   1      -2.137  -1.552  -0.339  0.00  0.00     0.051 A 
ATOM      5  C5  IND d   1      -1.431  -2.087  -1.380  0.00  0.00    -0.031 A 
ATOM      6  C6  IND d   1      -0.354  -2.926  -1.174  0.00  0.00     0.015 A 
ATOM      7  C7  IND d   1       0.051  -3.270   0.084  0.00  0.00    -0.016 A 
ATOM      8  C8  IND d   1      -0.659  -2.722   1.143  0.00  0.00    -0.047 A 
ATOM      9  C9  IND d   1      -1.726  -1.837   0.941  0.00  0.00    -0.096 A 
ATOM     10  HN1 IND d   1       0.109  -3.339   2.889  0.00  0.00     0.298 HD
ENDROOT
TORSDOF 0
ENDMDL
