MODEL 1
REMARK minimizedAffinity 12.0683231
REMARK minimizedRMSD -1
REMARK  0 active torsions:
REMARK  status: ('A' for Active; 'I' for Inactive)
ROOT
ATOM      1  N1  IND d   1      -0.844  -2.644   2.516  0.00  0.00    -0.196 N 
ATOM      2  C2  IND d   1      -1.896  -1.888   2.954  0.00  0.00     0.054 A 
ATOM      3  C3  IND d   1      -2.575  -1.374   1.904  0.00  0.00    -0.031 A 
ATOM      4  C4  IND d   1      -2.198  -1.726  -0.618  0.00  0.00     0.051 A 
ATOM      5  C5  IND d   1      -1.338  -2.306  -1.508  0.00  0.00    -0.031 A 
ATOM      6  C6  IND d   1      -0.249  -3.045  -1.094  0.00  0.00     0.015 A 
ATOM      7  C7  IND d   1       0.016  -3.242   0.232  0.00  0.00    -0.016 A 
ATOM      8  C8  IND d   1      -0.851  -2.649   1.139  0.00  0.00    -0.047 A 
ATOM      9  C9  IND d   1      -1.934  -1.862   0.724  0.00  0.00    -0.096 A 
ATOM     10  HN1 IND d   1      -0.273  -3.047   3.017  0.00  0.00     0.298 HD
ENDROOT
TORSDOF 0
ENDMDL
