MODEL 1
REMARK minimizedAffinity 9.80025482
REMARK minimizedRMSD -1
REMARK  0 active torsions:
REMARK  status: ('A' for Active; 'I' for Inactive)
ROOT
ATOM      1  N1  IND d   1      -2.563  -1.553  -5.196  0.00  0.00    -0.196 N 
ATOM      2  C2  IND d   1      -2.621  -2.657  -6.000  0.00  0.00     0.054 A 
ATOM      3  C3  IND d   1      -2.199  -3.751  -5.327  0.00  0.00    -0.031 A 
ATOM      4  C4  IND d   1      -1.466  -3.979  -2.870  0.00  0.00     0.051 A 
ATOM      5  C5  IND d   1      -1.213  -3.241  -1.749  0.00  0.00    -0.031 A 
ATOM      6  C6  IND d   1      -1.404  -1.874  -1.717  0.00  0.00     0.015 A 
ATOM      7  C7  IND d   1      -1.868  -1.194  -2.808  0.00  0.00    -0.016 A 
ATOM      8  C8  IND d   1      -2.118  -1.940  -3.951  0.00  0.00    -0.047 A 
ATOM      9  C9  IND d   1      -1.886  -3.321  -4.002  0.00  0.00    -0.096 A 
ATOM     10  HN1 IND d   1      -2.769  -0.751  -5.428  0.00  0.00     0.298 HD
ENDROOT
TORSDOF 0
ENDMDL
