MODEL 1
REMARK minimizedAffinity 3.86488986
REMARK minimizedRMSD -1
REMARK  0 active torsions:
REMARK  status: ('A' for Active; 'I' for Inactive)
ROOT
ATOM      1  N1  IND d   1       2.726  -2.269  -5.744  0.00  0.00    -0.196 N 
ATOM      2  C2  IND d   1       3.196  -3.459  -5.262  0.00  0.00     0.054 A 
ATOM      3  C3  IND d   1       4.480  -3.329  -4.861  0.00  0.00    -0.031 A 
ATOM      4  C4  IND d   1       5.975  -1.234  -4.809  0.00  0.00     0.051 A 
ATOM      5  C5  IND d   1       5.999   0.081  -5.182  0.00  0.00    -0.031 A 
ATOM      6  C6  IND d   1       4.911   0.693  -5.770  0.00  0.00     0.015 A 
ATOM      7  C7  IND d   1       3.749   0.012  -5.998  0.00  0.00    -0.016 A 
ATOM      8  C8  IND d   1       3.723  -1.325  -5.628  0.00  0.00    -0.047 A 
ATOM      9  C9  IND d   1       4.838  -1.962  -5.070  0.00  0.00    -0.096 A 
ATOM     10  HN1 IND d   1       1.941  -2.133  -6.066  0.00  0.00     0.298 HD
ENDROOT
TORSDOF 0
ENDMDL
