MODEL 1
REMARK minimizedAffinity 7.50588322
REMARK minimizedRMSD -1
REMARK  0 active torsions:
REMARK  status: ('A' for Active; 'I' for Inactive)
ROOT
ATOM      1  N1  IND d   1      -3.061  -2.426  -2.509  0.00  0.00    -0.196 N 
ATOM      2  C2  IND d   1      -1.903  -2.151  -1.837  0.00  0.00     0.054 A 
ATOM      3  C3  IND d   1      -0.832  -2.493  -2.587  0.00  0.00    -0.031 A 
ATOM      4  C4  IND d   1      -0.744  -3.423  -4.986  0.00  0.00     0.051 A 
ATOM      5  C5  IND d   1      -1.546  -3.874  -5.997  0.00  0.00    -0.031 A 
ATOM      6  C6  IND d   1      -2.922  -3.862  -5.895  0.00  0.00     0.015 A 
ATOM      7  C7  IND d   1      -3.551  -3.387  -4.779  0.00  0.00    -0.016 A 
ATOM      8  C8  IND d   1      -2.739  -2.935  -3.748  0.00  0.00    -0.047 A 
ATOM      9  C9  IND d   1      -1.341  -2.984  -3.828  0.00  0.00    -0.096 A 
ATOM     10  HN1 IND d   1      -3.857  -2.302  -2.209  0.00  0.00     0.298 HD
ENDROOT
TORSDOF 0
ENDMDL
