MODEL 1
REMARK minimizedAffinity 6.65493011
REMARK minimizedRMSD -1
REMARK  0 active torsions:
REMARK  status: ('A' for Active; 'I' for Inactive)
ROOT
ATOM      1  N1  IND d   1      -2.234  -1.872  -5.339  0.00  0.00    -0.196 N 
ATOM      2  C2  IND d   1      -2.251  -3.068  -6.000  0.00  0.00     0.054 A 
ATOM      3  C3  IND d   1      -1.816  -4.059  -5.190  0.00  0.00    -0.031 A 
ATOM      4  C4  IND d   1      -1.122  -3.961  -2.712  0.00  0.00     0.051 A 
ATOM      5  C5  IND d   1      -0.908  -3.082  -1.688  0.00  0.00    -0.031 A 
ATOM      6  C6  IND d   1      -1.132  -1.728  -1.830  0.00  0.00     0.015 A 
ATOM      7  C7  IND d   1      -1.591  -1.201  -3.004  0.00  0.00    -0.016 A 
ATOM      8  C8  IND d   1      -1.803  -2.090  -4.049  0.00  0.00    -0.047 A 
ATOM      9  C9  IND d   1      -1.537  -3.459  -3.924  0.00  0.00    -0.096 A 
ATOM     10  HN1 IND d   1      -2.455  -1.111  -5.673  0.00  0.00     0.298 HD
ENDROOT
TORSDOF 0
ENDMDL
