MODEL 1
REMARK minimizedAffinity -2.60564494
REMARK minimizedRMSD -1
REMARK  0 active torsions:
REMARK  status: ('A' for Active; 'I' for Inactive)
ROOT
ATOM      1  C   UNL d   1      -0.421  -1.023   0.769  0.00  0.00     0.172 C 
ATOM      2  N   UNL d   1      -0.014   0.280   0.295  0.00  0.00    -0.070 N 
ATOM      3  C1  UNL d   1      -0.569   0.955  -0.759  0.00  0.00    -0.004 A 
ATOM      4  C2  UNL d   1       0.096   2.155  -0.888  0.00  0.00    -0.047 A 
ATOM      5  C3  UNL d   1       1.085   2.202   0.122  0.00  0.00    -0.047 A 
ATOM      6  C4  UNL d   1       0.995   1.028   0.840  0.00  0.00    -0.004 A 
ENDROOT
TORSDOF 0
ENDMDL
