MODEL 1
REMARK minimizedAffinity -3.09178472
REMARK minimizedRMSD -1
REMARK  0 active torsions:
REMARK  status: ('A' for Active; 'I' for Inactive)
ROOT
ATOM      1  C   UNL d   1       1.022   3.066   1.255  0.00  0.00     0.172 C 
ATOM      2  N   UNL d   1       0.509   1.737   1.015  0.00  0.00    -0.070 N 
ATOM      3  C1  UNL d   1       0.957   0.870   0.054  0.00  0.00    -0.004 A 
ATOM      4  C2  UNL d   1       0.214  -0.287   0.150  0.00  0.00    -0.047 A 
ATOM      5  C3  UNL d   1      -0.712  -0.109   1.205  0.00  0.00    -0.047 A 
ATOM      6  C4  UNL d   1      -0.508   1.153   1.723  0.00  0.00    -0.004 A 
ENDROOT
TORSDOF 0
ENDMDL
