MODEL 1
REMARK minimizedAffinity -2.43064141
REMARK minimizedRMSD -1
REMARK  0 active torsions:
REMARK  status: ('A' for Active; 'I' for Inactive)
ROOT
ATOM      1  C   UNL d   1       0.194  -0.045  -0.683  0.00  0.00     0.172 C 
ATOM      2  N   UNL d   1       0.382   0.844   0.439  0.00  0.00    -0.070 N 
ATOM      3  C1  UNL d   1       0.461   0.465   1.753  0.00  0.00    -0.004 A 
ATOM      4  C2  UNL d   1       0.642   1.603   2.510  0.00  0.00    -0.047 A 
ATOM      5  C3  UNL d   1       0.673   2.703   1.620  0.00  0.00    -0.047 A 
ATOM      6  C4  UNL d   1       0.509   2.205   0.345  0.00  0.00    -0.004 A 
ENDROOT
TORSDOF 0
ENDMDL
