MODEL 1
REMARK minimizedAffinity -1.59498346
REMARK minimizedRMSD -1
REMARK  0 active torsions:
REMARK  status: ('A' for Active; 'I' for Inactive)
ROOT
ATOM      1  C   UNL d   1       1.957   2.206   0.518  0.00  0.00     0.172 C 
ATOM      2  N   UNL d   1       1.281   0.968   0.210  0.00  0.00    -0.070 N 
ATOM      3  C1  UNL d   1      -0.052   0.717   0.400  0.00  0.00    -0.004 A 
ATOM      4  C2  UNL d   1      -0.302  -0.573  -0.016  0.00  0.00    -0.047 A 
ATOM      5  C3  UNL d   1       0.923  -1.117  -0.470  0.00  0.00    -0.047 A 
ATOM      6  C4  UNL d   1       1.886  -0.142  -0.318  0.00  0.00    -0.004 A 
ENDROOT
TORSDOF 0
ENDMDL
