MODEL 1
REMARK minimizedAffinity -3.735322
REMARK minimizedRMSD -1
REMARK  0 active torsions:
REMARK  status: ('A' for Active; 'I' for Inactive)
ROOT
ATOM      1  C   UNL d   1       0.038  -0.691  -0.501  0.00  0.00     0.172 C 
ATOM      2  N   UNL d   1       0.594   0.429   0.221  0.00  0.00    -0.070 N 
ATOM      3  C1  UNL d   1       1.685   1.163  -0.160  0.00  0.00    -0.004 A 
ATOM      4  C2  UNL d   1       1.893   2.137   0.792  0.00  0.00    -0.047 A 
ATOM      5  C3  UNL d   1       0.893   1.982   1.781  0.00  0.00    -0.047 A 
ATOM      6  C4  UNL d   1       0.103   0.917   1.403  0.00  0.00    -0.004 A 
ENDROOT
TORSDOF 0
ENDMDL
