MODEL 1
REMARK minimizedAffinity 2.19398308
REMARK minimizedRMSD -1
REMARK  0 active torsions:
REMARK  status: ('A' for Active; 'I' for Inactive)
ROOT
ATOM      1  C   UNL d   1       1.347   1.951   1.301  0.00  0.00     0.172 C 
ATOM      2  N   UNL d   1       1.406   0.897   0.316  0.00  0.00    -0.070 N 
ATOM      3  C1  UNL d   1       0.377   0.055  -0.015  0.00  0.00    -0.004 A 
ATOM      4  C2  UNL d   1       0.833  -0.804  -0.992  0.00  0.00    -0.047 A 
ATOM      5  C3  UNL d   1       2.182  -0.468  -1.256  0.00  0.00    -0.047 A 
ATOM      6  C4  UNL d   1       2.511   0.588  -0.433  0.00  0.00    -0.004 A 
ENDROOT
TORSDOF 0
ENDMDL
