MODEL 1
REMARK minimizedAffinity -4.36912346
REMARK minimizedRMSD -1
REMARK  0 active torsions:
REMARK  status: ('A' for Active; 'I' for Inactive)
ROOT
ATOM      1  C   UNL d   1       1.663  -0.549  -0.005  0.00  0.00     0.172 C 
ATOM      2  N   UNL d   1       1.133   0.687   0.519  0.00  0.00    -0.070 N 
ATOM      3  C1  UNL d   1       1.469   1.944   0.093  0.00  0.00    -0.004 A 
ATOM      4  C2  UNL d   1       0.748   2.851   0.840  0.00  0.00    -0.047 A 
ATOM      5  C3  UNL d   1      -0.049   2.113   1.747  0.00  0.00    -0.047 A 
ATOM      6  C4  UNL d   1       0.209   0.776   1.526  0.00  0.00    -0.004 A 
ENDROOT
TORSDOF 0
ENDMDL
