MODEL 1
REMARK minimizedAffinity -0.641148627
REMARK minimizedRMSD -1
REMARK  0 active torsions:
REMARK  status: ('A' for Active; 'I' for Inactive)
ROOT
ATOM      1  C   UNL d   1      -0.341  -0.523  -0.370  0.00  0.00     0.172 C 
ATOM      2  N   UNL d   1       0.024   0.484   0.599  0.00  0.00    -0.070 N 
ATOM      3  C1  UNL d   1      -0.354   0.501   1.915  0.00  0.00    -0.004 A 
ATOM      4  C2  UNL d   1       0.197   1.620   2.498  0.00  0.00    -0.047 A 
ATOM      5  C3  UNL d   1       0.932   2.301   1.498  0.00  0.00    -0.047 A 
ATOM      6  C4  UNL d   1       0.807   1.576   0.332  0.00  0.00    -0.004 A 
ENDROOT
TORSDOF 0
ENDMDL
