MODEL 1
REMARK minimizedAffinity -3.2770505
REMARK minimizedRMSD -1
REMARK  0 active torsions:
REMARK  status: ('A' for Active; 'I' for Inactive)
ROOT
ATOM      1  C   UNL d   1       1.128   2.555   1.171  0.00  0.00     0.172 C 
ATOM      2  N   UNL d   1       0.971   1.369   0.361  0.00  0.00    -0.070 N 
ATOM      3  C1  UNL d   1      -0.198   0.681   0.172  0.00  0.00    -0.004 A 
ATOM      4  C2  UNL d   1       0.069  -0.383  -0.662  0.00  0.00    -0.047 A 
ATOM      5  C3  UNL d   1       1.446  -0.333  -0.984  0.00  0.00    -0.047 A 
ATOM      6  C4  UNL d   1       1.980   0.762  -0.338  0.00  0.00    -0.004 A 
ENDROOT
TORSDOF 0
ENDMDL
