MODEL 1
REMARK minimizedAffinity -3.27189326
REMARK minimizedRMSD -1
REMARK  0 active torsions:
REMARK  status: ('A' for Active; 'I' for Inactive)
ROOT
ATOM      1  C   UNL d   1      -0.253   0.027  -0.603  0.00  0.00     0.172 C 
ATOM      2  N   UNL d   1       0.165   0.871   0.491  0.00  0.00    -0.070 N 
ATOM      3  C1  UNL d   1       0.922   2.007   0.379  0.00  0.00    -0.004 A 
ATOM      4  C2  UNL d   1       1.102   2.521   1.645  0.00  0.00    -0.047 A 
ATOM      5  C3  UNL d   1       0.432   1.664   2.549  0.00  0.00    -0.047 A 
ATOM      6  C4  UNL d   1      -0.139   0.651   1.809  0.00  0.00    -0.004 A 
ENDROOT
TORSDOF 0
ENDMDL
