MODEL 1
REMARK minimizedAffinity 4.91558695
REMARK minimizedRMSD -1
REMARK  0 active torsions:
REMARK  status: ('A' for Active; 'I' for Inactive)
ROOT
ATOM      1  C   UNL d   1      -2.615   5.342  -1.927  0.00  0.00     0.172 C 
ATOM      2  N   UNL d   1      -3.811   5.580  -2.702  0.00  0.00    -0.070 N 
ATOM      3  C1  UNL d   1      -5.057   5.826  -2.191  0.00  0.00    -0.004 A 
ATOM      4  C2  UNL d   1      -5.921   5.999  -3.251  0.00  0.00    -0.047 A 
ATOM      5  C3  UNL d   1      -5.167   5.852  -4.440  0.00  0.00    -0.047 A 
ATOM      6  C4  UNL d   1      -3.864   5.594  -4.071  0.00  0.00    -0.004 A 
ENDROOT
TORSDOF 0
ENDMDL
