MODEL 1
REMARK minimizedAffinity 3.40008092
REMARK minimizedRMSD -1
REMARK  0 active torsions:
REMARK  status: ('A' for Active; 'I' for Inactive)
ROOT
ATOM      1  C   UNL d   1       3.564   4.153  -5.942  0.00  0.00     0.172 C 
ATOM      2  N   UNL d   1       4.326   3.889  -4.743  0.00  0.00    -0.070 N 
ATOM      3  C1  UNL d   1       3.878   4.056  -3.460  0.00  0.00    -0.004 A 
ATOM      4  C2  UNL d   1       4.899   3.698  -2.607  0.00  0.00    -0.047 A 
ATOM      5  C3  UNL d   1       5.999   3.304  -3.405  0.00  0.00    -0.047 A 
ATOM      6  C4  UNL d   1       5.617   3.432  -4.724  0.00  0.00    -0.004 A 
ENDROOT
TORSDOF 0
ENDMDL
