MODEL 1
REMARK minimizedAffinity -2.72877789
REMARK minimizedRMSD -1
REMARK  0 active torsions:
REMARK  status: ('A' for Active; 'I' for Inactive)
ROOT
ATOM      1  C   UNL d   1       3.946   4.126  -3.423  0.00  0.00     0.172 C 
ATOM      2  N   UNL d   1       2.973   4.814  -4.238  0.00  0.00    -0.070 N 
ATOM      3  C1  UNL d   1       3.000   4.910  -5.604  0.00  0.00    -0.004 A 
ATOM      4  C2  UNL d   1       1.901   5.643  -5.997  0.00  0.00    -0.047 A 
ATOM      5  C3  UNL d   1       1.189   6.000  -4.827  0.00  0.00    -0.047 A 
ATOM      6  C4  UNL d   1       1.875   5.474  -3.753  0.00  0.00    -0.004 A 
ENDROOT
TORSDOF 0
ENDMDL
