MODEL 1
REMARK minimizedAffinity -2.96040177
REMARK minimizedRMSD -1
REMARK  0 active torsions:
REMARK  status: ('A' for Active; 'I' for Inactive)
ROOT
ATOM      1  C   UNL d   1       0.795   1.125   0.950  0.00  0.00     0.172 C 
ATOM      2  N   UNL d   1       1.552   1.301   2.167  0.00  0.00    -0.070 N 
ATOM      3  C1  UNL d   1       2.918   1.327   2.261  0.00  0.00    -0.004 A 
ATOM      4  C2  UNL d   1       3.247   1.515   3.586  0.00  0.00    -0.047 A 
ATOM      5  C3  UNL d   1       2.036   1.605   4.314  0.00  0.00    -0.047 A 
ATOM      6  C4  UNL d   1       1.003   1.469   3.411  0.00  0.00    -0.004 A 
ENDROOT
TORSDOF 0
ENDMDL
