MODEL 1
REMARK minimizedAffinity -2.29034829
REMARK minimizedRMSD -1
REMARK  0 active torsions:
REMARK  status: ('A' for Active; 'I' for Inactive)
ROOT
ATOM      1  C   UNL d   1      -0.385  -0.357   1.356  0.00  0.00     0.172 C 
ATOM      2  N   UNL d   1      -1.229  -1.199   2.170  0.00  0.00    -0.070 N 
ATOM      3  C1  UNL d   1      -1.355  -2.557   2.050  0.00  0.00    -0.004 A 
ATOM      4  C2  UNL d   1      -2.251  -2.984   3.007  0.00  0.00    -0.047 A 
ATOM      5  C3  UNL d   1      -2.677  -1.842   3.727  0.00  0.00    -0.047 A 
ATOM      6  C4  UNL d   1      -2.029  -0.751   3.188  0.00  0.00    -0.004 A 
ENDROOT
TORSDOF 0
ENDMDL
