MODEL 1
REMARK minimizedAffinity 0.0882642791
REMARK minimizedRMSD -1
REMARK  0 active torsions:
REMARK  status: ('A' for Active; 'I' for Inactive)
ROOT
ATOM      1  C   UNL d   1      -3.999  -2.529  -1.827  0.00  0.00     0.172 C 
ATOM      2  N   UNL d   1      -3.073  -1.858  -2.709  0.00  0.00    -0.070 N 
ATOM      3  C1  UNL d   1      -2.225  -0.844  -2.355  0.00  0.00    -0.004 A 
ATOM      4  C2  UNL d   1      -1.511  -0.479  -3.476  0.00  0.00    -0.047 A 
ATOM      5  C3  UNL d   1      -1.946  -1.303  -4.542  0.00  0.00    -0.047 A 
ATOM      6  C4  UNL d   1      -2.913  -2.147  -4.039  0.00  0.00    -0.004 A 
ENDROOT
TORSDOF 0
ENDMDL
