MODEL 1
REMARK minimizedAffinity 3.2163918
REMARK minimizedRMSD -1
REMARK  0 active torsions:
REMARK  status: ('A' for Active; 'I' for Inactive)
ROOT
ATOM      1  C   UNL d   1      -0.375   0.966  -5.625  0.00  0.00     0.172 C 
ATOM      2  N   UNL d   1       0.003   0.121  -4.517  0.00  0.00    -0.070 N 
ATOM      3  C1  UNL d   1      -0.697  -0.968  -4.069  0.00  0.00    -0.004 A 
ATOM      4  C2  UNL d   1      -0.009  -1.500  -3.000  0.00  0.00    -0.047 A 
ATOM      5  C3  UNL d   1       1.143  -0.704  -2.798  0.00  0.00    -0.047 A 
ATOM      6  C4  UNL d   1       1.125   0.293  -3.751  0.00  0.00    -0.004 A 
ENDROOT
TORSDOF 0
ENDMDL
