MODEL 1
REMARK minimizedAffinity -3.32820868
REMARK minimizedRMSD -1
REMARK  0 active torsions:
REMARK  status: ('A' for Active; 'I' for Inactive)
ROOT
ATOM      1  C   UNL d   1       1.698   1.534   0.051  0.00  0.00     0.172 C 
ATOM      2  N   UNL d   1       1.525   0.102   0.130  0.00  0.00    -0.070 N 
ATOM      3  C1  UNL d   1       2.442  -0.835  -0.262  0.00  0.00    -0.004 A 
ATOM      4  C2  UNL d   1       1.901  -2.080  -0.025  0.00  0.00    -0.047 A 
ATOM      5  C3  UNL d   1       0.613  -1.884   0.528  0.00  0.00    -0.047 A 
ATOM      6  C4  UNL d   1       0.406  -0.523   0.613  0.00  0.00    -0.004 A 
ENDROOT
TORSDOF 0
ENDMDL
