MODEL 1
REMARK minimizedAffinity -2.99557948
REMARK minimizedRMSD -1
REMARK  0 active torsions:
REMARK  status: ('A' for Active; 'I' for Inactive)
ROOT
ATOM      1  C   UNL d   1       0.379   1.485  -0.001  0.00  0.00     0.172 C 
ATOM      2  N   UNL d   1       1.350   0.444   0.239  0.00  0.00    -0.070 N 
ATOM      3  C1  UNL d   1       2.294   0.447   1.231  0.00  0.00    -0.004 A 
ATOM      4  C2  UNL d   1       3.023  -0.718   1.124  0.00  0.00    -0.047 A 
ATOM      5  C3  UNL d   1       2.499  -1.446   0.029  0.00  0.00    -0.047 A 
ATOM      6  C4  UNL d   1       1.465  -0.703  -0.501  0.00  0.00    -0.004 A 
ENDROOT
TORSDOF 0
ENDMDL
