MODEL 1
REMARK minimizedAffinity -0.324081361
REMARK minimizedRMSD -1
REMARK  0 active torsions:
REMARK  status: ('A' for Active; 'I' for Inactive)
ROOT
ATOM      1  C   UNL d   1      -0.701  -1.446  -1.913  0.00  0.00     0.172 C 
ATOM      2  N   UNL d   1       0.047  -0.901  -0.805  0.00  0.00    -0.070 N 
ATOM      3  C1  UNL d   1       1.336  -1.225  -0.475  0.00  0.00    -0.004 A 
ATOM      4  C2  UNL d   1       1.683  -0.491   0.639  0.00  0.00    -0.047 A 
ATOM      5  C3  UNL d   1       0.564   0.300   0.991  0.00  0.00    -0.047 A 
ATOM      6  C4  UNL d   1      -0.435   0.027   0.080  0.00  0.00    -0.004 A 
ENDROOT
TORSDOF 0
ENDMDL
