MODEL 1
REMARK minimizedAffinity -2.94252419
REMARK minimizedRMSD -1
REMARK  0 active torsions:
REMARK  status: ('A' for Active; 'I' for Inactive)
ROOT
ATOM      1  C   UNL d   1      -0.339   0.392  -0.290  0.00  0.00     0.172 C 
ATOM      2  N   UNL d   1       0.897  -0.199   0.164  0.00  0.00    -0.070 N 
ATOM      3  C1  UNL d   1       1.423  -0.080   1.423  0.00  0.00    -0.004 A 
ATOM      4  C2  UNL d   1       2.606  -0.787   1.454  0.00  0.00    -0.047 A 
ATOM      5  C3  UNL d   1       2.798  -1.349   0.170  0.00  0.00    -0.047 A 
ATOM      6  C4  UNL d   1       1.725  -0.969  -0.609  0.00  0.00    -0.004 A 
ENDROOT
TORSDOF 0
ENDMDL
