MODEL 1
REMARK minimizedAffinity -1.0627718
REMARK minimizedRMSD -1
REMARK  0 active torsions:
REMARK  status: ('A' for Active; 'I' for Inactive)
ROOT
ATOM      1  C   UNL d   1       2.126   0.381   1.382  0.00  0.00     0.172 C 
ATOM      2  N   UNL d   1       1.117  -0.084   0.459  0.00  0.00    -0.070 N 
ATOM      3  C1  UNL d   1       1.023  -1.353  -0.048  0.00  0.00    -0.004 A 
ATOM      4  C2  UNL d   1      -0.070  -1.392  -0.887  0.00  0.00    -0.047 A 
ATOM      5  C3  UNL d   1      -0.652  -0.103  -0.884  0.00  0.00    -0.047 A 
ATOM      6  C4  UNL d   1       0.102   0.687  -0.043  0.00  0.00    -0.004 A 
ENDROOT
TORSDOF 0
ENDMDL
