MODEL 1
REMARK minimizedAffinity -1.11195207
REMARK minimizedRMSD -1
REMARK  0 active torsions:
REMARK  status: ('A' for Active; 'I' for Inactive)
ROOT
ATOM      1  N1  IND d   1       3.730  -3.009   3.796  0.00  0.00    -0.196 N 
ATOM      2  C2  IND d   1       3.473  -3.645   4.979  0.00  0.00     0.054 A 
ATOM      3  C3  IND d   1       4.082  -3.001   6.000  0.00  0.00    -0.031 A 
ATOM      4  C4  IND d   1       5.463  -0.829   5.972  0.00  0.00     0.051 A 
ATOM      5  C5  IND d   1       6.000   0.096   5.121  0.00  0.00    -0.031 A 
ATOM      6  C6  IND d   1       5.801   0.033   3.757  0.00  0.00     0.015 A 
ATOM      7  C7  IND d   1       5.045  -0.955   3.192  0.00  0.00    -0.016 A 
ATOM      8  C8  IND d   1       4.505  -1.900   4.053  0.00  0.00    -0.047 A 
ATOM      9  C9  IND d   1       4.738  -1.865   5.434  0.00  0.00    -0.096 A 
ATOM     10  HN1 IND d   1       3.454  -3.261   3.021  0.00  0.00     0.298 HD
ENDROOT
TORSDOF 0
ENDMDL
