MODEL 1
REMARK minimizedAffinity -2.30197597
REMARK minimizedRMSD -1
REMARK  0 active torsions:
REMARK  status: ('A' for Active; 'I' for Inactive)
ROOT
ATOM      1  N1  IND d   1      -1.683   1.136   0.272  0.00  0.00    -0.196 N 
ATOM      2  C2  IND d   1      -1.012  -0.027   0.014  0.00  0.00     0.054 A 
ATOM      3  C3  IND d   1      -0.915  -0.773   1.137  0.00  0.00    -0.031 A 
ATOM      4  C4  IND d   1      -1.875  -0.328   3.484  0.00  0.00     0.051 A 
ATOM      5  C5  IND d   1      -2.532   0.620   4.217  0.00  0.00    -0.031 A 
ATOM      6  C6  IND d   1      -2.951   1.812   3.660  0.00  0.00     0.015 A 
ATOM      7  C7  IND d   1      -2.737   2.095   2.341  0.00  0.00    -0.016 A 
ATOM      8  C8  IND d   1      -2.063   1.138   1.596  0.00  0.00    -0.047 A 
ATOM      9  C9  IND d   1      -1.598  -0.054   2.165  0.00  0.00    -0.096 A 
ATOM     10  HN1 IND d   1      -1.841   1.760  -0.298  0.00  0.00     0.298 HD
ENDROOT
TORSDOF 0
ENDMDL
