MODEL 1
REMARK minimizedAffinity 6.5045352
REMARK minimizedRMSD -1
REMARK  0 active torsions:
REMARK  status: ('A' for Active; 'I' for Inactive)
ROOT
ATOM      1  N1  IND d   1       0.791  -1.913  -3.672  0.00  0.00    -0.196 N 
ATOM      2  C2  IND d   1       1.155  -1.254  -4.813  0.00  0.00     0.054 A 
ATOM      3  C3  IND d   1       1.185   0.080  -4.596  0.00  0.00    -0.031 A 
ATOM      4  C4  IND d   1       0.775   1.394  -2.420  0.00  0.00     0.051 A 
ATOM      5  C5  IND d   1       0.379   1.231  -1.122  0.00  0.00    -0.031 A 
ATOM      6  C6  IND d   1       0.097  -0.013  -0.597  0.00  0.00     0.015 A 
ATOM      7  C7  IND d   1       0.212  -1.147  -1.349  0.00  0.00    -0.016 A 
ATOM      8  C8  IND d   1       0.607  -0.986  -2.670  0.00  0.00    -0.047 A 
ATOM      9  C9  IND d   1       0.854   0.279  -3.221  0.00  0.00    -0.096 A 
ATOM     10  HN1 IND d   1       0.694  -2.763  -3.593  0.00  0.00     0.298 HD
ENDROOT
TORSDOF 0
ENDMDL
