MODEL 1
REMARK minimizedAffinity 2.61287856
REMARK minimizedRMSD -1
REMARK  0 active torsions:
REMARK  status: ('A' for Active; 'I' for Inactive)
ROOT
ATOM      1  N1  IND d   1       1.073  -1.318  -3.349  0.00  0.00    -0.196 N 
ATOM      2  C2  IND d   1       1.241  -0.063  -3.864  0.00  0.00     0.054 A 
ATOM      3  C3  IND d   1       0.849   0.870  -2.968  0.00  0.00    -0.031 A 
ATOM      4  C4  IND d   1      -0.005   0.565  -0.559  0.00  0.00     0.051 A 
ATOM      5  C5  IND d   1      -0.363  -0.396   0.344  0.00  0.00    -0.031 A 
ATOM      6  C6  IND d   1      -0.256  -1.742   0.057  0.00  0.00     0.015 A 
ATOM      7  C7  IND d   1       0.226  -2.178  -1.145  0.00  0.00    -0.016 A 
ATOM      8  C8  IND d   1       0.584  -1.204  -2.066  0.00  0.00    -0.047 A 
ATOM      9  C9  IND d   1       0.438   0.163  -1.796  0.00  0.00    -0.096 A 
ATOM     10  HN1 IND d   1       1.244  -2.055  -3.758  0.00  0.00     0.298 HD
ENDROOT
TORSDOF 0
ENDMDL
