MODEL 1
REMARK minimizedAffinity 9.66917706
REMARK minimizedRMSD -1
REMARK  0 active torsions:
REMARK  status: ('A' for Active; 'I' for Inactive)
ROOT
ATOM      1  N1  IND d   1       5.823   0.961  -3.700  0.00  0.00    -0.196 N 
ATOM      2  C2  IND d   1       5.807   1.455  -4.974  0.00  0.00     0.054 A 
ATOM      3  C3  IND d   1       5.874   0.445  -5.871  0.00  0.00    -0.031 A 
ATOM      4  C4  IND d   1       5.915  -2.098  -5.470  0.00  0.00     0.051 A 
ATOM      5  C5  IND d   1       5.982  -3.030  -4.473  0.00  0.00    -0.031 A 
ATOM      6  C6  IND d   1       5.997  -2.673  -3.140  0.00  0.00     0.015 A 
ATOM      7  C7  IND d   1       5.934  -1.364  -2.753  0.00  0.00    -0.016 A 
ATOM      8  C8  IND d   1       5.873  -0.414  -3.763  0.00  0.00    -0.047 A 
ATOM      9  C9  IND d   1       5.900  -0.769  -5.118  0.00  0.00    -0.096 A 
ATOM     10  HN1 IND d   1       5.806   1.431  -2.979  0.00  0.00     0.298 HD
ENDROOT
TORSDOF 0
ENDMDL
