MODEL 1
REMARK minimizedAffinity 1.35199368
REMARK minimizedRMSD -1
REMARK  0 active torsions:
REMARK  status: ('A' for Active; 'I' for Inactive)
ROOT
ATOM      1  N1  IND d   1      -2.916   1.772   4.863  0.00  0.00    -0.196 N 
ATOM      2  C2  IND d   1      -3.969   1.116   5.437  0.00  0.00     0.054 A 
ATOM      3  C3  IND d   1      -4.827   2.000   5.995  0.00  0.00    -0.031 A 
ATOM      4  C4  IND d   1      -4.751   4.574   5.997  0.00  0.00     0.051 A 
ATOM      5  C5  IND d   1      -3.963   5.628   5.629  0.00  0.00    -0.031 A 
ATOM      6  C6  IND d   1      -2.763   5.448   4.972  0.00  0.00     0.015 A 
ATOM      7  C7  IND d   1      -2.310   4.201   4.646  0.00  0.00    -0.016 A 
ATOM      8  C8  IND d   1      -3.104   3.128   5.024  0.00  0.00    -0.047 A 
ATOM      9  C9  IND d   1      -4.302   3.302   5.729  0.00  0.00    -0.096 A 
ATOM     10  HN1 IND d   1      -2.249   1.401   4.468  0.00  0.00     0.298 HD
ENDROOT
TORSDOF 0
ENDMDL
