MODEL 1
REMARK minimizedAffinity 3.59697008
REMARK minimizedRMSD -1
REMARK  0 active torsions:
REMARK  status: ('A' for Active; 'I' for Inactive)
ROOT
ATOM      1  N1  IND d   1       5.997   1.019   4.434  0.00  0.00    -0.196 N 
ATOM      2  C2  IND d   1       6.000  -0.336   4.617  0.00  0.00     0.054 A 
ATOM      3  C3  IND d   1       5.087  -0.920   3.809  0.00  0.00    -0.031 A 
ATOM      4  C4  IND d   1       3.552   0.143   2.036  0.00  0.00     0.051 A 
ATOM      5  C5  IND d   1       3.166   1.353   1.532  0.00  0.00    -0.031 A 
ATOM      6  C6  IND d   1       3.717   2.538   1.977  0.00  0.00     0.015 A 
ATOM      7  C7  IND d   1       4.687   2.555   2.938  0.00  0.00    -0.016 A 
ATOM      8  C8  IND d   1       5.077   1.329   3.458  0.00  0.00    -0.047 A 
ATOM      9  C9  IND d   1       4.491   0.126   3.041  0.00  0.00    -0.096 A 
ATOM     10  HN1 IND d   1       6.489   1.583   4.859  0.00  0.00     0.298 HD
ENDROOT
TORSDOF 0
ENDMDL
