MODEL 1
REMARK minimizedAffinity 12.6015625
REMARK minimizedRMSD -1
REMARK  0 active torsions:
REMARK  status: ('A' for Active; 'I' for Inactive)
ROOT
ATOM      1  N1  IND d   1       0.550  -2.615  -1.925  0.00  0.00    -0.196 N 
ATOM      2  C2  IND d   1       0.917  -3.115  -3.144  0.00  0.00     0.054 A 
ATOM      3  C3  IND d   1       1.175  -2.107  -4.007  0.00  0.00    -0.031 A 
ATOM      4  C4  IND d   1       1.157   0.436  -3.606  0.00  0.00     0.051 A 
ATOM      5  C5  IND d   1       0.849   1.375  -2.662  0.00  0.00    -0.031 A 
ATOM      6  C6  IND d   1       0.419   1.026  -1.398  0.00  0.00     0.015 A 
ATOM      7  C7  IND d   1       0.292  -0.283  -1.026  0.00  0.00    -0.016 A 
ATOM      8  C8  IND d   1       0.597  -1.239  -1.983  0.00  0.00    -0.047 A 
ATOM      9  C9  IND d   1       0.993  -0.890  -3.281  0.00  0.00    -0.096 A 
ATOM     10  HN1 IND d   1       0.327  -3.081  -1.238  0.00  0.00     0.298 HD
ENDROOT
TORSDOF 0
ENDMDL
