MODEL 1
REMARK minimizedAffinity 11.2579184
REMARK minimizedRMSD -1
REMARK  0 active torsions:
REMARK  status: ('A' for Active; 'I' for Inactive)
ROOT
ATOM      1  N1  IND d   1       3.837  -1.963  -5.950  0.00  0.00    -0.196 N 
ATOM      2  C2  IND d   1       4.972  -2.676  -5.681  0.00  0.00     0.054 A 
ATOM      3  C3  IND d   1       5.981  -1.843  -5.340  0.00  0.00    -0.031 A 
ATOM      4  C4  IND d   1       5.965   0.716  -5.059  0.00  0.00     0.051 A 
ATOM      5  C5  IND d   1       5.169   1.813  -5.229  0.00  0.00    -0.031 A 
ATOM      6  C6  IND d   1       3.861   1.706  -5.655  0.00  0.00     0.015 A 
ATOM      7  C7  IND d   1       3.294   0.490  -5.916  0.00  0.00    -0.016 A 
ATOM      8  C8  IND d   1       4.102  -0.626  -5.751  0.00  0.00    -0.047 A 
ATOM      9  C9  IND d   1       5.443  -0.520  -5.360  0.00  0.00    -0.096 A 
ATOM     10  HN1 IND d   1       3.084  -2.294  -6.202  0.00  0.00     0.298 HD
ENDROOT
TORSDOF 0
ENDMDL
