MODEL 1
REMARK minimizedAffinity 8.25768471
REMARK minimizedRMSD -1
REMARK  0 active torsions:
REMARK  status: ('A' for Active; 'I' for Inactive)
ROOT
ATOM      1  N1  IND d   1       3.757   1.624  -0.405  0.00  0.00    -0.196 N 
ATOM      2  C2  IND d   1       3.227   2.416   0.575  0.00  0.00     0.054 A 
ATOM      3  C3  IND d   1       1.877   2.358   0.549  0.00  0.00    -0.031 A 
ATOM      4  C4  IND d   1       0.329   0.948  -0.950  0.00  0.00     0.051 A 
ATOM      5  C5  IND d   1       0.348   0.097  -2.019  0.00  0.00    -0.031 A 
ATOM      6  C6  IND d   1       1.528  -0.298  -2.615  0.00  0.00     0.015 A 
ATOM      7  C7  IND d   1       2.739   0.135  -2.155  0.00  0.00    -0.016 A 
ATOM      8  C8  IND d   1       2.724   1.005  -1.074  0.00  0.00    -0.047 A 
ATOM      9  C9  IND d   1       1.527   1.444  -0.492  0.00  0.00    -0.096 A 
ATOM     10  HN1 IND d   1       4.594   1.529  -0.575  0.00  0.00     0.298 HD
ENDROOT
TORSDOF 0
ENDMDL
