MODEL 1
REMARK minimizedAffinity 4.04847479
REMARK minimizedRMSD -1
REMARK  0 active torsions:
REMARK  status: ('A' for Active; 'I' for Inactive)
ROOT
ATOM      1  N1  IND d   1       6.000   1.367  -5.671  0.00  0.00    -0.196 N 
ATOM      2  C2  IND d   1       5.008   0.485  -5.999  0.00  0.00     0.054 A 
ATOM      3  C3  IND d   1       3.795   1.027  -5.751  0.00  0.00    -0.031 A 
ATOM      4  C4  IND d   1       3.200   3.384  -4.903  0.00  0.00     0.051 A 
ATOM      5  C5  IND d   1       3.767   4.534  -4.432  0.00  0.00    -0.031 A 
ATOM      6  C6  IND d   1       5.136   4.692  -4.352  0.00  0.00     0.015 A 
ATOM      7  C7  IND d   1       5.992   3.705  -4.751  0.00  0.00    -0.016 A 
ATOM      8  C8  IND d   1       5.419   2.532  -5.223  0.00  0.00    -0.047 A 
ATOM      9  C9  IND d   1       4.030   2.350  -5.267  0.00  0.00    -0.096 A 
ATOM     10  HN1 IND d   1       6.844   1.218  -5.734  0.00  0.00     0.298 HD
ENDROOT
TORSDOF 0
ENDMDL
