MODEL 1
REMARK minimizedAffinity 9.4335289
REMARK minimizedRMSD -1
REMARK  0 active torsions:
REMARK  status: ('A' for Active; 'I' for Inactive)
ROOT
ATOM      1  N1  IND d   1      -3.384   1.302   5.999  0.00  0.00    -0.196 N 
ATOM      2  C2  IND d   1      -3.739   2.384   5.243  0.00  0.00     0.054 A 
ATOM      3  C3  IND d   1      -3.978   2.008   3.967  0.00  0.00    -0.031 A 
ATOM      4  C4  IND d   1      -3.946  -0.344   2.922  0.00  0.00     0.051 A 
ATOM      5  C5  IND d   1      -3.643  -1.646   3.208  0.00  0.00    -0.031 A 
ATOM      6  C6  IND d   1      -3.233  -2.040   4.465  0.00  0.00     0.015 A 
ATOM      7  C7  IND d   1      -3.120  -1.144   5.491  0.00  0.00    -0.016 A 
ATOM      8  C8  IND d   1      -3.420   0.179   5.202  0.00  0.00    -0.047 A 
ATOM      9  C9  IND d   1      -3.797   0.592   3.917  0.00  0.00    -0.096 A 
ATOM     10  HN1 IND d   1      -3.173   1.320   6.833  0.00  0.00     0.298 HD
ENDROOT
TORSDOF 0
ENDMDL
