MODEL 1
REMARK minimizedAffinity 11.7601986
REMARK minimizedRMSD -1
REMARK  0 active torsions:
REMARK  status: ('A' for Active; 'I' for Inactive)
ROOT
ATOM      1  N1  IND d   1       3.121   5.353  -4.708  0.00  0.00    -0.196 N 
ATOM      2  C2  IND d   1       1.957   5.071  -5.366  0.00  0.00     0.054 A 
ATOM      3  C3  IND d   1       2.050   3.879  -5.997  0.00  0.00    -0.031 A 
ATOM      4  C4  IND d   1       3.982   2.177  -6.000  0.00  0.00     0.051 A 
ATOM      5  C5  IND d   1       5.268   2.007  -5.571  0.00  0.00    -0.031 A 
ATOM      6  C6  IND d   1       5.917   2.962  -4.814  0.00  0.00     0.015 A 
ATOM      7  C7  IND d   1       5.297   4.123  -4.448  0.00  0.00    -0.016 A 
ATOM      8  C8  IND d   1       3.993   4.302  -4.888  0.00  0.00    -0.047 A 
ATOM      9  C9  IND d   1       3.344   3.355  -5.691  0.00  0.00    -0.096 A 
ATOM     10  HN1 IND d   1       3.282   6.068  -4.258  0.00  0.00     0.298 HD
ENDROOT
TORSDOF 0
ENDMDL
