MODEL 1
REMARK minimizedAffinity 12.6752634
REMARK minimizedRMSD -1
REMARK  0 active torsions:
REMARK  status: ('A' for Active; 'I' for Inactive)
ROOT
ATOM      1  N1  IND d   1       3.714   5.361  -3.548  0.00  0.00    -0.196 N 
ATOM      2  C2  IND d   1       4.802   5.677  -2.783  0.00  0.00     0.054 A 
ATOM      3  C3  IND d   1       5.838   4.860  -3.078  0.00  0.00    -0.031 A 
ATOM      4  C4  IND d   1       6.000   3.000  -4.851  0.00  0.00     0.051 A 
ATOM      5  C5  IND d   1       5.251   2.319  -5.769  0.00  0.00    -0.031 A 
ATOM      6  C6  IND d   1       3.925   2.624  -6.000  0.00  0.00     0.015 A 
ATOM      7  C7  IND d   1       3.300   3.635  -5.327  0.00  0.00    -0.016 A 
ATOM      8  C8  IND d   1       4.055   4.325  -4.389  0.00  0.00    -0.047 A 
ATOM      9  C9  IND d   1       5.389   3.991  -4.120  0.00  0.00    -0.096 A 
ATOM     10  HN1 IND d   1       2.945   5.744  -3.509  0.00  0.00     0.298 HD
ENDROOT
TORSDOF 0
ENDMDL
