MODEL 1
REMARK minimizedAffinity 9.63912201
REMARK minimizedRMSD -1
REMARK  0 active torsions:
REMARK  status: ('A' for Active; 'I' for Inactive)
ROOT
ATOM      1  N1  IND d   1      -2.970   5.853   2.414  0.00  0.00    -0.196 N 
ATOM      2  C2  IND d   1      -1.669   5.887   2.833  0.00  0.00     0.054 A 
ATOM      3  C3  IND d   1      -1.611   5.977   4.181  0.00  0.00    -0.031 A 
ATOM      4  C4  IND d   1      -3.524   5.978   5.904  0.00  0.00     0.051 A 
ATOM      5  C5  IND d   1      -4.887   6.000   6.000  0.00  0.00    -0.031 A 
ATOM      6  C6  IND d   1      -5.697   5.971   4.883  0.00  0.00     0.015 A 
ATOM      7  C7  IND d   1      -5.172   5.907   3.624  0.00  0.00    -0.016 A 
ATOM      8  C8  IND d   1      -3.788   5.891   3.522  0.00  0.00    -0.047 A 
ATOM      9  C9  IND d   1      -2.960   5.964   4.650  0.00  0.00    -0.096 A 
ATOM     10  HN1 IND d   1      -3.233   5.815   1.597  0.00  0.00     0.298 HD
ENDROOT
TORSDOF 0
ENDMDL
