MODEL 1
REMARK minimizedAffinity 9.54960918
REMARK minimizedRMSD -1
REMARK  0 active torsions:
REMARK  status: ('A' for Active; 'I' for Inactive)
ROOT
ATOM      1  N1  IND d   1       5.915   3.226  -4.503  0.00  0.00    -0.196 N 
ATOM      2  C2  IND d   1       5.999   2.134  -5.320  0.00  0.00     0.054 A 
ATOM      3  C3  IND d   1       4.842   1.964  -5.999  0.00  0.00    -0.031 A 
ATOM      4  C4  IND d   1       2.718   3.419  -6.000  0.00  0.00     0.051 A 
ATOM      5  C5  IND d   1       2.154   4.502  -5.386  0.00  0.00    -0.031 A 
ATOM      6  C6  IND d   1       2.830   5.232  -4.430  0.00  0.00     0.015 A 
ATOM      7  C7  IND d   1       4.104   4.911  -4.058  0.00  0.00    -0.016 A 
ATOM      8  C8  IND d   1       4.677   3.807  -4.673  0.00  0.00    -0.047 A 
ATOM      9  C9  IND d   1       3.981   3.037  -5.614  0.00  0.00    -0.096 A 
ATOM     10  HN1 IND d   1       6.532   3.504  -3.972  0.00  0.00     0.298 HD
ENDROOT
TORSDOF 0
ENDMDL
