MODEL 1
REMARK minimizedAffinity 0.0951181278
REMARK minimizedRMSD -1
REMARK  0 active torsions:
REMARK  status: ('A' for Active; 'I' for Inactive)
ROOT
ATOM      1  N1  IND d   1      -0.251  -0.590  -1.333  0.00  0.00    -0.196 N 
ATOM      2  C2  IND d   1       0.224  -1.630  -0.584  0.00  0.00     0.054 A 
ATOM      3  C3  IND d   1       1.310  -1.244   0.122  0.00  0.00    -0.031 A 
ATOM      4  C4  IND d   1       2.421   1.073   0.279  0.00  0.00     0.051 A 
ATOM      5  C5  IND d   1       2.366   2.332  -0.251  0.00  0.00    -0.031 A 
ATOM      6  C6  IND d   1       1.416   2.689  -1.185  0.00  0.00     0.015 A 
ATOM      7  C7  IND d   1       0.473   1.800  -1.618  0.00  0.00    -0.016 A 
ATOM      8  C8  IND d   1       0.530   0.519  -1.087  0.00  0.00    -0.047 A 
ATOM      9  C9  IND d   1       1.518   0.138  -0.171  0.00  0.00    -0.096 A 
ATOM     10  HN1 IND d   1      -0.924  -0.622  -1.867  0.00  0.00     0.298 HD
ENDROOT
TORSDOF 0
ENDMDL
