MODEL 1
REMARK minimizedAffinity 2.24908161
REMARK minimizedRMSD -1
REMARK  0 active torsions:
REMARK  status: ('A' for Active; 'I' for Inactive)
ROOT
ATOM      1  C1  BNZ d   1       1.447  -3.039   3.188  0.00  0.00     0.000 A 
ATOM      2  C2  BNZ d   1       1.914  -4.178   3.788  0.00  0.00     0.000 A 
ATOM      3  C3  BNZ d   1       3.108  -4.179   4.453  0.00  0.00     0.000 A 
ATOM      4  C4  BNZ d   1       3.852  -3.055   4.481  0.00  0.00     0.000 A 
ATOM      5  C5  BNZ d   1       3.400  -1.901   3.872  0.00  0.00     0.000 A 
ATOM      6  C6  BNZ d   1       2.179  -1.893   3.238  0.00  0.00     0.000 A 
ENDROOT
TORSDOF 0
ENDMDL
