MODEL 1
REMARK minimizedAffinity 1.99259484
REMARK minimizedRMSD -1
REMARK  0 active torsions:
REMARK  status: ('A' for Active; 'I' for Inactive)
ROOT
ATOM      1  C1  BNZ d   1      -2.526   1.821  -2.359  0.00  0.00     0.000 A 
ATOM      2  C2  BNZ d   1      -3.327   1.420  -3.396  0.00  0.00     0.000 A 
ATOM      3  C3  BNZ d   1      -3.460   0.095  -3.705  0.00  0.00     0.000 A 
ATOM      4  C4  BNZ d   1      -2.762  -0.823  -3.004  0.00  0.00     0.000 A 
ATOM      5  C5  BNZ d   1      -1.944  -0.433  -1.962  0.00  0.00     0.000 A 
ATOM      6  C6  BNZ d   1      -1.843   0.898  -1.629  0.00  0.00     0.000 A 
ENDROOT
TORSDOF 0
ENDMDL
