MODEL 1
REMARK minimizedAffinity -0.665084004
REMARK minimizedRMSD -1
REMARK  0 active torsions:
REMARK  status: ('A' for Active; 'I' for Inactive)
ROOT
ATOM      1  C1  BNZ d   1       2.477  -5.995  -3.599  0.00  0.00     0.000 A 
ATOM      2  C2  BNZ d   1       3.176  -5.998  -2.421  0.00  0.00     0.000 A 
ATOM      3  C3  BNZ d   1       4.542  -5.978  -2.417  0.00  0.00     0.000 A 
ATOM      4  C4  BNZ d   1       5.209  -5.994  -3.589  0.00  0.00     0.000 A 
ATOM      5  C5  BNZ d   1       4.519  -6.000  -4.786  0.00  0.00     0.000 A 
ATOM      6  C6  BNZ d   1       3.143  -5.981  -4.785  0.00  0.00     0.000 A 
ENDROOT
TORSDOF 0
ENDMDL
