MODEL 1
REMARK minimizedAffinity -3.26938367
REMARK minimizedRMSD -1
REMARK  0 active torsions:
REMARK  status: ('A' for Active; 'I' for Inactive)
ROOT
ATOM      1  C1  BNZ d   1       1.059  -1.758   2.615  0.00  0.00     0.000 A 
ATOM      2  C2  BNZ d   1       2.029  -0.855   2.962  0.00  0.00     0.000 A 
ATOM      3  C3  BNZ d   1       2.524   0.028   2.043  0.00  0.00     0.000 A 
ATOM      4  C4  BNZ d   1       2.078  -0.018   0.772  0.00  0.00     0.000 A 
ATOM      5  C5  BNZ d   1       1.107  -0.929   0.404  0.00  0.00     0.000 A 
ATOM      6  C6  BNZ d   1       0.583  -1.790   1.340  0.00  0.00     0.000 A 
ENDROOT
TORSDOF 0
ENDMDL
