MODEL 1
REMARK minimizedAffinity 2.15584898
REMARK minimizedRMSD -1
REMARK  1 active torsions:
REMARK  status: ('A' for Active; 'I' for Inactive)
REMARK    1  A    between atoms: C1_2  and  C2_3 
ROOT
ATOM      1  C2  UNL d   1      -0.615  -4.981  -3.817  0.00  0.00    -0.077 A 
ATOM      2  C3  UNL d   1      -0.464  -4.111  -4.906  0.00  0.00     0.002 A 
ATOM      3  C4  UNL d   1      -1.338  -4.183  -5.993  0.00  0.00     0.002 A 
ATOM      4  C5  UNL d   1      -2.369  -5.119  -5.999  0.00  0.00    -0.004 A 
ATOM      5  C6  UNL d   1      -2.526  -5.990  -4.921  0.00  0.00     0.002 A 
ATOM      6  C7  UNL d   1      -1.653  -5.921  -3.835  0.00  0.00     0.002 A 
ENDROOT
BRANCH   1   7
ATOM      7  C1  UNL d   1       0.296  -4.873  -2.622  0.00  0.00     0.055 C 
ATOM      8  C   UNL d   1       1.320  -5.998  -2.602  0.00  0.00     0.019 C 
ENDBRANCH   1   7
TORSDOF 1
ENDMDL
