MODEL 1
REMARK minimizedAffinity 3.18491101
REMARK minimizedRMSD -1
REMARK  1 active torsions:
REMARK  status: ('A' for Active; 'I' for Inactive)
REMARK    1  A    between atoms: C1_2  and  C2_3 
ROOT
ATOM      1  C2  UNL d   1      -0.299  -5.186  -4.020  0.00  0.00    -0.077 A 
ATOM      2  C3  UNL d   1      -1.455  -5.978  -4.052  0.00  0.00     0.002 A 
ATOM      3  C4  UNL d   1      -2.424  -5.773  -5.036  0.00  0.00     0.002 A 
ATOM      4  C5  UNL d   1      -2.245  -4.781  -5.997  0.00  0.00    -0.004 A 
ATOM      5  C6  UNL d   1      -1.099  -3.986  -5.973  0.00  0.00     0.002 A 
ATOM      6  C7  UNL d   1      -0.130  -4.189  -4.989  0.00  0.00     0.002 A 
ENDROOT
BRANCH   1   7
ATOM      7  C1  UNL d   1       0.770  -5.438  -2.989  0.00  0.00     0.055 C 
ATOM      8  C   UNL d   1       0.672  -4.448  -1.837  0.00  0.00     0.019 C 
ENDBRANCH   1   7
TORSDOF 1
ENDMDL
