MODEL 1
REMARK minimizedAffinity 6.71047354
REMARK minimizedRMSD -1
REMARK  1 active torsions:
REMARK  status: ('A' for Active; 'I' for Inactive)
REMARK    1  A    between atoms: C1_2  and  C2_3 
ROOT
ATOM      1  C2  UNL d   1       0.403   4.087  -0.745  0.00  0.00    -0.077 A 
ATOM      2  C3  UNL d   1      -0.376   2.954  -1.018  0.00  0.00     0.002 A 
ATOM      3  C4  UNL d   1      -0.394   1.879  -0.128  0.00  0.00     0.002 A 
ATOM      4  C5  UNL d   1       0.360   1.928   1.042  0.00  0.00    -0.004 A 
ATOM      5  C6  UNL d   1       1.139   3.050   1.322  0.00  0.00     0.002 A 
ATOM      6  C7  UNL d   1       1.160   4.125   0.433  0.00  0.00     0.002 A 
ENDROOT
BRANCH   1   7
ATOM      7  C1  UNL d   1       0.386   5.269  -1.680  0.00  0.00     0.055 C 
ATOM      8  C   UNL d   1      -0.948   5.999  -1.625  0.00  0.00     0.019 C 
ENDBRANCH   1   7
TORSDOF 1
ENDMDL
