MODEL 1
REMARK minimizedAffinity -0.0123391924
REMARK minimizedRMSD -1
REMARK  1 active torsions:
REMARK  status: ('A' for Active; 'I' for Inactive)
REMARK    1  A    between atoms: C1_2  and  C2_3 
ROOT
ATOM      1  C2  UNL d   1      -4.598  -2.263   3.681  0.00  0.00    -0.077 A 
ATOM      2  C3  UNL d   1      -5.865  -2.648   4.142  0.00  0.00     0.002 A 
ATOM      3  C4  UNL d   1      -5.991  -3.426   5.294  0.00  0.00     0.002 A 
ATOM      4  C5  UNL d   1      -4.855  -3.823   5.997  0.00  0.00    -0.004 A 
ATOM      5  C6  UNL d   1      -3.591  -3.447   5.546  0.00  0.00     0.002 A 
ATOM      6  C7  UNL d   1      -3.463  -2.670   4.393  0.00  0.00     0.002 A 
ENDROOT
BRANCH   1   7
ATOM      7  C1  UNL d   1      -4.463  -1.382   2.466  0.00  0.00     0.055 C 
ATOM      8  C   UNL d   1      -4.957   0.029   2.748  0.00  0.00     0.019 C 
ENDBRANCH   1   7
TORSDOF 1
ENDMDL
