MODEL 1
REMARK minimizedAffinity 1.67674577
REMARK minimizedRMSD -1
REMARK  1 active torsions:
REMARK  status: ('A' for Active; 'I' for Inactive)
REMARK    1  A    between atoms: C1_2  and  C2_3 
ROOT
ATOM      1  C2  UNL d   1      -2.257  -4.431  -5.653  0.00  0.00    -0.077 A 
ATOM      2  C3  UNL d   1      -3.156  -3.411  -5.992  0.00  0.00     0.002 A 
ATOM      3  C4  UNL d   1      -2.742  -2.077  -6.000  0.00  0.00     0.002 A 
ATOM      4  C5  UNL d   1      -1.427  -1.753  -5.672  0.00  0.00    -0.004 A 
ATOM      5  C6  UNL d   1      -0.525  -2.760  -5.331  0.00  0.00     0.002 A 
ATOM      6  C7  UNL d   1      -0.938  -4.093  -5.322  0.00  0.00     0.002 A 
ENDROOT
BRANCH   1   7
ATOM      7  C1  UNL d   1      -2.688  -5.874  -5.692  0.00  0.00     0.055 C 
ATOM      8  C   UNL d   1      -4.173  -5.999  -6.000  0.00  0.00     0.019 C 
ENDBRANCH   1   7
TORSDOF 1
ENDMDL
