MODEL 1
REMARK minimizedAffinity 4.77934599
REMARK minimizedRMSD -1
REMARK  1 active torsions:
REMARK  status: ('A' for Active; 'I' for Inactive)
REMARK    1  A    between atoms: C1_2  and  C2_3 
ROOT
ATOM      1  C2  UNL d   1      -4.268  -5.456  -4.608  0.00  0.00    -0.077 A 
ATOM      2  C3  UNL d   1      -3.551  -5.997  -5.684  0.00  0.00     0.002 A 
ATOM      3  C4  UNL d   1      -2.274  -5.523  -5.991  0.00  0.00     0.002 A 
ATOM      4  C5  UNL d   1      -1.702  -4.510  -5.224  0.00  0.00    -0.004 A 
ATOM      5  C6  UNL d   1      -2.408  -3.964  -4.153  0.00  0.00     0.002 A 
ATOM      6  C7  UNL d   1      -3.685  -4.436  -3.846  0.00  0.00     0.002 A 
ENDROOT
BRANCH   1   7
ATOM      7  C1  UNL d   1      -5.626  -6.000  -4.245  0.00  0.00     0.055 C 
ATOM      8  C   UNL d   1      -5.919  -5.813  -2.763  0.00  0.00     0.019 C 
ENDBRANCH   1   7
TORSDOF 1
ENDMDL
