MODEL 1
REMARK minimizedAffinity 9.08367252
REMARK minimizedRMSD -1
REMARK  2 active torsions:
REMARK  status: ('A' for Active; 'I' for Inactive)
REMARK    1  A    between atoms: C1_2  and  C2_3 
REMARK    2  A    between atoms: C2_3  and  C3_4 
ROOT
ATOM      1  C3  UNL d   1       2.503   0.637   1.061  0.00  0.00    -0.075 A 
ATOM      2  C4  UNL d   1       1.627  -0.121   1.852  0.00  0.00     0.002 A 
ATOM      3  C5  UNL d   1       0.481   0.459   2.396  0.00  0.00     0.002 A 
ATOM      4  C6  UNL d   1       0.201   1.804   2.165  0.00  0.00    -0.004 A 
ATOM      5  C7  UNL d   1       1.072   2.571   1.395  0.00  0.00     0.002 A 
ATOM      6  C8  UNL d   1       2.218   1.992   0.846  0.00  0.00     0.002 A 
ENDROOT
BRANCH   1   7
ATOM      7  C2  UNL d   1       3.729   0.008   0.445  0.00  0.00     0.056 C 
BRANCH   7   8
ATOM      8  C1  UNL d   1       4.648  -0.687   1.456  0.00  0.00     0.007 C 
ATOM      9  C   UNL d   1       5.999  -1.075   0.871  0.00  0.00     0.009 C 
ENDBRANCH   7   8
ENDBRANCH   1   7
TORSDOF 2
ENDMDL
