MODEL 1
REMARK minimizedAffinity 7.18323851
REMARK minimizedRMSD -1
REMARK  2 active torsions:
REMARK  status: ('A' for Active; 'I' for Inactive)
REMARK    1  A    between atoms: C1_2  and  C2_3 
REMARK    2  A    between atoms: C2_3  and  C3_4 
ROOT
ATOM      1  C3  UNL d   1      -4.707   3.518   3.238  0.00  0.00    -0.075 A 
ATOM      2  C4  UNL d   1      -5.397   4.180   2.212  0.00  0.00     0.002 A 
ATOM      3  C5  UNL d   1      -6.000   5.416   2.447  0.00  0.00     0.002 A 
ATOM      4  C6  UNL d   1      -5.929   6.000   3.710  0.00  0.00    -0.004 A 
ATOM      5  C7  UNL d   1      -5.260   5.343   4.741  0.00  0.00     0.002 A 
ATOM      6  C8  UNL d   1      -4.652   4.108   4.508  0.00  0.00     0.002 A 
ENDROOT
BRANCH   1   7
ATOM      7  C2  UNL d   1      -4.027   2.194   2.982  0.00  0.00     0.056 C 
BRANCH   7   8
ATOM      8  C1  UNL d   1      -4.900   0.974   3.297  0.00  0.00     0.007 C 
ATOM      9  C   UNL d   1      -4.532  -0.255   2.477  0.00  0.00     0.009 C 
ENDBRANCH   7   8
ENDBRANCH   1   7
TORSDOF 2
ENDMDL
