MODEL 1
REMARK minimizedAffinity 12.1498566
REMARK minimizedRMSD -1
REMARK  2 active torsions:
REMARK  status: ('A' for Active; 'I' for Inactive)
REMARK    1  A    between atoms: C1_2  and  C2_3 
REMARK    2  A    between atoms: C2_3  and  C3_4 
ROOT
ATOM      1  C3  UNL d   1       2.303   1.480   0.891  0.00  0.00    -0.075 A 
ATOM      2  C4  UNL d   1       2.777   2.313  -0.133  0.00  0.00     0.002 A 
ATOM      3  C5  UNL d   1       3.964   2.009  -0.801  0.00  0.00     0.002 A 
ATOM      4  C6  UNL d   1       4.695   0.877  -0.449  0.00  0.00    -0.004 A 
ATOM      5  C7  UNL d   1       4.242   0.051   0.578  0.00  0.00     0.002 A 
ATOM      6  C8  UNL d   1       3.053   0.350   1.245  0.00  0.00     0.002 A 
ENDROOT
BRANCH   1   7
ATOM      7  C2  UNL d   1       1.005   1.787   1.598  0.00  0.00     0.056 C 
BRANCH   7   8
ATOM      8  C1  UNL d   1       0.505   0.656   2.504  0.00  0.00     0.007 C 
ATOM      9  C   UNL d   1       0.003   1.146   3.855  0.00  0.00     0.009 C 
ENDBRANCH   7   8
ENDBRANCH   1   7
TORSDOF 2
ENDMDL
