MODEL 1
REMARK minimizedAffinity 2.22048712
REMARK minimizedRMSD -1
REMARK  2 active torsions:
REMARK  status: ('A' for Active; 'I' for Inactive)
REMARK    1  A    between atoms: C1_2  and  C2_3 
REMARK    2  A    between atoms: C2_3  and  C3_4 
ROOT
ATOM      1  C3  UNL d   1      -5.675   2.390   5.007  0.00  0.00    -0.075 A 
ATOM      2  C4  UNL d   1      -5.999   1.082   5.397  0.00  0.00     0.002 A 
ATOM      3  C5  UNL d   1      -5.928   0.031   4.481  0.00  0.00     0.002 A 
ATOM      4  C6  UNL d   1      -5.543   0.275   3.165  0.00  0.00    -0.004 A 
ATOM      5  C7  UNL d   1      -5.235   1.573   2.762  0.00  0.00     0.002 A 
ATOM      6  C8  UNL d   1      -5.301   2.625   3.677  0.00  0.00     0.002 A 
ENDROOT
BRANCH   1   7
ATOM      7  C2  UNL d   1      -5.721   3.526   6.000  0.00  0.00     0.056 C 
BRANCH   7   8
ATOM      8  C1  UNL d   1      -4.625   4.577   5.796  0.00  0.00     0.007 C 
ATOM      9  C   UNL d   1      -5.172   5.987   5.613  0.00  0.00     0.009 C 
ENDBRANCH   7   8
ENDBRANCH   1   7
TORSDOF 2
ENDMDL
