MODEL 1
REMARK minimizedAffinity 3.59255695
REMARK minimizedRMSD -1
REMARK  2 active torsions:
REMARK  status: ('A' for Active; 'I' for Inactive)
REMARK    1  A    between atoms: C1_2  and  C2_3 
REMARK    2  A    between atoms: C2_3  and  C3_4 
ROOT
ATOM      1  C3  UNL d   1      -5.332   0.840   3.684  0.00  0.00    -0.075 A 
ATOM      2  C4  UNL d   1      -4.619   2.048   3.681  0.00  0.00     0.002 A 
ATOM      3  C5  UNL d   1      -4.558   2.837   4.830  0.00  0.00     0.002 A 
ATOM      4  C6  UNL d   1      -5.215   2.435   5.990  0.00  0.00    -0.004 A 
ATOM      5  C7  UNL d   1      -5.940   1.246   6.000  0.00  0.00     0.002 A 
ATOM      6  C8  UNL d   1      -6.000   0.452   4.853  0.00  0.00     0.002 A 
ENDROOT
BRANCH   1   7
ATOM      7  C2  UNL d   1      -5.378  -0.033   2.453  0.00  0.00     0.056 C 
BRANCH   7   8
ATOM      8  C1  UNL d   1      -4.094  -0.832   2.206  0.00  0.00     0.007 C 
ATOM      9  C   UNL d   1      -2.915  -0.345   3.038  0.00  0.00     0.009 C 
ENDBRANCH   7   8
ENDBRANCH   1   7
TORSDOF 2
ENDMDL
