MODEL 1
REMARK minimizedAffinity 10.849966
REMARK minimizedRMSD -1
REMARK  2 active torsions:
REMARK  status: ('A' for Active; 'I' for Inactive)
REMARK    1  A    between atoms: C1_2  and  C2_3 
REMARK    2  A    between atoms: C2_3  and  C3_4 
ROOT
ATOM      1  C3  UNL d   1       0.925   0.305   2.953  0.00  0.00    -0.075 A 
ATOM      2  C4  UNL d   1       0.417   1.608   3.057  0.00  0.00     0.002 A 
ATOM      3  C5  UNL d   1      -0.036   2.095   4.284  0.00  0.00     0.002 A 
ATOM      4  C6  UNL d   1       0.005   1.285   5.416  0.00  0.00    -0.004 A 
ATOM      5  C7  UNL d   1       0.492  -0.016   5.320  0.00  0.00     0.002 A 
ATOM      6  C8  UNL d   1       0.949  -0.505   4.095  0.00  0.00     0.002 A 
ENDROOT
BRANCH   1   7
ATOM      7  C2  UNL d   1       1.443  -0.218   1.634  0.00  0.00     0.056 C 
BRANCH   7   8
ATOM      8  C1  UNL d   1       2.885   0.196   1.323  0.00  0.00     0.007 C 
ATOM      9  C   UNL d   1       3.923  -0.740   1.928  0.00  0.00     0.009 C 
ENDBRANCH   7   8
ENDBRANCH   1   7
TORSDOF 2
ENDMDL
