MODEL 1
REMARK minimizedAffinity 17.4636421
REMARK minimizedRMSD -1
REMARK  2 active torsions:
REMARK  status: ('A' for Active; 'I' for Inactive)
REMARK    1  A    between atoms: C1_2  and  C2_3 
REMARK    2  A    between atoms: C2_3  and  C3_4 
ROOT
ATOM      1  C3  UNL d   1      -3.584  -3.800  -2.997  0.00  0.00    -0.075 A 
ATOM      2  C4  UNL d   1      -2.448  -3.193  -3.553  0.00  0.00     0.002 A 
ATOM      3  C5  UNL d   1      -1.272  -3.921  -3.731  0.00  0.00     0.002 A 
ATOM      4  C6  UNL d   1      -1.212  -5.259  -3.346  0.00  0.00    -0.004 A 
ATOM      5  C7  UNL d   1      -2.329  -5.867  -2.777  0.00  0.00     0.002 A 
ATOM      6  C8  UNL d   1      -3.509  -5.142  -2.602  0.00  0.00     0.002 A 
ENDROOT
BRANCH   1   7
ATOM      7  C2  UNL d   1      -4.869  -3.025  -2.829  0.00  0.00     0.056 C 
BRANCH   7   8
ATOM      8  C1  UNL d   1      -5.993  -3.470  -3.772  0.00  0.00     0.007 C 
ATOM      9  C   UNL d   1      -5.998  -2.718  -5.096  0.00  0.00     0.009 C 
ENDBRANCH   7   8
ENDBRANCH   1   7
TORSDOF 2
ENDMDL
