MODEL 1
REMARK minimizedAffinity 12.5101328
REMARK minimizedRMSD -1
REMARK  2 active torsions:
REMARK  status: ('A' for Active; 'I' for Inactive)
REMARK    1  A    between atoms: C1_2  and  C2_3 
REMARK    2  A    between atoms: C2_3  and  C3_4 
ROOT
ATOM      1  C3  UNL d   1      -4.869   1.827   4.777  0.00  0.00    -0.075 A 
ATOM      2  C4  UNL d   1      -5.657   1.341   5.831  0.00  0.00     0.002 A 
ATOM      3  C5  UNL d   1      -5.844  -0.031   6.000  0.00  0.00     0.002 A 
ATOM      4  C6  UNL d   1      -5.257  -0.932   5.114  0.00  0.00    -0.004 A 
ATOM      5  C7  UNL d   1      -4.486  -0.459   4.054  0.00  0.00     0.002 A 
ATOM      6  C8  UNL d   1      -4.293   0.913   3.885  0.00  0.00     0.002 A 
ENDROOT
BRANCH   1   7
ATOM      7  C2  UNL d   1      -4.638   3.310   4.606  0.00  0.00     0.056 C 
BRANCH   7   8
ATOM      8  C1  UNL d   1      -4.932   4.136   5.862  0.00  0.00     0.007 C 
ATOM      9  C   UNL d   1      -5.324   5.576   5.556  0.00  0.00     0.009 C 
ENDBRANCH   7   8
ENDBRANCH   1   7
TORSDOF 2
ENDMDL
