MODEL 1
REMARK minimizedAffinity 7.43041229
REMARK minimizedRMSD -1
REMARK  2 active torsions:
REMARK  status: ('A' for Active; 'I' for Inactive)
REMARK    1  A    between atoms: C1_2  and  C2_3 
REMARK    2  A    between atoms: C2_3  and  C3_4 
ROOT
ATOM      1  C3  UNL d   1      -3.481  -3.325  -2.564  0.00  0.00    -0.075 A 
ATOM      2  C4  UNL d   1      -2.845  -3.187  -3.806  0.00  0.00     0.002 A 
ATOM      3  C5  UNL d   1      -1.777  -2.302  -3.960  0.00  0.00     0.002 A 
ATOM      4  C6  UNL d   1      -1.340  -1.538  -2.880  0.00  0.00    -0.004 A 
ATOM      5  C7  UNL d   1      -1.976  -1.656  -1.646  0.00  0.00     0.002 A 
ATOM      6  C8  UNL d   1      -3.041  -2.543  -1.487  0.00  0.00     0.002 A 
ENDROOT
BRANCH   1   7
ATOM      7  C2  UNL d   1      -4.618  -4.303  -2.383  0.00  0.00     0.056 C 
BRANCH   7   8
ATOM      8  C1  UNL d   1      -5.993  -3.737  -2.755  0.00  0.00     0.007 C 
ATOM      9  C   UNL d   1      -6.000  -3.008  -4.092  0.00  0.00     0.009 C 
ENDBRANCH   7   8
ENDBRANCH   1   7
TORSDOF 2
ENDMDL
