MODEL 1
REMARK minimizedAffinity 12.4503813
REMARK minimizedRMSD -1
REMARK  2 active torsions:
REMARK  status: ('A' for Active; 'I' for Inactive)
REMARK    1  A    between atoms: C1_2  and  C2_3 
REMARK    2  A    between atoms: C2_3  and  C3_4 
ROOT
ATOM      1  C3  UNL d   1      -2.748  -3.563   0.953  0.00  0.00    -0.075 A 
ATOM      2  C4  UNL d   1      -3.577  -4.666   0.701  0.00  0.00     0.002 A 
ATOM      3  C5  UNL d   1      -3.375  -5.872   1.373  0.00  0.00     0.002 A 
ATOM      4  C6  UNL d   1      -2.338  -5.994   2.295  0.00  0.00    -0.004 A 
ATOM      5  C7  UNL d   1      -1.498  -4.910   2.541  0.00  0.00     0.002 A 
ATOM      6  C8  UNL d   1      -1.700  -3.701   1.874  0.00  0.00     0.002 A 
ENDROOT
BRANCH   1   7
ATOM      7  C2  UNL d   1      -2.979  -2.246   0.252  0.00  0.00     0.056 C 
BRANCH   7   8
ATOM      8  C1  UNL d   1      -2.172  -2.077  -1.040  0.00  0.00     0.007 C 
ATOM      9  C   UNL d   1      -2.924  -2.536  -2.282  0.00  0.00     0.009 C 
ENDBRANCH   7   8
ENDBRANCH   1   7
TORSDOF 2
ENDMDL
