MODEL 1
REMARK minimizedAffinity 9.85367298
REMARK minimizedRMSD -1
REMARK  2 active torsions:
REMARK  status: ('A' for Active; 'I' for Inactive)
REMARK    1  A    between atoms: C1_2  and  C2_3 
REMARK    2  A    between atoms: C2_3  and  C3_4 
ROOT
ATOM      1  C3  UNL d   1      -4.989   3.335   4.700  0.00  0.00    -0.075 A 
ATOM      2  C4  UNL d   1      -5.547   3.974   3.583  0.00  0.00     0.002 A 
ATOM      3  C5  UNL d   1      -5.994   5.293   3.671  0.00  0.00     0.002 A 
ATOM      4  C6  UNL d   1      -5.899   5.985   4.877  0.00  0.00    -0.004 A 
ATOM      5  C7  UNL d   1      -5.363   5.354   5.998  0.00  0.00     0.002 A 
ATOM      6  C8  UNL d   1      -4.911   4.036   5.911  0.00  0.00     0.002 A 
ENDROOT
BRANCH   1   7
ATOM      7  C2  UNL d   1      -4.477   1.918   4.604  0.00  0.00     0.056 C 
BRANCH   7   8
ATOM      8  C1  UNL d   1      -3.762   1.602   3.286  0.00  0.00     0.007 C 
ATOM      9  C   UNL d   1      -2.291   1.995   3.291  0.00  0.00     0.009 C 
ENDBRANCH   7   8
ENDBRANCH   1   7
TORSDOF 2
ENDMDL
