MODEL 1
REMARK minimizedAffinity 14.1872463
REMARK minimizedRMSD -1
REMARK  2 active torsions:
REMARK  status: ('A' for Active; 'I' for Inactive)
REMARK    1  A    between atoms: C1_2  and  C2_3 
REMARK    2  A    between atoms: C2_3  and  C3_4 
ROOT
ATOM      1  C3  UNL d   1      -3.331  -3.825  -2.637  0.00  0.00    -0.075 A 
ATOM      2  C4  UNL d   1      -3.413  -5.127  -2.122  0.00  0.00     0.002 A 
ATOM      3  C5  UNL d   1      -4.584  -5.872  -2.265  0.00  0.00     0.002 A 
ATOM      4  C6  UNL d   1      -5.689  -5.323  -2.912  0.00  0.00    -0.004 A 
ATOM      5  C7  UNL d   1      -5.624  -4.024  -3.412  0.00  0.00     0.002 A 
ATOM      6  C8  UNL d   1      -4.452  -3.278  -3.275  0.00  0.00     0.002 A 
ENDROOT
BRANCH   1   7
ATOM      7  C2  UNL d   1      -2.057  -3.024  -2.512  0.00  0.00     0.056 C 
BRANCH   7   8
ATOM      8  C1  UNL d   1      -1.089  -3.205  -3.686  0.00  0.00     0.007 C 
ATOM      9  C   UNL d   1      -0.415  -4.571  -3.704  0.00  0.00     0.009 C 
ENDBRANCH   7   8
ENDBRANCH   1   7
TORSDOF 2
ENDMDL
