MODEL 1
REMARK minimizedAffinity 6.35225725
REMARK minimizedRMSD -1
REMARK  2 active torsions:
REMARK  status: ('A' for Active; 'I' for Inactive)
REMARK    1  A    between atoms: C1_2  and  C2_3 
REMARK    2  A    between atoms: C2_3  and  C3_4 
ROOT
ATOM      1  C3  UNL d   1      -1.459  -3.751   0.274  0.00  0.00    -0.075 A 
ATOM      2  C4  UNL d   1      -0.482  -4.755   0.330  0.00  0.00     0.002 A 
ATOM      3  C5  UNL d   1      -0.663  -5.874   1.144  0.00  0.00     0.002 A 
ATOM      4  C6  UNL d   1      -1.815  -5.998   1.917  0.00  0.00    -0.004 A 
ATOM      5  C7  UNL d   1      -2.785  -4.998   1.881  0.00  0.00     0.002 A 
ATOM      6  C8  UNL d   1      -2.608  -3.879   1.065  0.00  0.00     0.002 A 
ENDROOT
BRANCH   1   7
ATOM      7  C2  UNL d   1      -1.282  -2.552  -0.627  0.00  0.00     0.056 C 
BRANCH   7   8
ATOM      8  C1  UNL d   1      -2.524  -2.206  -1.455  0.00  0.00     0.007 C 
ATOM      9  C   UNL d   1      -2.389  -2.580  -2.925  0.00  0.00     0.009 C 
ENDBRANCH   7   8
ENDBRANCH   1   7
TORSDOF 2
ENDMDL
