MODEL 1
REMARK minimizedAffinity 10.8760452
REMARK minimizedRMSD -1
REMARK  2 active torsions:
REMARK  status: ('A' for Active; 'I' for Inactive)
REMARK    1  A    between atoms: C1_2  and  C2_3 
REMARK    2  A    between atoms: C2_3  and  C3_4 
ROOT
ATOM      1  C3  UNL d   1       2.489   0.653   2.055  0.00  0.00    -0.075 A 
ATOM      2  C4  UNL d   1       2.633   0.558   0.663  0.00  0.00     0.002 A 
ATOM      3  C5  UNL d   1       3.744  -0.077   0.107  0.00  0.00     0.002 A 
ATOM      4  C6  UNL d   1       4.728  -0.615   0.933  0.00  0.00    -0.004 A 
ATOM      5  C7  UNL d   1       4.604  -0.512   2.317  0.00  0.00     0.002 A 
ATOM      6  C8  UNL d   1       3.491   0.119   2.876  0.00  0.00     0.002 A 
ENDROOT
BRANCH   1   7
ATOM      7  C2  UNL d   1       1.275   1.313   2.663  0.00  0.00     0.056 C 
BRANCH   7   8
ATOM      8  C1  UNL d   1       0.941   0.824   4.076  0.00  0.00     0.007 C 
ATOM      9  C   UNL d   1       0.140  -0.472   4.089  0.00  0.00     0.009 C 
ENDBRANCH   7   8
ENDBRANCH   1   7
TORSDOF 2
ENDMDL
