MODEL 1
REMARK minimizedAffinity 17.4950733
REMARK minimizedRMSD -1
REMARK  2 active torsions:
REMARK  status: ('A' for Active; 'I' for Inactive)
REMARK    1  A    between atoms: C1_2  and  C2_3 
REMARK    2  A    between atoms: C2_3  and  C3_4 
ROOT
ATOM      1  C3  UNL d   1      -1.258  -2.219  -3.381  0.00  0.00    -0.075 A 
ATOM      2  C4  UNL d   1      -0.925  -1.470  -2.242  0.00  0.00     0.002 A 
ATOM      3  C5  UNL d   1      -1.772  -1.451  -1.134  0.00  0.00     0.002 A 
ATOM      4  C6  UNL d   1      -2.965  -2.171  -1.153  0.00  0.00    -0.004 A 
ATOM      5  C7  UNL d   1      -3.314  -2.905  -2.285  0.00  0.00     0.002 A 
ATOM      6  C8  UNL d   1      -2.465  -2.929  -3.394  0.00  0.00     0.002 A 
ENDROOT
BRANCH   1   7
ATOM      7  C2  UNL d   1      -0.331  -2.267  -4.572  0.00  0.00     0.056 C 
BRANCH   7   8
ATOM      8  C1  UNL d   1      -1.047  -2.179  -5.923  0.00  0.00     0.007 C 
ATOM      9  C   UNL d   1      -2.049  -1.035  -5.999  0.00  0.00     0.009 C 
ENDBRANCH   7   8
ENDBRANCH   1   7
TORSDOF 2
ENDMDL
