MODEL 1
REMARK minimizedAffinity -3.47499037
REMARK minimizedRMSD -1
REMARK  1 active torsions:
REMARK  status: ('A' for Active; 'I' for Inactive)
REMARK    1  A    between atoms: C1_2  and  C2_3 
ROOT
ATOM      1  C2  UNL d   1       4.014  -4.496   0.125  0.00  0.00    -0.077 A 
ATOM      2  C3  UNL d   1       4.497  -3.271  -0.356  0.00  0.00     0.002 A 
ATOM      3  C4  UNL d   1       3.745  -2.105  -0.199  0.00  0.00     0.002 A 
ATOM      4  C5  UNL d   1       2.509  -2.152   0.442  0.00  0.00    -0.004 A 
ATOM      5  C6  UNL d   1       2.019  -3.365   0.922  0.00  0.00     0.002 A 
ATOM      6  C7  UNL d   1       2.768  -4.532   0.765  0.00  0.00     0.002 A 
ENDROOT
BRANCH   1   7
ATOM      7  C1  UNL d   1       4.845  -5.746   0.001  0.00  0.00     0.055 C 
ATOM      8  C   UNL d   1       5.666  -5.993   1.259  0.00  0.00     0.019 C 
ENDBRANCH   1   7
TORSDOF 1
ENDMDL
