MODEL 1
REMARK minimizedAffinity -3.82545924
REMARK minimizedRMSD -1
REMARK  1 active torsions:
REMARK  status: ('A' for Active; 'I' for Inactive)
REMARK    1  A    between atoms: C1_2  and  C2_3 
ROOT
ATOM      1  C2  UNL d   1       1.750  -2.670  -0.093  0.00  0.00    -0.077 A 
ATOM      2  C3  UNL d   1       2.284  -1.378   0.023  0.00  0.00     0.002 A 
ATOM      3  C4  UNL d   1       1.521  -0.345   0.571  0.00  0.00     0.002 A 
ATOM      4  C5  UNL d   1       0.223  -0.594   1.010  0.00  0.00    -0.004 A 
ATOM      5  C6  UNL d   1      -0.318  -1.874   0.897  0.00  0.00     0.002 A 
ATOM      6  C7  UNL d   1       0.443  -2.907   0.349  0.00  0.00     0.002 A 
ENDROOT
BRANCH   1   7
ATOM      7  C1  UNL d   1       2.589  -3.796  -0.638  0.00  0.00     0.055 C 
ATOM      8  C   UNL d   1       4.069  -3.444  -0.619  0.00  0.00     0.019 C 
ENDBRANCH   1   7
TORSDOF 1
ENDMDL
