MODEL 1
REMARK minimizedAffinity -3.99221015
REMARK minimizedRMSD -1
REMARK  1 active torsions:
REMARK  status: ('A' for Active; 'I' for Inactive)
REMARK    1  A    between atoms: C1_2  and  C2_3 
ROOT
ATOM      1  C2  UNL d   1       1.503  -0.904   0.329  0.00  0.00    -0.077 A 
ATOM      2  C3  UNL d   1       0.238  -0.521   0.798  0.00  0.00     0.002 A 
ATOM      3  C4  UNL d   1      -0.774  -1.469   0.953  0.00  0.00     0.002 A 
ATOM      4  C5  UNL d   1      -0.532  -2.806   0.645  0.00  0.00    -0.004 A 
ATOM      5  C6  UNL d   1       0.722  -3.197   0.176  0.00  0.00     0.002 A 
ATOM      6  C7  UNL d   1       1.735  -2.250   0.020  0.00  0.00     0.002 A 
ENDROOT
BRANCH   1   7
ATOM      7  C1  UNL d   1       2.611   0.109   0.208  0.00  0.00     0.055 C 
ATOM      8  C   UNL d   1       2.733   0.950   1.470  0.00  0.00     0.019 C 
ENDBRANCH   1   7
TORSDOF 1
ENDMDL
