MODEL 1
REMARK minimizedAffinity -3.02105618
REMARK minimizedRMSD -1
REMARK  1 active torsions:
REMARK  status: ('A' for Active; 'I' for Inactive)
REMARK    1  A    between atoms: C1_2  and  C2_3 
ROOT
ATOM      1  C2  UNL d   1       3.126  -3.243  -0.066  0.00  0.00    -0.077 A 
ATOM      2  C3  UNL d   1       1.884  -3.888  -0.151  0.00  0.00     0.002 A 
ATOM      3  C4  UNL d   1       0.706  -3.192   0.127  0.00  0.00     0.002 A 
ATOM      4  C5  UNL d   1       0.758  -1.847   0.486  0.00  0.00    -0.004 A 
ATOM      5  C6  UNL d   1       1.988  -1.197   0.575  0.00  0.00     0.002 A 
ATOM      6  C7  UNL d   1       3.167  -1.891   0.299  0.00  0.00     0.002 A 
ENDROOT
BRANCH   1   7
ATOM      7  C1  UNL d   1       4.394  -3.978  -0.413  0.00  0.00     0.055 C 
ATOM      8  C   UNL d   1       4.526  -5.264   0.390  0.00  0.00     0.019 C 
ENDBRANCH   1   7
TORSDOF 1
ENDMDL
