MODEL 1
REMARK minimizedAffinity -4.91739988
REMARK minimizedRMSD -1
REMARK  1 active torsions:
REMARK  status: ('A' for Active; 'I' for Inactive)
REMARK    1  A    between atoms: C1_2  and  C2_3 
ROOT
ATOM      1  C2  UNL d   1       1.154  -2.797   0.196  0.00  0.00    -0.077 A 
ATOM      2  C3  UNL d   1      -0.129  -2.863   0.757  0.00  0.00     0.002 A 
ATOM      3  C4  UNL d   1      -0.803  -1.695   1.116  0.00  0.00     0.002 A 
ATOM      4  C5  UNL d   1      -0.205  -0.453   0.915  0.00  0.00    -0.004 A 
ATOM      5  C6  UNL d   1       1.072  -0.377   0.360  0.00  0.00     0.002 A 
ATOM      6  C7  UNL d   1       1.748  -1.544   0.001  0.00  0.00     0.002 A 
ENDROOT
BRANCH   1   7
ATOM      7  C1  UNL d   1       1.864  -4.054  -0.238  0.00  0.00     0.055 C 
ATOM      8  C   UNL d   1       3.364  -3.829  -0.359  0.00  0.00     0.019 C 
ENDBRANCH   1   7
TORSDOF 1
ENDMDL
