MODEL 1
REMARK minimizedAffinity -3.83898878
REMARK minimizedRMSD -1
REMARK  1 active torsions:
REMARK  status: ('A' for Active; 'I' for Inactive)
REMARK    1  A    between atoms: C1_2  and  C2_3 
ROOT
ATOM      1  C2  UNL d   1       1.463  -1.378   0.337  0.00  0.00    -0.077 A 
ATOM      2  C3  UNL d   1       0.736  -2.534   0.654  0.00  0.00     0.002 A 
ATOM      3  C4  UNL d   1       1.203  -3.791   0.265  0.00  0.00     0.002 A 
ATOM      4  C5  UNL d   1       2.400  -3.904  -0.439  0.00  0.00    -0.004 A 
ATOM      5  C6  UNL d   1       3.130  -2.760  -0.761  0.00  0.00     0.002 A 
ATOM      6  C7  UNL d   1       2.664  -1.503  -0.374  0.00  0.00     0.002 A 
ENDROOT
BRANCH   1   7
ATOM      7  C1  UNL d   1       0.986  -0.025   0.798  0.00  0.00     0.055 C 
ATOM      8  C   UNL d   1      -0.451  -0.085   1.296  0.00  0.00     0.019 C 
ENDBRANCH   1   7
TORSDOF 1
ENDMDL
