MODEL 1
REMARK minimizedAffinity 3.98082805
REMARK minimizedRMSD -1
REMARK  1 active torsions:
REMARK  status: ('A' for Active; 'I' for Inactive)
REMARK    1  A    between atoms: C1_2  and  C2_3 
ROOT
ATOM      1  C2  UNL d   1       2.112  -1.576   0.430  0.00  0.00    -0.077 A 
ATOM      2  C3  UNL d   1       1.614  -0.991   1.602  0.00  0.00     0.002 A 
ATOM      3  C4  UNL d   1       0.323  -1.286   2.046  0.00  0.00     0.002 A 
ATOM      4  C5  UNL d   1      -0.477  -2.170   1.327  0.00  0.00    -0.004 A 
ATOM      5  C6  UNL d   1       0.008  -2.756   0.158  0.00  0.00     0.002 A 
ATOM      6  C7  UNL d   1       1.297  -2.461  -0.288  0.00  0.00     0.002 A 
ENDROOT
BRANCH   1   7
ATOM      7  C1  UNL d   1       3.521  -1.297  -0.024  0.00  0.00     0.055 C 
ATOM      8  C   UNL d   1       4.508  -1.417   1.129  0.00  0.00     0.019 C 
ENDBRANCH   1   7
TORSDOF 1
ENDMDL
