MODEL 1
REMARK minimizedAffinity -0.624397099
REMARK minimizedRMSD -1
REMARK  1 active torsions:
REMARK  status: ('A' for Active; 'I' for Inactive)
REMARK    1  A    between atoms: C1_2  and  C2_3 
ROOT
ATOM      1  C2  UNL d   1       0.895  -2.214  -0.354  0.00  0.00    -0.077 A 
ATOM      2  C3  UNL d   1       1.797  -1.300   0.209  0.00  0.00     0.002 A 
ATOM      3  C4  UNL d   1       1.365  -0.383   1.169  0.00  0.00     0.002 A 
ATOM      4  C5  UNL d   1       0.033  -0.374   1.578  0.00  0.00    -0.004 A 
ATOM      5  C6  UNL d   1      -0.871  -1.278   1.022  0.00  0.00     0.002 A 
ATOM      6  C7  UNL d   1      -0.442  -2.194   0.061  0.00  0.00     0.002 A 
ENDROOT
BRANCH   1   7
ATOM      7  C1  UNL d   1       1.369  -3.237  -1.354  0.00  0.00     0.055 C 
ATOM      8  C   UNL d   1       0.480  -3.256  -2.589  0.00  0.00     0.019 C 
ENDBRANCH   1   7
TORSDOF 1
ENDMDL
