MODEL 1
REMARK minimizedAffinity 2.93711615
REMARK minimizedRMSD -1
REMARK  1 active torsions:
REMARK  status: ('A' for Active; 'I' for Inactive)
REMARK    1  A    between atoms: C1_2  and  C2_3 
ROOT
ATOM      1  C2  UNL d   1       0.957  -0.897   1.648  0.00  0.00    -0.077 A 
ATOM      2  C3  UNL d   1       0.701  -1.938   0.744  0.00  0.00     0.002 A 
ATOM      3  C4  UNL d   1      -0.612  -2.325   0.468  0.00  0.00     0.002 A 
ATOM      4  C5  UNL d   1      -1.677  -1.675   1.086  0.00  0.00    -0.004 A 
ATOM      5  C6  UNL d   1      -1.432  -0.639   1.988  0.00  0.00     0.002 A 
ATOM      6  C7  UNL d   1      -0.121  -0.252   2.267  0.00  0.00     0.002 A 
ENDROOT
BRANCH   1   7
ATOM      7  C1  UNL d   1       2.370  -0.445   1.910  0.00  0.00     0.055 C 
ATOM      8  C   UNL d   1       3.194  -0.431   0.631  0.00  0.00     0.019 C 
ENDBRANCH   1   7
TORSDOF 1
ENDMDL
