MODEL 1
REMARK minimizedAffinity 0.217492774
REMARK minimizedRMSD -1
REMARK  1 active torsions:
REMARK  status: ('A' for Active; 'I' for Inactive)
REMARK    1  A    between atoms: C1_2  and  C2_3 
ROOT
ATOM      1  C2  UNL d   1       3.765  -3.865  -0.008  0.00  0.00    -0.077 A 
ATOM      2  C3  UNL d   1       2.493  -4.454  -0.035  0.00  0.00     0.002 A 
ATOM      3  C4  UNL d   1       1.350  -3.674   0.149  0.00  0.00     0.002 A 
ATOM      4  C5  UNL d   1       1.467  -2.301   0.357  0.00  0.00    -0.004 A 
ATOM      5  C6  UNL d   1       2.728  -1.707   0.388  0.00  0.00     0.002 A 
ATOM      6  C7  UNL d   1       3.872  -2.485   0.205  0.00  0.00     0.002 A 
ENDROOT
BRANCH   1   7
ATOM      7  C1  UNL d   1       4.997  -4.697  -0.255  0.00  0.00     0.055 C 
ATOM      8  C   UNL d   1       4.979  -5.972   0.575  0.00  0.00     0.019 C 
ENDBRANCH   1   7
TORSDOF 1
ENDMDL
