MODEL 1
REMARK minimizedAffinity 10.8210173
REMARK minimizedRMSD -1
REMARK  1 active torsions:
REMARK  status: ('A' for Active; 'I' for Inactive)
REMARK    1  A    between atoms: C1_2  and  C2_3 
ROOT
ATOM      1  C2  UNL d   1       3.471   0.406  -2.921  0.00  0.00    -0.077 A 
ATOM      2  C3  UNL d   1       4.526   0.126  -3.800  0.00  0.00     0.002 A 
ATOM      3  C4  UNL d   1       5.734  -0.379  -3.314  0.00  0.00     0.002 A 
ATOM      4  C5  UNL d   1       5.896  -0.612  -1.950  0.00  0.00    -0.004 A 
ATOM      5  C6  UNL d   1       4.853  -0.335  -1.068  0.00  0.00     0.002 A 
ATOM      6  C7  UNL d   1       3.645   0.171  -1.551  0.00  0.00     0.002 A 
ENDROOT
BRANCH   1   7
ATOM      7  C1  UNL d   1       2.150   0.904  -3.448  0.00  0.00     0.055 C 
ATOM      8  C   UNL d   1       1.245  -0.250  -3.854  0.00  0.00     0.019 C 
ENDBRANCH   1   7
TORSDOF 1
ENDMDL
