MODEL 1
REMARK minimizedAffinity -1.25037205
REMARK minimizedRMSD -1
REMARK  1 active torsions:
REMARK  status: ('A' for Active; 'I' for Inactive)
REMARK    1  A    between atoms: C1_2  and  C2_3 
ROOT
ATOM      1  C2  UNL d   1       0.184  -2.415   0.828  0.00  0.00    -0.077 A 
ATOM      2  C3  UNL d   1      -0.638  -1.413   0.294  0.00  0.00     0.002 A 
ATOM      3  C4  UNL d   1      -1.061  -0.346   1.090  0.00  0.00     0.002 A 
ATOM      4  C5  UNL d   1      -0.662  -0.270   2.423  0.00  0.00    -0.004 A 
ATOM      5  C6  UNL d   1       0.153  -1.263   2.965  0.00  0.00     0.002 A 
ATOM      6  C7  UNL d   1       0.575  -2.330   2.171  0.00  0.00     0.002 A 
ENDROOT
BRANCH   1   7
ATOM      7  C1  UNL d   1       0.680  -3.540  -0.042  0.00  0.00     0.055 C 
ATOM      8  C   UNL d   1       2.184  -3.724   0.096  0.00  0.00     0.019 C 
ENDBRANCH   1   7
TORSDOF 1
ENDMDL
