MODEL 1
REMARK minimizedAffinity -4.27689695
REMARK minimizedRMSD -1
REMARK  1 active torsions:
REMARK  status: ('A' for Active; 'I' for Inactive)
REMARK    1  A    between atoms: C1_2  and  C2_3 
ROOT
ATOM      1  C2  UNL d   1       1.021  -1.851   0.258  0.00  0.00    -0.077 A 
ATOM      2  C3  UNL d   1       0.815  -3.237   0.216  0.00  0.00     0.002 A 
ATOM      3  C4  UNL d   1       1.898  -4.109   0.097  0.00  0.00     0.002 A 
ATOM      4  C5  UNL d   1       3.195  -3.605   0.022  0.00  0.00    -0.004 A 
ATOM      5  C6  UNL d   1       3.411  -2.228   0.061  0.00  0.00     0.002 A 
ATOM      6  C7  UNL d   1       2.328  -1.355   0.179  0.00  0.00     0.002 A 
ENDROOT
BRANCH   1   7
ATOM      7  C1  UNL d   1      -0.143  -0.911   0.436  0.00  0.00     0.055 C 
ATOM      8  C   UNL d   1       0.159   0.152   1.482  0.00  0.00     0.019 C 
ENDBRANCH   1   7
TORSDOF 1
ENDMDL
