MODEL 1
REMARK minimizedAffinity 9.11276722
REMARK minimizedRMSD -1
REMARK  2 active torsions:
REMARK  status: ('A' for Active; 'I' for Inactive)
REMARK    1  A    between atoms: C1_2  and  C2_3 
REMARK    2  A    between atoms: C2_3  and  C3_4 
ROOT
ATOM      1  C3  UNL d   1      -4.916  -3.187  -5.225  0.00  0.00    -0.075 A 
ATOM      2  C4  UNL d   1      -5.999  -3.898  -5.762  0.00  0.00     0.002 A 
ATOM      3  C5  UNL d   1      -5.986  -5.293  -5.792  0.00  0.00     0.002 A 
ATOM      4  C6  UNL d   1      -4.889  -5.993  -5.295  0.00  0.00    -0.004 A 
ATOM      5  C7  UNL d   1      -3.800  -5.297  -4.775  0.00  0.00     0.002 A 
ATOM      6  C8  UNL d   1      -3.812  -3.902  -4.740  0.00  0.00     0.002 A 
ENDROOT
BRANCH   1   7
ATOM      7  C2  UNL d   1      -4.936  -1.679  -5.163  0.00  0.00     0.056 C 
BRANCH   7   8
ATOM      8  C1  UNL d   1      -4.829  -1.111  -3.744  0.00  0.00     0.007 C 
ATOM      9  C   UNL d   1      -4.374   0.342  -3.711  0.00  0.00     0.009 C 
ENDBRANCH   7   8
ENDBRANCH   1   7
TORSDOF 2
ENDMDL
