MODEL 1
REMARK minimizedAffinity 11.2451439
REMARK minimizedRMSD -1
REMARK  2 active torsions:
REMARK  status: ('A' for Active; 'I' for Inactive)
REMARK    1  A    between atoms: C1_2  and  C2_3 
REMARK    2  A    between atoms: C2_3  and  C3_4 
ROOT
ATOM      1  C3  UNL d   1      -4.660  -2.124  -4.003  0.00  0.00    -0.075 A 
ATOM      2  C4  UNL d   1      -3.645  -1.157  -4.062  0.00  0.00     0.002 A 
ATOM      3  C5  UNL d   1      -3.689  -0.034  -3.236  0.00  0.00     0.002 A 
ATOM      4  C6  UNL d   1      -4.749   0.143  -2.350  0.00  0.00    -0.004 A 
ATOM      5  C7  UNL d   1      -5.771  -0.803  -2.295  0.00  0.00     0.002 A 
ATOM      6  C8  UNL d   1      -5.728  -1.930  -3.117  0.00  0.00     0.002 A 
ENDROOT
BRANCH   1   7
ATOM      7  C2  UNL d   1      -4.603  -3.357  -4.873  0.00  0.00     0.056 C 
BRANCH   7   8
ATOM      8  C1  UNL d   1      -5.944  -3.729  -5.516  0.00  0.00     0.007 C 
ATOM      9  C   UNL d   1      -5.998  -5.172  -5.999  0.00  0.00     0.009 C 
ENDBRANCH   7   8
ENDBRANCH   1   7
TORSDOF 2
ENDMDL
