MODEL 1
REMARK minimizedAffinity 15.4511986
REMARK minimizedRMSD -1
REMARK  2 active torsions:
REMARK  status: ('A' for Active; 'I' for Inactive)
REMARK    1  A    between atoms: C1_2  and  C2_3 
REMARK    2  A    between atoms: C2_3  and  C3_4 
ROOT
ATOM      1  C3  UNL d   1      -0.150   3.686  -0.221  0.00  0.00    -0.075 A 
ATOM      2  C4  UNL d   1      -0.840   3.136  -1.312  0.00  0.00     0.002 A 
ATOM      3  C5  UNL d   1      -1.694   2.047  -1.134  0.00  0.00     0.002 A 
ATOM      4  C6  UNL d   1      -1.860   1.488   0.131  0.00  0.00    -0.004 A 
ATOM      5  C7  UNL d   1      -1.167   2.015   1.219  0.00  0.00     0.002 A 
ATOM      6  C8  UNL d   1      -0.316   3.108   1.044  0.00  0.00     0.002 A 
ENDROOT
BRANCH   1   7
ATOM      7  C2  UNL d   1       0.752   4.883  -0.402  0.00  0.00     0.056 C 
BRANCH   7   8
ATOM      8  C1  UNL d   1       1.977   4.614  -1.282  0.00  0.00     0.007 C 
ATOM      9  C   UNL d   1       2.939   3.599  -0.677  0.00  0.00     0.009 C 
ENDBRANCH   7   8
ENDBRANCH   1   7
TORSDOF 2
ENDMDL
