MODEL 1
REMARK minimizedAffinity 4.35094833
REMARK minimizedRMSD -1
REMARK  2 active torsions:
REMARK  status: ('A' for Active; 'I' for Inactive)
REMARK    1  A    between atoms: C1_2  and  C2_3 
REMARK    2  A    between atoms: C2_3  and  C3_4 
ROOT
ATOM      1  C3  UNL d   1       1.695  -2.823   0.228  0.00  0.00    -0.075 A 
ATOM      2  C4  UNL d   1       1.224  -4.144   0.213  0.00  0.00     0.002 A 
ATOM      3  C5  UNL d   1       0.884  -4.761  -0.991  0.00  0.00     0.002 A 
ATOM      4  C6  UNL d   1       1.000  -4.064  -2.192  0.00  0.00    -0.004 A 
ATOM      5  C7  UNL d   1       1.451  -2.746  -2.187  0.00  0.00     0.002 A 
ATOM      6  C8  UNL d   1       1.796  -2.127  -0.984  0.00  0.00     0.002 A 
ENDROOT
BRANCH   1   7
ATOM      7  C2  UNL d   1       2.092  -2.159   1.524  0.00  0.00     0.056 C 
BRANCH   7   8
ATOM      8  C1  UNL d   1       0.919  -1.546   2.297  0.00  0.00     0.007 C 
ATOM      9  C   UNL d   1       0.811  -2.057   3.728  0.00  0.00     0.009 C 
ENDBRANCH   7   8
ENDBRANCH   1   7
TORSDOF 2
ENDMDL
