MODEL 1
REMARK minimizedAffinity 6.57406187
REMARK minimizedRMSD -1
REMARK  2 active torsions:
REMARK  status: ('A' for Active; 'I' for Inactive)
REMARK    1  A    between atoms: C1_2  and  C2_3 
REMARK    2  A    between atoms: C2_3  and  C3_4 
ROOT
ATOM      1  C3  UNL d   1      -3.496   2.843   1.472  0.00  0.00    -0.075 A 
ATOM      2  C4  UNL d   1      -3.363   2.230   0.217  0.00  0.00     0.002 A 
ATOM      3  C5  UNL d   1      -2.099   1.961  -0.308  0.00  0.00     0.002 A 
ATOM      4  C6  UNL d   1      -0.955   2.309   0.407  0.00  0.00    -0.004 A 
ATOM      5  C7  UNL d   1      -1.076   2.932   1.647  0.00  0.00     0.002 A 
ATOM      6  C8  UNL d   1      -2.339   3.199   2.177  0.00  0.00     0.002 A 
ENDROOT
BRANCH   1   7
ATOM      7  C2  UNL d   1      -4.861   3.110   2.060  0.00  0.00     0.056 C 
BRANCH   7   8
ATOM      8  C1  UNL d   1      -5.407   4.510   1.757  0.00  0.00     0.007 C 
ATOM      9  C   UNL d   1      -5.999   4.634   0.360  0.00  0.00     0.009 C 
ENDBRANCH   7   8
ENDBRANCH   1   7
TORSDOF 2
ENDMDL
