MODEL 1
REMARK minimizedAffinity 5.39611387
REMARK minimizedRMSD -1
REMARK  2 active torsions:
REMARK  status: ('A' for Active; 'I' for Inactive)
REMARK    1  A    between atoms: C1_2  and  C2_3 
REMARK    2  A    between atoms: C2_3  and  C3_4 
ROOT
ATOM      1  C3  UNL d   1       3.055  -3.673   3.126  0.00  0.00    -0.075 A 
ATOM      2  C4  UNL d   1       2.238  -2.909   2.280  0.00  0.00     0.002 A 
ATOM      3  C5  UNL d   1       1.134  -2.225   2.790  0.00  0.00     0.002 A 
ATOM      4  C6  UNL d   1       0.826  -2.306   4.146  0.00  0.00    -0.004 A 
ATOM      5  C7  UNL d   1       1.621  -3.076   4.993  0.00  0.00     0.002 A 
ATOM      6  C8  UNL d   1       2.729  -3.757   4.486  0.00  0.00     0.002 A 
ENDROOT
BRANCH   1   7
ATOM      7  C2  UNL d   1       4.269  -4.391   2.586  0.00  0.00     0.056 C 
BRANCH   7   8
ATOM      8  C1  UNL d   1       5.600  -3.724   2.947  0.00  0.00     0.007 C 
ATOM      9  C   UNL d   1       5.997  -2.616   1.981  0.00  0.00     0.009 C 
ENDBRANCH   7   8
ENDBRANCH   1   7
TORSDOF 2
ENDMDL
