MODEL 1
REMARK minimizedAffinity -6.27447271
REMARK minimizedRMSD -1
REMARK  0 active torsions:
REMARK  status: ('A' for Active; 'I' for Inactive)
ROOT
ATOM      1  C2' OXE d   1       0.137   0.828  -0.306  0.00  0.00     0.078 C 
ATOM      2  C1' OXE d   1      -1.013  -0.838   1.639  0.00  0.00     0.078 C 
ATOM      3  C1  OXE d   1      -0.719  -1.435   0.286  0.00  0.00    -0.078 A 
ATOM      4  C2  OXE d   1      -0.200  -0.601  -0.674  0.00  0.00    -0.078 A 
ATOM      5  C3  OXE d   1       0.141  -1.114  -1.923  0.00  0.00     0.003 A 
ATOM      6  C4  OXE d   1      -0.182  -2.434  -2.259  0.00  0.00    -0.002 A 
ATOM      7  C5  OXE d   1      -0.748  -3.290  -1.308  0.00  0.00    -0.002 A 
ATOM      8  C6  OXE d   1      -0.983  -2.819  -0.021  0.00  0.00     0.003 A 
ENDROOT
TORSDOF 0
ENDMDL
