MODEL 1
REMARK minimizedAffinity -4.38966131
REMARK minimizedRMSD -1
REMARK  0 active torsions:
REMARK  status: ('A' for Active; 'I' for Inactive)
ROOT
ATOM      1  C2' OXE d   1      -1.148  -1.193   1.337  0.00  0.00     0.078 C 
ATOM      2  C1' OXE d   1       0.048   0.491  -0.564  0.00  0.00     0.078 C 
ATOM      3  C1  OXE d   1      -0.372  -0.887  -1.010  0.00  0.00    -0.078 A 
ATOM      4  C2  OXE d   1      -0.914  -1.721  -0.062  0.00  0.00    -0.078 A 
ATOM      5  C3  OXE d   1      -1.369  -2.983  -0.432  0.00  0.00     0.003 A 
ATOM      6  C4  OXE d   1      -1.140  -3.468  -1.726  0.00  0.00    -0.002 A 
ATOM      7  C5  OXE d   1      -0.553  -2.649  -2.697  0.00  0.00    -0.002 A 
ATOM      8  C6  OXE d   1      -0.203  -1.345  -2.367  0.00  0.00     0.003 A 
ENDROOT
TORSDOF 0
ENDMDL
