MODEL 1
REMARK minimizedAffinity -2.17497206
REMARK minimizedRMSD -1
REMARK  0 active torsions:
REMARK  status: ('A' for Active; 'I' for Inactive)
ROOT
ATOM      1  C2' OXE d   1       0.864   2.680   0.191  0.00  0.00     0.078 C 
ATOM      2  C1' OXE d   1       0.270   0.702  -1.711  0.00  0.00     0.078 C 
ATOM      3  C1  OXE d   1      -0.066   0.415  -0.269  0.00  0.00    -0.078 A 
ATOM      4  C2  OXE d   1       0.271   1.369   0.661  0.00  0.00    -0.078 A 
ATOM      5  C3  OXE d   1      -0.066   1.178   1.998  0.00  0.00     0.003 A 
ATOM      6  C4  OXE d   1      -0.605  -0.041   2.426  0.00  0.00    -0.002 A 
ATOM      7  C5  OXE d   1      -0.919  -1.042   1.501  0.00  0.00    -0.002 A 
ATOM      8  C6  OXE d   1      -0.696  -0.814   0.147  0.00  0.00     0.003 A 
ENDROOT
TORSDOF 0
ENDMDL
