MODEL 1
REMARK minimizedAffinity -1.57762027
REMARK minimizedRMSD -1
REMARK  0 active torsions:
REMARK  status: ('A' for Active; 'I' for Inactive)
ROOT
ATOM      1  C2' OXE d   1       0.454  -1.276  -2.235  0.00  0.00     0.078 C 
ATOM      2  C1' OXE d   1      -0.568  -3.083  -0.345  0.00  0.00     0.078 C 
ATOM      3  C1  OXE d   1      -0.559  -1.618   0.015  0.00  0.00    -0.078 A 
ATOM      4  C2  OXE d   1      -0.015  -0.746  -0.897  0.00  0.00    -0.078 A 
ATOM      5  C3  OXE d   1      -0.032   0.622  -0.639  0.00  0.00     0.003 A 
ATOM      6  C4  OXE d   1      -0.457   1.102   0.606  0.00  0.00    -0.002 A 
ATOM      7  C5  OXE d   1      -0.979   0.227   1.564  0.00  0.00    -0.002 A 
ATOM      8  C6  OXE d   1      -1.076  -1.128   1.269  0.00  0.00     0.003 A 
ENDROOT
TORSDOF 0
ENDMDL
