MODEL 1
REMARK minimizedAffinity -3.41078949
REMARK minimizedRMSD -1
REMARK  0 active torsions:
REMARK  status: ('A' for Active; 'I' for Inactive)
ROOT
ATOM      1  C2' OXE d   1       0.399   1.498  -2.280  0.00  0.00     0.078 C 
ATOM      2  C1' OXE d   1       0.564   2.972   0.103  0.00  0.00     0.078 C 
ATOM      3  C1  OXE d   1       0.383   1.479   0.211  0.00  0.00    -0.078 A 
ATOM      4  C2  OXE d   1       0.256   0.771  -0.960  0.00  0.00    -0.078 A 
ATOM      5  C3  OXE d   1       0.142  -0.616  -0.919  0.00  0.00     0.003 A 
ATOM      6  C4  OXE d   1       0.001  -1.279   0.306  0.00  0.00    -0.002 A 
ATOM      7  C5  OXE d   1       0.087  -0.572   1.510  0.00  0.00    -0.002 A 
ATOM      8  C6  OXE d   1       0.320   0.799   1.481  0.00  0.00     0.003 A 
ENDROOT
TORSDOF 0
ENDMDL
