MODEL 1
REMARK minimizedAffinity -2.75257635
REMARK minimizedRMSD -1
REMARK  0 active torsions:
REMARK  status: ('A' for Active; 'I' for Inactive)
ROOT
ATOM      1  C2' OXE d   1       0.821   1.965   1.208  0.00  0.00     0.078 C 
ATOM      2  C1' OXE d   1      -0.510   1.163  -1.130  0.00  0.00     0.078 C 
ATOM      3  C1  OXE d   1      -0.562   0.240   0.061  0.00  0.00    -0.078 A 
ATOM      4  C2  OXE d   1       0.131   0.618   1.186  0.00  0.00    -0.078 A 
ATOM      5  C3  OXE d   1       0.070  -0.170   2.331  0.00  0.00     0.003 A 
ATOM      6  C4  OXE d   1      -0.562  -1.419   2.299  0.00  0.00    -0.002 A 
ATOM      7  C5  OXE d   1      -1.240  -1.843   1.151  0.00  0.00    -0.002 A 
ATOM      8  C6  OXE d   1      -1.286  -1.008   0.040  0.00  0.00     0.003 A 
ENDROOT
TORSDOF 0
ENDMDL
