MODEL 1
REMARK minimizedAffinity -3.65728617
REMARK minimizedRMSD -1
REMARK  0 active torsions:
REMARK  status: ('A' for Active; 'I' for Inactive)
ROOT
ATOM      1  C2' OXE d   1      -1.003  -0.151   1.749  0.00  0.00     0.078 C 
ATOM      2  C1' OXE d   1       0.131   1.270  -0.389  0.00  0.00     0.078 C 
ATOM      3  C1  OXE d   1      -0.181  -0.190  -0.602  0.00  0.00    -0.078 A 
ATOM      4  C2  OXE d   1      -0.693  -0.889   0.465  0.00  0.00    -0.078 A 
ATOM      5  C3  OXE d   1      -1.049  -2.225   0.306  0.00  0.00     0.003 A 
ATOM      6  C4  OXE d   1      -0.750  -2.902  -0.882  0.00  0.00    -0.002 A 
ATOM      7  C5  OXE d   1      -0.192  -2.219  -1.968  0.00  0.00    -0.002 A 
ATOM      8  C6  OXE d   1       0.058  -0.855  -1.859  0.00  0.00     0.003 A 
ENDROOT
TORSDOF 0
ENDMDL
