MODEL 1
REMARK minimizedAffinity -1.87514424
REMARK minimizedRMSD -1
REMARK  0 active torsions:
REMARK  status: ('A' for Active; 'I' for Inactive)
ROOT
ATOM      1  C2' OXE d   1       0.543   1.228   0.337  0.00  0.00     0.078 C 
ATOM      2  C1' OXE d   1      -0.798  -0.099   2.416  0.00  0.00     0.078 C 
ATOM      3  C1  OXE d   1      -0.453  -0.893   1.181  0.00  0.00    -0.078 A 
ATOM      4  C2  OXE d   1       0.161  -0.224   0.150  0.00  0.00    -0.078 A 
ATOM      5  C3  OXE d   1       0.550  -0.922  -0.990  0.00  0.00     0.003 A 
ATOM      6  C4  OXE d   1       0.184  -2.263  -1.160  0.00  0.00    -0.002 A 
ATOM      7  C5  OXE d   1      -0.477  -2.953  -0.138  0.00  0.00    -0.002 A 
ATOM      8  C6  OXE d   1      -0.765  -2.295   1.053  0.00  0.00     0.003 A 
ENDROOT
TORSDOF 0
ENDMDL
