MODEL 1
REMARK minimizedAffinity -4.54666233
REMARK minimizedRMSD -1
REMARK  0 active torsions:
REMARK  status: ('A' for Active; 'I' for Inactive)
ROOT
ATOM      1  C2' OXE d   1      -0.998  -0.309   1.817  0.00  0.00     0.078 C 
ATOM      2  C1' OXE d   1       0.092   1.041  -0.389  0.00  0.00     0.078 C 
ATOM      3  C1  OXE d   1      -0.173  -0.437  -0.530  0.00  0.00    -0.078 A 
ATOM      4  C2  OXE d   1      -0.663  -1.098   0.570  0.00  0.00    -0.078 A 
ATOM      5  C3  OXE d   1      -0.978  -2.451   0.478  0.00  0.00     0.003 A 
ATOM      6  C4  OXE d   1      -0.655  -3.176  -0.676  0.00  0.00    -0.002 A 
ATOM      7  C5  OXE d   1      -0.119  -2.529  -1.794  0.00  0.00    -0.002 A 
ATOM      8  C6  OXE d   1       0.088  -1.155  -1.752  0.00  0.00     0.003 A 
ENDROOT
TORSDOF 0
ENDMDL
