MODEL 1
REMARK minimizedAffinity -2.6667676
REMARK minimizedRMSD -1
REMARK  0 active torsions:
REMARK  status: ('A' for Active; 'I' for Inactive)
ROOT
ATOM      1  C2' OXE d   1       0.330   1.410   0.154  0.00  0.00     0.078 C 
ATOM      2  C1' OXE d   1      -1.142  -0.001   2.084  0.00  0.00     0.078 C 
ATOM      3  C1  OXE d   1      -0.763  -0.728   0.818  0.00  0.00    -0.078 A 
ATOM      4  C2  OXE d   1      -0.084  -0.016  -0.141  0.00  0.00    -0.078 A 
ATOM      5  C3  OXE d   1       0.338  -0.654  -1.304  0.00  0.00     0.003 A 
ATOM      6  C4  OXE d   1      -0.057  -1.970  -1.573  0.00  0.00    -0.002 A 
ATOM      7  C5  OXE d   1      -0.784  -2.701  -0.627  0.00  0.00    -0.002 A 
ATOM      8  C6  OXE d   1      -1.108  -2.110   0.589  0.00  0.00     0.003 A 
ENDROOT
TORSDOF 0
ENDMDL
