MODEL 1
REMARK minimizedAffinity -0.409074724
REMARK minimizedRMSD -1
REMARK  0 active torsions:
REMARK  status: ('A' for Active; 'I' for Inactive)
ROOT
ATOM      1  C2' OXE d   1      -0.752  -3.096  -1.323  0.00  0.00     0.078 C 
ATOM      2  C1' OXE d   1       0.717  -0.968  -2.415  0.00  0.00     0.078 C 
ATOM      3  C1  OXE d   1       0.108  -0.775  -1.048  0.00  0.00    -0.078 A 
ATOM      4  C2  OXE d   1      -0.648  -1.804  -0.542  0.00  0.00    -0.078 A 
ATOM      5  C3  OXE d   1      -1.187  -1.699   0.737  0.00  0.00     0.003 A 
ATOM      6  C4  OXE d   1      -1.095  -0.497   1.449  0.00  0.00    -0.002 A 
ATOM      7  C5  OXE d   1      -0.362   0.578   0.934  0.00  0.00    -0.002 A 
ATOM      8  C6  OXE d   1       0.280   0.441  -0.292  0.00  0.00     0.003 A 
ENDROOT
TORSDOF 0
ENDMDL
