MODEL 1
REMARK minimizedAffinity -2.80216098
REMARK minimizedRMSD -1
REMARK  0 active torsions:
REMARK  status: ('A' for Active; 'I' for Inactive)
ROOT
ATOM      1  C2' OXE d   1       0.025   1.222  -0.266  0.00  0.00     0.078 C 
ATOM      2  C1' OXE d   1      -0.953  -0.134   1.988  0.00  0.00     0.078 C 
ATOM      3  C1  OXE d   1      -0.703  -0.938   0.737  0.00  0.00    -0.078 A 
ATOM      4  C2  OXE d   1      -0.269  -0.258  -0.375  0.00  0.00    -0.078 A 
ATOM      5  C3  OXE d   1       0.029  -0.960  -1.540  0.00  0.00     0.003 A 
ATOM      6  C4  OXE d   1      -0.256  -2.328  -1.635  0.00  0.00    -0.002 A 
ATOM      7  C5  OXE d   1      -0.736  -3.032  -0.526  0.00  0.00    -0.002 A 
ATOM      8  C6  OXE d   1      -0.924  -2.362   0.677  0.00  0.00     0.003 A 
ENDROOT
TORSDOF 0
ENDMDL
