MODEL 1
REMARK minimizedAffinity -3.90201283
REMARK minimizedRMSD -1
REMARK  0 active torsions:
REMARK  status: ('A' for Active; 'I' for Inactive)
ROOT
ATOM      1  C2' OXE d   1      -1.205   0.003   1.848  0.00  0.00     0.078 C 
ATOM      2  C1' OXE d   1       0.159   1.215  -0.285  0.00  0.00     0.078 C 
ATOM      3  C1  OXE d   1      -0.161  -0.255  -0.399  0.00  0.00    -0.078 A 
ATOM      4  C2  OXE d   1      -0.787  -0.850   0.670  0.00  0.00    -0.078 A 
ATOM      5  C3  OXE d   1      -1.153  -2.191   0.594  0.00  0.00     0.003 A 
ATOM      6  C4  OXE d   1      -0.754  -2.975  -0.495  0.00  0.00    -0.002 A 
ATOM      7  C5  OXE d   1      -0.080  -2.397  -1.576  0.00  0.00    -0.002 A 
ATOM      8  C6  OXE d   1       0.186  -1.032  -1.563  0.00  0.00     0.003 A 
ENDROOT
TORSDOF 0
ENDMDL
