MODEL 1
REMARK minimizedAffinity -2.84424162
REMARK minimizedRMSD -1
REMARK  0 active torsions:
REMARK  status: ('A' for Active; 'I' for Inactive)
ROOT
ATOM      1  C2' OXE d   1       0.528   0.913  -0.592  0.00  0.00     0.078 C 
ATOM      2  C1' OXE d   1      -0.720  -0.125   1.699  0.00  0.00     0.078 C 
ATOM      3  C1  OXE d   1      -0.634  -1.012   0.482  0.00  0.00    -0.078 A 
ATOM      4  C2  OXE d   1      -0.063  -0.480  -0.649  0.00  0.00    -0.078 A 
ATOM      5  C3  OXE d   1       0.091  -1.273  -1.782  0.00  0.00     0.003 A 
ATOM      6  C4  OXE d   1      -0.467  -2.556  -1.831  0.00  0.00    -0.002 A 
ATOM      7  C5  OXE d   1      -1.088  -3.103  -0.702  0.00  0.00    -0.002 A 
ATOM      8  C6  OXE d   1      -1.142  -2.362   0.473  0.00  0.00     0.003 A 
ENDROOT
TORSDOF 0
ENDMDL
