MODEL 1
REMARK minimizedAffinity -2.59815431
REMARK minimizedRMSD -1
REMARK  0 active torsions:
REMARK  status: ('A' for Active; 'I' for Inactive)
ROOT
ATOM      1  C2' OXE d   1       0.396   1.042  -0.713  0.00  0.00     0.078 C 
ATOM      2  C1' OXE d   1      -1.059  -0.259   1.305  0.00  0.00     0.078 C 
ATOM      3  C1  OXE d   1      -0.659  -1.066   0.095  0.00  0.00    -0.078 A 
ATOM      4  C2  OXE d   1       0.012  -0.409  -0.909  0.00  0.00    -0.078 A 
ATOM      5  C3  OXE d   1       0.453  -1.119  -2.022  0.00  0.00     0.003 A 
ATOM      6  C4  OXE d   1       0.086  -2.458  -2.200  0.00  0.00    -0.002 A 
ATOM      7  C5  OXE d   1      -0.632  -3.135  -1.208  0.00  0.00    -0.002 A 
ATOM      8  C6  OXE d   1      -0.974  -2.467  -0.038  0.00  0.00     0.003 A 
ENDROOT
TORSDOF 0
ENDMDL
