MODEL 1
REMARK minimizedAffinity -1.21378887
REMARK minimizedRMSD -1
REMARK  0 active torsions:
REMARK  status: ('A' for Active; 'I' for Inactive)
ROOT
ATOM      1  C2' OXE d   1       0.016   0.533  -1.876  0.00  0.00     0.078 C 
ATOM      2  C1' OXE d   1      -0.351  -2.219  -2.288  0.00  0.00     0.078 C 
ATOM      3  C1  OXE d   1      -0.618  -1.673  -0.907  0.00  0.00    -0.078 A 
ATOM      4  C2  OXE d   1      -0.391  -0.333  -0.703  0.00  0.00    -0.078 A 
ATOM      5  C3  OXE d   1      -0.673   0.233   0.537  0.00  0.00     0.003 A 
ATOM      6  C4  OXE d   1      -1.039  -0.577   1.619  0.00  0.00    -0.002 A 
ATOM      7  C5  OXE d   1      -1.237  -1.951   1.442  0.00  0.00    -0.002 A 
ATOM      8  C6  OXE d   1      -1.072  -2.506   0.178  0.00  0.00     0.003 A 
ENDROOT
TORSDOF 0
ENDMDL
