MODEL 1
REMARK minimizedAffinity -2.95533037
REMARK minimizedRMSD -1
REMARK  0 active torsions:
REMARK  status: ('A' for Active; 'I' for Inactive)
ROOT
ATOM      1  C2' OXE d   1      -0.077   0.146  -2.354  0.00  0.00     0.078 C 
ATOM      2  C1' OXE d   1      -0.215  -2.647  -2.609  0.00  0.00     0.078 C 
ATOM      3  C1  OXE d   1      -0.318  -2.061  -1.223  0.00  0.00    -0.078 A 
ATOM      4  C2  OXE d   1      -0.203  -0.697  -1.103  0.00  0.00    -0.078 A 
ATOM      5  C3  OXE d   1      -0.346  -0.100   0.146  0.00  0.00     0.003 A 
ATOM      6  C4  OXE d   1      -0.452  -0.887   1.300  0.00  0.00    -0.002 A 
ATOM      7  C5  OXE d   1      -0.531  -2.280   1.204  0.00  0.00    -0.002 A 
ATOM      8  C6  OXE d   1      -0.509  -2.879  -0.051  0.00  0.00     0.003 A 
ENDROOT
TORSDOF 0
ENDMDL
