MODEL 1
REMARK minimizedAffinity -4.27615261
REMARK minimizedRMSD -1
REMARK  0 active torsions:
REMARK  status: ('A' for Active; 'I' for Inactive)
ROOT
ATOM      1  C2' OXE d   1      -1.017  -0.411   1.913  0.00  0.00     0.078 C 
ATOM      2  C1' OXE d   1       0.090   1.304  -0.014  0.00  0.00     0.078 C 
ATOM      3  C1  OXE d   1      -0.298  -0.087  -0.450  0.00  0.00    -0.078 A 
ATOM      4  C2  OXE d   1      -0.795  -0.935   0.510  0.00  0.00    -0.078 A 
ATOM      5  C3  OXE d   1      -1.219  -2.211   0.151  0.00  0.00     0.003 A 
ATOM      6  C4  OXE d   1      -1.000  -2.691  -1.146  0.00  0.00    -0.002 A 
ATOM      7  C5  OXE d   1      -0.458  -1.857  -2.130  0.00  0.00    -0.002 A 
ATOM      8  C6  OXE d   1      -0.142  -0.541  -1.810  0.00  0.00     0.003 A 
ENDROOT
TORSDOF 0
ENDMDL
