MODEL 1
REMARK minimizedAffinity 5.40753174
REMARK minimizedRMSD -1
REMARK  0 active torsions:
REMARK  status: ('A' for Active; 'I' for Inactive)
ROOT
ATOM      1  C   UNL d   1      -1.874   2.556  -2.956  0.00  0.00     0.078 C 
ATOM      2  C1  UNL d   1      -2.737   3.236  -3.977  0.00  0.00    -0.077 A 
ATOM      3  C2  UNL d   1      -3.308   2.516  -5.033  0.00  0.00    -0.001 A 
ATOM      4  C3  UNL d   1      -4.101   3.164  -5.982  0.00  0.00     0.003 A 
ATOM      5  C4  UNL d   1      -4.330   4.535  -5.884  0.00  0.00    -0.005 A 
ATOM      6  C5  UNL d   1      -3.764   5.260  -4.837  0.00  0.00     0.003 A 
ATOM      7  C6  UNL d   1      -2.971   4.614  -3.888  0.00  0.00    -0.001 A 
ENDROOT
TORSDOF 0
ENDMDL
