MODEL 1
REMARK minimizedAffinity 2.64538169
REMARK minimizedRMSD -1
REMARK  0 active torsions:
REMARK  status: ('A' for Active; 'I' for Inactive)
ROOT
ATOM      1  C   UNL d   1       2.441  -2.747   0.316  0.00  0.00     0.078 C 
ATOM      2  C1  UNL d   1       1.595  -2.279   1.463  0.00  0.00    -0.077 A 
ATOM      3  C2  UNL d   1       0.413  -2.945   1.806  0.00  0.00    -0.001 A 
ATOM      4  C3  UNL d   1      -0.369  -2.491   2.870  0.00  0.00     0.003 A 
ATOM      5  C4  UNL d   1       0.022  -1.370   3.598  0.00  0.00    -0.005 A 
ATOM      6  C5  UNL d   1       1.197  -0.699   3.262  0.00  0.00     0.003 A 
ATOM      7  C6  UNL d   1       1.980  -1.151   2.199  0.00  0.00    -0.001 A 
ENDROOT
TORSDOF 0
ENDMDL
