MODEL 1
REMARK minimizedAffinity 5.82894278
REMARK minimizedRMSD -1
REMARK  0 active torsions:
REMARK  status: ('A' for Active; 'I' for Inactive)
ROOT
ATOM      1  C   UNL d   1       3.385   2.601   3.305  0.00  0.00     0.078 C 
ATOM      2  C1  UNL d   1       4.095   3.783   3.896  0.00  0.00    -0.077 A 
ATOM      3  C2  UNL d   1       3.531   4.507   4.954  0.00  0.00    -0.001 A 
ATOM      4  C3  UNL d   1       4.199   5.610   5.488  0.00  0.00     0.003 A 
ATOM      5  C4  UNL d   1       5.433   6.000   4.970  0.00  0.00    -0.005 A 
ATOM      6  C5  UNL d   1       6.000   5.286   3.916  0.00  0.00     0.003 A 
ATOM      7  C6  UNL d   1       5.334   4.183   3.381  0.00  0.00    -0.001 A 
ENDROOT
TORSDOF 0
ENDMDL
