MODEL 1
REMARK minimizedAffinity 10.5999441
REMARK minimizedRMSD -1
REMARK  0 active torsions:
REMARK  status: ('A' for Active; 'I' for Inactive)
ROOT
ATOM      1  C   UNL d   1       0.802   4.659  -5.425  0.00  0.00     0.078 C 
ATOM      2  C1  UNL d   1       2.295   4.719  -5.552  0.00  0.00    -0.077 A 
ATOM      3  C2  UNL d   1       3.085   3.585  -5.327  0.00  0.00    -0.001 A 
ATOM      4  C3  UNL d   1       4.474   3.658  -5.440  0.00  0.00     0.003 A 
ATOM      5  C4  UNL d   1       5.086   4.864  -5.776  0.00  0.00    -0.005 A 
ATOM      6  C5  UNL d   1       4.309   5.998  -5.999  0.00  0.00     0.003 A 
ATOM      7  C6  UNL d   1       2.920   5.927  -5.888  0.00  0.00    -0.001 A 
ENDROOT
TORSDOF 0
ENDMDL
