MODEL 1
REMARK minimizedAffinity 8.48844433
REMARK minimizedRMSD -1
REMARK  0 active torsions:
REMARK  status: ('A' for Active; 'I' for Inactive)
ROOT
ATOM      1  C   UNL d   1       1.858  -4.639   0.076  0.00  0.00     0.078 C 
ATOM      2  C1  UNL d   1       1.787  -3.236   0.602  0.00  0.00    -0.077 A 
ATOM      3  C2  UNL d   1       2.921  -2.416   0.622  0.00  0.00    -0.001 A 
ATOM      4  C3  UNL d   1       2.842  -1.115   1.123  0.00  0.00     0.003 A 
ATOM      5  C4  UNL d   1       1.632  -0.624   1.608  0.00  0.00    -0.005 A 
ATOM      6  C5  UNL d   1       0.498  -1.434   1.594  0.00  0.00     0.003 A 
ATOM      7  C6  UNL d   1       0.575  -2.735   1.093  0.00  0.00    -0.001 A 
ENDROOT
TORSDOF 0
ENDMDL
