MODEL 1
REMARK minimizedAffinity 5.89200163
REMARK minimizedRMSD -1
REMARK  0 active torsions:
REMARK  status: ('A' for Active; 'I' for Inactive)
ROOT
ATOM      1  C   UNL d   1      -0.568  -2.211   1.869  0.00  0.00     0.078 C 
ATOM      2  C1  UNL d   1       0.805  -2.458   1.316  0.00  0.00    -0.077 A 
ATOM      3  C2  UNL d   1       1.025  -3.443   0.346  0.00  0.00    -0.001 A 
ATOM      4  C3  UNL d   1       2.309  -3.668  -0.152  0.00  0.00     0.003 A 
ATOM      5  C4  UNL d   1       3.383  -2.913   0.315  0.00  0.00    -0.005 A 
ATOM      6  C5  UNL d   1       3.174  -1.933   1.282  0.00  0.00     0.003 A 
ATOM      7  C6  UNL d   1       1.891  -1.706   1.781  0.00  0.00    -0.001 A 
ENDROOT
TORSDOF 0
ENDMDL
