MODEL 1
REMARK minimizedAffinity 3.35719681
REMARK minimizedRMSD -1
REMARK  0 active torsions:
REMARK  status: ('A' for Active; 'I' for Inactive)
ROOT
ATOM      1  C   UNL d   1       0.866   2.448  -3.891  0.00  0.00     0.078 C 
ATOM      2  C1  UNL d   1      -0.620   2.281  -4.007  0.00  0.00    -0.077 A 
ATOM      3  C2  UNL d   1      -1.257   2.336  -5.253  0.00  0.00    -0.001 A 
ATOM      4  C3  UNL d   1      -2.642   2.189  -5.345  0.00  0.00     0.003 A 
ATOM      5  C4  UNL d   1      -3.402   1.987  -4.195  0.00  0.00    -0.005 A 
ATOM      6  C5  UNL d   1      -2.778   1.933  -2.951  0.00  0.00     0.003 A 
ATOM      7  C6  UNL d   1      -1.393   2.080  -2.856  0.00  0.00    -0.001 A 
ENDROOT
TORSDOF 0
ENDMDL
