MODEL 1
REMARK minimizedAffinity 5.23920536
REMARK minimizedRMSD -1
REMARK  0 active torsions:
REMARK  status: ('A' for Active; 'I' for Inactive)
ROOT
ATOM      1  C   UNL d   1       1.583   1.304  -2.351  0.00  0.00     0.023 A 
ATOM      2  C1  UNL d   1       0.595   0.725  -1.556  0.00  0.00     0.003 A 
ATOM      3  C2  UNL d   1      -0.737   1.121  -1.695  0.00  0.00     0.048 A 
ATOM      4  C3  UNL d   1      -1.073   2.096  -2.633  0.00  0.00     0.023 A 
ATOM      5  C4  UNL d   1      -0.088   2.678  -3.432  0.00  0.00     0.048 A 
ATOM      6  C5  UNL d   1       1.243   2.280  -3.288  0.00  0.00     0.003 A 
ATOM      7  I   UNL d   1      -3.055   2.687  -2.844  0.00  0.00    -0.146 I 
ENDROOT
TORSDOF 0
ENDMDL
