MODEL 1
REMARK minimizedAffinity 6.91349745
REMARK minimizedRMSD -1
REMARK  0 active torsions:
REMARK  status: ('A' for Active; 'I' for Inactive)
ROOT
ATOM      1  C   UNL d   1       5.969  -0.994  -4.822  0.00  0.00     0.023 A 
ATOM      2  C1  UNL d   1       5.953   0.027  -5.772  0.00  0.00     0.003 A 
ATOM      3  C2  UNL d   1       5.960   1.362  -5.364  0.00  0.00     0.048 A 
ATOM      4  C3  UNL d   1       5.983   1.670  -4.004  0.00  0.00     0.023 A 
ATOM      5  C4  UNL d   1       6.000   0.651  -3.050  0.00  0.00     0.048 A 
ATOM      6  C5  UNL d   1       5.992  -0.683  -3.463  0.00  0.00     0.003 A 
ATOM      7  I   UNL d   1       5.993   3.656  -3.394  0.00  0.00    -0.146 I 
ENDROOT
TORSDOF 0
ENDMDL
