MODEL 1
REMARK minimizedAffinity 1.27131093
REMARK minimizedRMSD -1
REMARK  0 active torsions:
REMARK  status: ('A' for Active; 'I' for Inactive)
ROOT
ATOM      1  C   UNL d   1       5.973  -1.400  -4.915  0.00  0.00     0.023 A 
ATOM      2  C1  UNL d   1       5.968  -0.964  -3.590  0.00  0.00     0.003 A 
ATOM      3  C2  UNL d   1       5.972   0.403  -3.304  0.00  0.00     0.048 A 
ATOM      4  C3  UNL d   1       5.981   1.328  -4.347  0.00  0.00     0.023 A 
ATOM      5  C4  UNL d   1       5.985   0.896  -5.674  0.00  0.00     0.048 A 
ATOM      6  C5  UNL d   1       5.981  -0.471  -5.956  0.00  0.00     0.003 A 
ATOM      7  I   UNL d   1       5.987   3.363  -3.923  0.00  0.00    -0.146 I 
ENDROOT
TORSDOF 0
ENDMDL
