MODEL 1
REMARK minimizedAffinity 3.92684484
REMARK minimizedRMSD -1
REMARK  0 active torsions:
REMARK  status: ('A' for Active; 'I' for Inactive)
ROOT
ATOM      1  C   UNL d   1      -1.583  -0.865   3.247  0.00  0.00     0.023 A 
ATOM      2  C1  UNL d   1      -1.751  -0.824   1.862  0.00  0.00     0.003 A 
ATOM      3  C2  UNL d   1      -0.705  -1.203   1.019  0.00  0.00     0.048 A 
ATOM      4  C3  UNL d   1       0.507  -1.623   1.566  0.00  0.00     0.023 A 
ATOM      5  C4  UNL d   1       0.680  -1.666   2.951  0.00  0.00     0.048 A 
ATOM      6  C5  UNL d   1      -0.369  -1.286   3.790  0.00  0.00     0.003 A 
ATOM      7  I   UNL d   1       2.066  -2.188   0.313  0.00  0.00    -0.146 I 
ENDROOT
TORSDOF 0
ENDMDL
