MODEL 1
REMARK minimizedAffinity -0.833592653
REMARK minimizedRMSD -1
REMARK  0 active torsions:
REMARK  status: ('A' for Active; 'I' for Inactive)
ROOT
ATOM      1  C   UNL d   1       1.479   1.162  -2.261  0.00  0.00     0.023 A 
ATOM      2  C1  UNL d   1       2.039   1.348  -0.997  0.00  0.00     0.003 A 
ATOM      3  C2  UNL d   1       1.903   0.360  -0.019  0.00  0.00     0.048 A 
ATOM      4  C3  UNL d   1       1.207  -0.812  -0.313  0.00  0.00     0.023 A 
ATOM      5  C4  UNL d   1       0.646  -1.002  -1.577  0.00  0.00     0.048 A 
ATOM      6  C5  UNL d   1       0.783  -0.011  -2.550  0.00  0.00     0.003 A 
ATOM      7  I   UNL d   1       1.003  -2.284   1.140  0.00  0.00    -0.146 I 
ENDROOT
TORSDOF 0
ENDMDL
