MODEL 1
REMARK minimizedAffinity 8.35621834
REMARK minimizedRMSD -1
REMARK  0 active torsions:
REMARK  status: ('A' for Active; 'I' for Inactive)
ROOT
ATOM      1  C   UNL d   1      -1.601   2.526  -2.964  0.00  0.00     0.023 A 
ATOM      2  C1  UNL d   1      -0.355   3.139  -3.094  0.00  0.00     0.003 A 
ATOM      3  C2  UNL d   1       0.739   2.660  -2.370  0.00  0.00     0.048 A 
ATOM      4  C3  UNL d   1       0.580   1.568  -1.519  0.00  0.00     0.023 A 
ATOM      5  C4  UNL d   1      -0.665   0.951  -1.385  0.00  0.00     0.048 A 
ATOM      6  C5  UNL d   1      -1.756   1.434  -2.110  0.00  0.00     0.003 A 
ATOM      7  I   UNL d   1       2.207   0.853  -0.441  0.00  0.00    -0.146 I 
ENDROOT
TORSDOF 0
ENDMDL
