MODEL 1
REMARK minimizedAffinity 7.69469357
REMARK minimizedRMSD -1
REMARK  0 active torsions:
REMARK  status: ('A' for Active; 'I' for Inactive)
ROOT
ATOM      1  C   UNL d   1      -4.543  -1.832  -2.372  0.00  0.00     0.023 A 
ATOM      2  C1  UNL d   1      -5.313  -1.341  -3.427  0.00  0.00     0.003 A 
ATOM      3  C2  UNL d   1      -5.156  -0.021  -3.852  0.00  0.00     0.048 A 
ATOM      4  C3  UNL d   1      -4.227   0.804  -3.219  0.00  0.00     0.023 A 
ATOM      5  C4  UNL d   1      -3.454   0.317  -2.164  0.00  0.00     0.048 A 
ATOM      6  C5  UNL d   1      -3.615  -1.003  -1.741  0.00  0.00     0.003 A 
ATOM      7  I   UNL d   1      -3.991   2.770  -3.851  0.00  0.00    -0.146 I 
ENDROOT
TORSDOF 0
ENDMDL
