MODEL 1
REMARK minimizedAffinity 4.03837967
REMARK minimizedRMSD -1
REMARK  0 active torsions:
REMARK  status: ('A' for Active; 'I' for Inactive)
ROOT
ATOM      1  C2' OXE d   1      -5.694   2.422  -1.796  0.00  0.00     0.078 C 
ATOM      2  C1' OXE d   1      -5.125   5.170  -1.851  0.00  0.00     0.078 C 
ATOM      3  C1  OXE d   1      -5.416   4.486  -3.163  0.00  0.00    -0.078 A 
ATOM      4  C2  OXE d   1      -5.648   3.132  -3.132  0.00  0.00    -0.078 A 
ATOM      5  C3  OXE d   1      -5.975   2.461  -4.307  0.00  0.00     0.003 A 
ATOM      6  C4  OXE d   1      -5.920   3.123  -5.540  0.00  0.00    -0.002 A 
ATOM      7  C5  OXE d   1      -5.647   4.494  -5.598  0.00  0.00    -0.002 A 
ATOM      8  C6  OXE d   1      -5.435   5.197  -4.417  0.00  0.00     0.003 A 
ENDROOT
TORSDOF 0
ENDMDL
