MODEL 1
REMARK minimizedAffinity 13.2959957
REMARK minimizedRMSD -1
REMARK  0 active torsions:
REMARK  status: ('A' for Active; 'I' for Inactive)
ROOT
ATOM      1  C2' OXE d   1      -0.756   2.634   2.214  0.00  0.00     0.078 C 
ATOM      2  C1' OXE d   1       0.509   1.864  -0.171  0.00  0.00     0.078 C 
ATOM      3  C1  OXE d   1       0.193   3.327   0.017  0.00  0.00    -0.078 A 
ATOM      4  C2  OXE d   1      -0.468   3.688   1.167  0.00  0.00    -0.078 A 
ATOM      5  C3  OXE d   1      -0.735   5.031   1.416  0.00  0.00     0.003 A 
ATOM      6  C4  OXE d   1      -0.475   5.999   0.438  0.00  0.00    -0.002 A 
ATOM      7  C5  OXE d   1       0.162   5.647  -0.757  0.00  0.00    -0.002 A 
ATOM      8  C6  OXE d   1       0.540   4.325  -0.964  0.00  0.00     0.003 A 
ENDROOT
TORSDOF 0
ENDMDL
