MODEL 1
REMARK minimizedAffinity 12.0462351
REMARK minimizedRMSD -1
REMARK  0 active torsions:
REMARK  status: ('A' for Active; 'I' for Inactive)
ROOT
ATOM      1  C2' OXE d   1       1.484  -0.732   4.248  0.00  0.00     0.078 C 
ATOM      2  C1' OXE d   1       3.393   1.044   3.207  0.00  0.00     0.078 C 
ATOM      3  C1  OXE d   1       1.940   1.436   3.109  0.00  0.00    -0.078 A 
ATOM      4  C2  OXE d   1       1.010   0.540   3.579  0.00  0.00    -0.078 A 
ATOM      5  C3  OXE d   1      -0.340   0.876   3.562  0.00  0.00     0.003 A 
ATOM      6  C4  OXE d   1      -0.771   2.050   2.932  0.00  0.00    -0.002 A 
ATOM      7  C5  OXE d   1       0.157   2.959   2.412  0.00  0.00    -0.002 A 
ATOM      8  C6  OXE d   1       1.516   2.687   2.530  0.00  0.00     0.003 A 
ENDROOT
TORSDOF 0
ENDMDL
