MODEL 1
REMARK minimizedAffinity 16.1695824
REMARK minimizedRMSD -1
REMARK  0 active torsions:
REMARK  status: ('A' for Active; 'I' for Inactive)
ROOT
ATOM      1  C2' OXE d   1       2.303  -2.030   4.146  0.00  0.00     0.078 C 
ATOM      2  C1' OXE d   1      -0.253  -1.257   5.013  0.00  0.00     0.078 C 
ATOM      3  C1  OXE d   1       0.496  -0.315   4.103  0.00  0.00    -0.078 A 
ATOM      4  C2  OXE d   1       1.764  -0.680   3.722  0.00  0.00    -0.078 A 
ATOM      5  C3  OXE d   1       2.477   0.126   2.839  0.00  0.00     0.003 A 
ATOM      6  C4  OXE d   1       1.976   1.377   2.460  0.00  0.00    -0.002 A 
ATOM      7  C5  OXE d   1       0.703   1.786   2.869  0.00  0.00    -0.002 A 
ATOM      8  C6  OXE d   1      -0.066   0.935   3.655  0.00  0.00     0.003 A 
ENDROOT
TORSDOF 0
ENDMDL
