MODEL 1
REMARK minimizedAffinity 11.22153
REMARK minimizedRMSD -1
REMARK  0 active torsions:
REMARK  status: ('A' for Active; 'I' for Inactive)
ROOT
ATOM      1  C2' OXE d   1      -1.004   2.645   1.766  0.00  0.00     0.078 C 
ATOM      2  C1' OXE d   1       1.117   2.132  -0.001  0.00  0.00     0.078 C 
ATOM      3  C1  OXE d   1       0.497   3.506  -0.027  0.00  0.00    -0.078 A 
ATOM      4  C2  OXE d   1      -0.571   3.734   0.808  0.00  0.00    -0.078 A 
ATOM      5  C3  OXE d   1      -1.145   5.001   0.863  0.00  0.00     0.003 A 
ATOM      6  C4  OXE d   1      -0.745   6.000  -0.033  0.00  0.00    -0.002 A 
ATOM      7  C5  OXE d   1       0.314   5.776  -0.920  0.00  0.00    -0.002 A 
ATOM      8  C6  OXE d   1       0.972   4.551  -0.900  0.00  0.00     0.003 A 
ENDROOT
TORSDOF 0
ENDMDL
