MODEL 1
REMARK minimizedAffinity 11.8147469
REMARK minimizedRMSD -1
REMARK  0 active torsions:
REMARK  status: ('A' for Active; 'I' for Inactive)
ROOT
ATOM      1  C2' OXE d   1      -0.458   1.918   0.639  0.00  0.00     0.078 C 
ATOM      2  C1' OXE d   1      -2.931   0.616   0.373  0.00  0.00     0.078 C 
ATOM      3  C1  OXE d   1      -1.820   0.215  -0.565  0.00  0.00    -0.078 A 
ATOM      4  C2  OXE d   1      -0.628   0.890  -0.458  0.00  0.00    -0.078 A 
ATOM      5  C3  OXE d   1       0.446   0.522  -1.263  0.00  0.00     0.003 A 
ATOM      6  C4  OXE d   1       0.278  -0.423  -2.282  0.00  0.00    -0.002 A 
ATOM      7  C5  OXE d   1      -0.940  -1.094  -2.434  0.00  0.00    -0.002 A 
ATOM      8  C6  OXE d   1      -1.984  -0.818  -1.558  0.00  0.00     0.003 A 
ENDROOT
TORSDOF 0
ENDMDL
