MODEL 1
REMARK minimizedAffinity -1.73306572
REMARK minimizedRMSD -1
REMARK  0 active torsions:
REMARK  status: ('A' for Active; 'I' for Inactive)
ROOT
ATOM      1  C   UNL d   1       5.290  -3.000   1.608  0.00  0.00     0.078 C 
ATOM      2  C1  UNL d   1       5.290  -2.923   3.106  0.00  0.00    -0.077 A 
ATOM      3  C2  UNL d   1       6.000  -1.920   3.777  0.00  0.00    -0.001 A 
ATOM      4  C3  UNL d   1       5.999  -1.866   5.171  0.00  0.00     0.003 A 
ATOM      5  C4  UNL d   1       5.292  -2.815   5.907  0.00  0.00    -0.005 A 
ATOM      6  C5  UNL d   1       4.585  -3.819   5.249  0.00  0.00     0.003 A 
ATOM      7  C6  UNL d   1       4.584  -3.874   3.854  0.00  0.00    -0.001 A 
ENDROOT
TORSDOF 0
ENDMDL
