MODEL 1
REMARK minimizedAffinity -3.94639754
REMARK minimizedRMSD -1
REMARK  0 active torsions:
REMARK  status: ('A' for Active; 'I' for Inactive)
ROOT
ATOM      1  C   UNL d   1       6.000  -2.296   1.458  0.00  0.00     0.078 C 
ATOM      2  C1  UNL d   1       5.794  -3.074   2.724  0.00  0.00    -0.077 A 
ATOM      3  C2  UNL d   1       5.774  -4.474   2.716  0.00  0.00    -0.001 A 
ATOM      4  C3  UNL d   1       5.572  -5.184   3.900  0.00  0.00     0.003 A 
ATOM      5  C4  UNL d   1       5.386  -4.503   5.101  0.00  0.00    -0.005 A 
ATOM      6  C5  UNL d   1       5.402  -3.110   5.119  0.00  0.00     0.003 A 
ATOM      7  C6  UNL d   1       5.604  -2.398   3.936  0.00  0.00    -0.001 A 
ENDROOT
TORSDOF 0
ENDMDL
