MODEL 1
REMARK minimizedAffinity -3.59336162
REMARK minimizedRMSD -1
REMARK  0 active torsions:
REMARK  status: ('A' for Active; 'I' for Inactive)
ROOT
ATOM      1  C   UNL d   1       5.997  -2.868   6.000  0.00  0.00     0.078 C 
ATOM      2  C1  UNL d   1       5.943  -3.341   4.578  0.00  0.00    -0.077 A 
ATOM      3  C2  UNL d   1       6.000  -4.705   4.268  0.00  0.00    -0.001 A 
ATOM      4  C3  UNL d   1       5.958  -5.130   2.940  0.00  0.00     0.003 A 
ATOM      5  C4  UNL d   1       5.860  -4.197   1.909  0.00  0.00    -0.005 A 
ATOM      6  C5  UNL d   1       5.805  -2.837   2.207  0.00  0.00     0.003 A 
ATOM      7  C6  UNL d   1       5.846  -2.410   3.535  0.00  0.00    -0.001 A 
ENDROOT
TORSDOF 0
ENDMDL
