MODEL 1
REMARK minimizedAffinity -2.69755745
REMARK minimizedRMSD -1
REMARK  0 active torsions:
REMARK  status: ('A' for Active; 'I' for Inactive)
ROOT
ATOM      1  C   UNL d   1       5.999  -5.711   1.926  0.00  0.00     0.078 C 
ATOM      2  C1  UNL d   1       5.902  -4.801   3.114  0.00  0.00    -0.077 A 
ATOM      3  C2  UNL d   1       5.985  -5.306   4.418  0.00  0.00    -0.001 A 
ATOM      4  C3  UNL d   1       5.883  -4.449   5.514  0.00  0.00     0.003 A 
ATOM      5  C4  UNL d   1       5.695  -3.082   5.319  0.00  0.00    -0.005 A 
ATOM      6  C5  UNL d   1       5.608  -2.571   4.026  0.00  0.00     0.003 A 
ATOM      7  C6  UNL d   1       5.710  -3.426   2.928  0.00  0.00    -0.001 A 
ENDROOT
TORSDOF 0
ENDMDL
