MODEL 1
REMARK minimizedAffinity -3.7080946
REMARK minimizedRMSD -1
REMARK  0 active torsions:
REMARK  status: ('A' for Active; 'I' for Inactive)
ROOT
ATOM      1  C   UNL d   1       6.000  -2.285   2.355  0.00  0.00     0.078 C 
ATOM      2  C1  UNL d   1       5.367  -2.996   3.514  0.00  0.00    -0.077 A 
ATOM      3  C2  UNL d   1       4.875  -4.300   3.379  0.00  0.00    -0.001 A 
ATOM      4  C3  UNL d   1       4.279  -4.946   4.463  0.00  0.00     0.003 A 
ATOM      5  C4  UNL d   1       4.168  -4.295   5.690  0.00  0.00    -0.005 A 
ATOM      6  C5  UNL d   1       4.652  -2.996   5.834  0.00  0.00     0.003 A 
ATOM      7  C6  UNL d   1       5.248  -2.349   4.750  0.00  0.00    -0.001 A 
ENDROOT
TORSDOF 0
ENDMDL
