MODEL 1
REMARK minimizedAffinity -2.36415482
REMARK minimizedRMSD -1
REMARK  0 active torsions:
REMARK  status: ('A' for Active; 'I' for Inactive)
ROOT
ATOM      1  C   UNL d   1       5.962  -4.094   1.193  0.00  0.00     0.078 C 
ATOM      2  C1  UNL d   1       5.968  -3.639   2.622  0.00  0.00    -0.077 A 
ATOM      3  C2  UNL d   1       5.979  -2.277   2.945  0.00  0.00    -0.001 A 
ATOM      4  C3  UNL d   1       5.995  -1.868   4.280  0.00  0.00     0.003 A 
ATOM      5  C4  UNL d   1       6.000  -2.815   5.302  0.00  0.00    -0.005 A 
ATOM      6  C5  UNL d   1       5.991  -4.173   4.990  0.00  0.00     0.003 A 
ATOM      7  C6  UNL d   1       5.976  -4.584   3.656  0.00  0.00    -0.001 A 
ENDROOT
TORSDOF 0
ENDMDL
