MODEL 1
REMARK minimizedAffinity -3.63454485
REMARK minimizedRMSD -1
REMARK  0 active torsions:
REMARK  status: ('A' for Active; 'I' for Inactive)
ROOT
ATOM      1  C   UNL d   1       4.865  -2.629   5.688  0.00  0.00     0.078 C 
ATOM      2  C1  UNL d   1       5.269  -3.452   4.501  0.00  0.00    -0.077 A 
ATOM      3  C2  UNL d   1       5.630  -2.844   3.292  0.00  0.00    -0.001 A 
ATOM      4  C3  UNL d   1       5.994  -3.623   2.192  0.00  0.00     0.003 A 
ATOM      5  C4  UNL d   1       6.000  -5.013   2.290  0.00  0.00    -0.005 A 
ATOM      6  C5  UNL d   1       5.640  -5.626   3.488  0.00  0.00     0.003 A 
ATOM      7  C6  UNL d   1       5.275  -4.849   4.589  0.00  0.00    -0.001 A 
ENDROOT
TORSDOF 0
ENDMDL
