MODEL 1
REMARK minimizedAffinity -2.79260468
REMARK minimizedRMSD -1
REMARK  0 active torsions:
REMARK  status: ('A' for Active; 'I' for Inactive)
ROOT
ATOM      1  C   UNL d   1       5.955  -4.458   1.716  0.00  0.00     0.078 C 
ATOM      2  C1  UNL d   1       5.978  -3.967   3.132  0.00  0.00    -0.077 A 
ATOM      3  C2  UNL d   1       5.988  -4.864   4.207  0.00  0.00    -0.001 A 
ATOM      4  C3  UNL d   1       6.000  -4.393   5.521  0.00  0.00     0.003 A 
ATOM      5  C4  UNL d   1       6.000  -3.022   5.772  0.00  0.00    -0.005 A 
ATOM      6  C5  UNL d   1       5.987  -2.121   4.709  0.00  0.00     0.003 A 
ATOM      7  C6  UNL d   1       5.976  -2.591   3.395  0.00  0.00    -0.001 A 
ENDROOT
TORSDOF 0
ENDMDL
