MODEL 1
REMARK minimizedAffinity -3.52925277
REMARK minimizedRMSD -1
REMARK  0 active torsions:
REMARK  status: ('A' for Active; 'I' for Inactive)
ROOT
ATOM      1  C   UNL d   1       5.999  -4.768   1.880  0.00  0.00     0.078 C 
ATOM      2  C1  UNL d   1       5.704  -4.359   3.292  0.00  0.00    -0.077 A 
ATOM      3  C2  UNL d   1       5.145  -3.108   3.580  0.00  0.00    -0.001 A 
ATOM      4  C3  UNL d   1       4.885  -2.737   4.900  0.00  0.00     0.003 A 
ATOM      5  C4  UNL d   1       5.180  -3.612   5.943  0.00  0.00    -0.005 A 
ATOM      6  C5  UNL d   1       5.738  -4.859   5.667  0.00  0.00     0.003 A 
ATOM      7  C6  UNL d   1       6.000  -5.231   4.348  0.00  0.00    -0.001 A 
ENDROOT
TORSDOF 0
ENDMDL
