MODEL 1
REMARK minimizedAffinity -3.46426225
REMARK minimizedRMSD -1
REMARK  0 active torsions:
REMARK  status: ('A' for Active; 'I' for Inactive)
ROOT
ATOM      1  C   UNL d   1       5.979  -4.471   1.899  0.00  0.00     0.078 C 
ATOM      2  C1  UNL d   1       5.675  -3.897   3.250  0.00  0.00    -0.077 A 
ATOM      3  C2  UNL d   1       5.956  -4.615   4.419  0.00  0.00    -0.001 A 
ATOM      4  C3  UNL d   1       5.659  -4.071   5.670  0.00  0.00     0.003 A 
ATOM      5  C4  UNL d   1       5.077  -2.809   5.764  0.00  0.00    -0.005 A 
ATOM      6  C5  UNL d   1       4.792  -2.088   4.606  0.00  0.00     0.003 A 
ATOM      7  C6  UNL d   1       5.088  -2.629   3.355  0.00  0.00    -0.001 A 
ENDROOT
TORSDOF 0
ENDMDL
