MODEL 1
REMARK minimizedAffinity -1.6611594
REMARK minimizedRMSD -1
REMARK  0 active torsions:
REMARK  status: ('A' for Active; 'I' for Inactive)
ROOT
ATOM      1  C   UNL d   1       5.567  -3.328   1.639  0.00  0.00     0.078 C 
ATOM      2  C1  UNL d   1       5.251  -2.991   3.065  0.00  0.00    -0.077 A 
ATOM      3  C2  UNL d   1       4.210  -3.634   3.745  0.00  0.00    -0.001 A 
ATOM      4  C3  UNL d   1       3.921  -3.303   5.070  0.00  0.00     0.003 A 
ATOM      5  C4  UNL d   1       4.669  -2.328   5.727  0.00  0.00    -0.005 A 
ATOM      6  C5  UNL d   1       5.706  -1.681   5.058  0.00  0.00     0.003 A 
ATOM      7  C6  UNL d   1       5.996  -2.010   3.733  0.00  0.00    -0.001 A 
ENDROOT
TORSDOF 0
ENDMDL
