MODEL 1
REMARK minimizedAffinity -3.0812366
REMARK minimizedRMSD -1
REMARK  0 active torsions:
REMARK  status: ('A' for Active; 'I' for Inactive)
ROOT
ATOM      1  C   UNL d   1       5.667  -4.128   1.797  0.00  0.00     0.078 C 
ATOM      2  C1  UNL d   1       5.631  -3.820   3.264  0.00  0.00    -0.077 A 
ATOM      3  C2  UNL d   1       5.221  -4.784   4.193  0.00  0.00    -0.001 A 
ATOM      4  C3  UNL d   1       5.183  -4.481   5.555  0.00  0.00     0.003 A 
ATOM      5  C4  UNL d   1       5.553  -3.214   6.000  0.00  0.00    -0.005 A 
ATOM      6  C5  UNL d   1       5.961  -2.247   5.083  0.00  0.00     0.003 A 
ATOM      7  C6  UNL d   1       6.000  -2.549   3.720  0.00  0.00    -0.001 A 
ENDROOT
TORSDOF 0
ENDMDL
