MODEL 1
REMARK minimizedAffinity -3.05032253
REMARK minimizedRMSD -1
REMARK  0 active torsions:
REMARK  status: ('A' for Active; 'I' for Inactive)
ROOT
ATOM      1  C   UNL d   1       5.999  -3.594   0.949  0.00  0.00     0.078 C 
ATOM      2  C1  UNL d   1       5.420  -3.398   2.318  0.00  0.00    -0.077 A 
ATOM      3  C2  UNL d   1       4.294  -4.118   2.735  0.00  0.00    -0.001 A 
ATOM      4  C3  UNL d   1       3.760  -3.918   4.009  0.00  0.00     0.003 A 
ATOM      5  C4  UNL d   1       4.345  -2.998   4.876  0.00  0.00    -0.005 A 
ATOM      6  C5  UNL d   1       5.465  -2.275   4.469  0.00  0.00     0.003 A 
ATOM      7  C6  UNL d   1       6.000  -2.473   3.196  0.00  0.00    -0.001 A 
ENDROOT
TORSDOF 0
ENDMDL
