MODEL 1
REMARK minimizedAffinity -4.09476614
REMARK minimizedRMSD -1
REMARK  0 active torsions:
REMARK  status: ('A' for Active; 'I' for Inactive)
ROOT
ATOM      1  C   UNL d   1       6.000  -3.066   2.827  0.00  0.00     0.078 C 
ATOM      2  C1  UNL d   1       4.844  -3.406   3.719  0.00  0.00    -0.077 A 
ATOM      3  C2  UNL d   1       3.541  -3.484   3.213  0.00  0.00    -0.001 A 
ATOM      4  C3  UNL d   1       2.473  -3.793   4.057  0.00  0.00     0.003 A 
ATOM      5  C4  UNL d   1       2.697  -4.025   5.412  0.00  0.00    -0.005 A 
ATOM      6  C5  UNL d   1       3.990  -3.948   5.925  0.00  0.00     0.003 A 
ATOM      7  C6  UNL d   1       5.059  -3.639   5.083  0.00  0.00    -0.001 A 
ENDROOT
TORSDOF 0
ENDMDL
