MODEL 1
REMARK minimizedAffinity -1.89286268
REMARK minimizedRMSD -1
REMARK  0 active torsions:
REMARK  status: ('A' for Active; 'I' for Inactive)
ROOT
ATOM      1  C   UNL d   1       5.690  -5.640   3.773  0.00  0.00     0.078 C 
ATOM      2  C1  UNL d   1       5.655  -4.200   3.355  0.00  0.00    -0.077 A 
ATOM      3  C2  UNL d   1       6.000  -3.818   2.053  0.00  0.00    -0.001 A 
ATOM      4  C3  UNL d   1       5.972  -2.473   1.682  0.00  0.00     0.003 A 
ATOM      5  C4  UNL d   1       5.600  -1.499   2.607  0.00  0.00    -0.005 A 
ATOM      6  C5  UNL d   1       5.257  -1.869   3.905  0.00  0.00     0.003 A 
ATOM      7  C6  UNL d   1       5.285  -3.214   4.279  0.00  0.00    -0.001 A 
ENDROOT
TORSDOF 0
ENDMDL
