MODEL 1
REMARK minimizedAffinity -3.04830694
REMARK minimizedRMSD -1
REMARK  0 active torsions:
REMARK  status: ('A' for Active; 'I' for Inactive)
ROOT
ATOM      1  C   UNL d   1       6.000  -4.472   5.999  0.00  0.00     0.078 C 
ATOM      2  C1  UNL d   1       5.151  -3.828   4.944  0.00  0.00    -0.077 A 
ATOM      3  C2  UNL d   1       3.784  -4.113   4.845  0.00  0.00    -0.001 A 
ATOM      4  C3  UNL d   1       3.007  -3.514   3.852  0.00  0.00     0.003 A 
ATOM      5  C4  UNL d   1       3.589  -2.626   2.950  0.00  0.00    -0.005 A 
ATOM      6  C5  UNL d   1       4.949  -2.337   3.039  0.00  0.00     0.003 A 
ATOM      7  C6  UNL d   1       5.727  -2.935   4.031  0.00  0.00    -0.001 A 
ENDROOT
TORSDOF 0
ENDMDL
