MODEL 1
REMARK minimizedAffinity -3.35976696
REMARK minimizedRMSD -1
REMARK  0 active torsions:
REMARK  status: ('A' for Active; 'I' for Inactive)
ROOT
ATOM      1  C   UNL d   1       6.000  -2.177   1.773  0.00  0.00     0.078 C 
ATOM      2  C1  UNL d   1       5.960  -2.824   3.125  0.00  0.00    -0.077 A 
ATOM      3  C2  UNL d   1       5.875  -4.216   3.256  0.00  0.00    -0.001 A 
ATOM      4  C3  UNL d   1       5.829  -4.804   4.521  0.00  0.00     0.003 A 
ATOM      5  C4  UNL d   1       5.866  -4.009   5.664  0.00  0.00    -0.005 A 
ATOM      6  C5  UNL d   1       5.947  -2.623   5.544  0.00  0.00     0.003 A 
ATOM      7  C6  UNL d   1       5.993  -2.033   4.279  0.00  0.00    -0.001 A 
ENDROOT
TORSDOF 0
ENDMDL
