MODEL 1
REMARK minimizedAffinity -3.39810491
REMARK minimizedRMSD -1
REMARK  0 active torsions:
REMARK  status: ('A' for Active; 'I' for Inactive)
ROOT
ATOM      1  C   UNL d   1       5.989  -4.790   2.237  0.00  0.00     0.078 C 
ATOM      2  C1  UNL d   1       5.618  -4.175   3.554  0.00  0.00    -0.077 A 
ATOM      3  C2  UNL d   1       4.881  -4.894   4.503  0.00  0.00    -0.001 A 
ATOM      4  C3  UNL d   1       4.535  -4.306   5.720  0.00  0.00     0.003 A 
ATOM      5  C4  UNL d   1       4.921  -2.997   6.000  0.00  0.00    -0.005 A 
ATOM      6  C5  UNL d   1       5.653  -2.273   5.061  0.00  0.00     0.003 A 
ATOM      7  C6  UNL d   1       6.000  -2.859   3.842  0.00  0.00    -0.001 A 
ENDROOT
TORSDOF 0
ENDMDL
