MODEL 1
REMARK minimizedAffinity 1.60980666
REMARK minimizedRMSD -1
REMARK  0 active torsions:
REMARK  status: ('A' for Active; 'I' for Inactive)
ROOT
ATOM      1  C   UNL d   1       5.624  -6.000   3.582  0.00  0.00     0.078 C 
ATOM      2  C1  UNL d   1       5.631  -4.616   3.005  0.00  0.00    -0.077 A 
ATOM      3  C2  UNL d   1       5.263  -3.510   3.781  0.00  0.00    -0.001 A 
ATOM      4  C3  UNL d   1       5.265  -2.228   3.228  0.00  0.00     0.003 A 
ATOM      5  C4  UNL d   1       5.633  -2.040   1.897  0.00  0.00    -0.005 A 
ATOM      6  C5  UNL d   1       6.000  -3.135   1.117  0.00  0.00     0.003 A 
ATOM      7  C6  UNL d   1       5.998  -4.418   1.668  0.00  0.00    -0.001 A 
ENDROOT
TORSDOF 0
ENDMDL
