MODEL 1
REMARK minimizedAffinity 6.12527752
REMARK minimizedRMSD -1
REMARK  1 active torsions:
REMARK  status: ('A' for Active; 'I' for Inactive)
REMARK    1  A    between atoms: N_2  and  C1_3 
ROOT
ATOM      1  C1  UNL d   1       3.586  -5.998  -2.044  0.00  0.00     0.143 A 
ATOM      2  C2  UNL d   1       2.463  -5.997  -2.879  0.00  0.00    -0.057 A 
ATOM      3  C3  UNL d   1       2.595  -5.999  -4.273  0.00  0.00     0.033 A 
ATOM      4  C4  UNL d   1       3.856  -5.971  -4.858  0.00  0.00    -0.042 A 
ATOM      5  C5  UNL d   1       4.986  -5.946  -4.048  0.00  0.00     0.033 A 
ATOM      6  C6  UNL d   1       4.848  -5.951  -2.657  0.00  0.00    -0.057 A 
ENDROOT
BRANCH   1   7
ATOM      7  N   UNL d   1       3.521  -5.897  -0.652  0.00  0.00    -0.732 N 
ATOM      8  C   UNL d   1       2.248  -5.970   0.033  0.00  0.00     0.284 C 
ATOM      9  H3  UNL d   1       4.272  -6.405  -0.190  0.00  0.00     0.395 HD
ENDBRANCH   1   7
TORSDOF 1
ENDMDL
