MODEL 1
REMARK minimizedAffinity 2.00871229
REMARK minimizedRMSD -1
REMARK  1 active torsions:
REMARK  status: ('A' for Active; 'I' for Inactive)
REMARK    1  A    between atoms: N_2  and  C1_3 
ROOT
ATOM      1  C1  UNL d   1       2.680  -0.974   2.272  0.00  0.00     0.143 A 
ATOM      2  C2  UNL d   1       3.240  -2.252   2.180  0.00  0.00    -0.057 A 
ATOM      3  C3  UNL d   1       2.975  -3.232   3.144  0.00  0.00     0.033 A 
ATOM      4  C4  UNL d   1       2.165  -2.941   4.237  0.00  0.00    -0.042 A 
ATOM      5  C5  UNL d   1       1.618  -1.669   4.362  0.00  0.00     0.033 A 
ATOM      6  C6  UNL d   1       1.881  -0.696   3.392  0.00  0.00    -0.057 A 
ENDROOT
BRANCH   1   7
ATOM      7  N   UNL d   1       2.984   0.074   1.399  0.00  0.00    -0.732 N 
ATOM      8  C   UNL d   1       2.576   1.429   1.703  0.00  0.00     0.284 C 
ATOM      9  H3  UNL d   1       3.923  -0.002   1.014  0.00  0.00     0.395 HD
ENDBRANCH   1   7
TORSDOF 1
ENDMDL
