MODEL 1
REMARK minimizedAffinity 3.55971146
REMARK minimizedRMSD -1
REMARK  1 active torsions:
REMARK  status: ('A' for Active; 'I' for Inactive)
REMARK    1  A    between atoms: N_2  and  C1_3 
ROOT
ATOM      1  C1  UNL d   1       1.966  -1.365   2.559  0.00  0.00     0.143 A 
ATOM      2  C2  UNL d   1       1.345  -2.527   3.030  0.00  0.00    -0.057 A 
ATOM      3  C3  UNL d   1       2.002  -3.396   3.909  0.00  0.00     0.033 A 
ATOM      4  C4  UNL d   1       3.308  -3.133   4.311  0.00  0.00    -0.042 A 
ATOM      5  C5  UNL d   1       3.954  -1.997   3.836  0.00  0.00     0.033 A 
ATOM      6  C6  UNL d   1       3.290  -1.129   2.964  0.00  0.00    -0.057 A 
ENDROOT
BRANCH   1   7
ATOM      7  N   UNL d   1       1.402  -0.513   1.607  0.00  0.00    -0.732 N 
ATOM      8  C   UNL d   1       0.316  -0.965   0.764  0.00  0.00     0.284 C 
ATOM      9  H3  UNL d   1       1.292   0.438   1.954  0.00  0.00     0.395 HD
ENDBRANCH   1   7
TORSDOF 1
ENDMDL
