MODEL 1
REMARK minimizedAffinity 5.32740021
REMARK minimizedRMSD -1
REMARK  1 active torsions:
REMARK  status: ('A' for Active; 'I' for Inactive)
REMARK    1  A    between atoms: N_2  and  C1_3 
ROOT
ATOM      1  C1  UNL d   1       2.190  -1.415   3.247  0.00  0.00     0.143 A 
ATOM      2  C2  UNL d   1       2.765  -2.522   2.613  0.00  0.00    -0.057 A 
ATOM      3  C3  UNL d   1       3.375  -3.544   3.349  0.00  0.00     0.033 A 
ATOM      4  C4  UNL d   1       3.447  -3.463   4.736  0.00  0.00    -0.042 A 
ATOM      5  C5  UNL d   1       2.905  -2.360   5.385  0.00  0.00     0.033 A 
ATOM      6  C6  UNL d   1       2.290  -1.346   4.645  0.00  0.00    -0.057 A 
ENDROOT
BRANCH   1   7
ATOM      7  N   UNL d   1       1.656  -0.319   2.565  0.00  0.00    -0.732 N 
ATOM      8  C   UNL d   1       2.525   0.679   1.978  0.00  0.00     0.284 C 
ATOM      9  H3  UNL d   1       0.861  -0.573   1.983  0.00  0.00     0.395 HD
ENDBRANCH   1   7
TORSDOF 1
ENDMDL
