MODEL 1
REMARK minimizedAffinity 5.55065203
REMARK minimizedRMSD -1
REMARK  1 active torsions:
REMARK  status: ('A' for Active; 'I' for Inactive)
REMARK    1  A    between atoms: N_2  and  C1_3 
ROOT
ATOM      1  C1  UNL d   1       2.357  -1.854   2.375  0.00  0.00     0.143 A 
ATOM      2  C2  UNL d   1       1.715  -1.421   3.540  0.00  0.00    -0.057 A 
ATOM      3  C3  UNL d   1       1.561  -2.270   4.643  0.00  0.00     0.033 A 
ATOM      4  C4  UNL d   1       2.022  -3.582   4.588  0.00  0.00    -0.042 A 
ATOM      5  C5  UNL d   1       2.640  -4.042   3.431  0.00  0.00     0.033 A 
ATOM      6  C6  UNL d   1       2.797  -3.187   2.336  0.00  0.00    -0.057 A 
ENDROOT
BRANCH   1   7
ATOM      7  N   UNL d   1       2.454  -1.090   1.210  0.00  0.00    -0.732 N 
ATOM      8  C   UNL d   1       1.402  -1.124   0.216  0.00  0.00     0.284 C 
ATOM      9  H3  UNL d   1       2.829  -0.160   1.385  0.00  0.00     0.395 HD
ENDBRANCH   1   7
TORSDOF 1
ENDMDL
