MODEL 1
REMARK minimizedAffinity 9.571805
REMARK minimizedRMSD -1
REMARK  1 active torsions:
REMARK  status: ('A' for Active; 'I' for Inactive)
REMARK    1  A    between atoms: N_2  and  C1_3 
ROOT
ATOM      1  C1  UNL d   1      -5.322   2.903   2.600  0.00  0.00     0.143 A 
ATOM      2  C2  UNL d   1      -5.940   3.583   1.546  0.00  0.00    -0.057 A 
ATOM      3  C3  UNL d   1      -5.199   4.074   0.464  0.00  0.00     0.033 A 
ATOM      4  C4  UNL d   1      -3.817   3.917   0.432  0.00  0.00    -0.042 A 
ATOM      5  C5  UNL d   1      -3.178   3.266   1.481  0.00  0.00     0.033 A 
ATOM      6  C6  UNL d   1      -3.925   2.773   2.556  0.00  0.00    -0.057 A 
ENDROOT
BRANCH   1   7
ATOM      7  N   UNL d   1      -5.991   2.478   3.751  0.00  0.00    -0.732 N 
ATOM      8  C   UNL d   1      -5.991   3.293   4.947  0.00  0.00     0.284 C 
ATOM      9  H3  UNL d   1      -6.889   2.048   3.541  0.00  0.00     0.395 HD
ENDBRANCH   1   7
TORSDOF 1
ENDMDL
