MODEL 1
REMARK minimizedAffinity 14.267766
REMARK minimizedRMSD -1
REMARK  0 active torsions:
REMARK  status: ('A' for Active; 'I' for Inactive)
ROOT
ATOM      1  O1  BZF d   1      -5.740   3.722   5.178  0.00  0.00    -0.204 OA
ATOM      2  C2  BZF d   1      -5.996   4.885   5.879  0.00  0.00     0.174 A 
ATOM      3  C3  BZF d   1      -5.944   5.957   5.063  0.00  0.00    -0.012 A 
ATOM      4  C3A BZF d   1      -5.728   5.423   3.753  0.00  0.00    -0.107 A 
ATOM      5  C4  BZF d   1      -5.602   5.991   2.517  0.00  0.00     0.055 A 
ATOM      6  C5  BZF d   1      -5.324   5.195   1.451  0.00  0.00    -0.016 A 
ATOM      7  C6  BZF d   1      -5.161   3.832   1.585  0.00  0.00     0.022 A 
ATOM      8  C7  BZF d   1      -5.282   3.223   2.790  0.00  0.00     0.029 A 
ATOM      9  C7A BZF d   1      -5.595   4.020   3.864  0.00  0.00     0.058 A 
ENDROOT
TORSDOF 0
ENDMDL
