MODEL 1
REMARK minimizedAffinity 14.519392
REMARK minimizedRMSD -1
REMARK  0 active torsions:
REMARK  status: ('A' for Active; 'I' for Inactive)
ROOT
ATOM      1  O1  BZF d   1       3.610  -0.895   2.310  0.00  0.00    -0.204 OA
ATOM      2  C2  BZF d   1       2.727  -1.952   2.419  0.00  0.00     0.174 A 
ATOM      3  C3  BZF d   1       1.784  -1.889   1.457  0.00  0.00    -0.012 A 
ATOM      4  C3A BZF d   1       2.150  -0.771   0.643  0.00  0.00    -0.107 A 
ATOM      5  C4  BZF d   1       1.611  -0.210  -0.479  0.00  0.00     0.055 A 
ATOM      6  C5  BZF d   1       2.170   0.920  -0.986  0.00  0.00    -0.016 A 
ATOM      7  C6  BZF d   1       3.263   1.518  -0.394  0.00  0.00     0.022 A 
ATOM      8  C7  BZF d   1       3.836   0.995   0.717  0.00  0.00     0.029 A 
ATOM      9  C7A BZF d   1       3.294  -0.165   1.213  0.00  0.00     0.058 A 
ENDROOT
TORSDOF 0
ENDMDL
