MODEL 1
REMARK minimizedAffinity 3.57878566
REMARK minimizedRMSD -1
REMARK  0 active torsions:
REMARK  status: ('A' for Active; 'I' for Inactive)
ROOT
ATOM      1  O1  BZF d   1      -5.998   3.259   3.072  0.00  0.00    -0.204 OA
ATOM      2  C2  BZF d   1      -5.065   2.921   2.112  0.00  0.00     0.174 A 
ATOM      3  C3  BZF d   1      -3.942   3.653   2.257  0.00  0.00    -0.012 A 
ATOM      4  C3A BZF d   1      -4.153   4.437   3.436  0.00  0.00    -0.107 A 
ATOM      5  C4  BZF d   1      -3.391   5.350   4.105  0.00  0.00     0.055 A 
ATOM      6  C5  BZF d   1      -3.919   5.990   5.181  0.00  0.00    -0.016 A 
ATOM      7  C6  BZF d   1      -5.207   5.745   5.611  0.00  0.00     0.022 A 
ATOM      8  C7  BZF d   1      -6.000   4.844   4.982  0.00  0.00     0.029 A 
ATOM      9  C7A BZF d   1      -5.457   4.172   3.914  0.00  0.00     0.058 A 
ENDROOT
TORSDOF 0
ENDMDL
