MODEL 1
REMARK minimizedAffinity 7.07605505
REMARK minimizedRMSD -1
REMARK  0 active torsions:
REMARK  status: ('A' for Active; 'I' for Inactive)
ROOT
ATOM      1  O1  BZF d   1       0.969   1.739  -1.567  0.00  0.00    -0.204 OA
ATOM      2  C2  BZF d   1      -0.191   0.988  -1.584  0.00  0.00     0.174 A 
ATOM      3  C3  BZF d   1      -0.038  -0.145  -0.869  0.00  0.00    -0.012 A 
ATOM      4  C3A BZF d   1       1.272  -0.056  -0.299  0.00  0.00    -0.107 A 
ATOM      5  C4  BZF d   1       1.995  -0.872   0.524  0.00  0.00     0.055 A 
ATOM      6  C5  BZF d   1       3.272  -0.530   0.837  0.00  0.00    -0.016 A 
ATOM      7  C6  BZF d   1       3.859   0.616   0.341  0.00  0.00     0.022 A 
ATOM      8  C7  BZF d   1       3.180   1.459  -0.475  0.00  0.00     0.029 A 
ATOM      9  C7A BZF d   1       1.878   1.133  -0.766  0.00  0.00     0.058 A 
ENDROOT
TORSDOF 0
ENDMDL
