MODEL 1
REMARK minimizedAffinity 7.69621181
REMARK minimizedRMSD -1
REMARK  0 active torsions:
REMARK  status: ('A' for Active; 'I' for Inactive)
ROOT
ATOM      1  O1  BZF d   1      -2.397   5.888   5.666  0.00  0.00    -0.204 OA
ATOM      2  C2  BZF d   1      -1.575   5.843   4.556  0.00  0.00     0.174 A 
ATOM      3  C3  BZF d   1      -2.291   5.595   3.441  0.00  0.00    -0.012 A 
ATOM      4  C3A BZF d   1      -3.656   5.568   3.867  0.00  0.00    -0.107 A 
ATOM      5  C4  BZF d   1      -4.840   5.381   3.213  0.00  0.00     0.055 A 
ATOM      6  C5  BZF d   1      -5.993   5.340   3.933  0.00  0.00    -0.016 A 
ATOM      7  C6  BZF d   1      -5.997   5.478   5.305  0.00  0.00     0.022 A 
ATOM      8  C7  BZF d   1      -4.847   5.671   5.997  0.00  0.00     0.029 A 
ATOM      9  C7A BZF d   1      -3.685   5.745   5.270  0.00  0.00     0.058 A 
ENDROOT
TORSDOF 0
ENDMDL
