MODEL 1
REMARK minimizedAffinity 10.2059164
REMARK minimizedRMSD -1
REMARK  0 active torsions:
REMARK  status: ('A' for Active; 'I' for Inactive)
ROOT
ATOM      1  O1  BZF d   1      -5.999   3.656   2.882  0.00  0.00    -0.204 OA
ATOM      2  C2  BZF d   1      -5.017   3.204   2.022  0.00  0.00     0.174 A 
ATOM      3  C3  BZF d   1      -3.825   3.757   2.325  0.00  0.00    -0.012 A 
ATOM      4  C3A BZF d   1      -4.060   4.537   3.501  0.00  0.00    -0.107 A 
ATOM      5  C4  BZF d   1      -3.258   5.312   4.290  0.00  0.00     0.055 A 
ATOM      6  C5  BZF d   1      -3.814   5.999   5.322  0.00  0.00    -0.016 A 
ATOM      7  C6  BZF d   1      -5.165   5.940   5.591  0.00  0.00     0.022 A 
ATOM      8  C7  BZF d   1      -6.000   5.181   4.840  0.00  0.00     0.029 A 
ATOM      9  C7A BZF d   1      -5.436   4.459   3.816  0.00  0.00     0.058 A 
ENDROOT
TORSDOF 0
ENDMDL
