MODEL 1
REMARK minimizedAffinity 5.52915144
REMARK minimizedRMSD -1
REMARK  0 active torsions:
REMARK  status: ('A' for Active; 'I' for Inactive)
ROOT
ATOM      1  O1  BZF d   1      -5.498   5.901   2.418  0.00  0.00    -0.204 OA
ATOM      2  C2  BZF d   1      -5.809   4.889   1.530  0.00  0.00     0.174 A 
ATOM      3  C3  BZF d   1      -5.954   3.714   2.175  0.00  0.00    -0.012 A 
ATOM      4  C3A BZF d   1      -5.809   4.027   3.564  0.00  0.00    -0.107 A 
ATOM      5  C4  BZF d   1      -5.866   3.280   4.706  0.00  0.00     0.055 A 
ATOM      6  C5  BZF d   1      -5.608   3.876   5.899  0.00  0.00    -0.016 A 
ATOM      7  C6  BZF d   1      -5.285   5.214   5.987  0.00  0.00     0.022 A 
ATOM      8  C7  BZF d   1      -5.221   5.997   4.883  0.00  0.00     0.029 A 
ATOM      9  C7A BZF d   1      -5.514   5.405   3.678  0.00  0.00     0.058 A 
ENDROOT
TORSDOF 0
ENDMDL
