MODEL 1
REMARK minimizedAffinity 10.0242414
REMARK minimizedRMSD -1
REMARK  0 active torsions:
REMARK  status: ('A' for Active; 'I' for Inactive)
ROOT
ATOM      1  O1  BZF d   1      -3.961   3.859   2.387  0.00  0.00    -0.204 OA
ATOM      2  C2  BZF d   1      -5.031   3.029   2.110  0.00  0.00     0.174 A 
ATOM      3  C3  BZF d   1      -5.970   3.124   3.073  0.00  0.00    -0.012 A 
ATOM      4  C3A BZF d   1      -5.498   4.141   3.962  0.00  0.00    -0.107 A 
ATOM      5  C4  BZF d   1      -6.000   4.698   5.103  0.00  0.00     0.055 A 
ATOM      6  C5  BZF d   1      -5.256   5.618   5.772  0.00  0.00    -0.016 A 
ATOM      7  C6  BZF d   1      -4.005   5.998   5.332  0.00  0.00     0.022 A 
ATOM      8  C7  BZF d   1      -3.467   5.477   4.203  0.00  0.00     0.029 A 
ATOM      9  C7A BZF d   1      -4.230   4.572   3.506  0.00  0.00     0.058 A 
ENDROOT
TORSDOF 0
ENDMDL
