MODEL 1
REMARK minimizedAffinity -0.761046827
REMARK minimizedRMSD -1
REMARK  1 active torsions:
REMARK  status: ('A' for Active; 'I' for Inactive)
REMARK    1  A    between atoms: C3_4  and  O_7 
ROOT
ATOM      1  C   UNL d   1      -2.103   1.305  -1.956  0.00  0.00    -0.033 A 
ATOM      2  C1  UNL d   1      -2.447   1.468  -3.300  0.00  0.00     0.039 A 
ATOM      3  C2  UNL d   1      -1.578   2.130  -4.169  0.00  0.00    -0.080 A 
ATOM      4  C3  UNL d   1      -0.369   2.623  -3.684  0.00  0.00     0.150 A 
ATOM      5  C4  UNL d   1      -0.019   2.460  -2.348  0.00  0.00    -0.007 A 
ATOM      6  C5  UNL d   1      -0.888   1.800  -1.481  0.00  0.00     0.039 A 
ENDROOT
BRANCH   4   7
ATOM      7  O   UNL d   1       0.509   3.280  -4.493  0.00  0.00    -0.526 OA
ATOM      8  H5  UNL d   1       0.121   3.343  -5.382  0.00  0.00     0.418 HD
ENDBRANCH   4   7
TORSDOF 1
ENDMDL
