MODEL 1
REMARK minimizedAffinity -3.26168323
REMARK minimizedRMSD -1
REMARK  1 active torsions:
REMARK  status: ('A' for Active; 'I' for Inactive)
REMARK    1  A    between atoms: C3_4  and  O_7 
ROOT
ATOM      1  C   UNL d   1      -2.437   1.615  -1.571  0.00  0.00    -0.033 A 
ATOM      2  C1  UNL d   1      -2.915   1.607  -2.883  0.00  0.00     0.039 A 
ATOM      3  C2  UNL d   1      -2.066   1.944  -3.939  0.00  0.00    -0.080 A 
ATOM      4  C3  UNL d   1      -0.744   2.285  -3.671  0.00  0.00     0.150 A 
ATOM      5  C4  UNL d   1      -0.260   2.292  -2.367  0.00  0.00    -0.007 A 
ATOM      6  C5  UNL d   1      -1.109   1.957  -1.313  0.00  0.00     0.039 A 
ENDROOT
BRANCH   4   7
ATOM      7  O   UNL d   1       0.121   2.626  -4.668  0.00  0.00    -0.526 OA
ATOM      8  H5  UNL d   1      -0.360   2.605  -5.513  0.00  0.00     0.418 HD
ENDBRANCH   4   7
TORSDOF 1
ENDMDL
