MODEL 1
REMARK minimizedAffinity -4.36894131
REMARK minimizedRMSD -1
REMARK  1 active torsions:
REMARK  status: ('A' for Active; 'I' for Inactive)
REMARK    1  A    between atoms: C3_4  and  O_7 
ROOT
ATOM      1  C   UNL d   1      -2.597   1.213  -1.753  0.00  0.00    -0.033 A 
ATOM      2  C1  UNL d   1      -2.841   1.055  -3.119  0.00  0.00     0.039 A 
ATOM      3  C2  UNL d   1      -1.901   1.493  -4.053  0.00  0.00    -0.080 A 
ATOM      4  C3  UNL d   1      -0.722   2.085  -3.610  0.00  0.00     0.150 A 
ATOM      5  C4  UNL d   1      -0.470   2.242  -2.251  0.00  0.00    -0.007 A 
ATOM      6  C5  UNL d   1      -1.411   1.805  -1.319  0.00  0.00     0.039 A 
ENDROOT
BRANCH   4   7
ATOM      7  O   UNL d   1       0.224   2.533  -4.484  0.00  0.00    -0.526 OA
ATOM      8  H5  UNL d   1      -0.099   2.384  -5.389  0.00  0.00     0.418 HD
ENDBRANCH   4   7
TORSDOF 1
ENDMDL
