MODEL 1
REMARK minimizedAffinity -2.85103679
REMARK minimizedRMSD -1
REMARK  1 active torsions:
REMARK  status: ('A' for Active; 'I' for Inactive)
REMARK    1  A    between atoms: C3_4  and  O_7 
ROOT
ATOM      1  C   UNL d   1      -0.718   0.757  -0.164  0.00  0.00    -0.033 A 
ATOM      2  C1  UNL d   1       0.466   1.028  -0.853  0.00  0.00     0.039 A 
ATOM      3  C2  UNL d   1       1.622   0.297  -0.572  0.00  0.00    -0.080 A 
ATOM      4  C3  UNL d   1       1.580  -0.702   0.398  0.00  0.00     0.150 A 
ATOM      5  C4  UNL d   1       0.403  -0.980   1.085  0.00  0.00    -0.007 A 
ATOM      6  C5  UNL d   1      -0.750  -0.248   0.804  0.00  0.00     0.039 A 
ENDROOT
BRANCH   4   7
ATOM      7  O   UNL d   1       2.684  -1.438   0.710  0.00  0.00    -0.526 OA
ATOM      8  H5  UNL d   1       3.430  -1.116   0.176  0.00  0.00     0.418 HD
ENDBRANCH   4   7
TORSDOF 1
ENDMDL
