MODEL 1
REMARK minimizedAffinity -3.03211451
REMARK minimizedRMSD -1
REMARK  1 active torsions:
REMARK  status: ('A' for Active; 'I' for Inactive)
REMARK    1  A    between atoms: C3_4  and  O_7 
ROOT
ATOM      1  C   UNL d   1       1.790  -1.542   1.441  0.00  0.00    -0.033 A 
ATOM      2  C1  UNL d   1       0.607  -0.996   1.944  0.00  0.00     0.039 A 
ATOM      3  C2  UNL d   1      -0.268  -0.317   1.093  0.00  0.00    -0.080 A 
ATOM      4  C3  UNL d   1       0.051  -0.192  -0.256  0.00  0.00     0.150 A 
ATOM      5  C4  UNL d   1       1.225  -0.737  -0.765  0.00  0.00    -0.007 A 
ATOM      6  C5  UNL d   1       2.098  -1.414   0.086  0.00  0.00     0.039 A 
ENDROOT
BRANCH   4   7
ATOM      7  O   UNL d   1      -0.769   0.466  -1.124  0.00  0.00    -0.526 OA
ATOM      8  H5  UNL d   1      -1.528   0.813  -0.627  0.00  0.00     0.418 HD
ENDBRANCH   4   7
TORSDOF 1
ENDMDL
