MODEL 1
REMARK minimizedAffinity -3.5454762
REMARK minimizedRMSD -1
REMARK  1 active torsions:
REMARK  status: ('A' for Active; 'I' for Inactive)
REMARK    1  A    between atoms: C3_4  and  O_7 
ROOT
ATOM      1  C   UNL d   1       0.593   0.725  -0.457  0.00  0.00    -0.033 A 
ATOM      2  C1  UNL d   1       1.889   0.273  -0.712  0.00  0.00     0.039 A 
ATOM      3  C2  UNL d   1       2.298  -0.979  -0.248  0.00  0.00    -0.080 A 
ATOM      4  C3  UNL d   1       1.402  -1.769   0.466  0.00  0.00     0.150 A 
ATOM      5  C4  UNL d   1       0.107  -1.327   0.720  0.00  0.00    -0.007 A 
ATOM      6  C5  UNL d   1      -0.299  -0.076   0.257  0.00  0.00     0.039 A 
ENDROOT
BRANCH   4   7
ATOM      7  O   UNL d   1       1.756  -2.996   0.943  0.00  0.00    -0.526 OA
ATOM      8  H5  UNL d   1       2.688  -3.156   0.717  0.00  0.00     0.418 HD
ENDBRANCH   4   7
TORSDOF 1
ENDMDL
