MODEL 1
REMARK minimizedAffinity -4.4260211
REMARK minimizedRMSD -1
REMARK  1 active torsions:
REMARK  status: ('A' for Active; 'I' for Inactive)
REMARK    1  A    between atoms: C3_4  and  O_7 
ROOT
ATOM      1  C   UNL d   1       2.478  -0.892   0.300  0.00  0.00    -0.033 A 
ATOM      2  C1  UNL d   1       1.862   0.312  -0.049  0.00  0.00     0.039 A 
ATOM      3  C2  UNL d   1       0.469   0.416  -0.032  0.00  0.00    -0.080 A 
ATOM      4  C3  UNL d   1      -0.294  -0.689   0.336  0.00  0.00     0.150 A 
ATOM      5  C4  UNL d   1       0.313  -1.889   0.689  0.00  0.00    -0.007 A 
ATOM      6  C5  UNL d   1       1.703  -1.992   0.671  0.00  0.00     0.039 A 
ENDROOT
BRANCH   4   7
ATOM      7  O   UNL d   1      -1.656  -0.636   0.363  0.00  0.00    -0.526 OA
ATOM      8  H5  UNL d   1      -1.936   0.246   0.068  0.00  0.00     0.418 HD
ENDBRANCH   4   7
TORSDOF 1
ENDMDL
