MODEL 1
REMARK minimizedAffinity 0.633540869
REMARK minimizedRMSD -1
REMARK  1 active torsions:
REMARK  status: ('A' for Active; 'I' for Inactive)
REMARK    1  A    between atoms: C3_4  and  O_7 
ROOT
ATOM      1  C   UNL d   1       1.789   0.292  -0.183  0.00  0.00    -0.033 A 
ATOM      2  C1  UNL d   1       1.905   1.042  -1.355  0.00  0.00     0.039 A 
ATOM      3  C2  UNL d   1       3.009   1.875  -1.546  0.00  0.00    -0.080 A 
ATOM      4  C3  UNL d   1       3.988   1.948  -0.560  0.00  0.00     0.150 A 
ATOM      5  C4  UNL d   1       3.881   1.201   0.608  0.00  0.00    -0.007 A 
ATOM      6  C5  UNL d   1       2.778   0.370   0.798  0.00  0.00     0.039 A 
ENDROOT
BRANCH   4   7
ATOM      7  O   UNL d   1       5.081   2.751  -0.700  0.00  0.00    -0.526 OA
ATOM      8  H5  UNL d   1       5.006   3.229  -1.543  0.00  0.00     0.418 HD
ENDBRANCH   4   7
TORSDOF 1
ENDMDL
