MODEL 1
REMARK minimizedAffinity -3.70576549
REMARK minimizedRMSD -1
REMARK  1 active torsions:
REMARK  status: ('A' for Active; 'I' for Inactive)
REMARK    1  A    between atoms: C3_4  and  O_7 
ROOT
ATOM      1  C   UNL d   1      -1.514  -0.399   1.868  0.00  0.00    -0.033 A 
ATOM      2  C1  UNL d   1      -0.905  -1.411   2.613  0.00  0.00     0.039 A 
ATOM      3  C2  UNL d   1       0.377  -1.852   2.277  0.00  0.00    -0.080 A 
ATOM      4  C3  UNL d   1       1.037  -1.274   1.197  0.00  0.00     0.150 A 
ATOM      5  C4  UNL d   1       0.438  -0.263   0.453  0.00  0.00    -0.007 A 
ATOM      6  C5  UNL d   1      -0.842   0.176   0.789  0.00  0.00     0.039 A 
ENDROOT
BRANCH   4   7
ATOM      7  O   UNL d   1       2.287  -1.674   0.829  0.00  0.00    -0.526 OA
ATOM      8  H5  UNL d   1       2.563  -2.399   1.415  0.00  0.00     0.418 HD
ENDBRANCH   4   7
TORSDOF 1
ENDMDL
