MODEL 1
REMARK minimizedAffinity -1.5506866
REMARK minimizedRMSD -1
REMARK  1 active torsions:
REMARK  status: ('A' for Active; 'I' for Inactive)
REMARK    1  A    between atoms: C3_4  and  O_7 
ROOT
ATOM      1  C   UNL d   1      -1.923   0.511   1.115  0.00  0.00    -0.033 A 
ATOM      2  C1  UNL d   1      -1.722   0.900  -0.211  0.00  0.00     0.039 A 
ATOM      3  C2  UNL d   1      -0.450   0.815  -0.781  0.00  0.00    -0.080 A 
ATOM      4  C3  UNL d   1       0.611   0.340  -0.015  0.00  0.00     0.150 A 
ATOM      5  C4  UNL d   1       0.418  -0.053   1.305  0.00  0.00    -0.007 A 
ATOM      6  C5  UNL d   1      -0.853   0.033   1.872  0.00  0.00     0.039 A 
ENDROOT
BRANCH   4   7
ATOM      7  O   UNL d   1       1.871   0.244  -0.526  0.00  0.00    -0.526 OA
ATOM      8  H5  UNL d   1       1.860   0.577  -1.439  0.00  0.00     0.418 HD
ENDBRANCH   4   7
TORSDOF 1
ENDMDL
