MODEL 1
REMARK minimizedAffinity -0.107135937
REMARK minimizedRMSD -1
REMARK  1 active torsions:
REMARK  status: ('A' for Active; 'I' for Inactive)
REMARK    1  A    between atoms: C3_4  and  O_7 
ROOT
ATOM      1  C   UNL d   1       3.068  -1.764   0.036  0.00  0.00    -0.033 A 
ATOM      2  C1  UNL d   1       2.244  -1.646   1.158  0.00  0.00     0.039 A 
ATOM      3  C2  UNL d   1       1.191  -0.729   1.160  0.00  0.00    -0.080 A 
ATOM      4  C3  UNL d   1       0.972   0.062   0.036  0.00  0.00     0.150 A 
ATOM      5  C4  UNL d   1       1.785  -0.053  -1.087  0.00  0.00    -0.007 A 
ATOM      6  C5  UNL d   1       2.837  -0.968  -1.086  0.00  0.00     0.039 A 
ENDROOT
BRANCH   4   7
ATOM      7  O   UNL d   1      -0.041   0.974  -0.007  0.00  0.00    -0.526 OA
ATOM      8  H5  UNL d   1      -0.501   0.963   0.848  0.00  0.00     0.418 HD
ENDBRANCH   4   7
TORSDOF 1
ENDMDL
