MODEL 1
REMARK minimizedAffinity 0.14355658
REMARK minimizedRMSD -1
REMARK  1 active torsions:
REMARK  status: ('A' for Active; 'I' for Inactive)
REMARK    1  A    between atoms: C3_4  and  O_7 
ROOT
ATOM      1  C   UNL d   1       1.256   0.775  -1.338  0.00  0.00    -0.033 A 
ATOM      2  C1  UNL d   1       1.752   0.253  -0.142  0.00  0.00     0.039 A 
ATOM      3  C2  UNL d   1       0.881  -0.037   0.910  0.00  0.00    -0.080 A 
ATOM      4  C3  UNL d   1      -0.482   0.197   0.753  0.00  0.00     0.150 A 
ATOM      5  C4  UNL d   1      -0.984   0.713  -0.438  0.00  0.00    -0.007 A 
ATOM      6  C5  UNL d   1      -0.112   1.003  -1.487  0.00  0.00     0.039 A 
ENDROOT
BRANCH   4   7
ATOM      7  O   UNL d   1      -1.371  -0.066   1.752  0.00  0.00    -0.526 OA
ATOM      8  H5  UNL d   1      -0.878  -0.391   2.524  0.00  0.00     0.418 HD
ENDBRANCH   4   7
TORSDOF 1
ENDMDL
