MODEL 1
REMARK minimizedAffinity -1.24606287
REMARK minimizedRMSD -1
REMARK  1 active torsions:
REMARK  status: ('A' for Active; 'I' for Inactive)
REMARK    1  A    between atoms: C3_4  and  O_7 
ROOT
ATOM      1  C   UNL d   1       2.708   0.760  -0.514  0.00  0.00    -0.033 A 
ATOM      2  C1  UNL d   1       1.796   1.688  -0.007  0.00  0.00     0.039 A 
ATOM      3  C2  UNL d   1       0.428   1.415  -0.040  0.00  0.00    -0.080 A 
ATOM      4  C3  UNL d   1      -0.016   0.212  -0.581  0.00  0.00     0.150 A 
ATOM      5  C4  UNL d   1       0.886  -0.719  -1.085  0.00  0.00    -0.007 A 
ATOM      6  C5  UNL d   1       2.253  -0.445  -1.052  0.00  0.00     0.039 A 
ENDROOT
BRANCH   4   7
ATOM      7  O   UNL d   1      -1.343  -0.097  -0.640  0.00  0.00    -0.526 OA
ATOM      8  H5  UNL d   1      -1.849   0.652  -0.282  0.00  0.00     0.418 HD
ENDBRANCH   4   7
TORSDOF 1
ENDMDL
