MODEL 1
REMARK minimizedAffinity 17.0734882
REMARK minimizedRMSD -1
REMARK  1 active torsions:
REMARK  status: ('A' for Active; 'I' for Inactive)
REMARK    1  A    between atoms: C1_2  and  C2_3 
ROOT
ATOM      1  C2  UNL d   1       0.211  -1.094  -3.752  0.00  0.00    -0.077 A 
ATOM      2  C3  UNL d   1       0.586  -2.396  -3.394  0.00  0.00     0.002 A 
ATOM      3  C4  UNL d   1      -0.078  -3.065  -2.364  0.00  0.00     0.002 A 
ATOM      4  C5  UNL d   1      -1.123  -2.441  -1.687  0.00  0.00    -0.004 A 
ATOM      5  C6  UNL d   1      -1.503  -1.145  -2.034  0.00  0.00     0.002 A 
ATOM      6  C7  UNL d   1      -0.839  -0.475  -3.063  0.00  0.00     0.002 A 
ENDROOT
BRANCH   1   7
ATOM      7  C1  UNL d   1       0.894  -0.390  -4.896  0.00  0.00     0.055 C 
ATOM      8  C   UNL d   1       2.350  -0.813  -5.016  0.00  0.00     0.019 C 
ENDBRANCH   1   7
TORSDOF 1
ENDMDL
