MODEL 1
REMARK minimizedAffinity 10.8455544
REMARK minimizedRMSD -1
REMARK  1 active torsions:
REMARK  status: ('A' for Active; 'I' for Inactive)
REMARK    1  A    between atoms: C1_2  and  C2_3 
ROOT
ATOM      1  C2  UNL d   1       2.264  -2.095  -5.320  0.00  0.00    -0.077 A 
ATOM      2  C3  UNL d   1       1.469  -3.113  -5.866  0.00  0.00     0.002 A 
ATOM      3  C4  UNL d   1       0.089  -2.942  -5.989  0.00  0.00     0.002 A 
ATOM      4  C5  UNL d   1      -0.508  -1.753  -5.573  0.00  0.00    -0.004 A 
ATOM      5  C6  UNL d   1       0.274  -0.736  -5.027  0.00  0.00     0.002 A 
ATOM      6  C7  UNL d   1       1.653  -0.905  -4.902  0.00  0.00     0.002 A 
ENDROOT
BRANCH   1   7
ATOM      7  C1  UNL d   1       3.759  -2.258  -5.232  0.00  0.00     0.055 C 
ATOM      8  C   UNL d   1       4.232  -2.250  -3.786  0.00  0.00     0.019 C 
ENDBRANCH   1   7
TORSDOF 1
ENDMDL
