MODEL 1
REMARK minimizedAffinity 16.0991592
REMARK minimizedRMSD -1
REMARK  1 active torsions:
REMARK  status: ('A' for Active; 'I' for Inactive)
REMARK    1  A    between atoms: C1_2  and  C2_3 
ROOT
ATOM      1  C2  UNL d   1       0.769  -2.303  -4.520  0.00  0.00    -0.077 A 
ATOM      2  C3  UNL d   1       2.137  -2.589  -4.415  0.00  0.00     0.002 A 
ATOM      3  C4  UNL d   1       2.685  -3.681  -5.092  0.00  0.00     0.002 A 
ATOM      4  C5  UNL d   1       1.872  -4.492  -5.882  0.00  0.00    -0.004 A 
ATOM      5  C6  UNL d   1       0.510  -4.217  -5.991  0.00  0.00     0.002 A 
ATOM      6  C7  UNL d   1      -0.040  -3.127  -5.314  0.00  0.00     0.002 A 
ENDROOT
BRANCH   1   7
ATOM      7  C1  UNL d   1       0.185  -1.098  -3.831  0.00  0.00     0.055 C 
ATOM      8  C   UNL d   1      -0.046   0.043  -4.811  0.00  0.00     0.019 C 
ENDBRANCH   1   7
TORSDOF 1
ENDMDL
