MODEL 1
REMARK minimizedAffinity 7.65592909
REMARK minimizedRMSD -1
REMARK  1 active torsions:
REMARK  status: ('A' for Active; 'I' for Inactive)
REMARK    1  A    between atoms: C1_2  and  C2_3 
ROOT
ATOM      1  C2  UNL d   1      -0.556  -1.057  -3.937  0.00  0.00    -0.077 A 
ATOM      2  C3  UNL d   1      -0.202  -1.168  -5.289  0.00  0.00     0.002 A 
ATOM      3  C4  UNL d   1       1.093  -0.857  -5.708  0.00  0.00     0.002 A 
ATOM      4  C5  UNL d   1       2.045  -0.438  -4.781  0.00  0.00    -0.004 A 
ATOM      5  C6  UNL d   1       1.703  -0.323  -3.435  0.00  0.00     0.002 A 
ATOM      6  C7  UNL d   1       0.409  -0.632  -3.014  0.00  0.00     0.002 A 
ENDROOT
BRANCH   1   7
ATOM      7  C1  UNL d   1      -1.938  -1.439  -3.476  0.00  0.00     0.055 C 
ATOM      8  C   UNL d   1      -1.885  -2.298  -2.221  0.00  0.00     0.019 C 
ENDBRANCH   1   7
TORSDOF 1
ENDMDL
