MODEL 1
REMARK minimizedAffinity 12.8632927
REMARK minimizedRMSD -1
REMARK  1 active torsions:
REMARK  status: ('A' for Active; 'I' for Inactive)
REMARK    1  A    between atoms: C1_2  and  C2_3 
ROOT
ATOM      1  C2  UNL d   1       0.098   1.864   4.594  0.00  0.00    -0.077 A 
ATOM      2  C3  UNL d   1      -0.663   2.306   3.503  0.00  0.00     0.002 A 
ATOM      3  C4  UNL d   1      -0.700   1.564   2.321  0.00  0.00     0.002 A 
ATOM      4  C5  UNL d   1       0.018   0.374   2.221  0.00  0.00    -0.004 A 
ATOM      5  C6  UNL d   1       0.780  -0.073   3.300  0.00  0.00     0.002 A 
ATOM      6  C7  UNL d   1       0.819   0.668   4.482  0.00  0.00     0.002 A 
ENDROOT
BRANCH   1   7
ATOM      7  C1  UNL d   1       0.099   2.638   5.887  0.00  0.00     0.055 C 
ATOM      8  C   UNL d   1       1.330   3.526   5.999  0.00  0.00     0.019 C 
ENDBRANCH   1   7
TORSDOF 1
ENDMDL
