MODEL 1
REMARK minimizedAffinity 11.5630426
REMARK minimizedRMSD -1
REMARK  1 active torsions:
REMARK  status: ('A' for Active; 'I' for Inactive)
REMARK    1  A    between atoms: C1_2  and  C2_3 
ROOT
ATOM      1  C2  UNL d   1      -0.801  -1.584  -3.965  0.00  0.00    -0.077 A 
ATOM      2  C3  UNL d   1      -0.585  -2.464  -5.034  0.00  0.00     0.002 A 
ATOM      3  C4  UNL d   1       0.551  -2.337  -5.835  0.00  0.00     0.002 A 
ATOM      4  C5  UNL d   1       1.483  -1.335  -5.572  0.00  0.00    -0.004 A 
ATOM      5  C6  UNL d   1       1.276  -0.454  -4.511  0.00  0.00     0.002 A 
ATOM      6  C7  UNL d   1       0.140  -0.578  -3.711  0.00  0.00     0.002 A 
ENDROOT
BRANCH   1   7
ATOM      7  C1  UNL d   1      -2.002  -1.749  -3.070  0.00  0.00     0.055 C 
ATOM      8  C   UNL d   1      -1.631  -2.449  -1.770  0.00  0.00     0.019 C 
ENDBRANCH   1   7
TORSDOF 1
ENDMDL
