MODEL 1
REMARK minimizedAffinity 4.2792592
REMARK minimizedRMSD -1
REMARK  1 active torsions:
REMARK  status: ('A' for Active; 'I' for Inactive)
REMARK    1  A    between atoms: C1_2  and  C2_3 
ROOT
ATOM      1  C2  UNL d   1      -0.588   1.004   1.241  0.00  0.00    -0.081 A 
ATOM      2  C3  UNL d   1       0.672   0.536   1.636  0.00  0.00     0.006 A 
ATOM      3  C4  UNL d   1       1.755   0.591   0.756  0.00  0.00     0.002 A 
ATOM      4  C5  UNL d   1       1.599   1.122  -0.529  0.00  0.00    -0.080 A 
ATOM      5  C6  UNL d   1       2.761   1.215  -1.473  0.00  0.00     0.076 C 
ATOM      6  C7  UNL d   1       0.337   1.574  -0.929  0.00  0.00     0.002 A 
ATOM      7  C8  UNL d   1      -0.746   1.518  -0.050  0.00  0.00     0.006 A 
ENDROOT
BRANCH   1   8
ATOM      8  C1  UNL d   1      -1.743   1.005   2.210  0.00  0.00     0.054 C 
ATOM      9  C   UNL d   1      -3.029   1.461   1.536  0.00  0.00     0.018 C 
ENDBRANCH   1   8
TORSDOF 1
ENDMDL
