MODEL 1
REMARK minimizedAffinity -6.03086329
REMARK minimizedRMSD -1
REMARK  1 active torsions:
REMARK  status: ('A' for Active; 'I' for Inactive)
REMARK    1  A    between atoms: C1_2  and  C2_3 
ROOT
ATOM      1  C2  UNL d   1       1.121  -1.517  -1.589  0.00  0.00    -0.081 A 
ATOM      2  C3  UNL d   1       1.885  -0.501  -2.177  0.00  0.00     0.006 A 
ATOM      3  C4  UNL d   1       1.856   0.796  -1.660  0.00  0.00     0.002 A 
ATOM      4  C5  UNL d   1       1.069   1.097  -0.543  0.00  0.00    -0.080 A 
ATOM      5  C6  UNL d   1       1.052   2.479   0.040  0.00  0.00     0.076 C 
ATOM      6  C7  UNL d   1       0.292   0.087   0.033  0.00  0.00     0.002 A 
ATOM      7  C8  UNL d   1       0.320  -1.210  -0.483  0.00  0.00     0.006 A 
ENDROOT
BRANCH   1   8
ATOM      8  C1  UNL d   1       1.200  -2.931  -2.104  0.00  0.00     0.054 C 
ATOM      9  C   UNL d   1       1.597  -3.901  -1.000  0.00  0.00     0.018 C 
ENDBRANCH   1   8
TORSDOF 1
ENDMDL
