MODEL 1
REMARK minimizedAffinity -2.93732548
REMARK minimizedRMSD -1
REMARK  1 active torsions:
REMARK  status: ('A' for Active; 'I' for Inactive)
REMARK    1  A    between atoms: C1_2  and  C2_3 
ROOT
ATOM      1  C2  UNL d   1      -1.250  -0.130   1.631  0.00  0.00    -0.081 A 
ATOM      2  C3  UNL d   1      -1.126  -1.476   1.997  0.00  0.00     0.006 A 
ATOM      3  C4  UNL d   1      -0.434  -2.371   1.178  0.00  0.00     0.002 A 
ATOM      4  C5  UNL d   1       0.151  -1.935  -0.015  0.00  0.00    -0.080 A 
ATOM      5  C6  UNL d   1       0.923  -2.880  -0.888  0.00  0.00     0.076 C 
ATOM      6  C7  UNL d   1       0.012  -0.594  -0.389  0.00  0.00     0.002 A 
ATOM      7  C8  UNL d   1      -0.680   0.301   0.428  0.00  0.00     0.006 A 
ENDROOT
BRANCH   1   8
ATOM      8  C1  UNL d   1      -1.940   0.852   2.543  0.00  0.00     0.054 C 
ATOM      9  C   UNL d   1      -2.670   1.926   1.750  0.00  0.00     0.018 C 
ENDBRANCH   1   8
TORSDOF 1
ENDMDL
