MODEL 1
REMARK minimizedAffinity -4.68142462
REMARK minimizedRMSD -1
REMARK  1 active torsions:
REMARK  status: ('A' for Active; 'I' for Inactive)
REMARK    1  A    between atoms: C1_2  and  C2_3 
ROOT
ATOM      1  C2  UNL d   1       0.923   0.041  -0.965  0.00  0.00    -0.081 A 
ATOM      2  C3  UNL d   1       1.111  -1.306  -1.299  0.00  0.00     0.006 A 
ATOM      3  C4  UNL d   1       1.697  -1.659  -2.517  0.00  0.00     0.002 A 
ATOM      4  C5  UNL d   1       2.110  -0.672  -3.418  0.00  0.00    -0.080 A 
ATOM      5  C6  UNL d   1       2.767  -1.037  -4.716  0.00  0.00     0.076 C 
ATOM      6  C7  UNL d   1       1.906   0.673  -3.093  0.00  0.00     0.002 A 
ATOM      7  C8  UNL d   1       1.320   1.027  -1.875  0.00  0.00     0.006 A 
ENDROOT
BRANCH   1   8
ATOM      8  C1  UNL d   1       0.351   0.426   0.375  0.00  0.00     0.054 C 
ATOM      9  C   UNL d   1      -0.784  -0.504   0.780  0.00  0.00     0.018 C 
ENDBRANCH   1   8
TORSDOF 1
ENDMDL
