MODEL 1
REMARK minimizedAffinity -5.52483082
REMARK minimizedRMSD -1
REMARK  1 active torsions:
REMARK  status: ('A' for Active; 'I' for Inactive)
REMARK    1  A    between atoms: C1_2  and  C2_3 
ROOT
ATOM      1  C2  UNL d   1      -0.506  -0.656   0.867  0.00  0.00    -0.081 A 
ATOM      2  C3  UNL d   1      -0.236  -1.481  -0.231  0.00  0.00     0.006 A 
ATOM      3  C4  UNL d   1       0.506  -1.001  -1.313  0.00  0.00     0.002 A 
ATOM      4  C5  UNL d   1       0.997   0.309  -1.311  0.00  0.00    -0.080 A 
ATOM      5  C6  UNL d   1       1.821   0.827  -2.452  0.00  0.00     0.076 C 
ATOM      6  C7  UNL d   1       0.713   1.139  -0.221  0.00  0.00     0.002 A 
ATOM      7  C8  UNL d   1      -0.030   0.660   0.860  0.00  0.00     0.006 A 
ENDROOT
BRANCH   1   8
ATOM      8  C1  UNL d   1      -1.250  -1.191   2.064  0.00  0.00     0.054 C 
ATOM      9  C   UNL d   1      -2.686  -1.547   1.708  0.00  0.00     0.018 C 
ENDBRANCH   1   8
TORSDOF 1
ENDMDL
