MODEL 1
REMARK minimizedAffinity -5.17853594
REMARK minimizedRMSD -1
REMARK  1 active torsions:
REMARK  status: ('A' for Active; 'I' for Inactive)
REMARK    1  A    between atoms: C1_2  and  C2_3 
ROOT
ATOM      1  C2  UNL d   1       0.168  -0.839   0.159  0.00  0.00    -0.081 A 
ATOM      2  C3  UNL d   1       0.449  -2.095  -0.393  0.00  0.00     0.006 A 
ATOM      3  C4  UNL d   1       1.098  -2.197  -1.625  0.00  0.00     0.002 A 
ATOM      4  C5  UNL d   1       1.484  -1.047  -2.322  0.00  0.00    -0.080 A 
ATOM      5  C6  UNL d   1       2.209  -1.144  -3.632  0.00  0.00     0.076 C 
ATOM      6  C7  UNL d   1       1.188   0.208  -1.779  0.00  0.00     0.002 A 
ATOM      7  C8  UNL d   1       0.539   0.311  -0.547  0.00  0.00     0.006 A 
ENDROOT
BRANCH   1   8
ATOM      8  C1  UNL d   1      -0.474  -0.725   1.518  0.00  0.00     0.054 C 
ATOM      9  C   UNL d   1      -1.818  -0.015   1.437  0.00  0.00     0.018 C 
ENDBRANCH   1   8
TORSDOF 1
ENDMDL
