MODEL 1
REMARK minimizedAffinity -3.15477109
REMARK minimizedRMSD -1
REMARK  1 active torsions:
REMARK  status: ('A' for Active; 'I' for Inactive)
REMARK    1  A    between atoms: C1_2  and  C2_3 
ROOT
ATOM      1  C2  UNL d   1      -0.899  -0.360   0.862  0.00  0.00    -0.081 A 
ATOM      2  C3  UNL d   1      -0.092  -1.394   0.373  0.00  0.00     0.006 A 
ATOM      3  C4  UNL d   1       0.925  -1.124  -0.546  0.00  0.00     0.002 A 
ATOM      4  C5  UNL d   1       1.158   0.184  -0.984  0.00  0.00    -0.080 A 
ATOM      5  C6  UNL d   1       2.266   0.492  -1.946  0.00  0.00     0.076 C 
ATOM      6  C7  UNL d   1       0.340   1.215  -0.508  0.00  0.00     0.002 A 
ATOM      7  C8  UNL d   1      -0.678   0.945   0.410  0.00  0.00     0.006 A 
ENDROOT
BRANCH   1   8
ATOM      8  C1  UNL d   1      -1.955  -0.638   1.901  0.00  0.00     0.054 C 
ATOM      9  C   UNL d   1      -2.733   0.622   2.251  0.00  0.00     0.018 C 
ENDBRANCH   1   8
TORSDOF 1
ENDMDL
