MODEL 1
REMARK minimizedAffinity -4.03690529
REMARK minimizedRMSD -1
REMARK  1 active torsions:
REMARK  status: ('A' for Active; 'I' for Inactive)
REMARK    1  A    between atoms: C1_2  and  C2_3 
ROOT
ATOM      1  C2  UNL d   1       0.309  -0.301  -0.276  0.00  0.00    -0.081 A 
ATOM      2  C3  UNL d   1       1.133  -1.432  -0.313  0.00  0.00     0.006 A 
ATOM      3  C4  UNL d   1       1.794  -1.789  -1.491  0.00  0.00     0.002 A 
ATOM      4  C5  UNL d   1       1.647  -1.017  -2.648  0.00  0.00    -0.080 A 
ATOM      5  C6  UNL d   1       2.375  -1.371  -3.911  0.00  0.00     0.076 C 
ATOM      6  C7  UNL d   1       0.810   0.104  -2.616  0.00  0.00     0.002 A 
ATOM      7  C8  UNL d   1       0.149   0.460  -1.439  0.00  0.00     0.006 A 
ENDROOT
BRANCH   1   8
ATOM      8  C1  UNL d   1      -0.354   0.122   1.011  0.00  0.00     0.054 C 
ATOM      9  C   UNL d   1      -1.670  -0.612   1.223  0.00  0.00     0.018 C 
ENDBRANCH   1   8
TORSDOF 1
ENDMDL
