MODEL 1
REMARK minimizedAffinity -0.871943772
REMARK minimizedRMSD -1
REMARK  1 active torsions:
REMARK  status: ('A' for Active; 'I' for Inactive)
REMARK    1  A    between atoms: C1_2  and  C2_3 
ROOT
ATOM      1  C2  UNL d   1      -1.624   0.401   0.647  0.00  0.00    -0.081 A 
ATOM      2  C3  UNL d   1      -0.508  -0.403   0.910  0.00  0.00     0.006 A 
ATOM      3  C4  UNL d   1       0.690  -0.199   0.221  0.00  0.00     0.002 A 
ATOM      4  C5  UNL d   1       0.794   0.816  -0.736  0.00  0.00    -0.080 A 
ATOM      5  C6  UNL d   1       2.083   1.065  -1.462  0.00  0.00     0.076 C 
ATOM      6  C7  UNL d   1      -0.326   1.608  -1.012  0.00  0.00     0.002 A 
ATOM      7  C8  UNL d   1      -1.524   1.404  -0.323  0.00  0.00     0.006 A 
ENDROOT
BRANCH   1   8
ATOM      8  C1  UNL d   1      -2.897   0.226   1.435  0.00  0.00     0.054 C 
ATOM      9  C   UNL d   1      -4.092   0.807   0.691  0.00  0.00     0.018 C 
ENDBRANCH   1   8
TORSDOF 1
ENDMDL
