MODEL 1
REMARK minimizedAffinity -6.35674572
REMARK minimizedRMSD -1
REMARK  1 active torsions:
REMARK  status: ('A' for Active; 'I' for Inactive)
REMARK    1  A    between atoms: C1_2  and  C2_3 
ROOT
ATOM      1  C2  UNL d   1       0.076  -0.659   0.118  0.00  0.00    -0.081 A 
ATOM      2  C3  UNL d   1       0.358  -1.777  -0.677  0.00  0.00     0.006 A 
ATOM      3  C4  UNL d   1       1.114  -1.643  -1.844  0.00  0.00     0.002 A 
ATOM      4  C5  UNL d   1       1.606  -0.392  -2.232  0.00  0.00    -0.080 A 
ATOM      5  C6  UNL d   1       2.444  -0.239  -3.466  0.00  0.00     0.076 C 
ATOM      6  C7  UNL d   1       1.309   0.728  -1.447  0.00  0.00     0.002 A 
ATOM      7  C8  UNL d   1       0.553   0.594  -0.280  0.00  0.00     0.006 A 
ENDROOT
BRANCH   1   8
ATOM      8  C1  UNL d   1      -0.684  -0.811   1.411  0.00  0.00     0.054 C 
ATOM      9  C   UNL d   1      -1.921   0.076   1.434  0.00  0.00     0.018 C 
ENDBRANCH   1   8
TORSDOF 1
ENDMDL
