MODEL 1
REMARK minimizedAffinity 1.65603113
REMARK minimizedRMSD -1
REMARK  1 active torsions:
REMARK  status: ('A' for Active; 'I' for Inactive)
REMARK    1  A    between atoms: C1_2  and  C2_3 
ROOT
ATOM      1  C2  UNL d   1       0.586  -0.893   0.311  0.00  0.00    -0.081 A 
ATOM      2  C3  UNL d   1      -0.155   0.254   0.619  0.00  0.00     0.006 A 
ATOM      3  C4  UNL d   1       0.283   1.514   0.204  0.00  0.00     0.002 A 
ATOM      4  C5  UNL d   1       1.466   1.647  -0.532  0.00  0.00    -0.080 A 
ATOM      5  C6  UNL d   1       1.932   2.990  -1.010  0.00  0.00     0.076 C 
ATOM      6  C7  UNL d   1       2.216   0.503  -0.825  0.00  0.00     0.002 A 
ATOM      7  C8  UNL d   1       1.778  -0.757  -0.410  0.00  0.00     0.006 A 
ENDROOT
BRANCH   1   8
ATOM      8  C1  UNL d   1       0.083  -2.259   0.701  0.00  0.00     0.054 C 
ATOM      9  C   UNL d   1      -1.351  -2.473   0.237  0.00  0.00     0.018 C 
ENDBRANCH   1   8
TORSDOF 1
ENDMDL
