MODEL 1
REMARK minimizedAffinity -1.91700733
REMARK minimizedRMSD -1
REMARK  1 active torsions:
REMARK  status: ('A' for Active; 'I' for Inactive)
REMARK    1  A    between atoms: C3_4  and  O_7 
ROOT
ATOM      1  C   UNL d   1      -1.019   0.639  -0.206  0.00  0.00    -0.033 A 
ATOM      2  C1  UNL d   1      -0.024   1.348   0.470  0.00  0.00     0.039 A 
ATOM      3  C2  UNL d   1       1.179   0.722   0.803  0.00  0.00    -0.080 A 
ATOM      4  C3  UNL d   1       1.374  -0.612   0.454  0.00  0.00     0.150 A 
ATOM      5  C4  UNL d   1       0.389  -1.323  -0.223  0.00  0.00    -0.007 A 
ATOM      6  C5  UNL d   1      -0.812  -0.696  -0.554  0.00  0.00     0.039 A 
ENDROOT
BRANCH   4   7
ATOM      7  O   UNL d   1       2.529  -1.267   0.762  0.00  0.00    -0.526 OA
ATOM      8  H5  UNL d   1       3.106  -0.659   1.254  0.00  0.00     0.418 HD
ENDBRANCH   4   7
TORSDOF 1
ENDMDL
