MODEL 1
REMARK minimizedAffinity -4.84139681
REMARK minimizedRMSD -1
REMARK  1 active torsions:
REMARK  status: ('A' for Active; 'I' for Inactive)
REMARK    1  A    between atoms: C3_4  and  O_7 
ROOT
ATOM      1  C   UNL d   1       0.496   1.611  -0.013  0.00  0.00    -0.033 A 
ATOM      2  C1  UNL d   1       0.091   0.276  -0.067  0.00  0.00     0.039 A 
ATOM      3  C2  UNL d   1       0.957  -0.735   0.353  0.00  0.00    -0.080 A 
ATOM      4  C3  UNL d   1       2.223  -0.399   0.825  0.00  0.00     0.150 A 
ATOM      5  C4  UNL d   1       2.631   0.929   0.885  0.00  0.00    -0.007 A 
ATOM      6  C5  UNL d   1       1.765   1.938   0.464  0.00  0.00     0.039 A 
ENDROOT
BRANCH   4   7
ATOM      7  O   UNL d   1       3.105  -1.351   1.241  0.00  0.00    -0.526 OA
ATOM      8  H5  UNL d   1       2.696  -2.224   1.116  0.00  0.00     0.418 HD
ENDBRANCH   4   7
TORSDOF 1
ENDMDL
