MODEL 1
REMARK minimizedAffinity -0.355763704
REMARK minimizedRMSD -1
REMARK  1 active torsions:
REMARK  status: ('A' for Active; 'I' for Inactive)
REMARK    1  A    between atoms: C3_4  and  O_7 
ROOT
ATOM      1  C   UNL d   1      -1.127  -0.709  -0.577  0.00  0.00    -0.033 A 
ATOM      2  C1  UNL d   1       0.204  -1.054  -0.331  0.00  0.00     0.039 A 
ATOM      3  C2  UNL d   1       1.160  -0.057  -0.129  0.00  0.00    -0.080 A 
ATOM      4  C3  UNL d   1       0.773   1.280  -0.174  0.00  0.00     0.150 A 
ATOM      5  C4  UNL d   1      -0.552   1.631  -0.414  0.00  0.00    -0.007 A 
ATOM      6  C5  UNL d   1      -1.505   0.633  -0.617  0.00  0.00     0.039 A 
ENDROOT
BRANCH   4   7
ATOM      7  O   UNL d   1       1.671   2.288   0.013  0.00  0.00    -0.526 OA
ATOM      8  H5  UNL d   1       2.551   1.897   0.140  0.00  0.00     0.418 HD
ENDBRANCH   4   7
TORSDOF 1
ENDMDL
