MODEL 1
REMARK minimizedAffinity -0.777473807
REMARK minimizedRMSD -1
REMARK  1 active torsions:
REMARK  status: ('A' for Active; 'I' for Inactive)
REMARK    1  A    between atoms: C3_4  and  O_7 
ROOT
ATOM      1  C   UNL d   1      -1.094   0.752  -0.233  0.00  0.00    -0.033 A 
ATOM      2  C1  UNL d   1      -1.405  -0.491  -0.788  0.00  0.00     0.039 A 
ATOM      3  C2  UNL d   1      -0.476  -1.532  -0.735  0.00  0.00    -0.080 A 
ATOM      4  C3  UNL d   1       0.757  -1.319  -0.125  0.00  0.00     0.150 A 
ATOM      5  C4  UNL d   1       1.071  -0.084   0.433  0.00  0.00    -0.007 A 
ATOM      6  C5  UNL d   1       0.143   0.955   0.378  0.00  0.00     0.039 A 
ENDROOT
BRANCH   4   7
ATOM      7  O   UNL d   1       1.697  -2.303  -0.053  0.00  0.00    -0.526 OA
ATOM      8  H5  UNL d   1       1.352  -3.091  -0.505  0.00  0.00     0.418 HD
ENDBRANCH   4   7
TORSDOF 1
ENDMDL
