MODEL 1
REMARK minimizedAffinity -3.64302373
REMARK minimizedRMSD -1
REMARK  1 active torsions:
REMARK  status: ('A' for Active; 'I' for Inactive)
REMARK    1  A    between atoms: C3_4  and  O_7 
ROOT
ATOM      1  C   UNL d   1      -0.407   0.258   0.042  0.00  0.00    -0.033 A 
ATOM      2  C1  UNL d   1       0.618   0.912   0.729  0.00  0.00     0.039 A 
ATOM      3  C2  UNL d   1       1.783   0.222   1.070  0.00  0.00    -0.080 A 
ATOM      4  C3  UNL d   1       1.911  -1.119   0.718  0.00  0.00     0.150 A 
ATOM      5  C4  UNL d   1       0.896  -1.775   0.030  0.00  0.00    -0.007 A 
ATOM      6  C5  UNL d   1      -0.268  -1.085  -0.308  0.00  0.00     0.039 A 
ENDROOT
BRANCH   4   7
ATOM      7  O   UNL d   1       3.027  -1.835   1.033  0.00  0.00    -0.526 OA
ATOM      8  H5  UNL d   1       3.631  -1.260   1.533  0.00  0.00     0.418 HD
ENDBRANCH   4   7
TORSDOF 1
ENDMDL
