MODEL 1
REMARK minimizedAffinity -4.92311954
REMARK minimizedRMSD -1
REMARK  1 active torsions:
REMARK  status: ('A' for Active; 'I' for Inactive)
REMARK    1  A    between atoms: C3_4  and  O_7 
ROOT
ATOM      1  C   UNL d   1       2.657  -1.767   0.470  0.00  0.00    -0.033 A 
ATOM      2  C1  UNL d   1       1.690  -2.276  -0.398  0.00  0.00     0.039 A 
ATOM      3  C2  UNL d   1       0.524  -1.551  -0.651  0.00  0.00    -0.080 A 
ATOM      4  C3  UNL d   1       0.338  -0.318  -0.030  0.00  0.00     0.150 A 
ATOM      5  C4  UNL d   1       1.299   0.197   0.833  0.00  0.00    -0.007 A 
ATOM      6  C5  UNL d   1       2.462  -0.529   1.085  0.00  0.00     0.039 A 
ENDROOT
BRANCH   4   7
ATOM      7  O   UNL d   1      -0.785   0.424  -0.242  0.00  0.00    -0.526 OA
ATOM      8  H5  UNL d   1      -1.373  -0.070  -0.838  0.00  0.00     0.418 HD
ENDBRANCH   4   7
TORSDOF 1
ENDMDL
