MODEL 1
REMARK minimizedAffinity -3.61784315
REMARK minimizedRMSD -1
REMARK  1 active torsions:
REMARK  status: ('A' for Active; 'I' for Inactive)
REMARK    1  A    between atoms: C3_4  and  O_7 
ROOT
ATOM      1  C   UNL d   1      -0.262   0.791  -0.680  0.00  0.00    -0.033 A 
ATOM      2  C1  UNL d   1       0.539   1.846  -0.235  0.00  0.00     0.039 A 
ATOM      3  C2  UNL d   1       1.722   1.582   0.456  0.00  0.00    -0.080 A 
ATOM      4  C3  UNL d   1       2.095   0.263   0.696  0.00  0.00     0.150 A 
ATOM      5  C4  UNL d   1       1.305  -0.793   0.252  0.00  0.00    -0.007 A 
ATOM      6  C5  UNL d   1       0.122  -0.528  -0.438  0.00  0.00     0.039 A 
ENDROOT
BRANCH   4   7
ATOM      7  O   UNL d   1       3.239  -0.044   1.371  0.00  0.00    -0.526 OA
ATOM      8  H5  UNL d   1       3.668   0.785   1.641  0.00  0.00     0.418 HD
ENDBRANCH   4   7
TORSDOF 1
ENDMDL
