MODEL 1
REMARK minimizedAffinity -3.3566401
REMARK minimizedRMSD -1
REMARK  1 active torsions:
REMARK  status: ('A' for Active; 'I' for Inactive)
REMARK    1  A    between atoms: C3_4  and  O_7 
ROOT
ATOM      1  C   UNL d   1      -1.015   0.453  -0.399  0.00  0.00    -0.033 A 
ATOM      2  C1  UNL d   1      -0.896  -0.850  -0.887  0.00  0.00     0.039 A 
ATOM      3  C2  UNL d   1       0.262  -1.589  -0.636  0.00  0.00    -0.080 A 
ATOM      4  C3  UNL d   1       1.292  -1.014   0.104  0.00  0.00     0.150 A 
ATOM      5  C4  UNL d   1       1.179   0.281   0.597  0.00  0.00    -0.007 A 
ATOM      6  C5  UNL d   1       0.022   1.018   0.345  0.00  0.00     0.039 A 
ENDROOT
BRANCH   4   7
ATOM      7  O   UNL d   1       2.443  -1.694   0.371  0.00  0.00    -0.526 OA
ATOM      8  H5  UNL d   1       2.392  -2.566  -0.057  0.00  0.00     0.418 HD
ENDBRANCH   4   7
TORSDOF 1
ENDMDL
