MODEL 1
REMARK minimizedAffinity 3.61970472
REMARK minimizedRMSD -1
REMARK  0 active torsions:
REMARK  status: ('A' for Active; 'I' for Inactive)
ROOT
ATOM      1  C   UNL d   1      -5.086   2.255  -4.810  0.00  0.00     0.023 A 
ATOM      2  C1  UNL d   1      -4.170   1.596  -3.990  0.00  0.00     0.003 A 
ATOM      3  C2  UNL d   1      -4.165   1.835  -2.614  0.00  0.00     0.048 A 
ATOM      4  C3  UNL d   1      -5.080   2.732  -2.065  0.00  0.00     0.023 A 
ATOM      5  C4  UNL d   1      -5.999   3.393  -2.881  0.00  0.00     0.048 A 
ATOM      6  C5  UNL d   1      -6.000   3.153  -4.256  0.00  0.00     0.003 A 
ATOM      7  I   UNL d   1      -5.075   3.088  -0.017  0.00  0.00    -0.146 I 
ENDROOT
TORSDOF 0
ENDMDL
