MODEL 1
REMARK minimizedAffinity 3.6239996
REMARK minimizedRMSD -1
REMARK  0 active torsions:
REMARK  status: ('A' for Active; 'I' for Inactive)
ROOT
ATOM      1  C   UNL d   1       2.751  -0.161   2.967  0.00  0.00     0.023 A 
ATOM      2  C1  UNL d   1       2.501  -0.568   1.656  0.00  0.00     0.003 A 
ATOM      3  C2  UNL d   1       2.318   0.384   0.651  0.00  0.00     0.048 A 
ATOM      4  C3  UNL d   1       2.387   1.741   0.963  0.00  0.00     0.023 A 
ATOM      5  C4  UNL d   1       2.638   2.153   2.273  0.00  0.00     0.048 A 
ATOM      6  C5  UNL d   1       2.820   1.198   3.275  0.00  0.00     0.003 A 
ATOM      7  I   UNL d   1       2.115   3.160  -0.531  0.00  0.00    -0.146 I 
ENDROOT
TORSDOF 0
ENDMDL
