MODEL 1
REMARK minimizedAffinity 3.82744384
REMARK minimizedRMSD -1
REMARK  0 active torsions:
REMARK  status: ('A' for Active; 'I' for Inactive)
ROOT
ATOM      1  C   UNL d   1       2.666  -2.625   3.898  0.00  0.00     0.023 A 
ATOM      2  C1  UNL d   1       3.854  -2.197   3.304  0.00  0.00     0.003 A 
ATOM      3  C2  UNL d   1       3.853  -1.087   2.457  0.00  0.00     0.048 A 
ATOM      4  C3  UNL d   1       2.660  -0.408   2.209  0.00  0.00     0.023 A 
ATOM      5  C4  UNL d   1       1.469  -0.832   2.802  0.00  0.00     0.048 A 
ATOM      6  C5  UNL d   1       1.476  -1.943   3.647  0.00  0.00     0.003 A 
ATOM      7  I   UNL d   1       2.655   1.245   0.949  0.00  0.00    -0.146 I 
ENDROOT
TORSDOF 0
ENDMDL
