MODEL 1
REMARK minimizedAffinity 10.0452223
REMARK minimizedRMSD -1
REMARK  0 active torsions:
REMARK  status: ('A' for Active; 'I' for Inactive)
ROOT
ATOM      1  C   UNL d   1       3.553  -2.305   4.054  0.00  0.00     0.023 A 
ATOM      2  C1  UNL d   1       2.262  -1.777   4.069  0.00  0.00     0.003 A 
ATOM      3  C2  UNL d   1       1.910  -0.764   3.174  0.00  0.00     0.048 A 
ATOM      4  C3  UNL d   1       2.854  -0.286   2.266  0.00  0.00     0.023 A 
ATOM      5  C4  UNL d   1       4.146  -0.812   2.246  0.00  0.00     0.048 A 
ATOM      6  C5  UNL d   1       4.494  -1.824   3.144  0.00  0.00     0.003 A 
ATOM      7  I   UNL d   1       2.333   1.221   0.932  0.00  0.00    -0.146 I 
ENDROOT
TORSDOF 0
ENDMDL
