MODEL 1
REMARK minimizedAffinity 5.40820217
REMARK minimizedRMSD -1
REMARK  0 active torsions:
REMARK  status: ('A' for Active; 'I' for Inactive)
ROOT
ATOM      1  C   UNL d   1      -5.299   2.660  -3.911  0.00  0.00     0.023 A 
ATOM      2  C1  UNL d   1      -4.039   2.084  -3.744  0.00  0.00     0.003 A 
ATOM      3  C2  UNL d   1      -3.478   1.987  -2.470  0.00  0.00     0.048 A 
ATOM      4  C3  UNL d   1      -4.182   2.466  -1.366  0.00  0.00     0.023 A 
ATOM      5  C4  UNL d   1      -5.443   3.041  -1.527  0.00  0.00     0.048 A 
ATOM      6  C5  UNL d   1      -6.000   3.138  -2.804  0.00  0.00     0.003 A 
ATOM      7  I   UNL d   1      -3.348   2.321   0.533  0.00  0.00    -0.146 I 
ENDROOT
TORSDOF 0
ENDMDL
