MODEL 1
REMARK minimizedAffinity 3.50936103
REMARK minimizedRMSD -1
REMARK  0 active torsions:
REMARK  status: ('A' for Active; 'I' for Inactive)
ROOT
ATOM      1  C   UNL d   1       2.699   0.574   3.193  0.00  0.00     0.023 A 
ATOM      2  C1  UNL d   1       2.317   1.074   1.948  0.00  0.00     0.003 A 
ATOM      3  C2  UNL d   1       1.507   0.309   1.106  0.00  0.00     0.048 A 
ATOM      4  C3  UNL d   1       1.082  -0.954   1.515  0.00  0.00     0.023 A 
ATOM      5  C4  UNL d   1       1.461  -1.458   2.760  0.00  0.00     0.048 A 
ATOM      6  C5  UNL d   1       2.272  -0.690   3.599  0.00  0.00     0.003 A 
ATOM      7  I   UNL d   1      -0.124  -2.094   0.263  0.00  0.00    -0.146 I 
ENDROOT
TORSDOF 0
ENDMDL
