MODEL 1
REMARK minimizedAffinity 8.03280449
REMARK minimizedRMSD -1
REMARK  1 active torsions:
REMARK  status: ('A' for Active; 'I' for Inactive)
REMARK    1  A    between atoms: C1_2  and  C2_3 
ROOT
ATOM      1  C2  UNL d   1       1.515  -0.037  -1.326  0.00  0.00    -0.076 A 
ATOM      2  C3  UNL d   1       1.634   1.364  -1.317  0.00  0.00     0.004 A 
ATOM      3  C4  UNL d   1       0.589   2.170  -0.870  0.00  0.00    -0.003 A 
ATOM      4  C5  UNL d   1      -0.593   1.589  -0.423  0.00  0.00     0.000 A 
ATOM      5  C6  UNL d   1      -0.722   0.201  -0.408  0.00  0.00     0.000 A 
ATOM      6  C7  UNL d   1       0.328  -0.627  -0.841  0.00  0.00    -0.073 A 
ATOM      7  C8  UNL d   1       0.132  -2.118  -0.808  0.00  0.00     0.078 C 
ENDROOT
BRANCH   1   8
ATOM      8  C1  UNL d   1       2.671  -0.859  -1.848  0.00  0.00     0.053 C 
ATOM      9  C   UNL d   1       3.327  -1.698  -0.761  0.00  0.00     0.018 C 
ENDBRANCH   1   8
TORSDOF 1
ENDMDL
