MODEL 1
REMARK minimizedAffinity 6.68401098
REMARK minimizedRMSD -1
REMARK  1 active torsions:
REMARK  status: ('A' for Active; 'I' for Inactive)
REMARK    1  A    between atoms: C1_2  and  C2_3 
ROOT
ATOM      1  C2  UNL d   1       1.232  -0.223  -1.967  0.00  0.00    -0.076 A 
ATOM      2  C3  UNL d   1       2.158   0.139  -2.960  0.00  0.00     0.004 A 
ATOM      3  C4  UNL d   1       2.267   1.460  -3.392  0.00  0.00    -0.003 A 
ATOM      4  C5  UNL d   1       1.453   2.440  -2.837  0.00  0.00     0.000 A 
ATOM      5  C6  UNL d   1       0.540   2.102  -1.837  0.00  0.00     0.000 A 
ATOM      6  C7  UNL d   1       0.429   0.778  -1.379  0.00  0.00    -0.073 A 
ATOM      7  C8  UNL d   1      -0.576   0.469  -0.304  0.00  0.00     0.078 C 
ENDROOT
BRANCH   1   8
ATOM      8  C1  UNL d   1       1.139  -1.676  -1.558  0.00  0.00     0.053 C 
ATOM      9  C   UNL d   1       0.833  -2.593  -2.732  0.00  0.00     0.018 C 
ENDBRANCH   1   8
TORSDOF 1
ENDMDL
