MODEL 1
REMARK minimizedAffinity 6.42854738
REMARK minimizedRMSD -1
REMARK  1 active torsions:
REMARK  status: ('A' for Active; 'I' for Inactive)
REMARK    1  A    between atoms: C1_2  and  C2_3 
ROOT
ATOM      1  C2  UNL d   1       2.396  -0.218  -1.323  0.00  0.00    -0.076 A 
ATOM      2  C3  UNL d   1       2.839   0.966  -0.706  0.00  0.00     0.004 A 
ATOM      3  C4  UNL d   1       2.098   2.143  -0.798  0.00  0.00    -0.003 A 
ATOM      4  C5  UNL d   1       0.902   2.156  -1.506  0.00  0.00     0.000 A 
ATOM      5  C6  UNL d   1       0.439   0.987  -2.110  0.00  0.00     0.000 A 
ATOM      6  C7  UNL d   1       1.165  -0.212  -2.013  0.00  0.00    -0.073 A 
ATOM      7  C8  UNL d   1       0.621  -1.442  -2.688  0.00  0.00     0.078 C 
ENDROOT
BRANCH   1   8
ATOM      8  C1  UNL d   1       3.255  -1.457  -1.213  0.00  0.00     0.053 C 
ATOM      9  C   UNL d   1       2.734  -2.436  -0.172  0.00  0.00     0.018 C 
ENDBRANCH   1   8
TORSDOF 1
ENDMDL
