MODEL 1
REMARK minimizedAffinity 12.411478
REMARK minimizedRMSD -1
REMARK  1 active torsions:
REMARK  status: ('A' for Active; 'I' for Inactive)
REMARK    1  A    between atoms: C1_2  and  C2_3 
ROOT
ATOM      1  C2  UNL d   1       1.540  -0.817  -1.541  0.00  0.00    -0.076 A 
ATOM      2  C3  UNL d   1       2.869  -1.017  -1.128  0.00  0.00     0.004 A 
ATOM      3  C4  UNL d   1       3.223  -2.129  -0.366  0.00  0.00    -0.003 A 
ATOM      4  C5  UNL d   1       2.254  -3.059  -0.005  0.00  0.00     0.000 A 
ATOM      5  C6  UNL d   1       0.934  -2.885  -0.421  0.00  0.00     0.000 A 
ATOM      6  C7  UNL d   1       0.564  -1.778  -1.204  0.00  0.00    -0.073 A 
ATOM      7  C8  UNL d   1      -0.875  -1.637  -1.620  0.00  0.00     0.078 C 
ENDROOT
BRANCH   1   8
ATOM      8  C1  UNL d   1       1.210   0.422  -2.344  0.00  0.00     0.053 C 
ATOM      9  C   UNL d   1       0.883   1.617  -1.462  0.00  0.00     0.018 C 
ENDBRANCH   1   8
TORSDOF 1
ENDMDL
