MODEL 1
REMARK minimizedAffinity 1.39324677
REMARK minimizedRMSD -1
REMARK  1 active torsions:
REMARK  status: ('A' for Active; 'I' for Inactive)
REMARK    1  A    between atoms: C1_2  and  C2_3 
ROOT
ATOM      1  C2  UNL d   1       0.918   0.016  -1.384  0.00  0.00    -0.076 A 
ATOM      2  C3  UNL d   1       2.301  -0.207  -1.494  0.00  0.00     0.004 A 
ATOM      3  C4  UNL d   1       2.844  -1.470  -1.269  0.00  0.00    -0.003 A 
ATOM      4  C5  UNL d   1       2.012  -2.532  -0.930  0.00  0.00     0.000 A 
ATOM      5  C6  UNL d   1       0.636  -2.333  -0.834  0.00  0.00     0.000 A 
ATOM      6  C7  UNL d   1       0.070  -1.069  -1.074  0.00  0.00    -0.073 A 
ATOM      7  C8  UNL d   1      -1.420  -0.909  -0.950  0.00  0.00     0.078 C 
ENDROOT
BRANCH   1   8
ATOM      8  C1  UNL d   1       0.389   1.414  -1.614  0.00  0.00     0.053 C 
ATOM      9  C   UNL d   1       1.278   2.229  -2.540  0.00  0.00     0.018 C 
ENDBRANCH   1   8
TORSDOF 1
ENDMDL
