MODEL 1
REMARK minimizedAffinity 4.22893476
REMARK minimizedRMSD -1
REMARK  1 active torsions:
REMARK  status: ('A' for Active; 'I' for Inactive)
REMARK    1  A    between atoms: C1_2  and  C2_3 
ROOT
ATOM      1  C2  UNL d   1       2.146   0.109  -2.642  0.00  0.00    -0.076 A 
ATOM      2  C3  UNL d   1       1.513  -0.172  -3.865  0.00  0.00     0.004 A 
ATOM      3  C4  UNL d   1       1.286  -1.486  -4.270  0.00  0.00    -0.003 A 
ATOM      4  C5  UNL d   1       1.688  -2.541  -3.458  0.00  0.00     0.000 A 
ATOM      5  C6  UNL d   1       2.301  -2.280  -2.233  0.00  0.00     0.000 A 
ATOM      6  C7  UNL d   1       2.523  -0.961  -1.803  0.00  0.00    -0.073 A 
ATOM      7  C8  UNL d   1       3.194  -0.738  -0.475  0.00  0.00     0.078 C 
ENDROOT
BRANCH   1   8
ATOM      8  C1  UNL d   1       2.390   1.554  -2.268  0.00  0.00     0.053 C 
ATOM      9  C   UNL d   1       1.226   2.458  -2.644  0.00  0.00     0.018 C 
ENDBRANCH   1   8
TORSDOF 1
ENDMDL
