MODEL 1
REMARK minimizedAffinity 6.33661413
REMARK minimizedRMSD -1
REMARK  1 active torsions:
REMARK  status: ('A' for Active; 'I' for Inactive)
REMARK    1  A    between atoms: C1_2  and  C2_3 
ROOT
ATOM      1  C2  UNL d   1       1.290   0.069  -1.204  0.00  0.00    -0.076 A 
ATOM      2  C3  UNL d   1       2.690  -0.050  -1.185  0.00  0.00     0.004 A 
ATOM      3  C4  UNL d   1       3.303  -1.253  -0.839  0.00  0.00    -0.003 A 
ATOM      4  C5  UNL d   1       2.525  -2.356  -0.506  0.00  0.00     0.000 A 
ATOM      5  C6  UNL d   1       1.135  -2.261  -0.536  0.00  0.00     0.000 A 
ATOM      6  C7  UNL d   1       0.501  -1.060  -0.899  0.00  0.00    -0.073 A 
ATOM      7  C8  UNL d   1      -1.003  -1.012  -0.909  0.00  0.00     0.078 C 
ENDROOT
BRANCH   1   8
ATOM      8  C1  UNL d   1       0.681   1.407  -1.561  0.00  0.00     0.053 C 
ATOM      9  C   UNL d   1       0.447   2.285  -0.342  0.00  0.00     0.018 C 
ENDBRANCH   1   8
TORSDOF 1
ENDMDL
