MODEL 1
REMARK minimizedAffinity -2.38469362
REMARK minimizedRMSD -1
REMARK  1 active torsions:
REMARK  status: ('A' for Active; 'I' for Inactive)
REMARK    1  A    between atoms: C1_2  and  C2_3 
ROOT
ATOM      1  C2  UNL d   1       1.260   0.049  -1.240  0.00  0.00    -0.076 A 
ATOM      2  C3  UNL d   1       0.920  -0.791  -0.166  0.00  0.00     0.004 A 
ATOM      3  C4  UNL d   1       1.507  -2.047  -0.022  0.00  0.00    -0.003 A 
ATOM      4  C5  UNL d   1       2.446  -2.483  -0.951  0.00  0.00     0.000 A 
ATOM      5  C6  UNL d   1       2.809  -1.655  -2.014  0.00  0.00     0.000 A 
ATOM      6  C7  UNL d   1       2.237  -0.380  -2.163  0.00  0.00    -0.073 A 
ATOM      7  C8  UNL d   1       2.661   0.468  -3.331  0.00  0.00     0.078 C 
ENDROOT
BRANCH   1   8
ATOM      8  C1  UNL d   1       0.570   1.389  -1.359  0.00  0.00     0.053 C 
ATOM      9  C   UNL d   1      -0.777   1.415  -0.653  0.00  0.00     0.018 C 
ENDBRANCH   1   8
TORSDOF 1
ENDMDL
