MODEL 1
REMARK minimizedAffinity 2.88568139
REMARK minimizedRMSD -1
REMARK  1 active torsions:
REMARK  status: ('A' for Active; 'I' for Inactive)
REMARK    1  A    between atoms: C1_2  and  C2_3 
ROOT
ATOM      1  C2  UNL d   1       0.690   0.888  -1.555  0.00  0.00    -0.076 A 
ATOM      2  C3  UNL d   1       0.459   2.147  -2.136  0.00  0.00     0.004 A 
ATOM      3  C4  UNL d   1       1.305   2.648  -3.123  0.00  0.00    -0.003 A 
ATOM      4  C5  UNL d   1       2.397   1.897  -3.547  0.00  0.00     0.000 A 
ATOM      5  C6  UNL d   1       2.631   0.639  -2.994  0.00  0.00     0.000 A 
ATOM      6  C7  UNL d   1       1.778   0.112  -2.009  0.00  0.00    -0.073 A 
ATOM      7  C8  UNL d   1       2.081  -1.248  -1.443  0.00  0.00     0.078 C 
ENDROOT
BRANCH   1   8
ATOM      8  C1  UNL d   1      -0.247   0.408  -0.469  0.00  0.00     0.053 C 
ATOM      9  C   UNL d   1      -1.629   1.032  -0.575  0.00  0.00     0.018 C 
ENDBRANCH   1   8
TORSDOF 1
ENDMDL
