MODEL 1
REMARK minimizedAffinity 14.2995291
REMARK minimizedRMSD -1
REMARK  1 active torsions:
REMARK  status: ('A' for Active; 'I' for Inactive)
REMARK    1  A    between atoms: C1_2  and  C2_3 
ROOT
ATOM      1  C2  UNL d   1       1.332  -0.001  -2.325  0.00  0.00    -0.076 A 
ATOM      2  C3  UNL d   1       1.576   0.088  -3.706  0.00  0.00     0.004 A 
ATOM      3  C4  UNL d   1       1.459   1.304  -4.378  0.00  0.00    -0.003 A 
ATOM      4  C5  UNL d   1       1.097   2.450  -3.679  0.00  0.00     0.000 A 
ATOM      5  C6  UNL d   1       0.868   2.383  -2.305  0.00  0.00     0.000 A 
ATOM      6  C7  UNL d   1       0.998   1.168  -1.609  0.00  0.00    -0.073 A 
ATOM      7  C8  UNL d   1       0.734   1.153  -0.129  0.00  0.00     0.078 C 
ENDROOT
BRANCH   1   8
ATOM      8  C1  UNL d   1       1.448  -1.352  -1.655  0.00  0.00     0.053 C 
ATOM      9  C   UNL d   1       2.876  -1.678  -1.244  0.00  0.00     0.018 C 
ENDBRANCH   1   8
TORSDOF 1
ENDMDL
