MODEL 1
REMARK minimizedAffinity 7.68136263
REMARK minimizedRMSD -1
REMARK  1 active torsions:
REMARK  status: ('A' for Active; 'I' for Inactive)
REMARK    1  A    between atoms: C1_2  and  C2_3 
ROOT
ATOM      1  C2  UNL d   1       0.850   0.408  -0.943  0.00  0.00    -0.076 A 
ATOM      2  C3  UNL d   1       1.439   1.540  -1.534  0.00  0.00     0.004 A 
ATOM      3  C4  UNL d   1       2.618   1.433  -2.270  0.00  0.00    -0.003 A 
ATOM      4  C5  UNL d   1       3.227   0.193  -2.427  0.00  0.00     0.000 A 
ATOM      5  C6  UNL d   1       2.647  -0.943  -1.862  0.00  0.00     0.000 A 
ATOM      6  C7  UNL d   1       1.450  -0.855  -1.131  0.00  0.00    -0.073 A 
ATOM      7  C8  UNL d   1       0.872  -2.111  -0.539  0.00  0.00     0.078 C 
ENDROOT
BRANCH   1   8
ATOM      8  C1  UNL d   1      -0.414   0.589  -0.134  0.00  0.00     0.053 C 
ATOM      9  C   UNL d   1      -0.273   1.661   0.936  0.00  0.00     0.018 C 
ENDBRANCH   1   8
TORSDOF 1
ENDMDL
