MODEL 1
REMARK minimizedAffinity 5.32562542
REMARK minimizedRMSD -1
REMARK  1 active torsions:
REMARK  status: ('A' for Active; 'I' for Inactive)
REMARK    1  A    between atoms: C1_2  and  C2_3 
ROOT
ATOM      1  C2  UNL d   1       1.426   1.637  -0.317  0.00  0.00    -0.076 A 
ATOM      2  C3  UNL d   1       2.189   1.967   0.817  0.00  0.00     0.004 A 
ATOM      3  C4  UNL d   1       1.580   2.435   1.980  0.00  0.00    -0.003 A 
ATOM      4  C5  UNL d   1       0.198   2.580   2.029  0.00  0.00     0.000 A 
ATOM      5  C6  UNL d   1      -0.576   2.240   0.920  0.00  0.00     0.000 A 
ATOM      6  C7  UNL d   1       0.021   1.752  -0.255  0.00  0.00    -0.073 A 
ATOM      7  C8  UNL d   1      -0.862   1.406  -1.423  0.00  0.00     0.078 C 
ENDROOT
BRANCH   1   8
ATOM      8  C1  UNL d   1       2.144   1.161  -1.559  0.00  0.00     0.053 C 
ATOM      9  C   UNL d   1       2.212  -0.356  -1.647  0.00  0.00     0.018 C 
ENDBRANCH   1   8
TORSDOF 1
ENDMDL
