MODEL 1
REMARK minimizedAffinity 2.68577981
REMARK minimizedRMSD -1
REMARK  1 active torsions:
REMARK  status: ('A' for Active; 'I' for Inactive)
REMARK    1  A    between atoms: C1_2  and  C2_3 
ROOT
ATOM      1  C2  UNL d   1       1.276  -0.274  -1.376  0.00  0.00    -0.076 A 
ATOM      2  C3  UNL d   1       2.597  -0.234  -0.895  0.00  0.00     0.004 A 
ATOM      3  C4  UNL d   1       3.178  -1.353  -0.299  0.00  0.00    -0.003 A 
ATOM      4  C5  UNL d   1       2.448  -2.530  -0.176  0.00  0.00     0.000 A 
ATOM      5  C6  UNL d   1       1.143  -2.593  -0.663  0.00  0.00     0.000 A 
ATOM      6  C7  UNL d   1       0.548  -1.479  -1.281  0.00  0.00    -0.073 A 
ATOM      7  C8  UNL d   1      -0.865  -1.602  -1.783  0.00  0.00     0.078 C 
ENDROOT
BRANCH   1   8
ATOM      8  C1  UNL d   1       0.690   0.978  -1.987  0.00  0.00     0.053 C 
ATOM      9  C   UNL d   1      -0.275   1.687  -1.051  0.00  0.00     0.018 C 
ENDBRANCH   1   8
TORSDOF 1
ENDMDL
