MODEL 1
REMARK minimizedAffinity 0.217815384
REMARK minimizedRMSD -1
REMARK  0 active torsions:
REMARK  status: ('A' for Active; 'I' for Inactive)
ROOT
ATOM      1  N1  IND d   1       0.231   0.514  -3.865  0.00  0.00    -0.196 N 
ATOM      2  C2  IND d   1       1.529   0.635  -4.275  0.00  0.00     0.054 A 
ATOM      3  C3  IND d   1       2.372   0.309  -3.271  0.00  0.00    -0.031 A 
ATOM      4  C4  IND d   1       1.841  -0.549  -0.902  0.00  0.00     0.051 A 
ATOM      5  C5  IND d   1       0.798  -0.789  -0.052  0.00  0.00    -0.031 A 
ATOM      6  C6  IND d   1      -0.514  -0.606  -0.438  0.00  0.00     0.015 A 
ATOM      7  C7  IND d   1      -0.834  -0.185  -1.698  0.00  0.00    -0.016 A 
ATOM      8  C8  IND d   1       0.223   0.067  -2.562  0.00  0.00    -0.047 A 
ATOM      9  C9  IND d   1       1.558  -0.077  -2.162  0.00  0.00    -0.096 A 
ATOM     10  HN1 IND d   1      -0.464   0.687  -4.340  0.00  0.00     0.298 HD
ENDROOT
TORSDOF 0
ENDMDL
