MODEL 1
REMARK minimizedAffinity -1.46226609
REMARK minimizedRMSD -1
REMARK  0 active torsions:
REMARK  status: ('A' for Active; 'I' for Inactive)
ROOT
ATOM      1  N1  IND d   1      -1.433   1.136   1.868  0.00  0.00    -0.196 N 
ATOM      2  C2  IND d   1      -0.366   1.466   2.657  0.00  0.00     0.054 A 
ATOM      3  C3  IND d   1       0.791   1.098   2.062  0.00  0.00    -0.031 A 
ATOM      4  C4  IND d   1       1.174   0.031  -0.249  0.00  0.00     0.051 A 
ATOM      5  C5  IND d   1       0.504  -0.489  -1.320  0.00  0.00    -0.031 A 
ATOM      6  C6  IND d   1      -0.875  -0.493  -1.386  0.00  0.00     0.015 A 
ATOM      7  C7  IND d   1      -1.637   0.038  -0.383  0.00  0.00    -0.016 A 
ATOM      8  C8  IND d   1      -0.959   0.561   0.709  0.00  0.00    -0.047 A 
ATOM      9  C9  IND d   1       0.438   0.528   0.800  0.00  0.00    -0.096 A 
ATOM     10  HN1 IND d   1      -2.260   1.265   2.063  0.00  0.00     0.298 HD
ENDROOT
TORSDOF 0
ENDMDL
