MODEL 1
REMARK minimizedAffinity -3.48023796
REMARK minimizedRMSD -1
REMARK  0 active torsions:
REMARK  status: ('A' for Active; 'I' for Inactive)
ROOT
ATOM      1  N1  IND d   1       1.354  -1.104  -0.973  0.00  0.00    -0.196 N 
ATOM      2  C2  IND d   1       0.240  -0.844  -1.722  0.00  0.00     0.054 A 
ATOM      3  C3  IND d   1      -0.601  -0.029  -1.046  0.00  0.00    -0.031 A 
ATOM      4  C4  IND d   1      -0.304   1.080   1.258  0.00  0.00     0.051 A 
ATOM      5  C5  IND d   1       0.534   1.115   2.337  0.00  0.00    -0.031 A 
ATOM      6  C6  IND d   1       1.713   0.399   2.367  0.00  0.00     0.015 A 
ATOM      7  C7  IND d   1       2.106  -0.373   1.310  0.00  0.00    -0.016 A 
ATOM      8  C8  IND d   1       1.254  -0.415   0.216  0.00  0.00    -0.047 A 
ATOM      9  C9  IND d   1       0.035   0.275   0.196  0.00  0.00    -0.096 A 
ATOM     10  HN1 IND d   1       2.007  -1.613  -1.206  0.00  0.00     0.298 HD
ENDROOT
TORSDOF 0
ENDMDL
