MODEL 1
REMARK minimizedAffinity -3.83457065
REMARK minimizedRMSD -1
REMARK  0 active torsions:
REMARK  status: ('A' for Active; 'I' for Inactive)
ROOT
ATOM      1  N1  IND d   1       0.928  -0.309   1.198  0.00  0.00    -0.196 N 
ATOM      2  C2  IND d   1       1.293  -0.565  -0.095  0.00  0.00     0.054 A 
ATOM      3  C3  IND d   1       0.239  -0.392  -0.924  0.00  0.00    -0.031 A 
ATOM      4  C4  IND d   1      -2.149   0.407  -0.388  0.00  0.00     0.051 A 
ATOM      5  C5  IND d   1      -2.969   0.728   0.657  0.00  0.00    -0.031 A 
ATOM      6  C6  IND d   1      -2.521   0.723   1.962  0.00  0.00     0.015 A 
ATOM      7  C7  IND d   1      -1.229   0.406   2.271  0.00  0.00    -0.016 A 
ATOM      8  C8  IND d   1      -0.396   0.072   1.213  0.00  0.00    -0.047 A 
ATOM      9  C9  IND d   1      -0.855   0.034  -0.110  0.00  0.00    -0.096 A 
ATOM     10  HN1 IND d   1       1.440  -0.374   1.886  0.00  0.00     0.298 HD
ENDROOT
TORSDOF 0
ENDMDL
