MODEL 1
REMARK minimizedAffinity -1.65247822
REMARK minimizedRMSD -1
REMARK  0 active torsions:
REMARK  status: ('A' for Active; 'I' for Inactive)
ROOT
ATOM      1  N1  IND d   1       1.824  -0.746  -1.661  0.00  0.00    -0.196 N 
ATOM      2  C2  IND d   1       0.761  -1.351  -1.049  0.00  0.00     0.054 A 
ATOM      3  C3  IND d   1      -0.311  -1.364  -1.872  0.00  0.00    -0.031 A 
ATOM      4  C4  IND d   1      -0.517  -0.540  -4.302  0.00  0.00     0.051 A 
ATOM      5  C5  IND d   1       0.176   0.119  -5.279  0.00  0.00    -0.031 A 
ATOM      6  C6  IND d   1       1.481   0.529  -5.096  0.00  0.00     0.015 A 
ATOM      7  C7  IND d   1       2.148   0.284  -3.930  0.00  0.00    -0.016 A 
ATOM      8  C8  IND d   1       1.445  -0.378  -2.933  0.00  0.00    -0.047 A 
ATOM      9  C9  IND d   1       0.107  -0.759  -3.097  0.00  0.00    -0.096 A 
ATOM     10  HN1 IND d   1       2.598  -0.617  -1.310  0.00  0.00     0.298 HD
ENDROOT
TORSDOF 0
ENDMDL
