MODEL 1
REMARK minimizedAffinity -3.46988344
REMARK minimizedRMSD -1
REMARK  0 active torsions:
REMARK  status: ('A' for Active; 'I' for Inactive)
ROOT
ATOM      1  N1  IND d   1       0.925   0.637   0.366  0.00  0.00    -0.196 N 
ATOM      2  C2  IND d   1       0.732  -0.066  -0.791  0.00  0.00     0.054 A 
ATOM      3  C3  IND d   1      -0.493  -0.637  -0.796  0.00  0.00    -0.031 A 
ATOM      4  C4  IND d   1      -2.384  -0.468   0.944  0.00  0.00     0.051 A 
ATOM      5  C5  IND d   1      -2.664   0.032   2.185  0.00  0.00    -0.031 A 
ATOM      6  C6  IND d   1      -1.745   0.777   2.895  0.00  0.00     0.015 A 
ATOM      7  C7  IND d   1      -0.510   1.060   2.385  0.00  0.00    -0.016 A 
ATOM      8  C8  IND d   1      -0.219   0.548   1.129  0.00  0.00    -0.047 A 
ATOM      9  C9  IND d   1      -1.132  -0.244   0.420  0.00  0.00    -0.096 A 
ATOM     10  HN1 IND d   1       1.640   1.063   0.581  0.00  0.00     0.298 HD
ENDROOT
TORSDOF 0
ENDMDL
