MODEL 1
REMARK minimizedAffinity -1.26840401
REMARK minimizedRMSD -1
REMARK  0 active torsions:
REMARK  status: ('A' for Active; 'I' for Inactive)
ROOT
ATOM      1  N1  IND d   1      -1.382  -1.058   0.559  0.00  0.00    -0.196 N 
ATOM      2  C2  IND d   1      -0.791  -0.799  -0.646  0.00  0.00     0.054 A 
ATOM      3  C3  IND d   1       0.029   0.271  -0.546  0.00  0.00    -0.031 A 
ATOM      4  C4  IND d   1       0.631   1.684   1.520  0.00  0.00     0.051 A 
ATOM      5  C5  IND d   1       0.316   1.852   2.839  0.00  0.00    -0.031 A 
ATOM      6  C6  IND d   1      -0.598   1.041   3.479  0.00  0.00     0.015 A 
ATOM      7  C7  IND d   1      -1.225   0.019   2.824  0.00  0.00    -0.016 A 
ATOM      8  C8  IND d   1      -0.912  -0.150   1.482  0.00  0.00    -0.047 A 
ATOM      9  C9  IND d   1      -0.018   0.697   0.817  0.00  0.00    -0.096 A 
ATOM     10  HN1 IND d   1      -1.951  -1.684   0.714  0.00  0.00     0.298 HD
ENDROOT
TORSDOF 0
ENDMDL
