MODEL 1
REMARK minimizedAffinity -4.6501236
REMARK minimizedRMSD -1
REMARK  0 active torsions:
REMARK  status: ('A' for Active; 'I' for Inactive)
ROOT
ATOM      1  O1  BZF d   1      -0.725  -3.098  -1.466  0.00  0.00    -0.204 OA
ATOM      2  C2  BZF d   1       0.410  -3.020  -2.250  0.00  0.00     0.174 A 
ATOM      3  C3  BZF d   1       1.220  -2.029  -1.823  0.00  0.00    -0.012 A 
ATOM      4  C3A BZF d   1       0.592  -1.511  -0.646  0.00  0.00    -0.107 A 
ATOM      5  C4  BZF d   1       0.923  -0.524   0.237  0.00  0.00     0.055 A 
ATOM      6  C5  BZF d   1       0.058  -0.217   1.239  0.00  0.00    -0.016 A 
ATOM      7  C6  BZF d   1      -1.147  -0.873   1.384  0.00  0.00     0.022 A 
ATOM      8  C7  BZF d   1      -1.517  -1.863   0.536  0.00  0.00     0.029 A 
ATOM      9  C7A BZF d   1      -0.630  -2.198  -0.458  0.00  0.00     0.058 A 
ENDROOT
TORSDOF 0
ENDMDL
