MODEL 1
REMARK minimizedAffinity -1.78555787
REMARK minimizedRMSD -1
REMARK  0 active torsions:
REMARK  status: ('A' for Active; 'I' for Inactive)
ROOT
ATOM      1  O1  BZF d   1      -1.052  -0.935  -0.137  0.00  0.00    -0.204 OA
ATOM      2  C2  BZF d   1      -0.205  -0.156   0.628  0.00  0.00     0.174 A 
ATOM      3  C3  BZF d   1       1.076  -0.544   0.470  0.00  0.00    -0.012 A 
ATOM      4  C3A BZF d   1       1.037  -1.574  -0.523  0.00  0.00    -0.107 A 
ATOM      5  C4  BZF d   1       1.998  -2.340  -1.119  0.00  0.00     0.055 A 
ATOM      6  C5  BZF d   1       1.621  -3.307  -1.997  0.00  0.00    -0.016 A 
ATOM      7  C6  BZF d   1       0.295  -3.537  -2.298  0.00  0.00     0.022 A 
ATOM      8  C7  BZF d   1      -0.693  -2.799  -1.736  0.00  0.00     0.029 A 
ATOM      9  C7A BZF d   1      -0.314  -1.800  -0.874  0.00  0.00     0.058 A 
ENDROOT
TORSDOF 0
ENDMDL
