MODEL 1
REMARK minimizedAffinity -2.31433964
REMARK minimizedRMSD -1
REMARK  0 active torsions:
REMARK  status: ('A' for Active; 'I' for Inactive)
ROOT
ATOM      1  O1  BZF d   1       0.526   0.123   0.102  0.00  0.00    -0.204 OA
ATOM      2  C2  BZF d   1      -0.397  -0.216   1.072  0.00  0.00     0.174 A 
ATOM      3  C3  BZF d   1      -0.936  -1.426   0.817  0.00  0.00    -0.012 A 
ATOM      4  C3A BZF d   1      -0.244  -1.911  -0.337  0.00  0.00    -0.107 A 
ATOM      5  C4  BZF d   1      -0.321  -3.066  -1.062  0.00  0.00     0.055 A 
ATOM      6  C5  BZF d   1       0.443  -3.198  -2.178  0.00  0.00    -0.016 A 
ATOM      7  C6  BZF d   1       1.291  -2.194  -2.600  0.00  0.00     0.022 A 
ATOM      8  C7  BZF d   1       1.405  -1.033  -1.911  0.00  0.00     0.029 A 
ATOM      9  C7A BZF d   1       0.659  -0.910  -0.765  0.00  0.00     0.058 A 
ENDROOT
TORSDOF 0
ENDMDL
