MODEL 1
REMARK minimizedAffinity -3.10212493
REMARK minimizedRMSD -1
REMARK  0 active torsions:
REMARK  status: ('A' for Active; 'I' for Inactive)
ROOT
ATOM      1  O1  BZF d   1       1.396  -1.703  -2.064  0.00  0.00    -0.204 OA
ATOM      2  C2  BZF d   1       0.508  -2.587  -2.645  0.00  0.00     0.174 A 
ATOM      3  C3  BZF d   1      -0.583  -2.749  -1.870  0.00  0.00    -0.012 A 
ATOM      4  C3A BZF d   1      -0.405  -1.843  -0.776  0.00  0.00    -0.107 A 
ATOM      5  C4  BZF d   1      -1.161  -1.533   0.318  0.00  0.00     0.055 A 
ATOM      6  C5  BZF d   1      -0.668  -0.658   1.234  0.00  0.00    -0.016 A 
ATOM      7  C6  BZF d   1       0.576  -0.080   1.091  0.00  0.00     0.022 A 
ATOM      8  C7  BZF d   1       1.360  -0.354   0.019  0.00  0.00     0.029 A 
ATOM      9  C7A BZF d   1       0.851  -1.211  -0.925  0.00  0.00     0.058 A 
ENDROOT
TORSDOF 0
ENDMDL
