MODEL 1
REMARK minimizedAffinity -0.769987643
REMARK minimizedRMSD -1
REMARK  0 active torsions:
REMARK  status: ('A' for Active; 'I' for Inactive)
ROOT
ATOM      1  O1  BZF d   1      -0.133   1.669   0.479  0.00  0.00    -0.204 OA
ATOM      2  C2  BZF d   1      -0.963   1.876   1.564  0.00  0.00     0.174 A 
ATOM      3  C3  BZF d   1      -1.535   0.720   1.956  0.00  0.00    -0.012 A 
ATOM      4  C3A BZF d   1      -0.960  -0.288   1.119  0.00  0.00    -0.107 A 
ATOM      5  C4  BZF d   1      -1.116  -1.642   1.036  0.00  0.00     0.055 A 
ATOM      6  C5  BZF d   1      -0.462  -2.324   0.060  0.00  0.00    -0.016 A 
ATOM      7  C6  BZF d   1       0.350  -1.684  -0.853  0.00  0.00     0.022 A 
ATOM      8  C7  BZF d   1       0.541  -0.343  -0.808  0.00  0.00     0.029 A 
ATOM      9  C7A BZF d   1      -0.093   0.345   0.198  0.00  0.00     0.058 A 
ENDROOT
TORSDOF 0
ENDMDL
