MODEL 1
REMARK minimizedAffinity -2.99136281
REMARK minimizedRMSD -1
REMARK  0 active torsions:
REMARK  status: ('A' for Active; 'I' for Inactive)
ROOT
ATOM      1  O1  BZF d   1      -0.703  -3.243  -1.276  0.00  0.00    -0.204 OA
ATOM      2  C2  BZF d   1       0.338  -3.610  -2.106  0.00  0.00     0.174 A 
ATOM      3  C3  BZF d   1       1.286  -2.652  -2.138  0.00  0.00    -0.012 A 
ATOM      4  C3A BZF d   1       0.852  -1.661  -1.202  0.00  0.00    -0.107 A 
ATOM      5  C4  BZF d   1       1.378  -0.475  -0.778  0.00  0.00     0.055 A 
ATOM      6  C5  BZF d   1       0.668   0.290   0.093  0.00  0.00    -0.016 A 
ATOM      7  C6  BZF d   1      -0.573  -0.098   0.555  0.00  0.00     0.022 A 
ATOM      8  C7  BZF d   1      -1.134  -1.269   0.166  0.00  0.00     0.029 A 
ATOM      9  C7A BZF d   1      -0.404  -2.060  -0.687  0.00  0.00     0.058 A 
ENDROOT
TORSDOF 0
ENDMDL
