MODEL 1
REMARK minimizedAffinity -3.06342363
REMARK minimizedRMSD -1
REMARK  0 active torsions:
REMARK  status: ('A' for Active; 'I' for Inactive)
ROOT
ATOM      1  O1  BZF d   1      -1.154  -3.463  -1.401  0.00  0.00    -0.204 OA
ATOM      2  C2  BZF d   1      -0.204  -3.646  -2.387  0.00  0.00     0.174 A 
ATOM      3  C3  BZF d   1       0.748  -2.693  -2.318  0.00  0.00    -0.012 A 
ATOM      4  C3A BZF d   1       0.419  -1.916  -1.162  0.00  0.00    -0.107 A 
ATOM      5  C4  BZF d   1       0.999  -0.836  -0.561  0.00  0.00     0.055 A 
ATOM      6  C5  BZF d   1       0.386  -0.269   0.511  0.00  0.00    -0.016 A 
ATOM      7  C6  BZF d   1      -0.808  -0.753   1.005  0.00  0.00     0.022 A 
ATOM      8  C7  BZF d   1      -1.418  -1.825   0.445  0.00  0.00     0.029 A 
ATOM      9  C7A BZF d   1      -0.785  -2.421  -0.618  0.00  0.00     0.058 A 
ENDROOT
TORSDOF 0
ENDMDL
