MODEL 1
REMARK minimizedAffinity 0.752713978
REMARK minimizedRMSD -1
REMARK  0 active torsions:
REMARK  status: ('A' for Active; 'I' for Inactive)
ROOT
ATOM      1  O1  BZF d   1       0.419   0.286  -0.300  0.00  0.00    -0.204 OA
ATOM      2  C2  BZF d   1      -0.288   0.134   0.877  0.00  0.00     0.174 A 
ATOM      3  C3  BZF d   1      -0.665  -1.150   1.046  0.00  0.00    -0.012 A 
ATOM      4  C3A BZF d   1      -0.084  -1.860  -0.052  0.00  0.00    -0.107 A 
ATOM      5  C4  BZF d   1      -0.088  -3.173  -0.428  0.00  0.00     0.055 A 
ATOM      6  C5  BZF d   1       0.516  -3.528  -1.593  0.00  0.00    -0.016 A 
ATOM      7  C6  BZF d   1       1.127  -2.597  -2.407  0.00  0.00     0.022 A 
ATOM      8  C7  BZF d   1       1.161  -1.284  -2.073  0.00  0.00     0.029 A 
ATOM      9  C7A BZF d   1       0.581  -0.927  -0.880  0.00  0.00     0.058 A 
ENDROOT
TORSDOF 0
ENDMDL
