MODEL 1
REMARK minimizedAffinity -2.11764622
REMARK minimizedRMSD -1
REMARK  0 active torsions:
REMARK  status: ('A' for Active; 'I' for Inactive)
ROOT
ATOM      1  O1  BZF d   1      -0.335  -2.788  -1.719  0.00  0.00    -0.204 OA
ATOM      2  C2  BZF d   1       0.796  -2.957  -2.494  0.00  0.00     0.174 A 
ATOM      3  C3  BZF d   1       1.799  -2.169  -2.055  0.00  0.00    -0.012 A 
ATOM      4  C3A BZF d   1       1.290  -1.532  -0.880  0.00  0.00    -0.107 A 
ATOM      5  C4  BZF d   1       1.821  -0.646   0.013  0.00  0.00     0.055 A 
ATOM      6  C5  BZF d   1       1.036  -0.162   1.011  0.00  0.00    -0.016 A 
ATOM      7  C6  BZF d   1      -0.284  -0.539   1.143  0.00  0.00     0.022 A 
ATOM      8  C7  BZF d   1      -0.855  -1.420   0.285  0.00  0.00     0.029 A 
ATOM      9  C7A BZF d   1      -0.054  -1.936  -0.705  0.00  0.00     0.058 A 
ENDROOT
TORSDOF 0
ENDMDL
