MODEL 1
REMARK minimizedAffinity -4.74841022
REMARK minimizedRMSD -1
REMARK  0 active torsions:
REMARK  status: ('A' for Active; 'I' for Inactive)
ROOT
ATOM      1  O1  BZF d   1       1.305   0.646  -0.567  0.00  0.00    -0.204 OA
ATOM      2  C2  BZF d   1       2.077  -0.494  -0.678  0.00  0.00     0.174 A 
ATOM      3  C3  BZF d   1       1.681  -1.428   0.211  0.00  0.00    -0.012 A 
ATOM      4  C3A BZF d   1       0.534  -0.869   0.859  0.00  0.00    -0.107 A 
ATOM      5  C4  BZF d   1      -0.312  -1.325   1.829  0.00  0.00     0.055 A 
ATOM      6  C5  BZF d   1      -1.290  -0.503   2.293  0.00  0.00    -0.016 A 
ATOM      7  C6  BZF d   1      -1.447   0.781   1.814  0.00  0.00     0.022 A 
ATOM      8  C7  BZF d   1      -0.635   1.276   0.848  0.00  0.00     0.029 A 
ATOM      9  C7A BZF d   1       0.333   0.436   0.354  0.00  0.00     0.058 A 
ENDROOT
TORSDOF 0
ENDMDL
