MODEL 1
REMARK minimizedAffinity -3.92770982
REMARK minimizedRMSD -1
REMARK  0 active torsions:
REMARK  status: ('A' for Active; 'I' for Inactive)
ROOT
ATOM      1  O1  BZF d   1      -0.595  -3.273  -1.116  0.00  0.00    -0.204 OA
ATOM      2  C2  BZF d   1       0.432  -3.709  -1.931  0.00  0.00     0.174 A 
ATOM      3  C3  BZF d   1       1.407  -2.781  -2.010  0.00  0.00    -0.012 A 
ATOM      4  C3A BZF d   1       1.004  -1.735  -1.120  0.00  0.00    -0.107 A 
ATOM      5  C4  BZF d   1       1.566  -0.546  -0.753  0.00  0.00     0.055 A 
ATOM      6  C5  BZF d   1       0.881   0.278   0.082  0.00  0.00    -0.016 A 
ATOM      7  C6  BZF d   1      -0.368  -0.052   0.565  0.00  0.00     0.022 A 
ATOM      8  C7  BZF d   1      -0.964  -1.223   0.233  0.00  0.00     0.029 A 
ATOM      9  C7A BZF d   1      -0.260  -2.073  -0.584  0.00  0.00     0.058 A 
ENDROOT
TORSDOF 0
ENDMDL
