MODEL 1
REMARK minimizedAffinity -1.80428183
REMARK minimizedRMSD -1
REMARK  0 active torsions:
REMARK  status: ('A' for Active; 'I' for Inactive)
ROOT
ATOM      1  O1  BZF d   1       0.922  -0.893   0.326  0.00  0.00    -0.204 OA
ATOM      2  C2  BZF d   1       0.313   0.289  -0.049  0.00  0.00     0.174 A 
ATOM      3  C3  BZF d   1       0.003   0.272  -1.361  0.00  0.00    -0.012 A 
ATOM      4  C3A BZF d   1       0.363  -1.036  -1.816  0.00  0.00    -0.107 A 
ATOM      5  C4  BZF d   1       0.281  -1.665  -3.026  0.00  0.00     0.055 A 
ATOM      6  C5  BZF d   1       0.788  -2.920  -3.153  0.00  0.00    -0.016 A 
ATOM      7  C6  BZF d   1       1.386  -3.572  -2.095  0.00  0.00     0.022 A 
ATOM      8  C7  BZF d   1       1.486  -2.991  -0.875  0.00  0.00     0.029 A 
ATOM      9  C7A BZF d   1       0.946  -1.736  -0.734  0.00  0.00     0.058 A 
ENDROOT
TORSDOF 0
ENDMDL
