MODEL 1
REMARK minimizedAffinity -6.00176573
REMARK minimizedRMSD -1
REMARK  0 active torsions:
REMARK  status: ('A' for Active; 'I' for Inactive)
ROOT
ATOM      1  O1  BZF d   1       0.201   2.493  -1.070  0.00  0.00    -0.204 OA
ATOM      2  C2  BZF d   1       0.735   1.516  -1.888  0.00  0.00     0.174 A 
ATOM      3  C3  BZF d   1       0.661   0.306  -1.298  0.00  0.00    -0.012 A 
ATOM      4  C3A BZF d   1      -0.041   0.527  -0.071  0.00  0.00    -0.107 A 
ATOM      5  C4  BZF d   1      -0.439  -0.294   0.945  0.00  0.00     0.055 A 
ATOM      6  C5  BZF d   1      -1.041   0.248   2.036  0.00  0.00    -0.016 A 
ATOM      7  C6  BZF d   1      -1.256   1.606   2.146  0.00  0.00     0.022 A 
ATOM      8  C7  BZF d   1      -0.884   2.460   1.162  0.00  0.00     0.029 A 
ATOM      9  C7A BZF d   1      -0.305   1.912   0.044  0.00  0.00     0.058 A 
ENDROOT
TORSDOF 0
ENDMDL
