MODEL 1
REMARK minimizedAffinity -1.50443041
REMARK minimizedRMSD -1
REMARK  0 active torsions:
REMARK  status: ('A' for Active; 'I' for Inactive)
ROOT
ATOM      1  O1  BZF d   1      -0.344   2.571   0.905  0.00  0.00    -0.204 OA
ATOM      2  C2  BZF d   1      -1.026   2.467   2.102  0.00  0.00     0.174 A 
ATOM      3  C3  BZF d   1      -1.132   1.178   2.482  0.00  0.00    -0.012 A 
ATOM      4  C3A BZF d   1      -0.395   0.436   1.505  0.00  0.00    -0.107 A 
ATOM      5  C4  BZF d   1      -0.119  -0.892   1.346  0.00  0.00     0.055 A 
ATOM      6  C5  BZF d   1       0.567  -1.297   0.246  0.00  0.00    -0.016 A 
ATOM      7  C6  BZF d   1       0.987  -0.403  -0.718  0.00  0.00     0.022 A 
ATOM      8  C7  BZF d   1       0.742   0.925  -0.601  0.00  0.00     0.029 A 
ATOM      9  C7A BZF d   1       0.077   1.341   0.526  0.00  0.00     0.058 A 
ENDROOT
TORSDOF 0
ENDMDL
