MODEL 1
REMARK minimizedAffinity -2.14075756
REMARK minimizedRMSD -1
REMARK  0 active torsions:
REMARK  status: ('A' for Active; 'I' for Inactive)
ROOT
ATOM      1  O1  BZF d   1      -1.039  -3.161  -0.648  0.00  0.00    -0.204 OA
ATOM      2  C2  BZF d   1      -0.132  -3.449  -1.649  0.00  0.00     0.174 A 
ATOM      3  C3  BZF d   1       0.736  -2.430  -1.816  0.00  0.00    -0.012 A 
ATOM      4  C3A BZF d   1       0.404  -1.482  -0.797  0.00  0.00    -0.107 A 
ATOM      5  C4  BZF d   1       0.919  -0.269  -0.439  0.00  0.00     0.055 A 
ATOM      6  C5  BZF d   1       0.319   0.436   0.555  0.00  0.00    -0.016 A 
ATOM      7  C6  BZF d   1      -0.800  -0.039   1.209  0.00  0.00     0.022 A 
ATOM      8  C7  BZF d   1      -1.344  -1.239   0.892  0.00  0.00     0.029 A 
ATOM      9  C7A BZF d   1      -0.720  -1.969  -0.090  0.00  0.00     0.058 A 
ENDROOT
TORSDOF 0
ENDMDL
