MODEL 1
REMARK minimizedAffinity -3.40069699
REMARK minimizedRMSD -1
REMARK  0 active torsions:
REMARK  status: ('A' for Active; 'I' for Inactive)
ROOT
ATOM      1  O1  BZF d   1       0.687   0.311  -0.759  0.00  0.00    -0.204 OA
ATOM      2  C2  BZF d   1       0.267  -0.797  -0.050  0.00  0.00     0.174 A 
ATOM      3  C3  BZF d   1      -0.365  -0.428   1.083  0.00  0.00    -0.012 A 
ATOM      4  C3A BZF d   1      -0.418   1.001   1.036  0.00  0.00    -0.107 A 
ATOM      5  C4  BZF d   1      -0.938   1.950   1.870  0.00  0.00     0.055 A 
ATOM      6  C5  BZF d   1      -0.758   3.263   1.570  0.00  0.00    -0.016 A 
ATOM      7  C6  BZF d   1      -0.062   3.663   0.449  0.00  0.00     0.022 A 
ATOM      8  C7  BZF d   1       0.468   2.759  -0.411  0.00  0.00     0.029 A 
ATOM      9  C7A BZF d   1       0.260   1.431  -0.128  0.00  0.00     0.058 A 
ENDROOT
TORSDOF 0
ENDMDL
