MODEL 1
REMARK minimizedAffinity -2.31704378
REMARK minimizedRMSD -1
REMARK  0 active torsions:
REMARK  status: ('A' for Active; 'I' for Inactive)
ROOT
ATOM      1  O1  BZF d   1      -0.174   2.364   0.082  0.00  0.00    -0.204 OA
ATOM      2  C2  BZF d   1       0.397   2.696  -1.131  0.00  0.00     0.174 A 
ATOM      3  C3  BZF d   1       0.833   1.593  -1.773  0.00  0.00    -0.012 A 
ATOM      4  C3A BZF d   1       0.431   0.495  -0.948  0.00  0.00    -0.107 A 
ATOM      5  C4  BZF d   1       0.562  -0.860  -1.059  0.00  0.00     0.055 A 
ATOM      6  C5  BZF d   1       0.124  -1.651  -0.045  0.00  0.00    -0.016 A 
ATOM      7  C6  BZF d   1      -0.444  -1.122   1.095  0.00  0.00     0.022 A 
ATOM      8  C7  BZF d   1      -0.600   0.215   1.249  0.00  0.00     0.029 A 
ATOM      9  C7A BZF d   1      -0.189   1.016   0.211  0.00  0.00     0.058 A 
ENDROOT
TORSDOF 0
ENDMDL
