MODEL 1
REMARK minimizedAffinity -3.10948181
REMARK minimizedRMSD -1
REMARK  0 active torsions:
REMARK  status: ('A' for Active; 'I' for Inactive)
ROOT
ATOM      1  C1  BNZ d   1      -1.019   0.996  -0.762  0.00  0.00     0.000 A 
ATOM      2  C2  BNZ d   1      -1.357   1.860   0.245  0.00  0.00     0.000 A 
ATOM      3  C3  BNZ d   1      -1.777   1.392   1.458  0.00  0.00     0.000 A 
ATOM      4  C4  BNZ d   1      -1.898   0.062   1.649  0.00  0.00     0.000 A 
ATOM      5  C5  BNZ d   1      -1.571  -0.822   0.641  0.00  0.00     0.000 A 
ATOM      6  C6  BNZ d   1      -1.111  -0.348  -0.566  0.00  0.00     0.000 A 
ENDROOT
TORSDOF 0
ENDMDL
