MODEL 1
REMARK minimizedAffinity -3.27775168
REMARK minimizedRMSD -1
REMARK  0 active torsions:
REMARK  status: ('A' for Active; 'I' for Inactive)
ROOT
ATOM      1  C1  BNZ d   1      -0.846   0.350   0.067  0.00  0.00     0.000 A 
ATOM      2  C2  BNZ d   1      -0.001  -0.683   0.373  0.00  0.00     0.000 A 
ATOM      3  C3  BNZ d   1       0.952  -1.094  -0.517  0.00  0.00     0.000 A 
ATOM      4  C4  BNZ d   1       1.031  -0.501  -1.725  0.00  0.00     0.000 A 
ATOM      5  C5  BNZ d   1       0.180   0.535  -2.052  0.00  0.00     0.000 A 
ATOM      6  C6  BNZ d   1      -0.752   0.973  -1.139  0.00  0.00     0.000 A 
ENDROOT
TORSDOF 0
ENDMDL
