MODEL 1
REMARK minimizedAffinity 1.11123288
REMARK minimizedRMSD -1
REMARK  0 active torsions:
REMARK  status: ('A' for Active; 'I' for Inactive)
ROOT
ATOM      1  C1  BNZ d   1      -2.033   1.154  -0.710  0.00  0.00     0.000 A 
ATOM      2  C2  BNZ d   1      -0.961   0.785  -1.479  0.00  0.00     0.000 A 
ATOM      3  C3  BNZ d   1      -0.013  -0.071  -0.993  0.00  0.00     0.000 A 
ATOM      4  C4  BNZ d   1      -0.115  -0.524   0.273  0.00  0.00     0.000 A 
ATOM      5  C5  BNZ d   1      -1.184  -0.154   1.064  0.00  0.00     0.000 A 
ATOM      6  C6  BNZ d   1      -2.157   0.677   0.559  0.00  0.00     0.000 A 
ENDROOT
TORSDOF 0
ENDMDL
