MODEL 1
REMARK minimizedAffinity -1.72321534
REMARK minimizedRMSD -1
REMARK  0 active torsions:
REMARK  status: ('A' for Active; 'I' for Inactive)
ROOT
ATOM      1  C1  BNZ d   1      -0.199  -0.542   1.315  0.00  0.00     0.000 A 
ATOM      2  C2  BNZ d   1       0.011  -0.318  -0.019  0.00  0.00     0.000 A 
ATOM      3  C3  BNZ d   1      -0.766   0.569  -0.711  0.00  0.00     0.000 A 
ATOM      4  C4  BNZ d   1      -1.776   1.199  -0.079  0.00  0.00     0.000 A 
ATOM      5  C5  BNZ d   1      -2.007   0.978   1.264  0.00  0.00     0.000 A 
ATOM      6  C6  BNZ d   1      -1.198   0.114   1.967  0.00  0.00     0.000 A 
ENDROOT
TORSDOF 0
ENDMDL
