MODEL 1
REMARK minimizedAffinity -3.95210648
REMARK minimizedRMSD -1
REMARK  0 active torsions:
REMARK  status: ('A' for Active; 'I' for Inactive)
ROOT
ATOM      1  C1  BNZ d   1      -0.723   0.709   3.355  0.00  0.00     0.000 A 
ATOM      2  C2  BNZ d   1      -1.537   0.938   2.278  0.00  0.00     0.000 A 
ATOM      3  C3  BNZ d   1      -1.183   0.510   1.029  0.00  0.00     0.000 A 
ATOM      4  C4  BNZ d   1       0.002  -0.111   0.853  0.00  0.00     0.000 A 
ATOM      5  C5  BNZ d   1       0.838  -0.341   1.927  0.00  0.00     0.000 A 
ATOM      6  C6  BNZ d   1       0.460   0.057   3.189  0.00  0.00     0.000 A 
ENDROOT
TORSDOF 0
ENDMDL
