MODEL 1
REMARK minimizedAffinity 2.67126226
REMARK minimizedRMSD -1
REMARK  0 active torsions:
REMARK  status: ('A' for Active; 'I' for Inactive)
ROOT
ATOM      1  C   UNL d   1      -2.631  -5.311   3.381  0.00  0.00     0.077 C 
ATOM      2  C1  UNL d   1      -2.223  -3.965   2.861  0.00  0.00    -0.074 A 
ATOM      3  C2  UNL d   1      -2.242  -2.838   3.690  0.00  0.00    -0.005 A 
ATOM      4  C3  UNL d   1      -1.851  -1.594   3.195  0.00  0.00     0.006 A 
ATOM      5  C4  UNL d   1      -1.439  -1.464   1.868  0.00  0.00    -0.005 A 
ATOM      6  C5  UNL d   1      -1.413  -2.579   1.025  0.00  0.00    -0.074 A 
ATOM      7  C6  UNL d   1      -0.963  -2.459  -0.401  0.00  0.00     0.077 C 
ATOM      8  C7  UNL d   1      -1.800  -3.827   1.532  0.00  0.00    -0.001 A 
ENDROOT
TORSDOF 0
ENDMDL
