MODEL 1
REMARK minimizedAffinity 12.3394833
REMARK minimizedRMSD -1
REMARK  0 active torsions:
REMARK  status: ('A' for Active; 'I' for Inactive)
ROOT
ATOM      1  C   UNL d   1      -1.270   2.959  -3.684  0.00  0.00     0.077 C 
ATOM      2  C1  UNL d   1      -2.239   3.781  -4.481  0.00  0.00    -0.074 A 
ATOM      3  C2  UNL d   1      -1.800   4.859  -5.256  0.00  0.00    -0.005 A 
ATOM      4  C3  UNL d   1      -2.712   5.609  -5.999  0.00  0.00     0.006 A 
ATOM      5  C4  UNL d   1      -4.070   5.288  -5.975  0.00  0.00    -0.005 A 
ATOM      6  C5  UNL d   1      -4.527   4.213  -5.207  0.00  0.00    -0.074 A 
ATOM      7  C6  UNL d   1      -5.982   3.849  -5.178  0.00  0.00     0.077 C 
ATOM      8  C7  UNL d   1      -3.604   3.460  -4.468  0.00  0.00    -0.001 A 
ENDROOT
TORSDOF 0
ENDMDL
