MODEL 1
REMARK minimizedAffinity 13.709691
REMARK minimizedRMSD -1
REMARK  0 active torsions:
REMARK  status: ('A' for Active; 'I' for Inactive)
ROOT
ATOM      1  C   UNL d   1       0.454  -1.485   1.218  0.00  0.00     0.077 C 
ATOM      2  C1  UNL d   1      -0.387  -2.297   0.279  0.00  0.00    -0.074 A 
ATOM      3  C2  UNL d   1      -1.518  -2.981   0.735  0.00  0.00    -0.005 A 
ATOM      4  C3  UNL d   1      -2.296  -3.724  -0.152  0.00  0.00     0.006 A 
ATOM      5  C4  UNL d   1      -1.952  -3.790  -1.503  0.00  0.00    -0.005 A 
ATOM      6  C5  UNL d   1      -0.826  -3.112  -1.978  0.00  0.00    -0.074 A 
ATOM      7  C6  UNL d   1      -0.448  -3.164  -3.428  0.00  0.00     0.077 C 
ATOM      8  C7  UNL d   1      -0.053  -2.361  -1.081  0.00  0.00    -0.001 A 
ENDROOT
TORSDOF 0
ENDMDL
