MODEL 1
REMARK minimizedAffinity 7.44610643
REMARK minimizedRMSD -1
REMARK  0 active torsions:
REMARK  status: ('A' for Active; 'I' for Inactive)
ROOT
ATOM      1  C   UNL d   1       1.676   0.147   1.504  0.00  0.00     0.077 C 
ATOM      2  C1  UNL d   1       2.183   1.453   0.968  0.00  0.00    -0.074 A 
ATOM      3  C2  UNL d   1       1.496   2.130  -0.045  0.00  0.00    -0.005 A 
ATOM      4  C3  UNL d   1       1.974   3.348  -0.527  0.00  0.00     0.006 A 
ATOM      5  C4  UNL d   1       3.143   3.901  -0.002  0.00  0.00    -0.005 A 
ATOM      6  C5  UNL d   1       3.843   3.240   1.011  0.00  0.00    -0.074 A 
ATOM      7  C6  UNL d   1       5.096   3.825   1.593  0.00  0.00     0.077 C 
ATOM      8  C7  UNL d   1       3.352   2.019   1.495  0.00  0.00    -0.001 A 
ENDROOT
TORSDOF 0
ENDMDL
