MODEL 1
REMARK minimizedAffinity 3.40416884
REMARK minimizedRMSD -1
REMARK  0 active torsions:
REMARK  status: ('A' for Active; 'I' for Inactive)
ROOT
ATOM      1  C   UNL d   1       5.956   0.093  -5.868  0.00  0.00     0.077 C 
ATOM      2  C1  UNL d   1       5.205   1.390  -5.920  0.00  0.00    -0.074 A 
ATOM      3  C2  UNL d   1       3.807   1.410  -5.951  0.00  0.00    -0.005 A 
ATOM      4  C3  UNL d   1       3.122   2.625  -5.990  0.00  0.00     0.006 A 
ATOM      5  C4  UNL d   1       3.827   3.829  -5.998  0.00  0.00    -0.005 A 
ATOM      6  C5  UNL d   1       5.225   3.829  -5.966  0.00  0.00    -0.074 A 
ATOM      7  C6  UNL d   1       5.998   5.114  -5.964  0.00  0.00     0.077 C 
ATOM      8  C7  UNL d   1       5.906   2.604  -5.920  0.00  0.00    -0.001 A 
ENDROOT
TORSDOF 0
ENDMDL
