MODEL 1
REMARK minimizedAffinity 8.3595829
REMARK minimizedRMSD -1
REMARK  0 active torsions:
REMARK  status: ('A' for Active; 'I' for Inactive)
ROOT
ATOM      1  C   UNL d   1       1.269  -0.173   1.155  0.00  0.00     0.077 C 
ATOM      2  C1  UNL d   1       0.386  -1.168   0.462  0.00  0.00    -0.074 A 
ATOM      3  C2  UNL d   1      -0.700  -1.750   1.124  0.00  0.00    -0.005 A 
ATOM      4  C3  UNL d   1      -1.518  -2.666   0.462  0.00  0.00     0.006 A 
ATOM      5  C4  UNL d   1      -1.259  -3.009  -0.865  0.00  0.00    -0.005 A 
ATOM      6  C5  UNL d   1      -0.178  -2.437  -1.543  0.00  0.00    -0.074 A 
ATOM      7  C6  UNL d   1       0.109  -2.787  -2.973  0.00  0.00     0.077 C 
ATOM      8  C7  UNL d   1       0.635  -1.512  -0.875  0.00  0.00    -0.001 A 
ENDROOT
TORSDOF 0
ENDMDL
