MODEL 1
REMARK minimizedAffinity 14.3368559
REMARK minimizedRMSD -1
REMARK  0 active torsions:
REMARK  status: ('A' for Active; 'I' for Inactive)
ROOT
ATOM      1  C   UNL d   1       1.022  -0.883   1.293  0.00  0.00     0.077 C 
ATOM      2  C1  UNL d   1      -0.082  -1.750   0.765  0.00  0.00    -0.074 A 
ATOM      3  C2  UNL d   1      -1.216  -2.020   1.538  0.00  0.00    -0.005 A 
ATOM      4  C3  UNL d   1      -2.239  -2.820   1.030  0.00  0.00     0.006 A 
ATOM      5  C4  UNL d   1      -2.139  -3.358  -0.254  0.00  0.00    -0.005 A 
ATOM      6  C5  UNL d   1      -1.013  -3.098  -1.041  0.00  0.00    -0.074 A 
ATOM      7  C6  UNL d   1      -0.894  -3.661  -2.427  0.00  0.00     0.077 C 
ATOM      8  C7  UNL d   1       0.007  -2.288  -0.526  0.00  0.00    -0.001 A 
ENDROOT
TORSDOF 0
ENDMDL
