MODEL 1
REMARK minimizedAffinity 5.380445
REMARK minimizedRMSD -1
REMARK  0 active torsions:
REMARK  status: ('A' for Active; 'I' for Inactive)
ROOT
ATOM      1  C   UNL d   1      -1.427  -5.782   3.119  0.00  0.00     0.077 C 
ATOM      2  C1  UNL d   1      -1.306  -4.541   2.285  0.00  0.00    -0.074 A 
ATOM      3  C2  UNL d   1      -1.063  -3.297   2.877  0.00  0.00    -0.005 A 
ATOM      4  C3  UNL d   1      -0.944  -2.153   2.088  0.00  0.00     0.006 A 
ATOM      5  C4  UNL d   1      -1.068  -2.241   0.701  0.00  0.00    -0.005 A 
ATOM      6  C5  UNL d   1      -1.310  -3.475   0.091  0.00  0.00    -0.074 A 
ATOM      7  C6  UNL d   1      -1.436  -3.589  -1.400  0.00  0.00     0.077 C 
ATOM      8  C7  UNL d   1      -1.421  -4.621   0.890  0.00  0.00    -0.001 A 
ENDROOT
TORSDOF 0
ENDMDL
