MODEL 1
REMARK minimizedAffinity -2.27419162
REMARK minimizedRMSD -1
REMARK  0 active torsions:
REMARK  status: ('A' for Active; 'I' for Inactive)
ROOT
ATOM      1  C   UNL d   1      -1.694   4.346  -1.084  0.00  0.00     0.077 C 
ATOM      2  C1  UNL d   1      -1.720   3.164  -0.161  0.00  0.00    -0.074 A 
ATOM      3  C2  UNL d   1      -0.636   2.879   0.674  0.00  0.00    -0.005 A 
ATOM      4  C3  UNL d   1      -0.678   1.782   1.534  0.00  0.00     0.006 A 
ATOM      5  C4  UNL d   1      -1.804   0.958   1.566  0.00  0.00    -0.005 A 
ATOM      6  C5  UNL d   1      -2.899   1.227   0.738  0.00  0.00    -0.074 A 
ATOM      7  C6  UNL d   1      -4.121   0.358   0.768  0.00  0.00     0.077 C 
ATOM      8  C7  UNL d   1      -2.851   2.336  -0.118  0.00  0.00    -0.001 A 
ENDROOT
TORSDOF 0
ENDMDL
