MODEL 1
REMARK minimizedAffinity 9.49476147
REMARK minimizedRMSD -1
REMARK  0 active torsions:
REMARK  status: ('A' for Active; 'I' for Inactive)
ROOT
ATOM      1  C   UNL d   1       3.342   2.784   3.850  0.00  0.00     0.077 C 
ATOM      2  C1  UNL d   1       2.581   2.427   2.608  0.00  0.00    -0.074 A 
ATOM      3  C2  UNL d   1       2.455   3.340   1.556  0.00  0.00    -0.005 A 
ATOM      4  C3  UNL d   1       1.752   2.991   0.402  0.00  0.00     0.006 A 
ATOM      5  C4  UNL d   1       1.170   1.728   0.290  0.00  0.00    -0.005 A 
ATOM      6  C5  UNL d   1       1.286   0.802   1.331  0.00  0.00    -0.074 A 
ATOM      7  C6  UNL d   1       0.674  -0.563   1.222  0.00  0.00     0.077 C 
ATOM      8  C7  UNL d   1       2.000   1.158   2.484  0.00  0.00    -0.001 A 
ENDROOT
TORSDOF 0
ENDMDL
