MODEL 1
REMARK minimizedAffinity 11.3178587
REMARK minimizedRMSD -1
REMARK  0 active torsions:
REMARK  status: ('A' for Active; 'I' for Inactive)
ROOT
ATOM      1  C   UNL d   1      -2.675  -5.914  -1.878  0.00  0.00     0.077 C 
ATOM      2  C1  UNL d   1      -1.415  -5.101  -1.913  0.00  0.00    -0.074 A 
ATOM      3  C2  UNL d   1      -0.330  -5.489  -2.707  0.00  0.00    -0.005 A 
ATOM      4  C3  UNL d   1       0.831  -4.718  -2.736  0.00  0.00     0.006 A 
ATOM      5  C4  UNL d   1       0.920  -3.552  -1.974  0.00  0.00    -0.005 A 
ATOM      6  C5  UNL d   1      -0.154  -3.148  -1.176  0.00  0.00    -0.074 A 
ATOM      7  C6  UNL d   1      -0.078  -1.892  -0.358  0.00  0.00     0.077 C 
ATOM      8  C7  UNL d   1      -1.321  -3.924  -1.157  0.00  0.00    -0.001 A 
ENDROOT
TORSDOF 0
ENDMDL
