MODEL 1
REMARK minimizedAffinity 7.77877712
REMARK minimizedRMSD -1
REMARK  0 active torsions:
REMARK  status: ('A' for Active; 'I' for Inactive)
ROOT
ATOM      1  C   UNL d   1      -0.689  -2.550  -0.703  0.00  0.00     0.077 C 
ATOM      2  C1  UNL d   1      -1.020  -1.492   0.307  0.00  0.00    -0.074 A 
ATOM      3  C2  UNL d   1      -2.063  -1.672   1.222  0.00  0.00    -0.005 A 
ATOM      4  C3  UNL d   1      -2.352  -0.683   2.162  0.00  0.00     0.006 A 
ATOM      5  C4  UNL d   1      -1.603   0.494   2.197  0.00  0.00    -0.005 A 
ATOM      6  C5  UNL d   1      -0.556   0.691   1.292  0.00  0.00    -0.074 A 
ATOM      7  C6  UNL d   1       0.266   1.945   1.323  0.00  0.00     0.077 C 
ATOM      8  C7  UNL d   1      -0.266  -0.310   0.354  0.00  0.00    -0.001 A 
ENDROOT
TORSDOF 0
ENDMDL
