MODEL 1
REMARK minimizedAffinity 2.18391657
REMARK minimizedRMSD -1
REMARK  0 active torsions:
REMARK  status: ('A' for Active; 'I' for Inactive)
ROOT
ATOM      1  C   UNL d   1       1.124   0.907   1.602  0.00  0.00     0.077 C 
ATOM      2  C1  UNL d   1       2.354   1.756   1.731  0.00  0.00    -0.074 A 
ATOM      3  C2  UNL d   1       2.815   2.521   0.655  0.00  0.00    -0.005 A 
ATOM      4  C3  UNL d   1       3.954   3.313   0.792  0.00  0.00     0.006 A 
ATOM      5  C4  UNL d   1       4.644   3.348   2.005  0.00  0.00    -0.005 A 
ATOM      6  C5  UNL d   1       4.197   2.591   3.092  0.00  0.00    -0.074 A 
ATOM      7  C6  UNL d   1       4.920   2.625   4.406  0.00  0.00     0.077 C 
ATOM      8  C7  UNL d   1       3.047   1.802   2.949  0.00  0.00    -0.001 A 
ENDROOT
TORSDOF 0
ENDMDL
