MODEL 1
REMARK minimizedAffinity 9.55478573
REMARK minimizedRMSD -1
REMARK  0 active torsions:
REMARK  status: ('A' for Active; 'I' for Inactive)
ROOT
ATOM      1  C   UNL d   1       5.132   0.171  -5.956  0.00  0.00     0.077 C 
ATOM      2  C1  UNL d   1       4.930   1.643  -5.755  0.00  0.00    -0.074 A 
ATOM      3  C2  UNL d   1       5.983   2.545  -5.940  0.00  0.00    -0.005 A 
ATOM      4  C3  UNL d   1       5.778   3.913  -5.758  0.00  0.00     0.006 A 
ATOM      5  C4  UNL d   1       4.520   4.392  -5.389  0.00  0.00    -0.005 A 
ATOM      6  C5  UNL d   1       3.455   3.505  -5.200  0.00  0.00    -0.074 A 
ATOM      7  C6  UNL d   1       2.094   4.004  -4.814  0.00  0.00     0.077 C 
ATOM      8  C7  UNL d   1       3.667   2.133  -5.392  0.00  0.00    -0.001 A 
ENDROOT
TORSDOF 0
ENDMDL
