MODEL 1
REMARK minimizedAffinity -2.8305335
REMARK minimizedRMSD -1
REMARK  0 active torsions:
REMARK  status: ('A' for Active; 'I' for Inactive)
ROOT
ATOM      1  C   UNL d   1       4.934   2.544   3.770  0.00  0.00     0.077 C 
ATOM      2  C1  UNL d   1       4.007   2.626   2.594  0.00  0.00    -0.074 A 
ATOM      3  C2  UNL d   1       4.240   3.535   1.556  0.00  0.00    -0.005 A 
ATOM      4  C3  UNL d   1       3.374   3.593   0.465  0.00  0.00     0.006 A 
ATOM      5  C4  UNL d   1       2.268   2.745   0.399  0.00  0.00    -0.005 A 
ATOM      6  C5  UNL d   1       2.019   1.829   1.427  0.00  0.00    -0.074 A 
ATOM      7  C6  UNL d   1       0.841   0.904   1.367  0.00  0.00     0.077 C 
ATOM      8  C7  UNL d   1       2.898   1.772   2.517  0.00  0.00    -0.001 A 
ENDROOT
TORSDOF 0
ENDMDL
