MODEL 1
REMARK minimizedAffinity -1.93657851
REMARK minimizedRMSD -1
REMARK  0 active torsions:
REMARK  status: ('A' for Active; 'I' for Inactive)
ROOT
ATOM      1  C   UNL d   1      -2.637   3.752  -5.978  0.00  0.00     0.020 A 
ATOM      2  C1  UNL d   1      -2.424   5.130  -5.982  0.00  0.00     0.020 A 
ATOM      3  C2  UNL d   1      -1.122   5.634  -5.988  0.00  0.00     0.034 A 
ATOM      4  C3  UNL d   1      -0.028   4.761  -5.990  0.00  0.00     0.017 A 
ATOM      5  C4  UNL d   1      -0.244   3.378  -5.986  0.00  0.00     0.017 A 
ATOM      6  C5  UNL d   1      -1.549   2.878  -5.980  0.00  0.00     0.034 A 
ATOM      7 Cl   UNL d   1       1.055   2.238  -5.988  0.00  0.00    -0.070 Cl
ATOM      8 Cl1  UNL d   1       1.554   5.455  -5.997  0.00  0.00    -0.070 Cl
ENDROOT
TORSDOF 0
ENDMDL
