MODEL 1
REMARK minimizedAffinity -2.59942985
REMARK minimizedRMSD -1
REMARK  0 active torsions:
REMARK  status: ('A' for Active; 'I' for Inactive)
ROOT
ATOM      1  C   UNL d   1       1.195   4.325  -5.989  0.00  0.00     0.020 A 
ATOM      2  C1  UNL d   1       0.921   2.957  -5.993  0.00  0.00     0.020 A 
ATOM      3  C2  UNL d   1      -0.402   2.511  -5.996  0.00  0.00     0.034 A 
ATOM      4  C3  UNL d   1      -1.456   3.431  -5.995  0.00  0.00     0.017 A 
ATOM      5  C4  UNL d   1      -1.180   4.804  -5.992  0.00  0.00     0.017 A 
ATOM      6  C5  UNL d   1       0.147   5.245  -5.989  0.00  0.00     0.034 A 
ATOM      7 Cl   UNL d   1      -2.427   6.000  -5.991  0.00  0.00    -0.070 Cl
ATOM      8 Cl1  UNL d   1      -3.068   2.808  -5.999  0.00  0.00    -0.070 Cl
ENDROOT
TORSDOF 0
ENDMDL
