MODEL 1
REMARK minimizedAffinity -1.20479476
REMARK minimizedRMSD -1
REMARK  0 active torsions:
REMARK  status: ('A' for Active; 'I' for Inactive)
ROOT
ATOM      1  C   UNL d   1      -2.299   4.872  -5.966  0.00  0.00     0.020 A 
ATOM      2  C1  UNL d   1      -2.534   3.498  -5.966  0.00  0.00     0.020 A 
ATOM      3  C2  UNL d   1      -1.460   2.606  -5.976  0.00  0.00     0.034 A 
ATOM      4  C3  UNL d   1      -0.146   3.087  -5.987  0.00  0.00     0.017 A 
ATOM      5  C4  UNL d   1       0.089   4.467  -5.987  0.00  0.00     0.017 A 
ATOM      6  C5  UNL d   1      -0.990   5.355  -5.976  0.00  0.00     0.034 A 
ATOM      7 Cl   UNL d   1       1.683   5.136  -6.000  0.00  0.00    -0.070 Cl
ATOM      8 Cl1  UNL d   1       1.135   1.927  -5.999  0.00  0.00    -0.070 Cl
ENDROOT
TORSDOF 0
ENDMDL
