MODEL 1
REMARK minimizedAffinity 4.43649721
REMARK minimizedRMSD -1
REMARK  0 active torsions:
REMARK  status: ('A' for Active; 'I' for Inactive)
ROOT
ATOM      1  C   UNL d   1      -0.415   4.778  -5.960  0.00  0.00     0.020 A 
ATOM      2  C1  UNL d   1       0.530   5.803  -5.994  0.00  0.00     0.020 A 
ATOM      3  C2  UNL d   1       1.893   5.497  -5.975  0.00  0.00     0.034 A 
ATOM      4  C3  UNL d   1       2.314   4.164  -5.921  0.00  0.00     0.017 A 
ATOM      5  C4  UNL d   1       1.365   3.136  -5.887  0.00  0.00     0.017 A 
ATOM      6  C5  UNL d   1       0.002   3.447  -5.906  0.00  0.00     0.034 A 
ATOM      7 Cl   UNL d   1       1.809   1.467  -5.820  0.00  0.00    -0.070 Cl
ATOM      8 Cl1  UNL d   1       4.015   3.859  -5.900  0.00  0.00    -0.070 Cl
ENDROOT
TORSDOF 0
ENDMDL
