MODEL 1
REMARK minimizedAffinity 1.66780066
REMARK minimizedRMSD -1
REMARK  0 active torsions:
REMARK  status: ('A' for Active; 'I' for Inactive)
ROOT
ATOM      1  C   UNL d   1       0.677   4.967  -5.889  0.00  0.00     0.020 A 
ATOM      2  C1  UNL d   1       0.642   3.573  -5.891  0.00  0.00     0.020 A 
ATOM      3  C2  UNL d   1      -0.584   2.906  -5.925  0.00  0.00     0.034 A 
ATOM      4  C3  UNL d   1      -1.780   3.632  -5.957  0.00  0.00     0.017 A 
ATOM      5  C4  UNL d   1      -1.744   5.031  -5.954  0.00  0.00     0.017 A 
ATOM      6  C5  UNL d   1      -0.513   5.695  -5.920  0.00  0.00     0.034 A 
ATOM      7 Cl   UNL d   1      -3.178   5.996  -5.992  0.00  0.00    -0.070 Cl
ATOM      8 Cl1  UNL d   1      -3.260   2.741  -5.998  0.00  0.00    -0.070 Cl
ENDROOT
TORSDOF 0
ENDMDL
