MODEL 1
REMARK minimizedAffinity -2.35582995
REMARK minimizedRMSD -1
REMARK  0 active torsions:
REMARK  status: ('A' for Active; 'I' for Inactive)
ROOT
ATOM      1  C   UNL d   1       1.160   4.479  -5.994  0.00  0.00     0.020 A 
ATOM      2  C1  UNL d   1       0.946   3.102  -5.994  0.00  0.00     0.020 A 
ATOM      3  C2  UNL d   1      -0.356   2.597  -5.994  0.00  0.00     0.034 A 
ATOM      4  C3  UNL d   1      -1.449   3.471  -5.993  0.00  0.00     0.017 A 
ATOM      5  C4  UNL d   1      -1.233   4.854  -5.994  0.00  0.00     0.017 A 
ATOM      6  C5  UNL d   1       0.073   5.354  -5.994  0.00  0.00     0.034 A 
ATOM      7 Cl   UNL d   1      -2.532   5.995  -5.993  0.00  0.00    -0.070 Cl
ATOM      8 Cl1  UNL d   1      -3.032   2.778  -5.994  0.00  0.00    -0.070 Cl
ENDROOT
TORSDOF 0
ENDMDL
