MODEL 1
REMARK minimizedAffinity 2.55426168
REMARK minimizedRMSD -1
REMARK  0 active torsions:
REMARK  status: ('A' for Active; 'I' for Inactive)
ROOT
ATOM      1  C   UNL d   1       1.869   5.235  -5.997  0.00  0.00     0.020 A 
ATOM      2  C1  UNL d   1       1.802   3.842  -5.997  0.00  0.00     0.020 A 
ATOM      3  C2  UNL d   1       2.976   3.087  -5.997  0.00  0.00     0.034 A 
ATOM      4  C3  UNL d   1       4.223   3.723  -5.997  0.00  0.00     0.017 A 
ATOM      5  C4  UNL d   1       4.289   5.121  -5.996  0.00  0.00     0.017 A 
ATOM      6  C5  UNL d   1       3.110   5.873  -5.996  0.00  0.00     0.034 A 
ATOM      7 Cl   UNL d   1       5.790   5.978  -5.995  0.00  0.00    -0.070 Cl
ATOM      8 Cl1  UNL d   1       5.634   2.726  -5.996  0.00  0.00    -0.070 Cl
ENDROOT
TORSDOF 0
ENDMDL
