MODEL 1
REMARK minimizedAffinity -1.490273
REMARK minimizedRMSD -1
REMARK  0 active torsions:
REMARK  status: ('A' for Active; 'I' for Inactive)
ROOT
ATOM      1  C   UNL d   1       1.289   3.755  -5.994  0.00  0.00     0.020 A 
ATOM      2  C1  UNL d   1       1.246   5.149  -5.981  0.00  0.00     0.020 A 
ATOM      3  C2  UNL d   1       0.016   5.810  -5.974  0.00  0.00     0.034 A 
ATOM      4  C3  UNL d   1      -1.177   5.077  -5.979  0.00  0.00     0.017 A 
ATOM      5  C4  UNL d   1      -1.133   3.678  -5.992  0.00  0.00     0.017 A 
ATOM      6  C5  UNL d   1       0.102   3.022  -6.000  0.00  0.00     0.034 A 
ATOM      7 Cl   UNL d   1      -2.562   2.706  -6.000  0.00  0.00    -0.070 Cl
ATOM      8 Cl1  UNL d   1      -2.662   5.960  -5.969  0.00  0.00    -0.070 Cl
ENDROOT
TORSDOF 0
ENDMDL
