MODEL 1
REMARK minimizedAffinity -1.74503899
REMARK minimizedRMSD -1
REMARK  0 active torsions:
REMARK  status: ('A' for Active; 'I' for Inactive)
ROOT
ATOM      1  C   UNL d   1       0.982   2.673  -5.995  0.00  0.00     0.020 A 
ATOM      2  C1  UNL d   1       1.376   4.010  -5.991  0.00  0.00     0.020 A 
ATOM      3  C2  UNL d   1       0.414   5.022  -5.988  0.00  0.00     0.034 A 
ATOM      4  C3  UNL d   1      -0.948   4.698  -5.991  0.00  0.00     0.017 A 
ATOM      5  C4  UNL d   1      -1.343   3.355  -5.996  0.00  0.00     0.017 A 
ATOM      6  C5  UNL d   1      -0.375   2.346  -5.998  0.00  0.00     0.034 A 
ATOM      7 Cl   UNL d   1      -3.004   2.877  -5.999  0.00  0.00    -0.070 Cl
ATOM      8 Cl1  UNL d   1      -2.083   6.000  -5.988  0.00  0.00    -0.070 Cl
ENDROOT
TORSDOF 0
ENDMDL
