MODEL 1
REMARK minimizedAffinity -0.676194847
REMARK minimizedRMSD -1
REMARK  0 active torsions:
REMARK  status: ('A' for Active; 'I' for Inactive)
ROOT
ATOM      1  C   UNL d   1       0.853   3.063  -5.997  0.00  0.00     0.020 A 
ATOM      2  C1  UNL d   1       1.081   4.438  -5.997  0.00  0.00     0.020 A 
ATOM      3  C2  UNL d   1       0.003   5.325  -5.997  0.00  0.00     0.034 A 
ATOM      4  C3  UNL d   1      -1.309   4.838  -5.998  0.00  0.00     0.017 A 
ATOM      5  C4  UNL d   1      -1.538   3.457  -5.998  0.00  0.00     0.017 A 
ATOM      6  C5  UNL d   1      -0.454   2.573  -5.998  0.00  0.00     0.034 A 
ATOM      7 Cl   UNL d   1      -3.128   2.781  -5.999  0.00  0.00    -0.070 Cl
ATOM      8 Cl1  UNL d   1      -2.595   5.992  -5.998  0.00  0.00    -0.070 Cl
ENDROOT
TORSDOF 0
ENDMDL
