MODEL 1
REMARK minimizedAffinity 0.569889367
REMARK minimizedRMSD -1
REMARK  0 active torsions:
REMARK  status: ('A' for Active; 'I' for Inactive)
ROOT
ATOM      1  C   UNL d   1       1.128   4.780  -5.965  0.00  0.00     0.020 A 
ATOM      2  C1  UNL d   1       1.024   3.390  -5.984  0.00  0.00     0.020 A 
ATOM      3  C2  UNL d   1      -0.234   2.784  -5.994  0.00  0.00     0.034 A 
ATOM      4  C3  UNL d   1      -1.393   3.569  -5.986  0.00  0.00     0.017 A 
ATOM      5  C4  UNL d   1      -1.287   4.964  -5.967  0.00  0.00     0.017 A 
ATOM      6  C5  UNL d   1      -0.025   5.566  -5.957  0.00  0.00     0.034 A 
ATOM      7 Cl   UNL d   1      -2.672   5.999  -5.956  0.00  0.00    -0.070 Cl
ATOM      8 Cl1  UNL d   1      -2.916   2.753  -6.000  0.00  0.00    -0.070 Cl
ENDROOT
TORSDOF 0
ENDMDL
