MODEL 1
REMARK minimizedAffinity -1.20829058
REMARK minimizedRMSD -1
REMARK  0 active torsions:
REMARK  status: ('A' for Active; 'I' for Inactive)
ROOT
ATOM      1  C   UNL d   1      -3.962   5.973  -5.895  0.00  0.00     0.020 A 
ATOM      2  C1  UNL d   1      -4.636   4.752  -5.899  0.00  0.00     0.020 A 
ATOM      3  C2  UNL d   1      -3.915   3.557  -5.932  0.00  0.00     0.034 A 
ATOM      4  C3  UNL d   1      -2.515   3.580  -5.960  0.00  0.00     0.017 A 
ATOM      5  C4  UNL d   1      -1.840   4.806  -5.956  0.00  0.00     0.017 A 
ATOM      6  C5  UNL d   1      -2.567   5.999  -5.923  0.00  0.00     0.034 A 
ATOM      7 Cl   UNL d   1      -0.116   4.914  -5.989  0.00  0.00    -0.070 Cl
ATOM      8 Cl1  UNL d   1      -1.688   2.063  -5.999  0.00  0.00    -0.070 Cl
ENDROOT
TORSDOF 0
ENDMDL
