MODEL 1
REMARK minimizedAffinity -1.91149533
REMARK minimizedRMSD -1
REMARK  0 active torsions:
REMARK  status: ('A' for Active; 'I' for Inactive)
ROOT
ATOM      1  C   UNL d   1      -2.642   3.965  -5.977  0.00  0.00     0.020 A 
ATOM      2  C1  UNL d   1      -2.291   5.314  -5.987  0.00  0.00     0.020 A 
ATOM      3  C2  UNL d   1      -0.945   5.686  -5.993  0.00  0.00     0.034 A 
ATOM      4  C3  UNL d   1       0.056   4.707  -5.990  0.00  0.00     0.017 A 
ATOM      5  C4  UNL d   1      -0.297   3.353  -5.980  0.00  0.00     0.017 A 
ATOM      6  C5  UNL d   1      -1.647   2.986  -5.973  0.00  0.00     0.034 A 
ATOM      7 Cl   UNL d   1       0.880   2.088  -5.976  0.00  0.00    -0.070 Cl
ATOM      8 Cl1  UNL d   1       1.700   5.238  -6.000  0.00  0.00    -0.070 Cl
ENDROOT
TORSDOF 0
ENDMDL
