MODEL 1
REMARK minimizedAffinity -1.14013565
REMARK minimizedRMSD -1
REMARK  0 active torsions:
REMARK  status: ('A' for Active; 'I' for Inactive)
ROOT
ATOM      1  C   UNL d   1      -2.135   4.849  -5.994  0.00  0.00     0.020 A 
ATOM      2  C1  UNL d   1      -2.376   3.476  -5.993  0.00  0.00     0.020 A 
ATOM      3  C2  UNL d   1      -1.306   2.579  -5.994  0.00  0.00     0.034 A 
ATOM      4  C3  UNL d   1       0.011   3.054  -5.997  0.00  0.00     0.017 A 
ATOM      5  C4  UNL d   1       0.252   4.433  -5.997  0.00  0.00     0.017 A 
ATOM      6  C5  UNL d   1      -0.824   5.326  -5.996  0.00  0.00     0.034 A 
ATOM      7 Cl   UNL d   1       1.848   5.095  -6.000  0.00  0.00    -0.070 Cl
ATOM      8 Cl1  UNL d   1       1.286   1.888  -5.998  0.00  0.00    -0.070 Cl
ENDROOT
TORSDOF 0
ENDMDL
