MODEL 1
REMARK minimizedAffinity -3.69926548
REMARK minimizedRMSD -1
REMARK  0 active torsions:
REMARK  status: ('A' for Active; 'I' for Inactive)
ROOT
ATOM      1  C   UNL d   1      -2.985   5.164  -5.999  0.00  0.00     0.020 A 
ATOM      2  C1  UNL d   1      -3.047   3.771  -5.997  0.00  0.00     0.020 A 
ATOM      3  C2  UNL d   1      -1.869   3.020  -5.995  0.00  0.00     0.034 A 
ATOM      4  C3  UNL d   1      -0.625   3.662  -5.995  0.00  0.00     0.017 A 
ATOM      5  C4  UNL d   1      -0.565   5.060  -5.997  0.00  0.00     0.017 A 
ATOM      6  C5  UNL d   1      -1.747   5.807  -5.999  0.00  0.00     0.034 A 
ATOM      7 Cl   UNL d   1       0.933   5.923  -5.998  0.00  0.00    -0.070 Cl
ATOM      8 Cl1  UNL d   1       0.790   2.671  -5.992  0.00  0.00    -0.070 Cl
ENDROOT
TORSDOF 0
ENDMDL
