MODEL 1
REMARK minimizedAffinity 5.68697596
REMARK minimizedRMSD -1
REMARK  0 active torsions:
REMARK  status: ('A' for Active; 'I' for Inactive)
ROOT
ATOM      1  C   UNL d   1      -1.470   4.140  -5.999  0.00  0.00     0.020 A 
ATOM      2  C1  UNL d   1      -1.667   2.760  -6.000  0.00  0.00     0.020 A 
ATOM      3  C2  UNL d   1      -0.568   1.898  -5.999  0.00  0.00     0.034 A 
ATOM      4  C3  UNL d   1       0.733   2.415  -5.999  0.00  0.00     0.017 A 
ATOM      5  C4  UNL d   1       0.929   3.801  -5.998  0.00  0.00     0.017 A 
ATOM      6  C5  UNL d   1      -0.174   4.659  -5.998  0.00  0.00     0.034 A 
ATOM      7 Cl   UNL d   1       2.504   4.513  -5.997  0.00  0.00    -0.070 Cl
ATOM      8 Cl1  UNL d   1       2.045   1.290  -5.998  0.00  0.00    -0.070 Cl
ENDROOT
TORSDOF 0
ENDMDL
