MODEL 1
REMARK minimizedAffinity 4.69621658
REMARK minimizedRMSD -1
REMARK  0 active torsions:
REMARK  status: ('A' for Active; 'I' for Inactive)
ROOT
ATOM      1  C   UNL d   1      -1.040   4.005  -5.842  0.00  0.00     0.020 A 
ATOM      2  C1  UNL d   1      -0.926   5.394  -5.861  0.00  0.00     0.020 A 
ATOM      3  C2  UNL d   1       0.337   5.990  -5.909  0.00  0.00     0.034 A 
ATOM      4  C3  UNL d   1       1.489   5.196  -5.939  0.00  0.00     0.017 A 
ATOM      5  C4  UNL d   1       1.373   3.801  -5.920  0.00  0.00     0.017 A 
ATOM      6  C5  UNL d   1       0.106   3.210  -5.872  0.00  0.00     0.034 A 
ATOM      7 Cl   UNL d   1       2.749   2.756  -5.955  0.00  0.00    -0.070 Cl
ATOM      8 Cl1  UNL d   1       3.017   6.000  -5.999  0.00  0.00    -0.070 Cl
ENDROOT
TORSDOF 0
ENDMDL
