MODEL 1
REMARK minimizedAffinity 2.41210675
REMARK minimizedRMSD -1
REMARK  0 active torsions:
REMARK  status: ('A' for Active; 'I' for Inactive)
ROOT
ATOM      1  O1  BZF d   1      -0.324   2.625  -0.020  0.00  0.00    -0.204 OA
ATOM      2  C2  BZF d   1       0.684   2.013   0.701  0.00  0.00     0.174 A 
ATOM      3  C3  BZF d   1       0.191   1.010   1.455  0.00  0.00    -0.012 A 
ATOM      4  C3A BZF d   1      -1.198   0.934   1.120  0.00  0.00    -0.107 A 
ATOM      5  C4  BZF d   1      -2.220   0.124   1.527  0.00  0.00     0.055 A 
ATOM      6  C5  BZF d   1      -3.474   0.359   1.061  0.00  0.00    -0.016 A 
ATOM      7  C6  BZF d   1      -3.744   1.396   0.193  0.00  0.00     0.022 A 
ATOM      8  C7  BZF d   1      -2.763   2.223  -0.243  0.00  0.00     0.029 A 
ATOM      9  C7A BZF d   1      -1.488   1.968   0.200  0.00  0.00     0.058 A 
ENDROOT
TORSDOF 0
ENDMDL
