MODEL 1
REMARK minimizedAffinity 0.854685009
REMARK minimizedRMSD -1
REMARK  0 active torsions:
REMARK  status: ('A' for Active; 'I' for Inactive)
ROOT
ATOM      1  O1  BZF d   1      -2.479   2.493  -0.461  0.00  0.00    -0.204 OA
ATOM      2  C2  BZF d   1      -3.540   1.623  -0.300  0.00  0.00     0.174 A 
ATOM      3  C3  BZF d   1      -3.152   0.510   0.354  0.00  0.00    -0.012 A 
ATOM      4  C3A BZF d   1      -1.782   0.736   0.700  0.00  0.00    -0.107 A 
ATOM      5  C4  BZF d   1      -0.850  -0.001   1.373  0.00  0.00     0.055 A 
ATOM      6  C5  BZF d   1       0.419   0.475   1.477  0.00  0.00    -0.016 A 
ATOM      7  C6  BZF d   1       0.791   1.678   0.915  0.00  0.00     0.022 A 
ATOM      8  C7  BZF d   1      -0.099   2.447   0.242  0.00  0.00     0.029 A 
ATOM      9  C7A BZF d   1      -1.390   1.985   0.165  0.00  0.00     0.058 A 
ENDROOT
TORSDOF 0
ENDMDL
