MODEL 1
REMARK minimizedAffinity 4.58928156
REMARK minimizedRMSD -1
REMARK  0 active torsions:
REMARK  status: ('A' for Active; 'I' for Inactive)
ROOT
ATOM      1  O1  BZF d   1      -3.458  -0.059   1.751  0.00  0.00    -0.204 OA
ATOM      2  C2  BZF d   1      -2.840  -1.092   2.429  0.00  0.00     0.174 A 
ATOM      3  C3  BZF d   1      -1.500  -1.011   2.305  0.00  0.00    -0.012 A 
ATOM      4  C3A BZF d   1      -1.261   0.198   1.578  0.00  0.00    -0.107 A 
ATOM      5  C4  BZF d   1      -0.128   0.832   1.156  0.00  0.00     0.055 A 
ATOM      6  C5  BZF d   1      -0.241   1.958   0.404  0.00  0.00    -0.016 A 
ATOM      7  C6  BZF d   1      -1.471   2.474   0.052  0.00  0.00     0.022 A 
ATOM      8  C7  BZF d   1      -2.624   1.883   0.450  0.00  0.00     0.029 A 
ATOM      9  C7A BZF d   1      -2.512   0.764   1.238  0.00  0.00     0.058 A 
ENDROOT
TORSDOF 0
ENDMDL
