MODEL 1
REMARK minimizedAffinity 1.4134748
REMARK minimizedRMSD -1
REMARK  0 active torsions:
REMARK  status: ('A' for Active; 'I' for Inactive)
ROOT
ATOM      1  O1  BZF d   1      -0.177   2.552   0.770  0.00  0.00    -0.204 OA
ATOM      2  C2  BZF d   1       0.634   1.652   1.434  0.00  0.00     0.174 A 
ATOM      3  C3  BZF d   1      -0.061   0.549   1.782  0.00  0.00    -0.012 A 
ATOM      4  C3A BZF d   1      -1.365   0.734   1.225  0.00  0.00    -0.107 A 
ATOM      5  C4  BZF d   1      -2.500  -0.026   1.218  0.00  0.00     0.055 A 
ATOM      6  C5  BZF d   1      -3.627   0.475   0.649  0.00  0.00    -0.016 A 
ATOM      7  C6  BZF d   1      -3.657   1.732   0.082  0.00  0.00     0.022 A 
ATOM      8  C7  BZF d   1      -2.556   2.521   0.061  0.00  0.00     0.029 A 
ATOM      9  C7A BZF d   1      -1.406   2.005   0.606  0.00  0.00     0.058 A 
ENDROOT
TORSDOF 0
ENDMDL
