MODEL 1
REMARK minimizedAffinity -5.09737778
REMARK minimizedRMSD -1
REMARK  0 active torsions:
REMARK  status: ('A' for Active; 'I' for Inactive)
ROOT
ATOM      1  O1  BZF d   1      -3.712   1.160   0.695  0.00  0.00    -0.204 OA
ATOM      2  C2  BZF d   1      -4.190   2.167  -0.121  0.00  0.00     0.174 A 
ATOM      3  C3  BZF d   1      -3.173   2.830  -0.708  0.00  0.00    -0.012 A 
ATOM      4  C3A BZF d   1      -1.988   2.138  -0.301  0.00  0.00    -0.107 A 
ATOM      5  C4  BZF d   1      -0.661   2.312  -0.570  0.00  0.00     0.055 A 
ATOM      6  C5  BZF d   1       0.248   1.509   0.044  0.00  0.00    -0.016 A 
ATOM      7  C6  BZF d   1      -0.135   0.529   0.936  0.00  0.00     0.022 A 
ATOM      8  C7  BZF d   1      -1.440   0.316   1.230  0.00  0.00     0.029 A 
ATOM      9  C7A BZF d   1      -2.363   1.103   0.586  0.00  0.00     0.058 A 
ENDROOT
TORSDOF 0
ENDMDL
