MODEL 1
REMARK minimizedAffinity 3.82297397
REMARK minimizedRMSD -1
REMARK  0 active torsions:
REMARK  status: ('A' for Active; 'I' for Inactive)
ROOT
ATOM      1  O1  BZF d   1       5.973   5.996   3.178  0.00  0.00    -0.204 OA
ATOM      2  C2  BZF d   1       5.091   5.978   4.241  0.00  0.00     0.174 A 
ATOM      3  C3  BZF d   1       3.815   6.000   3.805  0.00  0.00    -0.012 A 
ATOM      4  C3A BZF d   1       3.905   5.941   2.378  0.00  0.00    -0.107 A 
ATOM      5  C4  BZF d   1       2.974   5.915   1.379  0.00  0.00     0.055 A 
ATOM      6  C5  BZF d   1       3.392   5.931   0.086  0.00  0.00    -0.016 A 
ATOM      7  C6  BZF d   1       4.730   5.978  -0.244  0.00  0.00     0.022 A 
ATOM      8  C7  BZF d   1       5.691   5.999   0.712  0.00  0.00     0.029 A 
ATOM      9  C7A BZF d   1       5.273   5.950   2.020  0.00  0.00     0.058 A 
ENDROOT
TORSDOF 0
ENDMDL
