MODEL 1
REMARK minimizedAffinity 6.958076
REMARK minimizedRMSD -1
REMARK  0 active torsions:
REMARK  status: ('A' for Active; 'I' for Inactive)
ROOT
ATOM      1  O1  BZF d   1      -1.163   2.267   2.396  0.00  0.00    -0.204 OA
ATOM      2  C2  BZF d   1      -0.743   3.359   3.131  0.00  0.00     0.174 A 
ATOM      3  C3  BZF d   1       0.588   3.538   3.003  0.00  0.00    -0.012 A 
ATOM      4  C3A BZF d   1       1.012   2.548   2.060  0.00  0.00    -0.107 A 
ATOM      5  C4  BZF d   1       2.221   2.231   1.512  0.00  0.00     0.055 A 
ATOM      6  C5  BZF d   1       2.309   1.161   0.678  0.00  0.00    -0.016 A 
ATOM      7  C6  BZF d   1       1.209   0.385   0.376  0.00  0.00     0.022 A 
ATOM      8  C7  BZF d   1      -0.013   0.663   0.892  0.00  0.00     0.029 A 
ATOM      9  C7A BZF d   1      -0.111   1.763   1.709  0.00  0.00     0.058 A 
ENDROOT
TORSDOF 0
ENDMDL
