MODEL 1
REMARK minimizedAffinity 1.96058488
REMARK minimizedRMSD -1
REMARK  0 active torsions:
REMARK  status: ('A' for Active; 'I' for Inactive)
ROOT
ATOM      1  O1  BZF d   1       3.158   1.590   1.829  0.00  0.00    -0.204 OA
ATOM      2  C2  BZF d   1       2.875   0.761   0.761  0.00  0.00     0.174 A 
ATOM      3  C3  BZF d   1       1.545   0.689   0.551  0.00  0.00    -0.012 A 
ATOM      4  C3A BZF d   1       0.966   1.598   1.492  0.00  0.00    -0.107 A 
ATOM      5  C4  BZF d   1      -0.318   1.978   1.762  0.00  0.00     0.055 A 
ATOM      6  C5  BZF d   1      -0.551   2.831   2.794  0.00  0.00    -0.016 A 
ATOM      7  C6  BZF d   1       0.474   3.318   3.579  0.00  0.00     0.022 A 
ATOM      8  C7  BZF d   1       1.764   2.973   3.346  0.00  0.00     0.029 A 
ATOM      9  C7A BZF d   1       2.006   2.137   2.284  0.00  0.00     0.058 A 
ENDROOT
TORSDOF 0
ENDMDL
