MODEL 1
REMARK minimizedAffinity 3.31654072
REMARK minimizedRMSD -1
REMARK  0 active torsions:
REMARK  status: ('A' for Active; 'I' for Inactive)
ROOT
ATOM      1  O1  BZF d   1       2.704   1.691   1.825  0.00  0.00    -0.204 OA
ATOM      2  C2  BZF d   1       2.384   0.905   0.735  0.00  0.00     0.174 A 
ATOM      3  C3  BZF d   1       1.050   0.876   0.541  0.00  0.00    -0.012 A 
ATOM      4  C3A BZF d   1       0.508   1.769   1.519  0.00  0.00    -0.107 A 
ATOM      5  C4  BZF d   1      -0.761   2.175   1.819  0.00  0.00     0.055 A 
ATOM      6  C5  BZF d   1      -0.957   2.999   2.881  0.00  0.00    -0.016 A 
ATOM      7  C6  BZF d   1       0.091   3.432   3.667  0.00  0.00     0.022 A 
ATOM      8  C7  BZF d   1       1.367   3.060   3.406  0.00  0.00     0.029 A 
ATOM      9  C7A BZF d   1       1.572   2.254   2.313  0.00  0.00     0.058 A 
ENDROOT
TORSDOF 0
ENDMDL
