MODEL 1
REMARK minimizedAffinity 3.58748603
REMARK minimizedRMSD -1
REMARK  0 active torsions:
REMARK  status: ('A' for Active; 'I' for Inactive)
ROOT
ATOM      1  O1  BZF d   1      -1.526   2.236   1.836  0.00  0.00    -0.204 OA
ATOM      2  C2  BZF d   1      -1.681   3.170   2.842  0.00  0.00     0.174 A 
ATOM      3  C3  BZF d   1      -0.489   3.492   3.384  0.00  0.00    -0.012 A 
ATOM      4  C3A BZF d   1       0.481   2.779   2.611  0.00  0.00    -0.107 A 
ATOM      5  C4  BZF d   1       1.844   2.702   2.654  0.00  0.00     0.055 A 
ATOM      6  C5  BZF d   1       2.485   1.857   1.804  0.00  0.00    -0.016 A 
ATOM      7  C6  BZF d   1       1.795   1.071   0.904  0.00  0.00     0.022 A 
ATOM      8  C7  BZF d   1       0.443   1.116   0.821  0.00  0.00     0.029 A 
ATOM      9  C7A BZF d   1      -0.205   1.994   1.656  0.00  0.00     0.058 A 
ENDROOT
TORSDOF 0
ENDMDL
