MODEL 1
REMARK minimizedAffinity 6.01089382
REMARK minimizedRMSD -1
REMARK  0 active torsions:
REMARK  status: ('A' for Active; 'I' for Inactive)
ROOT
ATOM      1  O1  BZF d   1       2.292   1.125   1.491  0.00  0.00    -0.204 OA
ATOM      2  C2  BZF d   1       1.784   0.276   0.527  0.00  0.00     0.174 A 
ATOM      3  C3  BZF d   1       0.454   0.453   0.387  0.00  0.00    -0.012 A 
ATOM      4  C3A BZF d   1       0.125   1.541   1.256  0.00  0.00    -0.107 A 
ATOM      5  C4  BZF d   1      -1.039   2.193   1.545  0.00  0.00     0.055 A 
ATOM      6  C5  BZF d   1      -1.034   3.165   2.494  0.00  0.00    -0.016 A 
ATOM      7  C6  BZF d   1       0.115   3.506   3.178  0.00  0.00     0.022 A 
ATOM      8  C7  BZF d   1       1.295   2.891   2.923  0.00  0.00     0.029 A 
ATOM      9  C7A BZF d   1       1.300   1.931   1.940  0.00  0.00     0.058 A 
ENDROOT
TORSDOF 0
ENDMDL
