MODEL 1
REMARK minimizedAffinity -1.69902802
REMARK minimizedRMSD -1
REMARK  0 active torsions:
REMARK  status: ('A' for Active; 'I' for Inactive)
ROOT
ATOM      1  O1  BZF d   1      -1.753   1.653   1.581  0.00  0.00    -0.204 OA
ATOM      2  C2  BZF d   1      -2.143   0.782   0.582  0.00  0.00     0.174 A 
ATOM      3  C3  BZF d   1      -1.069   0.250  -0.035  0.00  0.00    -0.012 A 
ATOM      4  C3A BZF d   1       0.064   0.753   0.680  0.00  0.00    -0.107 A 
ATOM      5  C4  BZF d   1       1.411   0.571   0.552  0.00  0.00     0.055 A 
ATOM      6  C5  BZF d   1       2.251   1.266   1.364  0.00  0.00    -0.016 A 
ATOM      7  C6  BZF d   1       1.779   2.153   2.309  0.00  0.00     0.022 A 
ATOM      8  C7  BZF d   1       0.451   2.363   2.476  0.00  0.00     0.029 A 
ATOM      9  C7A BZF d   1      -0.402   1.638   1.680  0.00  0.00     0.058 A 
ENDROOT
TORSDOF 0
ENDMDL
