MODEL 1
REMARK minimizedAffinity 8.19340801
REMARK minimizedRMSD -1
REMARK  0 active torsions:
REMARK  status: ('A' for Active; 'I' for Inactive)
ROOT
ATOM      1  O1  BZF d   1       0.701   2.038  -2.839  0.00  0.00    -0.204 OA
ATOM      2  C2  BZF d   1       1.956   1.732  -3.329  0.00  0.00     0.174 A 
ATOM      3  C3  BZF d   1       2.761   1.293  -2.339  0.00  0.00    -0.012 A 
ATOM      4  C3A BZF d   1       1.931   1.239  -1.175  0.00  0.00    -0.107 A 
ATOM      5  C4  BZF d   1       2.153   0.866   0.120  0.00  0.00     0.055 A 
ATOM      6  C5  BZF d   1       1.151   1.001   1.027  0.00  0.00    -0.016 A 
ATOM      7  C6  BZF d   1      -0.083   1.510   0.677  0.00  0.00     0.022 A 
ATOM      8  C7  BZF d   1      -0.352   1.889  -0.597  0.00  0.00     0.029 A 
ATOM      9  C7A BZF d   1       0.649   1.723  -1.523  0.00  0.00     0.058 A 
ENDROOT
TORSDOF 0
ENDMDL
