MODEL 1
REMARK minimizedAffinity 6.81001329
REMARK minimizedRMSD -1
REMARK  0 active torsions:
REMARK  status: ('A' for Active; 'I' for Inactive)
ROOT
ATOM      1  O1  BZF d   1       1.987  -5.715   4.768  0.00  0.00    -0.204 OA
ATOM      2  C2  BZF d   1       1.175  -5.636   5.884  0.00  0.00     0.174 A 
ATOM      3  C3  BZF d   1      -0.126  -5.633   5.529  0.00  0.00    -0.012 A 
ATOM      4  C3A BZF d   1      -0.129  -5.809   4.109  0.00  0.00    -0.107 A 
ATOM      5  C4  BZF d   1      -1.123  -5.905   3.177  0.00  0.00     0.055 A 
ATOM      6  C5  BZF d   1      -0.789  -5.999   1.863  0.00  0.00    -0.016 A 
ATOM      7  C6  BZF d   1       0.526  -5.997   1.446  0.00  0.00     0.022 A 
ATOM      8  C7  BZF d   1       1.546  -5.909   2.334  0.00  0.00     0.029 A 
ATOM      9  C7A BZF d   1       1.213  -5.847   3.665  0.00  0.00     0.058 A 
ENDROOT
TORSDOF 0
ENDMDL
