MODEL 1
REMARK minimizedAffinity 0.921684265
REMARK minimizedRMSD -1
REMARK  0 active torsions:
REMARK  status: ('A' for Active; 'I' for Inactive)
ROOT
ATOM      1  O1  BZF d   1      -0.469   1.780   2.373  0.00  0.00    -0.204 OA
ATOM      2  C2  BZF d   1      -0.330   2.704   3.389  0.00  0.00     0.174 A 
ATOM      3  C3  BZF d   1       0.958   3.084   3.517  0.00  0.00    -0.012 A 
ATOM      4  C3A BZF d   1       1.653   2.421   2.457  0.00  0.00    -0.107 A 
ATOM      5  C4  BZF d   1       2.957   2.411   2.051  0.00  0.00     0.055 A 
ATOM      6  C5  BZF d   1       3.323   1.600   1.024  0.00  0.00    -0.016 A 
ATOM      7  C6  BZF d   1       2.414   0.781   0.386  0.00  0.00     0.022 A 
ATOM      8  C7  BZF d   1       1.109   0.759   0.751  0.00  0.00     0.029 A 
ATOM      9  C7A BZF d   1       0.729   1.603   1.766  0.00  0.00     0.058 A 
ENDROOT
TORSDOF 0
ENDMDL
