MODEL 1
REMARK minimizedAffinity 2.22189283
REMARK minimizedRMSD -1
REMARK  0 active torsions:
REMARK  status: ('A' for Active; 'I' for Inactive)
ROOT
ATOM      1  O1  BZF d   1      -1.346   2.691   2.373  0.00  0.00    -0.204 OA
ATOM      2  C2  BZF d   1      -0.672   3.337   3.391  0.00  0.00     0.174 A 
ATOM      3  C3  BZF d   1       0.640   3.025   3.370  0.00  0.00    -0.012 A 
ATOM      4  C3A BZF d   1       0.812   2.201   2.213  0.00  0.00    -0.107 A 
ATOM      5  C4  BZF d   1       1.894   1.590   1.648  0.00  0.00     0.055 A 
ATOM      6  C5  BZF d   1       1.711   0.795   0.561  0.00  0.00    -0.016 A 
ATOM      7  C6  BZF d   1       0.461   0.586   0.017  0.00  0.00     0.022 A 
ATOM      8  C7  BZF d   1      -0.642   1.174   0.539  0.00  0.00     0.029 A 
ATOM      9  C7A BZF d   1      -0.456   2.004   1.618  0.00  0.00     0.058 A 
ENDROOT
TORSDOF 0
ENDMDL
