MODEL 1
REMARK minimizedAffinity 3.17308903
REMARK minimizedRMSD -1
REMARK  0 active torsions:
REMARK  status: ('A' for Active; 'I' for Inactive)
ROOT
ATOM      1  O1  BZF d   1       1.455   2.613   2.975  0.00  0.00    -0.204 OA
ATOM      2  C2  BZF d   1       0.236   2.880   3.567  0.00  0.00     0.174 A 
ATOM      3  C3  BZF d   1      -0.777   2.608   2.719  0.00  0.00    -0.012 A 
ATOM      4  C3A BZF d   1      -0.155   2.055   1.555  0.00  0.00    -0.107 A 
ATOM      5  C4  BZF d   1      -0.638   1.576   0.371  0.00  0.00     0.055 A 
ATOM      6  C5  BZF d   1       0.240   1.175  -0.586  0.00  0.00    -0.016 A 
ATOM      7  C6  BZF d   1       1.604   1.244  -0.395  0.00  0.00     0.022 A 
ATOM      8  C7  BZF d   1       2.130   1.708   0.765  0.00  0.00     0.029 A 
ATOM      9  C7A BZF d   1       1.246   2.083   1.747  0.00  0.00     0.058 A 
ENDROOT
TORSDOF 0
ENDMDL
