MODEL 1
REMARK minimizedAffinity 11.755827
REMARK minimizedRMSD -1
REMARK  0 active torsions:
REMARK  status: ('A' for Active; 'I' for Inactive)
ROOT
ATOM      1  O1  BZF d   1       2.472   1.505   2.117  0.00  0.00    -0.204 OA
ATOM      2  C2  BZF d   1       2.678   0.588   1.105  0.00  0.00     0.174 A 
ATOM      3  C3  BZF d   1       1.512   0.260   0.511  0.00  0.00    -0.012 A 
ATOM      4  C3A BZF d   1       0.527   1.090   1.133  0.00  0.00    -0.107 A 
ATOM      5  C4  BZF d   1      -0.820   1.239   0.962  0.00  0.00     0.055 A 
ATOM      6  C5  BZF d   1      -1.501   2.082   1.781  0.00  0.00    -0.016 A 
ATOM      7  C6  BZF d   1      -0.870   2.787   2.785  0.00  0.00     0.022 A 
ATOM      8  C7  BZF d   1       0.465   2.676   2.990  0.00  0.00     0.029 A 
ATOM      9  C7A BZF d   1       1.162   1.850   2.143  0.00  0.00     0.058 A 
ENDROOT
TORSDOF 0
ENDMDL
