MODEL 1
REMARK minimizedAffinity 7.57327271
REMARK minimizedRMSD -1
REMARK  0 active torsions:
REMARK  status: ('A' for Active; 'I' for Inactive)
ROOT
ATOM      1  C4' PXY d   1       2.223  -1.959   0.416  0.00  0.00     0.077 C 
ATOM      2  C1' PXY d   1       5.675   2.609   1.209  0.00  0.00     0.077 C 
ATOM      3  C1  PXY d   1       4.760   1.419   0.997  0.00  0.00    -0.082 A 
ATOM      4  C2  PXY d   1       4.944   0.318   1.707  0.00  0.00     0.003 A 
ATOM      5  C3  PXY d   1       4.146  -0.779   1.505  0.00  0.00     0.003 A 
ATOM      6  C4  PXY d   1       3.116  -0.730   0.604  0.00  0.00    -0.082 A 
ATOM      7  C5  PXY d   1       2.916   0.393  -0.117  0.00  0.00     0.003 A 
ATOM      8  C6  PXY d   1       3.763   1.482   0.073  0.00  0.00     0.003 A 
ENDROOT
TORSDOF 0
ENDMDL
