MODEL 1
REMARK minimizedAffinity 7.15158033
REMARK minimizedRMSD -1
REMARK  0 active torsions:
REMARK  status: ('A' for Active; 'I' for Inactive)
ROOT
ATOM      1  C4' PXY d   1       2.560   0.301   0.612  0.00  0.00     0.077 C 
ATOM      2  C1' PXY d   1       0.144   5.524   1.157  0.00  0.00     0.077 C 
ATOM      3  C1  PXY d   1       0.785   4.157   1.025  0.00  0.00    -0.082 A 
ATOM      4  C2  PXY d   1       0.870   3.586  -0.166  0.00  0.00     0.003 A 
ATOM      5  C3  PXY d   1       1.417   2.336  -0.298  0.00  0.00     0.003 A 
ATOM      6  C4  PXY d   1       1.930   1.685   0.791  0.00  0.00    -0.082 A 
ATOM      7  C5  PXY d   1       1.857   2.265   2.008  0.00  0.00     0.003 A 
ATOM      8  C6  PXY d   1       1.260   3.517   2.128  0.00  0.00     0.003 A 
ENDROOT
TORSDOF 0
ENDMDL
