MODEL 1
REMARK minimizedAffinity 15.2111378
REMARK minimizedRMSD -1
REMARK  0 active torsions:
REMARK  status: ('A' for Active; 'I' for Inactive)
ROOT
ATOM      1  C4' PXY d   1      -5.439   5.130   0.146  0.00  0.00     0.077 C 
ATOM      2  C1' PXY d   1      -5.926   4.450   5.866  0.00  0.00     0.077 C 
ATOM      3  C1  PXY d   1      -5.794   4.616   4.365  0.00  0.00    -0.082 A 
ATOM      4  C2  PXY d   1      -5.677   5.829   3.849  0.00  0.00     0.003 A 
ATOM      5  C3  PXY d   1      -5.588   5.999   2.491  0.00  0.00     0.003 A 
ATOM      6  C4  PXY d   1      -5.566   4.914   1.657  0.00  0.00    -0.082 A 
ATOM      7  C5  PXY d   1      -5.674   3.673   2.176  0.00  0.00     0.003 A 
ATOM      8  C6  PXY d   1      -5.804   3.524   3.554  0.00  0.00     0.003 A 
ENDROOT
TORSDOF 0
ENDMDL
