MODEL 1
REMARK minimizedAffinity 5.0950532
REMARK minimizedRMSD -1
REMARK  0 active torsions:
REMARK  status: ('A' for Active; 'I' for Inactive)
ROOT
ATOM      1  C4' PXY d   1      -5.993   5.967   5.983  0.00  0.00     0.077 C 
ATOM      2  C1' PXY d   1      -4.722   3.258   1.037  0.00  0.00     0.077 C 
ATOM      3  C1  PXY d   1      -5.046   3.977   2.332  0.00  0.00    -0.082 A 
ATOM      4  C2  PXY d   1      -5.594   3.307   3.333  0.00  0.00     0.003 A 
ATOM      5  C3  PXY d   1      -5.923   3.949   4.499  0.00  0.00     0.003 A 
ATOM      6  C4  PXY d   1      -5.640   5.279   4.661  0.00  0.00    -0.082 A 
ATOM      7  C5  PXY d   1      -5.072   5.967   3.648  0.00  0.00     0.003 A 
ATOM      8  C6  PXY d   1      -4.783   5.306   2.458  0.00  0.00     0.003 A 
ENDROOT
TORSDOF 0
ENDMDL
