MODEL 1
REMARK minimizedAffinity 3.49427962
REMARK minimizedRMSD -1
REMARK  0 active torsions:
REMARK  status: ('A' for Active; 'I' for Inactive)
ROOT
ATOM      1  C4' PXY d   1      -0.332   4.545   0.735  0.00  0.00     0.077 C 
ATOM      2  C1' PXY d   1      -5.999   5.311   1.576  0.00  0.00     0.077 C 
ATOM      3  C1  PXY d   1      -4.511   5.120   1.364  0.00  0.00    -0.082 A 
ATOM      4  C2  PXY d   1      -4.076   4.558   0.248  0.00  0.00     0.003 A 
ATOM      5  C3  PXY d   1      -2.735   4.349   0.053  0.00  0.00     0.003 A 
ATOM      6  C4  PXY d   1      -1.826   4.767   0.988  0.00  0.00    -0.082 A 
ATOM      7  C5  PXY d   1      -2.261   5.350   2.125  0.00  0.00     0.003 A 
ATOM      8  C6  PXY d   1      -3.629   5.517   2.321  0.00  0.00     0.003 A 
ENDROOT
TORSDOF 0
ENDMDL
