MODEL 1
REMARK minimizedAffinity 8.11603928
REMARK minimizedRMSD -1
REMARK  0 active torsions:
REMARK  status: ('A' for Active; 'I' for Inactive)
ROOT
ATOM      1  C4' PXY d   1       5.215   3.242   1.629  0.00  0.00     0.077 C 
ATOM      2  C1' PXY d   1       1.047   1.983   5.431  0.00  0.00     0.077 C 
ATOM      3  C1  PXY d   1       2.145   2.323   4.441  0.00  0.00    -0.082 A 
ATOM      4  C2  PXY d   1       2.000   1.999   3.167  0.00  0.00     0.003 A 
ATOM      5  C3  PXY d   1       2.996   2.270   2.264  0.00  0.00     0.003 A 
ATOM      6  C4  PXY d   1       4.129   2.927   2.661  0.00  0.00    -0.082 A 
ATOM      7  C5  PXY d   1       4.280   3.271   3.958  0.00  0.00     0.003 A 
ATOM      8  C6  PXY d   1       3.275   2.950   4.865  0.00  0.00     0.003 A 
ENDROOT
TORSDOF 0
ENDMDL
