MODEL 1
REMARK minimizedAffinity 13.9003353
REMARK minimizedRMSD -1
REMARK  0 active torsions:
REMARK  status: ('A' for Active; 'I' for Inactive)
ROOT
ATOM      1  C4' PXY d   1       5.558   4.164  -1.109  0.00  0.00     0.077 C 
ATOM      2  C1' PXY d   1       2.625  -0.657   0.142  0.00  0.00     0.077 C 
ATOM      3  C1  PXY d   1       3.387   0.614  -0.178  0.00  0.00    -0.082 A 
ATOM      4  C2  PXY d   1       4.034   0.717  -1.327  0.00  0.00     0.003 A 
ATOM      5  C3  PXY d   1       4.754   1.847  -1.619  0.00  0.00     0.003 A 
ATOM      6  C4  PXY d   1       4.768   2.904  -0.748  0.00  0.00    -0.082 A 
ATOM      7  C5  PXY d   1       4.101   2.811   0.422  0.00  0.00     0.003 A 
ATOM      8  C6  PXY d   1       3.410   1.639   0.717  0.00  0.00     0.003 A 
ENDROOT
TORSDOF 0
ENDMDL
