MODEL 1
REMARK minimizedAffinity 1.1183641
REMARK minimizedRMSD -1
REMARK  0 active torsions:
REMARK  status: ('A' for Active; 'I' for Inactive)
ROOT
ATOM      1  C4' PXY d   1       5.759   3.746   1.494  0.00  0.00     0.077 C 
ATOM      2  C1' PXY d   1       1.642   0.272  -0.603  0.00  0.00     0.077 C 
ATOM      3  C1  PXY d   1       2.730   1.178  -0.061  0.00  0.00    -0.082 A 
ATOM      4  C2  PXY d   1       2.613   1.686   1.155  0.00  0.00     0.003 A 
ATOM      5  C3  PXY d   1       3.573   2.532   1.648  0.00  0.00     0.003 A 
ATOM      6  C4  PXY d   1       4.689   2.819   0.910  0.00  0.00    -0.082 A 
ATOM      7  C5  PXY d   1       4.821   2.296  -0.328  0.00  0.00     0.003 A 
ATOM      8  C6  PXY d   1       3.816   1.472  -0.826  0.00  0.00     0.003 A 
ENDROOT
TORSDOF 0
ENDMDL
