MODEL 1
REMARK minimizedAffinity 7.00718021
REMARK minimizedRMSD -1
REMARK  0 active torsions:
REMARK  status: ('A' for Active; 'I' for Inactive)
ROOT
ATOM      1  C4' PXY d   1       4.535   2.673   1.760  0.00  0.00     0.077 C 
ATOM      2  C1' PXY d   1       1.814  -1.027  -1.750  0.00  0.00     0.077 C 
ATOM      3  C1  PXY d   1       2.537  -0.055  -0.839  0.00  0.00    -0.082 A 
ATOM      4  C2  PXY d   1       2.399  -0.161   0.473  0.00  0.00     0.003 A 
ATOM      5  C3  PXY d   1       3.019   0.730   1.310  0.00  0.00     0.003 A 
ATOM      6  C4  PXY d   1       3.832   1.707   0.802  0.00  0.00    -0.082 A 
ATOM      7  C5  PXY d   1       3.987   1.816  -0.534  0.00  0.00     0.003 A 
ATOM      8  C6  PXY d   1       3.315   0.927  -1.369  0.00  0.00     0.003 A 
ENDROOT
TORSDOF 0
ENDMDL
