MODEL 1
REMARK minimizedAffinity 4.14782047
REMARK minimizedRMSD -1
REMARK  0 active torsions:
REMARK  status: ('A' for Active; 'I' for Inactive)
ROOT
ATOM      1  C4' PXY d   1       0.077  -0.904   3.366  0.00  0.00     0.077 C 
ATOM      2  C1' PXY d   1      -0.883  -5.983   5.953  0.00  0.00     0.077 C 
ATOM      3  C1  PXY d   1      -0.626  -4.646   5.286  0.00  0.00    -0.082 A 
ATOM      4  C2  PXY d   1      -1.300  -4.320   4.195  0.00  0.00     0.003 A 
ATOM      5  C3  PXY d   1      -1.058  -3.128   3.561  0.00  0.00     0.003 A 
ATOM      6  C4  PXY d   1      -0.155  -2.239   4.078  0.00  0.00    -0.082 A 
ATOM      7  C5  PXY d   1       0.529  -2.560   5.197  0.00  0.00     0.003 A 
ATOM      8  C6  PXY d   1       0.298  -3.792   5.802  0.00  0.00     0.003 A 
ENDROOT
TORSDOF 0
ENDMDL
