MODEL 1
REMARK minimizedAffinity 9.80040455
REMARK minimizedRMSD -1
REMARK  1 active torsions:
REMARK  status: ('A' for Active; 'I' for Inactive)
REMARK    1  A    between atoms: C1_2  and  C2_3 
ROOT
ATOM      1  C2  UNL d   1       4.752   3.415  -1.916  0.00  0.00    -0.076 A 
ATOM      2  C3  UNL d   1       4.744   2.265  -1.108  0.00  0.00     0.004 A 
ATOM      3  C4  UNL d   1       5.362   2.262   0.142  0.00  0.00    -0.003 A 
ATOM      4  C5  UNL d   1       5.997   3.409   0.604  0.00  0.00     0.000 A 
ATOM      5  C6  UNL d   1       6.000   4.564  -0.177  0.00  0.00     0.000 A 
ATOM      6  C7  UNL d   1       5.368   4.589  -1.432  0.00  0.00    -0.073 A 
ATOM      7  C8  UNL d   1       5.407   5.861  -2.234  0.00  0.00     0.078 C 
ENDROOT
BRANCH   1   8
ATOM      8  C1  UNL d   1       4.090   3.351  -3.273  0.00  0.00     0.053 C 
ATOM      9  C   UNL d   1       2.610   3.010  -3.184  0.00  0.00     0.018 C 
ENDBRANCH   1   8
TORSDOF 1
ENDMDL
