MODEL 1
REMARK minimizedAffinity 15.5834866
REMARK minimizedRMSD -1
REMARK  1 active torsions:
REMARK  status: ('A' for Active; 'I' for Inactive)
REMARK    1  A    between atoms: C1_2  and  C2_3 
ROOT
ATOM      1  C2  UNL d   1      -1.657   0.631   0.626  0.00  0.00    -0.076 A 
ATOM      2  C3  UNL d   1      -0.493   1.418   0.676  0.00  0.00     0.004 A 
ATOM      3  C4  UNL d   1      -0.501   2.741   0.237  0.00  0.00    -0.003 A 
ATOM      4  C5  UNL d   1      -1.674   3.299  -0.258  0.00  0.00     0.000 A 
ATOM      5  C6  UNL d   1      -2.842   2.539  -0.299  0.00  0.00     0.000 A 
ATOM      6  C7  UNL d   1      -2.855   1.209   0.155  0.00  0.00    -0.073 A 
ATOM      7  C8  UNL d   1      -4.142   0.434   0.083  0.00  0.00     0.078 C 
ENDROOT
BRANCH   1   8
ATOM      8  C1  UNL d   1      -1.581  -0.805   1.090  0.00  0.00     0.053 C 
ATOM      9  C   UNL d   1      -0.150  -1.312   1.187  0.00  0.00     0.018 C 
ENDBRANCH   1   8
TORSDOF 1
ENDMDL
