MODEL 1
REMARK minimizedAffinity 8.66505527
REMARK minimizedRMSD -1
REMARK  1 active torsions:
REMARK  status: ('A' for Active; 'I' for Inactive)
REMARK    1  A    between atoms: C1_2  and  C2_3 
ROOT
ATOM      1  C2  UNL d   1      -4.443   0.069   4.682  0.00  0.00    -0.076 A 
ATOM      2  C3  UNL d   1      -4.493   0.762   3.460  0.00  0.00     0.004 A 
ATOM      3  C4  UNL d   1      -4.928   0.132   2.295  0.00  0.00    -0.003 A 
ATOM      4  C5  UNL d   1      -5.321  -1.201   2.333  0.00  0.00     0.000 A 
ATOM      5  C6  UNL d   1      -5.294  -1.899   3.540  0.00  0.00     0.000 A 
ATOM      6  C7  UNL d   1      -4.874  -1.274   4.727  0.00  0.00    -0.073 A 
ATOM      7  C8  UNL d   1      -4.859  -2.077   5.999  0.00  0.00     0.078 C 
ENDROOT
BRANCH   1   8
ATOM      8  C1  UNL d   1      -3.937   0.796   5.907  0.00  0.00     0.053 C 
ATOM      9  C   UNL d   1      -2.460   1.147   5.808  0.00  0.00     0.018 C 
ENDBRANCH   1   8
TORSDOF 1
ENDMDL
