MODEL 1
REMARK minimizedAffinity 12.0117064
REMARK minimizedRMSD -1
REMARK  1 active torsions:
REMARK  status: ('A' for Active; 'I' for Inactive)
REMARK    1  A    between atoms: C1_2  and  C2_3 
ROOT
ATOM      1  C2  UNL d   1       3.125  -3.045   0.534  0.00  0.00    -0.076 A 
ATOM      2  C3  UNL d   1       3.191  -4.447   0.614  0.00  0.00     0.004 A 
ATOM      3  C4  UNL d   1       4.132  -5.164  -0.124  0.00  0.00    -0.003 A 
ATOM      4  C5  UNL d   1       5.021  -4.490  -0.954  0.00  0.00     0.000 A 
ATOM      5  C6  UNL d   1       4.981  -3.098  -1.032  0.00  0.00     0.000 A 
ATOM      6  C7  UNL d   1       4.050  -2.360  -0.282  0.00  0.00    -0.073 A 
ATOM      7  C8  UNL d   1       4.048  -0.861  -0.409  0.00  0.00     0.078 C 
ENDROOT
BRANCH   1   8
ATOM      8  C1  UNL d   1       2.067  -2.323   1.337  0.00  0.00     0.053 C 
ATOM      9  C   UNL d   1       2.645  -1.589   2.537  0.00  0.00     0.018 C 
ENDBRANCH   1   8
TORSDOF 1
ENDMDL
