MODEL 1
REMARK minimizedAffinity 16.4402313
REMARK minimizedRMSD -1
REMARK  1 active torsions:
REMARK  status: ('A' for Active; 'I' for Inactive)
REMARK    1  A    between atoms: C1_2  and  C2_3 
ROOT
ATOM      1  C2  UNL d   1       0.266   3.652  -2.795  0.00  0.00    -0.076 A 
ATOM      2  C3  UNL d   1       0.585   2.288  -2.917  0.00  0.00     0.004 A 
ATOM      3  C4  UNL d   1       1.830   1.804  -2.520  0.00  0.00    -0.003 A 
ATOM      4  C5  UNL d   1       2.777   2.675  -1.993  0.00  0.00     0.000 A 
ATOM      5  C6  UNL d   1       2.471   4.028  -1.848  0.00  0.00     0.000 A 
ATOM      6  C7  UNL d   1       1.215   4.530  -2.228  0.00  0.00    -0.073 A 
ATOM      7  C8  UNL d   1       0.942   5.999  -2.055  0.00  0.00     0.078 C 
ENDROOT
BRANCH   1   8
ATOM      8  C1  UNL d   1      -1.090   4.124  -3.267  0.00  0.00     0.053 C 
ATOM      9  C   UNL d   1      -1.217   4.108  -4.783  0.00  0.00     0.018 C 
ENDBRANCH   1   8
TORSDOF 1
ENDMDL
