MODEL 1
REMARK minimizedAffinity 21.7211971
REMARK minimizedRMSD -1
REMARK  1 active torsions:
REMARK  status: ('A' for Active; 'I' for Inactive)
REMARK    1  A    between atoms: C1_2  and  C2_3 
ROOT
ATOM      1  C2  UNL d   1      -5.066  -5.183   3.589  0.00  0.00    -0.076 A 
ATOM      2  C3  UNL d   1      -5.001  -5.996   4.734  0.00  0.00     0.004 A 
ATOM      3  C4  UNL d   1      -4.391  -5.542   5.903  0.00  0.00    -0.003 A 
ATOM      4  C5  UNL d   1      -3.838  -4.267   5.945  0.00  0.00     0.000 A 
ATOM      5  C6  UNL d   1      -3.910  -3.440   4.824  0.00  0.00     0.000 A 
ATOM      6  C7  UNL d   1      -4.535  -3.877   3.643  0.00  0.00    -0.073 A 
ATOM      7  C8  UNL d   1      -4.578  -2.946   2.463  0.00  0.00     0.078 C 
ENDROOT
BRANCH   1   8
ATOM      8  C1  UNL d   1      -5.716  -5.740   2.342  0.00  0.00     0.053 C 
ATOM      9  C   UNL d   1      -5.302  -4.990   1.085  0.00  0.00     0.018 C 
ENDBRANCH   1   8
TORSDOF 1
ENDMDL
