MODEL 1
REMARK minimizedAffinity 22.7334824
REMARK minimizedRMSD -1
REMARK  1 active torsions:
REMARK  status: ('A' for Active; 'I' for Inactive)
REMARK    1  A    between atoms: C1_2  and  C2_3 
ROOT
ATOM      1  C2  UNL d   1      -1.000  -0.478   2.530  0.00  0.00    -0.076 A 
ATOM      2  C3  UNL d   1       0.384  -0.584   2.757  0.00  0.00     0.004 A 
ATOM      3  C4  UNL d   1       1.103  -1.686   2.297  0.00  0.00    -0.003 A 
ATOM      4  C5  UNL d   1       0.451  -2.699   1.602  0.00  0.00     0.000 A 
ATOM      5  C6  UNL d   1      -0.918  -2.601   1.353  0.00  0.00     0.000 A 
ATOM      6  C7  UNL d   1      -1.655  -1.489   1.796  0.00  0.00    -0.073 A 
ATOM      7  C8  UNL d   1      -3.130  -1.438   1.505  0.00  0.00     0.078 C 
ENDROOT
BRANCH   1   8
ATOM      8  C1  UNL d   1      -1.732   0.727   3.076  0.00  0.00     0.053 C 
ATOM      9  C   UNL d   1      -1.734   0.768   4.597  0.00  0.00     0.018 C 
ENDBRANCH   1   8
TORSDOF 1
ENDMDL
