MODEL 1
REMARK minimizedAffinity 22.9825859
REMARK minimizedRMSD -1
REMARK  1 active torsions:
REMARK  status: ('A' for Active; 'I' for Inactive)
REMARK    1  A    between atoms: C1_2  and  C2_3 
ROOT
ATOM      1  C2  UNL d   1       3.568   2.730  -3.295  0.00  0.00    -0.076 A 
ATOM      2  C3  UNL d   1       4.175   3.246  -2.137  0.00  0.00     0.004 A 
ATOM      3  C4  UNL d   1       5.380   3.943  -2.209  0.00  0.00    -0.003 A 
ATOM      4  C5  UNL d   1       5.997   4.135  -3.440  0.00  0.00     0.000 A 
ATOM      5  C6  UNL d   1       5.400   3.644  -4.601  0.00  0.00     0.000 A 
ATOM      6  C7  UNL d   1       4.177   2.954  -4.548  0.00  0.00    -0.073 A 
ATOM      7  C8  UNL d   1       3.581   2.441  -5.830  0.00  0.00     0.078 C 
ENDROOT
BRANCH   1   8
ATOM      8  C1  UNL d   1       2.275   1.959  -3.152  0.00  0.00     0.053 C 
ATOM      9  C   UNL d   1       2.165   1.249  -1.812  0.00  0.00     0.018 C 
ENDBRANCH   1   8
TORSDOF 1
ENDMDL
