MODEL 1
REMARK minimizedAffinity 5.94114876
REMARK minimizedRMSD -1
REMARK  1 active torsions:
REMARK  status: ('A' for Active; 'I' for Inactive)
REMARK    1  A    between atoms: C1_2  and  C2_3 
ROOT
ATOM      1  C2  UNL d   1       3.171  -0.925  -0.003  0.00  0.00    -0.076 A 
ATOM      2  C3  UNL d   1       3.997  -1.346  -1.059  0.00  0.00     0.004 A 
ATOM      3  C4  UNL d   1       4.298  -2.695  -1.241  0.00  0.00    -0.003 A 
ATOM      4  C5  UNL d   1       3.776  -3.645  -0.370  0.00  0.00     0.000 A 
ATOM      5  C6  UNL d   1       2.940  -3.246   0.673  0.00  0.00     0.000 A 
ATOM      6  C7  UNL d   1       2.614  -1.892   0.860  0.00  0.00    -0.073 A 
ATOM      7  C8  UNL d   1       1.713  -1.518   2.005  0.00  0.00     0.078 C 
ENDROOT
BRANCH   1   8
ATOM      8  C1  UNL d   1       2.902   0.554   0.160  0.00  0.00     0.053 C 
ATOM      9  C   UNL d   1       2.209   1.158  -1.051  0.00  0.00     0.018 C 
ENDBRANCH   1   8
TORSDOF 1
ENDMDL
