MODEL 1
REMARK minimizedAffinity 11.1923332
REMARK minimizedRMSD -1
REMARK  1 active torsions:
REMARK  status: ('A' for Active; 'I' for Inactive)
REMARK    1  A    between atoms: C1_2  and  C2_3 
ROOT
ATOM      1  C2  UNL d   1       0.858  -4.603  -1.510  0.00  0.00    -0.076 A 
ATOM      2  C3  UNL d   1       1.081  -4.801  -2.884  0.00  0.00     0.004 A 
ATOM      3  C4  UNL d   1       0.029  -4.747  -3.797  0.00  0.00    -0.003 A 
ATOM      4  C5  UNL d   1      -1.263  -4.493  -3.351  0.00  0.00     0.000 A 
ATOM      5  C6  UNL d   1      -1.500  -4.276  -1.994  0.00  0.00     0.000 A 
ATOM      6  C7  UNL d   1      -0.448  -4.311  -1.062  0.00  0.00    -0.073 A 
ATOM      7  C8  UNL d   1      -0.762  -4.075   0.390  0.00  0.00     0.078 C 
ENDROOT
BRANCH   1   8
ATOM      8  C1  UNL d   1       2.033  -4.700  -0.564  0.00  0.00     0.053 C 
ATOM      9  C   UNL d   1       3.252  -3.943  -1.069  0.00  0.00     0.018 C 
ENDBRANCH   1   8
TORSDOF 1
ENDMDL
