MODEL 1
REMARK minimizedAffinity 11.9304647
REMARK minimizedRMSD -1
REMARK  1 active torsions:
REMARK  status: ('A' for Active; 'I' for Inactive)
REMARK    1  A    between atoms: C1_2  and  C2_3 
ROOT
ATOM      1  C2  UNL d   1       0.182  -0.860   1.576  0.00  0.00    -0.076 A 
ATOM      2  C3  UNL d   1      -0.755   0.146   1.867  0.00  0.00     0.004 A 
ATOM      3  C4  UNL d   1      -2.121  -0.132   1.898  0.00  0.00    -0.003 A 
ATOM      4  C5  UNL d   1      -2.571  -1.422   1.640  0.00  0.00     0.000 A 
ATOM      5  C6  UNL d   1      -1.654  -2.437   1.367  0.00  0.00     0.000 A 
ATOM      6  C7  UNL d   1      -0.273  -2.177   1.348  0.00  0.00    -0.073 A 
ATOM      7  C8  UNL d   1       0.670  -3.307   1.042  0.00  0.00     0.078 C 
ENDROOT
BRANCH   1   8
ATOM      8  C1  UNL d   1       1.648  -0.493   1.530  0.00  0.00     0.053 C 
ATOM      9  C   UNL d   1       1.884   0.892   0.948  0.00  0.00     0.018 C 
ENDBRANCH   1   8
TORSDOF 1
ENDMDL
