MODEL 1
REMARK minimizedAffinity -4.42290497
REMARK minimizedRMSD -1
REMARK  1 active torsions:
REMARK  status: ('A' for Active; 'I' for Inactive)
REMARK    1  A    between atoms: C1_2  and  C2_3 
ROOT
ATOM      1  C2  UNL d   1       0.152   0.216  -0.202  0.00  0.00    -0.076 A 
ATOM      2  C3  UNL d   1       1.332  -0.522  -0.006  0.00  0.00     0.004 A 
ATOM      3  C4  UNL d   1       1.303  -1.770   0.614  0.00  0.00    -0.003 A 
ATOM      4  C5  UNL d   1       0.093  -2.300   1.049  0.00  0.00     0.000 A 
ATOM      5  C6  UNL d   1      -1.089  -1.590   0.848  0.00  0.00     0.000 A 
ATOM      6  C7  UNL d   1      -1.080  -0.338   0.209  0.00  0.00    -0.073 A 
ATOM      7  C8  UNL d   1      -2.385   0.388   0.023  0.00  0.00     0.078 C 
ENDROOT
BRANCH   1   8
ATOM      8  C1  UNL d   1       0.248   1.576  -0.856  0.00  0.00     0.053 C 
ATOM      9  C   UNL d   1       1.599   1.812  -1.512  0.00  0.00     0.018 C 
ENDBRANCH   1   8
TORSDOF 1
ENDMDL
