MODEL 1
REMARK minimizedAffinity -0.076423116
REMARK minimizedRMSD -1
REMARK  1 active torsions:
REMARK  status: ('A' for Active; 'I' for Inactive)
REMARK    1  A    between atoms: C1_2  and  C2_3 
ROOT
ATOM      1  C2  UNL d   1      -0.928  -0.936   1.833  0.00  0.00    -0.076 A 
ATOM      2  C3  UNL d   1      -0.020  -1.969   1.541  0.00  0.00     0.004 A 
ATOM      3  C4  UNL d   1       0.963  -1.806   0.566  0.00  0.00    -0.003 A 
ATOM      4  C5  UNL d   1       1.054  -0.607  -0.132  0.00  0.00     0.000 A 
ATOM      5  C6  UNL d   1       0.173   0.435   0.157  0.00  0.00     0.000 A 
ATOM      6  C7  UNL d   1      -0.813   0.292   1.148  0.00  0.00    -0.073 A 
ATOM      7  C8  UNL d   1      -1.740   1.446   1.415  0.00  0.00     0.078 C 
ENDROOT
BRANCH   1   8
ATOM      8  C1  UNL d   1      -1.989  -1.181   2.882  0.00  0.00     0.053 C 
ATOM      9  C   UNL d   1      -2.640  -2.549   2.745  0.00  0.00     0.018 C 
ENDBRANCH   1   8
TORSDOF 1
ENDMDL
