MODEL 1
REMARK minimizedAffinity -0.864599943
REMARK minimizedRMSD -1
REMARK  0 active torsions:
REMARK  status: ('A' for Active; 'I' for Inactive)
ROOT
ATOM      1  C1  DEN d   1      -5.980  -1.318  -2.492  0.00  0.00     0.130 A 
ATOM      2  C2  DEN d   1      -5.999   0.040  -3.030  0.00  0.00    -0.031 A 
ATOM      3  C3  DEN d   1      -5.997  -0.053  -4.504  0.00  0.00     0.027 A 
ATOM      4  C4  DEN d   1      -5.972  -2.156  -5.997  0.00  0.00     0.027 A 
ATOM      5  C5  DEN d   1      -5.941  -3.533  -5.996  0.00  0.00    -0.003 A 
ATOM      6  C6  DEN d   1      -5.888  -4.261  -4.838  0.00  0.00     0.001 A 
ATOM      7  C7  DEN d   1      -5.909  -3.617  -3.629  0.00  0.00     0.017 A 
ATOM      8  C8  DEN d   1      -5.932  -2.228  -3.622  0.00  0.00    -0.094 A 
ATOM      9  C9  DEN d   1      -5.998  -1.510  -4.804  0.00  0.00    -0.072 A 
ENDROOT
TORSDOF 0
ENDMDL
