MODEL 1
REMARK minimizedAffinity 0.362719595
REMARK minimizedRMSD -1
REMARK  0 active torsions:
REMARK  status: ('A' for Active; 'I' for Inactive)
ROOT
ATOM      1  C1  DEN d   1      -3.720  -3.356  -3.664  0.00  0.00     0.130 A 
ATOM      2  C2  DEN d   1      -4.471  -3.017  -4.869  0.00  0.00    -0.031 A 
ATOM      3  C3  DEN d   1      -3.881  -3.761  -5.999  0.00  0.00     0.027 A 
ATOM      4  C4  DEN d   1      -1.892  -5.403  -6.000  0.00  0.00     0.027 A 
ATOM      5  C5  DEN d   1      -0.928  -5.999  -5.216  0.00  0.00    -0.003 A 
ATOM      6  C6  DEN d   1      -0.808  -5.733  -3.878  0.00  0.00     0.001 A 
ATOM      7  C7  DEN d   1      -1.693  -4.881  -3.273  0.00  0.00     0.017 A 
ATOM      8  C8  DEN d   1      -2.662  -4.270  -4.058  0.00  0.00    -0.094 A 
ATOM      9  C9  DEN d   1      -2.776  -4.561  -5.406  0.00  0.00    -0.072 A 
ENDROOT
TORSDOF 0
ENDMDL
