MODEL 1
REMARK minimizedAffinity -3.2396028
REMARK minimizedRMSD -1
REMARK  0 active torsions:
REMARK  status: ('A' for Active; 'I' for Inactive)
ROOT
ATOM      1  C1  DEN d   1      -1.902  -3.946  -4.993  0.00  0.00     0.130 A 
ATOM      2  C2  DEN d   1      -1.417  -5.229  -5.495  0.00  0.00    -0.031 A 
ATOM      3  C3  DEN d   1      -2.581  -6.000  -5.977  0.00  0.00     0.027 A 
ATOM      4  C4  DEN d   1      -5.072  -5.333  -6.000  0.00  0.00     0.027 A 
ATOM      5  C5  DEN d   1      -5.973  -4.345  -5.668  0.00  0.00    -0.003 A 
ATOM      6  C6  DEN d   1      -5.588  -3.179  -5.062  0.00  0.00     0.001 A 
ATOM      7  C7  DEN d   1      -4.260  -2.952  -4.810  0.00  0.00     0.017 A 
ATOM      8  C8  DEN d   1      -3.347  -3.946  -5.135  0.00  0.00    -0.094 A 
ATOM      9  C9  DEN d   1      -3.755  -5.113  -5.758  0.00  0.00    -0.072 A 
ENDROOT
TORSDOF 0
ENDMDL
