MODEL 1
REMARK minimizedAffinity -2.57339764
REMARK minimizedRMSD -1
REMARK  0 active torsions:
REMARK  status: ('A' for Active; 'I' for Inactive)
ROOT
ATOM      1  C1  DEN d   1      -2.161  -3.766  -5.171  0.00  0.00     0.130 A 
ATOM      2  C2  DEN d   1      -1.366  -4.922  -5.578  0.00  0.00    -0.031 A 
ATOM      3  C3  DEN d   1      -2.296  -6.000  -5.971  0.00  0.00     0.027 A 
ATOM      4  C4  DEN d   1      -4.876  -5.989  -5.994  0.00  0.00     0.027 A 
ATOM      5  C5  DEN d   1      -5.997  -5.237  -5.723  0.00  0.00    -0.003 A 
ATOM      6  C6  DEN d   1      -5.920  -3.965  -5.221  0.00  0.00     0.001 A 
ATOM      7  C7  DEN d   1      -4.694  -3.389  -5.016  0.00  0.00     0.017 A 
ATOM      8  C8  DEN d   1      -3.558  -4.144  -5.281  0.00  0.00    -0.094 A 
ATOM      9  C9  DEN d   1      -3.657  -5.424  -5.799  0.00  0.00    -0.072 A 
ENDROOT
TORSDOF 0
ENDMDL
