MODEL 1
REMARK minimizedAffinity 2.9167316
REMARK minimizedRMSD -1
REMARK  0 active torsions:
REMARK  status: ('A' for Active; 'I' for Inactive)
ROOT
ATOM      1  C1  DEN d   1      -2.608  -3.275  -5.999  0.00  0.00     0.130 A 
ATOM      2  C2  DEN d   1      -2.492  -4.640  -5.492  0.00  0.00    -0.031 A 
ATOM      3  C3  DEN d   1      -3.542  -4.839  -4.473  0.00  0.00     0.027 A 
ATOM      4  C4  DEN d   1      -5.330  -3.178  -3.640  0.00  0.00     0.027 A 
ATOM      5  C5  DEN d   1      -5.818  -1.896  -3.767  0.00  0.00    -0.003 A 
ATOM      6  C6  DEN d   1      -5.253  -0.981  -4.615  0.00  0.00     0.001 A 
ATOM      7  C7  DEN d   1      -4.194  -1.349  -5.403  0.00  0.00     0.017 A 
ATOM      8  C8  DEN d   1      -3.693  -2.637  -5.275  0.00  0.00    -0.094 A 
ATOM      9  C9  DEN d   1      -4.285  -3.552  -4.421  0.00  0.00    -0.072 A 
ENDROOT
TORSDOF 0
ENDMDL
