MODEL 1
REMARK minimizedAffinity -1.25238752
REMARK minimizedRMSD -1
REMARK  0 active torsions:
REMARK  status: ('A' for Active; 'I' for Inactive)
ROOT
ATOM      1  C1  DEN d   1      -1.982  -4.203  -5.997  0.00  0.00     0.130 A 
ATOM      2  C2  DEN d   1      -2.109  -5.657  -5.954  0.00  0.00    -0.031 A 
ATOM      3  C3  DEN d   1      -3.548  -5.989  -5.934  0.00  0.00     0.027 A 
ATOM      4  C4  DEN d   1      -5.580  -4.401  -5.969  0.00  0.00     0.027 A 
ATOM      5  C5  DEN d   1      -5.973  -3.081  -5.993  0.00  0.00    -0.003 A 
ATOM      6  C6  DEN d   1      -5.071  -2.051  -5.986  0.00  0.00     0.001 A 
ATOM      7  C7  DEN d   1      -3.729  -2.324  -6.000  0.00  0.00     0.017 A 
ATOM      8  C8  DEN d   1      -3.325  -3.652  -5.968  0.00  0.00    -0.094 A 
ATOM      9  C9  DEN d   1      -4.252  -4.680  -5.988  0.00  0.00    -0.072 A 
ENDROOT
TORSDOF 0
ENDMDL
