MODEL 1
REMARK minimizedAffinity -2.99235177
REMARK minimizedRMSD -1
REMARK  0 active torsions:
REMARK  status: ('A' for Active; 'I' for Inactive)
ROOT
ATOM      1  C1  DEN d   1      -3.059  -6.000  -4.818  0.00  0.00     0.130 A 
ATOM      2  C2  DEN d   1      -2.345  -5.647  -3.593  0.00  0.00    -0.031 A 
ATOM      3  C3  DEN d   1      -3.007  -4.465  -3.004  0.00  0.00     0.027 A 
ATOM      4  C4  DEN d   1      -5.058  -3.158  -3.863  0.00  0.00     0.027 A 
ATOM      5  C5  DEN d   1      -5.996  -3.075  -4.868  0.00  0.00    -0.003 A 
ATOM      6  C6  DEN d   1      -6.000  -3.933  -5.936  0.00  0.00     0.001 A 
ATOM      7  C7  DEN d   1      -5.074  -4.941  -6.000  0.00  0.00     0.017 A 
ATOM      8  C8  DEN d   1      -4.121  -5.026  -4.994  0.00  0.00    -0.094 A 
ATOM      9  C9  DEN d   1      -4.141  -4.157  -3.917  0.00  0.00    -0.072 A 
ENDROOT
TORSDOF 0
ENDMDL
