MODEL 1
REMARK minimizedAffinity -1.18802166
REMARK minimizedRMSD -1
REMARK  0 active torsions:
REMARK  status: ('A' for Active; 'I' for Inactive)
ROOT
ATOM      1  C1  DEN d   1      -2.552  -6.000  -5.886  0.00  0.00     0.130 A 
ATOM      2  C2  DEN d   1      -1.405  -5.337  -5.272  0.00  0.00    -0.031 A 
ATOM      3  C3  DEN d   1      -1.889  -4.115  -4.600  0.00  0.00     0.027 A 
ATOM      4  C4  DEN d   1      -4.293  -3.192  -4.446  0.00  0.00     0.027 A 
ATOM      5  C5  DEN d   1      -5.602  -3.401  -4.820  0.00  0.00    -0.003 A 
ATOM      6  C6  DEN d   1      -5.978  -4.464  -5.598  0.00  0.00     0.001 A 
ATOM      7  C7  DEN d   1      -5.041  -5.384  -5.989  0.00  0.00     0.017 A 
ATOM      8  C8  DEN d   1      -3.718  -5.175  -5.622  0.00  0.00    -0.094 A 
ATOM      9  C9  DEN d   1      -3.360  -4.101  -4.825  0.00  0.00    -0.072 A 
ENDROOT
TORSDOF 0
ENDMDL
