MODEL 1
REMARK minimizedAffinity 0.781029224
REMARK minimizedRMSD -1
REMARK  0 active torsions:
REMARK  status: ('A' for Active; 'I' for Inactive)
ROOT
ATOM      1  C1  DEN d   1      -3.543  -4.304  -6.000  0.00  0.00     0.130 A 
ATOM      2  C2  DEN d   1      -4.971  -4.524  -5.788  0.00  0.00    -0.031 A 
ATOM      3  C3  DEN d   1      -5.140  -5.216  -4.494  0.00  0.00     0.027 A 
ATOM      4  C4  DEN d   1      -3.338  -5.959  -2.805  0.00  0.00     0.027 A 
ATOM      5  C5  DEN d   1      -1.985  -6.000  -2.553  0.00  0.00    -0.003 A 
ATOM      6  C6  DEN d   1      -1.062  -5.514  -3.440  0.00  0.00     0.001 A 
ATOM      7  C7  DEN d   1      -1.483  -4.923  -4.602  0.00  0.00     0.017 A 
ATOM      8  C8  DEN d   1      -2.845  -4.885  -4.867  0.00  0.00    -0.094 A 
ATOM      9  C9  DEN d   1      -3.763  -5.371  -3.952  0.00  0.00    -0.072 A 
ENDROOT
TORSDOF 0
ENDMDL
