MODEL 1
REMARK minimizedAffinity -3.9572947
REMARK minimizedRMSD -1
REMARK  0 active torsions:
REMARK  status: ('A' for Active; 'I' for Inactive)
ROOT
ATOM      1  C1  DEN d   1      -3.929  -2.053  -5.399  0.00  0.00     0.130 A 
ATOM      2  C2  DEN d   1      -5.357  -1.782  -5.259  0.00  0.00    -0.031 A 
ATOM      3  C3  DEN d   1      -6.000  -2.993  -4.709  0.00  0.00     0.027 A 
ATOM      4  C4  DEN d   1      -4.927  -5.247  -4.059  0.00  0.00     0.027 A 
ATOM      5  C5  DEN d   1      -3.747  -5.955  -4.009  0.00  0.00    -0.003 A 
ATOM      6  C6  DEN d   1      -2.561  -5.429  -4.447  0.00  0.00     0.001 A 
ATOM      7  C7  DEN d   1      -2.520  -4.142  -4.912  0.00  0.00     0.017 A 
ATOM      8  C8  DEN d   1      -3.707  -3.423  -4.973  0.00  0.00    -0.094 A 
ATOM      9  C9  DEN d   1      -4.894  -3.968  -4.514  0.00  0.00    -0.072 A 
ENDROOT
TORSDOF 0
ENDMDL
