MODEL 1
REMARK minimizedAffinity -2.43301964
REMARK minimizedRMSD -1
REMARK  0 active torsions:
REMARK  status: ('A' for Active; 'I' for Inactive)
ROOT
ATOM      1  C1  DEN d   1      -4.585  -2.751  -4.165  0.00  0.00     0.130 A 
ATOM      2  C2  DEN d   1      -5.969  -3.005  -4.554  0.00  0.00    -0.031 A 
ATOM      3  C3  DEN d   1      -6.000  -4.251  -5.346  0.00  0.00     0.027 A 
ATOM      4  C4  DEN d   1      -4.049  -5.806  -6.000  0.00  0.00     0.027 A 
ATOM      5  C5  DEN d   1      -2.688  -5.999  -5.909  0.00  0.00    -0.003 A 
ATOM      6  C6  DEN d   1      -1.866  -5.112  -5.266  0.00  0.00     0.001 A 
ATOM      7  C7  DEN d   1      -2.404  -4.014  -4.648  0.00  0.00     0.017 A 
ATOM      8  C8  DEN d   1      -3.774  -3.809  -4.741  0.00  0.00    -0.094 A 
ATOM      9  C9  DEN d   1      -4.590  -4.724  -5.385  0.00  0.00    -0.072 A 
ENDROOT
TORSDOF 0
ENDMDL
