MODEL 1
REMARK minimizedAffinity 2.65664458
REMARK minimizedRMSD -1
REMARK  0 active torsions:
REMARK  status: ('A' for Active; 'I' for Inactive)
ROOT
ATOM      1  C1  DEN d   1      -2.767  -5.441  -6.000  0.00  0.00     0.130 A 
ATOM      2  C2  DEN d   1      -1.900  -5.946  -4.939  0.00  0.00    -0.031 A 
ATOM      3  C3  DEN d   1      -2.279  -5.272  -3.680  0.00  0.00     0.027 A 
ATOM      4  C4  DEN d   1      -4.117  -3.510  -3.273  0.00  0.00     0.027 A 
ATOM      5  C5  DEN d   1      -5.105  -2.759  -3.871  0.00  0.00    -0.003 A 
ATOM      6  C6  DEN d   1      -5.358  -2.824  -5.216  0.00  0.00     0.001 A 
ATOM      7  C7  DEN d   1      -4.644  -3.691  -6.000  0.00  0.00     0.017 A 
ATOM      8  C8  DEN d   1      -3.641  -4.446  -5.405  0.00  0.00    -0.094 A 
ATOM      9  C9  DEN d   1      -3.409  -4.375  -4.042  0.00  0.00    -0.072 A 
ENDROOT
TORSDOF 0
ENDMDL
