MODEL 1
REMARK minimizedAffinity 2.4408679
REMARK minimizedRMSD -1
REMARK  0 active torsions:
REMARK  status: ('A' for Active; 'I' for Inactive)
ROOT
ATOM      1  C1  DEN d   1      -3.019  -4.646  -3.627  0.00  0.00     0.130 A 
ATOM      2  C2  DEN d   1      -2.461  -5.222  -4.848  0.00  0.00    -0.031 A 
ATOM      3  C3  DEN d   1      -3.212  -4.674  -5.995  0.00  0.00     0.027 A 
ATOM      4  C4  DEN d   1      -5.169  -2.994  -6.000  0.00  0.00     0.027 A 
ATOM      5  C5  DEN d   1      -5.999  -2.234  -5.204  0.00  0.00    -0.003 A 
ATOM      6  C6  DEN d   1      -5.916  -2.252  -3.837  0.00  0.00     0.001 A 
ATOM      7  C7  DEN d   1      -4.953  -3.010  -3.225  0.00  0.00     0.017 A 
ATOM      8  C8  DEN d   1      -4.118  -3.784  -4.020  0.00  0.00    -0.094 A 
ATOM      9  C9  DEN d   1      -4.210  -3.744  -5.401  0.00  0.00    -0.072 A 
ENDROOT
TORSDOF 0
ENDMDL
