MODEL 1
REMARK minimizedAffinity 4.24166012
REMARK minimizedRMSD -1
REMARK  1 active torsions:
REMARK  status: ('A' for Active; 'I' for Inactive)
REMARK    1  A    between atoms: C1_2  and  C2_3 
ROOT
ATOM      1  C2  UNL d   1       3.510  -0.099   0.055  0.00  0.00    -0.077 A 
ATOM      2  C3  UNL d   1       2.428  -0.990   0.026  0.00  0.00     0.002 A 
ATOM      3  C4  UNL d   1       2.640  -2.362   0.177  0.00  0.00     0.002 A 
ATOM      4  C5  UNL d   1       3.930  -2.854   0.360  0.00  0.00    -0.004 A 
ATOM      5  C6  UNL d   1       5.013  -1.975   0.388  0.00  0.00     0.002 A 
ATOM      6  C7  UNL d   1       4.803  -0.604   0.237  0.00  0.00     0.002 A 
ENDROOT
BRANCH   1   7
ATOM      7  C1  UNL d   1       3.279   1.386  -0.058  0.00  0.00     0.055 C 
ATOM      8  C   UNL d   1       2.471   1.911   1.120  0.00  0.00     0.019 C 
ENDBRANCH   1   7
TORSDOF 1
ENDMDL
