MODEL 1
REMARK minimizedAffinity 3.3204329
REMARK minimizedRMSD -1
REMARK  1 active torsions:
REMARK  status: ('A' for Active; 'I' for Inactive)
REMARK    1  A    between atoms: C1_2  and  C2_3 
ROOT
ATOM      1  C2  UNL d   1      -3.126   0.181  -3.911  0.00  0.00    -0.077 A 
ATOM      2  C3  UNL d   1      -3.334   1.133  -2.904  0.00  0.00     0.002 A 
ATOM      3  C4  UNL d   1      -3.935   2.358  -3.203  0.00  0.00     0.002 A 
ATOM      4  C5  UNL d   1      -4.337   2.639  -4.507  0.00  0.00    -0.004 A 
ATOM      5  C6  UNL d   1      -4.133   1.698  -5.516  0.00  0.00     0.002 A 
ATOM      6  C7  UNL d   1      -3.531   0.475  -5.220  0.00  0.00     0.002 A 
ENDROOT
BRANCH   1   7
ATOM      7  C1  UNL d   1      -2.523  -1.160  -3.582  0.00  0.00     0.055 C 
ATOM      8  C   UNL d   1      -1.822  -1.764  -4.791  0.00  0.00     0.019 C 
ENDBRANCH   1   7
TORSDOF 1
ENDMDL
