MODEL 1
REMARK minimizedAffinity -0.389402807
REMARK minimizedRMSD -1
REMARK  1 active torsions:
REMARK  status: ('A' for Active; 'I' for Inactive)
REMARK    1  A    between atoms: C1_2  and  C2_3 
ROOT
ATOM      1  C2  UNL d   1      -3.237  -0.592  -5.169  0.00  0.00    -0.077 A 
ATOM      2  C3  UNL d   1      -3.853  -1.140  -4.035  0.00  0.00     0.002 A 
ATOM      3  C4  UNL d   1      -5.118  -0.705  -3.639  0.00  0.00     0.002 A 
ATOM      4  C5  UNL d   1      -5.780   0.278  -4.372  0.00  0.00    -0.004 A 
ATOM      5  C6  UNL d   1      -5.176   0.831  -5.500  0.00  0.00     0.002 A 
ATOM      6  C7  UNL d   1      -3.910   0.398  -5.897  0.00  0.00     0.002 A 
ENDROOT
BRANCH   1   7
ATOM      7  C1  UNL d   1      -1.893  -1.095  -5.627  0.00  0.00     0.055 C 
ATOM      8  C   UNL d   1      -1.951  -2.570  -5.999  0.00  0.00     0.019 C 
ENDBRANCH   1   7
TORSDOF 1
ENDMDL
