MODEL 1
REMARK minimizedAffinity 1.84350896
REMARK minimizedRMSD -1
REMARK  1 active torsions:
REMARK  status: ('A' for Active; 'I' for Inactive)
REMARK    1  A    between atoms: C1_2  and  C2_3 
ROOT
ATOM      1  C2  UNL d   1      -4.256  -0.865  -3.422  0.00  0.00    -0.077 A 
ATOM      2  C3  UNL d   1      -3.336  -1.162  -4.438  0.00  0.00     0.002 A 
ATOM      3  C4  UNL d   1      -3.156  -0.282  -5.507  0.00  0.00     0.002 A 
ATOM      4  C5  UNL d   1      -3.888   0.902  -5.567  0.00  0.00    -0.004 A 
ATOM      5  C6  UNL d   1      -4.806   1.205  -4.563  0.00  0.00     0.002 A 
ATOM      6  C7  UNL d   1      -4.989   0.326  -3.495  0.00  0.00     0.002 A 
ENDROOT
BRANCH   1   7
ATOM      7  C1  UNL d   1      -4.416  -1.790  -2.243  0.00  0.00     0.055 C 
ATOM      8  C   UNL d   1      -3.501  -1.387  -1.096  0.00  0.00     0.019 C 
ENDBRANCH   1   7
TORSDOF 1
ENDMDL
