MODEL 1
REMARK minimizedAffinity -0.657600462
REMARK minimizedRMSD -1
REMARK  1 active torsions:
REMARK  status: ('A' for Active; 'I' for Inactive)
REMARK    1  A    between atoms: C1_2  and  C2_3 
ROOT
ATOM      1  C2  UNL d   1      -3.649   1.564  -3.366  0.00  0.00    -0.077 A 
ATOM      2  C3  UNL d   1      -3.661   0.530  -2.420  0.00  0.00     0.002 A 
ATOM      3  C4  UNL d   1      -4.042  -0.762  -2.790  0.00  0.00     0.002 A 
ATOM      4  C5  UNL d   1      -4.408  -1.031  -4.107  0.00  0.00    -0.004 A 
ATOM      5  C6  UNL d   1      -4.400  -0.008  -5.055  0.00  0.00     0.002 A 
ATOM      6  C7  UNL d   1      -4.022   1.283  -4.686  0.00  0.00     0.002 A 
ENDROOT
BRANCH   1   7
ATOM      7  C1  UNL d   1      -3.192   2.947  -2.979  0.00  0.00     0.055 C 
ATOM      8  C   UNL d   1      -4.151   4.011  -3.493  0.00  0.00     0.019 C 
ENDBRANCH   1   7
TORSDOF 1
ENDMDL
