MODEL 1
REMARK minimizedAffinity 6.50217009
REMARK minimizedRMSD -1
REMARK  1 active torsions:
REMARK  status: ('A' for Active; 'I' for Inactive)
REMARK    1  A    between atoms: C1_2  and  C2_3 
ROOT
ATOM      1  C2  UNL d   1       3.232  -0.526   0.166  0.00  0.00    -0.077 A 
ATOM      2  C3  UNL d   1       3.031   0.825  -0.150  0.00  0.00     0.002 A 
ATOM      3  C4  UNL d   1       4.101   1.721  -0.132  0.00  0.00     0.002 A 
ATOM      4  C5  UNL d   1       5.379   1.276   0.197  0.00  0.00    -0.004 A 
ATOM      5  C6  UNL d   1       5.589  -0.065   0.515  0.00  0.00     0.002 A 
ATOM      6  C7  UNL d   1       4.521  -0.963   0.498  0.00  0.00     0.002 A 
ENDROOT
BRANCH   1   7
ATOM      7  C1  UNL d   1       2.088  -1.505   0.099  0.00  0.00     0.055 C 
ATOM      8  C   UNL d   1       2.396  -2.771   0.885  0.00  0.00     0.019 C 
ENDBRANCH   1   7
TORSDOF 1
ENDMDL
