MODEL 1
REMARK minimizedAffinity -2.92036033
REMARK minimizedRMSD -1
REMARK  1 active torsions:
REMARK  status: ('A' for Active; 'I' for Inactive)
REMARK    1  A    between atoms: C1_2  and  C2_3 
ROOT
ATOM      1  C2  UNL d   1       3.491  -0.714   0.129  0.00  0.00    -0.077 A 
ATOM      2  C3  UNL d   1       4.829  -1.109   0.261  0.00  0.00     0.002 A 
ATOM      3  C4  UNL d   1       5.848  -0.154   0.285  0.00  0.00     0.002 A 
ATOM      4  C5  UNL d   1       5.539   1.200   0.182  0.00  0.00    -0.004 A 
ATOM      5  C6  UNL d   1       4.211   1.603   0.049  0.00  0.00     0.002 A 
ATOM      6  C7  UNL d   1       3.191   0.651   0.023  0.00  0.00     0.002 A 
ENDROOT
BRANCH   1   7
ATOM      7  C1  UNL d   1       2.386  -1.738   0.152  0.00  0.00     0.055 C 
ATOM      8  C   UNL d   1       2.868  -3.058   0.737  0.00  0.00     0.019 C 
ENDBRANCH   1   7
TORSDOF 1
ENDMDL
