MODEL 1
REMARK minimizedAffinity -3.98749256
REMARK minimizedRMSD -1
REMARK  3 active torsions:
REMARK  status: ('A' for Active; 'I' for Inactive)
REMARK    1  A    between atoms: C3'_2  and  C2'_3 
REMARK    2  A    between atoms: C2'_3  and  C1'_4 
REMARK    3  A    between atoms: C1'_4  and  C1_5 
ROOT
ATOM      1  C1  N4B d   1      -0.023   0.175   0.001  0.00  0.00    -0.075 A 
ATOM      2  C2  N4B d   1       1.359  -0.006   0.230  0.00  0.00     0.002 A 
ATOM      3  C3  N4B d   1       2.118   1.035   0.706  0.00  0.00     0.002 A 
ATOM      4  C4  N4B d   1       1.523   2.266   0.940  0.00  0.00    -0.004 A 
ATOM      5  C5  N4B d   1       0.183   2.425   0.741  0.00  0.00     0.002 A 
ATOM      6  C6  N4B d   1      -0.593   1.386   0.267  0.00  0.00     0.002 A 
ENDROOT
BRANCH   1   7
ATOM      7  C1' N4B d   1      -0.876  -0.909  -0.599  0.00  0.00     0.057 C 
BRANCH   7   8
ATOM      8  C2' N4B d   1      -0.211  -1.423  -1.872  0.00  0.00     0.009 C 
BRANCH   8   9
ATOM      9  C3' N4B d   1      -1.074  -2.446  -2.591  0.00  0.00     0.004 C 
ATOM     10  C4' N4B d   1      -1.199  -3.735  -1.836  0.00  0.00     0.003 C 
ENDBRANCH   8   9
ENDBRANCH   7   8
ENDBRANCH   1   7
TORSDOF 3
ENDMDL
