MODEL 1
REMARK minimizedAffinity -3.2496469
REMARK minimizedRMSD -1
REMARK  3 active torsions:
REMARK  status: ('A' for Active; 'I' for Inactive)
REMARK    1  A    between atoms: C3'_2  and  C2'_3 
REMARK    2  A    between atoms: C2'_3  and  C1'_4 
REMARK    3  A    between atoms: C1'_4  and  C1_5 
ROOT
ATOM      1  C1  N4B d   1       0.386   0.456   0.481  0.00  0.00    -0.075 A 
ATOM      2  C2  N4B d   1       0.065   1.808   0.734  0.00  0.00     0.002 A 
ATOM      3  C3  N4B d   1       1.065   2.717   0.977  0.00  0.00     0.002 A 
ATOM      4  C4  N4B d   1       2.386   2.296   0.992  0.00  0.00    -0.004 A 
ATOM      5  C5  N4B d   1       2.690   0.994   0.722  0.00  0.00     0.002 A 
ATOM      6  C6  N4B d   1       1.695   0.070   0.472  0.00  0.00     0.002 A 
ENDROOT
BRANCH   1   7
ATOM      7  C1' N4B d   1      -0.677  -0.591   0.295  0.00  0.00     0.057 C 
BRANCH   7   8
ATOM      8  C2' N4B d   1      -0.023  -1.895  -0.152  0.00  0.00     0.009 C 
BRANCH   8   9
ATOM      9  C3' N4B d   1      -1.038  -2.879  -0.709  0.00  0.00     0.004 C 
ATOM     10  C4' N4B d   1      -0.671  -3.383  -2.073  0.00  0.00     0.003 C 
ENDBRANCH   8   9
ENDBRANCH   7   8
ENDBRANCH   1   7
TORSDOF 3
ENDMDL
