MODEL 1
REMARK minimizedAffinity -1.78150153
REMARK minimizedRMSD -1
REMARK  3 active torsions:
REMARK  status: ('A' for Active; 'I' for Inactive)
REMARK    1  A    between atoms: C3'_2  and  C2'_3 
REMARK    2  A    between atoms: C2'_3  and  C1'_4 
REMARK    3  A    between atoms: C1'_4  and  C1_5 
ROOT
ATOM      1  C1  N4B d   1       0.181  -1.006  -0.158  0.00  0.00    -0.075 A 
ATOM      2  C2  N4B d   1       1.553  -0.695  -0.041  0.00  0.00     0.002 A 
ATOM      3  C3  N4B d   1       1.941   0.572   0.322  0.00  0.00     0.002 A 
ATOM      4  C4  N4B d   1       0.980   1.544   0.553  0.00  0.00    -0.004 A 
ATOM      5  C5  N4B d   1      -0.344   1.229   0.462  0.00  0.00     0.002 A 
ATOM      6  C6  N4B d   1      -0.749  -0.041   0.103  0.00  0.00     0.002 A 
ENDROOT
BRANCH   1   7
ATOM      7  C1' N4B d   1      -0.290  -2.353  -0.634  0.00  0.00     0.057 C 
BRANCH   7   8
ATOM      8  C2' N4B d   1       0.177  -2.568  -2.070  0.00  0.00     0.009 C 
BRANCH   8   9
ATOM      9  C3' N4B d   1      -0.582  -3.693  -2.753  0.00  0.00     0.004 C 
ATOM     10  C4' N4B d   1      -1.511  -4.414  -1.823  0.00  0.00     0.003 C 
ENDBRANCH   8   9
ENDBRANCH   7   8
ENDBRANCH   1   7
TORSDOF 3
ENDMDL
