MODEL 1
REMARK minimizedAffinity -6.20736933
REMARK minimizedRMSD -1
REMARK  3 active torsions:
REMARK  status: ('A' for Active; 'I' for Inactive)
REMARK    1  A    between atoms: C3'_2  and  C2'_3 
REMARK    2  A    between atoms: C2'_3  and  C1'_4 
REMARK    3  A    between atoms: C1'_4  and  C1_5 
ROOT
ATOM      1  C1  N4B d   1       0.131  -0.297   0.294  0.00  0.00    -0.075 A 
ATOM      2  C2  N4B d   1       0.982   0.776  -0.049  0.00  0.00     0.002 A 
ATOM      3  C3  N4B d   1       0.495   2.060  -0.063  0.00  0.00     0.002 A 
ATOM      4  C4  N4B d   1      -0.838   2.292   0.242  0.00  0.00    -0.004 A 
ATOM      5  C5  N4B d   1      -1.647   1.253   0.597  0.00  0.00     0.002 A 
ATOM      6  C6  N4B d   1      -1.170  -0.043   0.619  0.00  0.00     0.002 A 
ENDROOT
BRANCH   1   7
ATOM      7  C1' N4B d   1       0.595  -1.727   0.240  0.00  0.00     0.057 C 
BRANCH   7   8
ATOM      8  C2' N4B d   1      -0.475  -2.576  -0.439  0.00  0.00     0.009 C 
BRANCH   8   9
ATOM      9  C3' N4B d   1      -0.053  -3.016  -1.830  0.00  0.00     0.004 C 
ATOM     10  C4' N4B d   1      -1.215  -3.406  -2.694  0.00  0.00     0.003 C 
ENDBRANCH   8   9
ENDBRANCH   7   8
ENDBRANCH   1   7
TORSDOF 3
ENDMDL
