MODEL 1
REMARK minimizedAffinity -5.99174643
REMARK minimizedRMSD -1
REMARK  3 active torsions:
REMARK  status: ('A' for Active; 'I' for Inactive)
REMARK    1  A    between atoms: C3'_2  and  C2'_3 
REMARK    2  A    between atoms: C2'_3  and  C1'_4 
REMARK    3  A    between atoms: C1'_4  and  C1_5 
ROOT
ATOM      1  C1  N4B d   1       0.141  -0.539   0.320  0.00  0.00    -0.075 A 
ATOM      2  C2  N4B d   1       0.824   0.655  -0.001  0.00  0.00     0.002 A 
ATOM      3  C3  N4B d   1       0.145   1.849  -0.026  0.00  0.00     0.002 A 
ATOM      4  C4  N4B d   1      -1.214   1.871   0.247  0.00  0.00    -0.004 A 
ATOM      5  C5  N4B d   1      -1.861   0.717   0.581  0.00  0.00     0.002 A 
ATOM      6  C6  N4B d   1      -1.191  -0.489   0.614  0.00  0.00     0.002 A 
ENDROOT
BRANCH   1   7
ATOM      7  C1' N4B d   1       0.822  -1.880   0.276  0.00  0.00     0.057 C 
BRANCH   7   8
ATOM      8  C2' N4B d   1       0.599  -2.510  -1.096  0.00  0.00     0.009 C 
BRANCH   8   9
ATOM      9  C3' N4B d   1      -0.476  -3.582  -1.060  0.00  0.00     0.004 C 
ATOM     10  C4' N4B d   1      -1.116  -3.808  -2.397  0.00  0.00     0.003 C 
ENDBRANCH   8   9
ENDBRANCH   7   8
ENDBRANCH   1   7
TORSDOF 3
ENDMDL
