MODEL 1
REMARK minimizedAffinity -2.06858516
REMARK minimizedRMSD -1
REMARK  3 active torsions:
REMARK  status: ('A' for Active; 'I' for Inactive)
REMARK    1  A    between atoms: C3'_2  and  C2'_3 
REMARK    2  A    between atoms: C2'_3  and  C1'_4 
REMARK    3  A    between atoms: C1'_4  and  C1_5 
ROOT
ATOM      1  C1  N4B d   1      -0.255  -0.882  -0.903  0.00  0.00    -0.075 A 
ATOM      2  C2  N4B d   1      -1.482  -0.186  -0.957  0.00  0.00     0.002 A 
ATOM      3  C3  N4B d   1      -1.735   0.831  -0.069  0.00  0.00     0.002 A 
ATOM      4  C4  N4B d   1      -0.787   1.155   0.890  0.00  0.00    -0.004 A 
ATOM      5  C5  N4B d   1       0.406   0.494   0.920  0.00  0.00     0.002 A 
ATOM      6  C6  N4B d   1       0.675  -0.527   0.031  0.00  0.00     0.002 A 
ENDROOT
BRANCH   1   7
ATOM      7  C1' N4B d   1       0.031  -2.058  -1.797  0.00  0.00     0.057 C 
BRANCH   7   8
ATOM      8  C2' N4B d   1      -0.569  -3.316  -1.177  0.00  0.00     0.009 C 
BRANCH   8   9
ATOM      9  C3' N4B d   1      -1.973  -3.587  -1.690  0.00  0.00     0.004 C 
ATOM     10  C4' N4B d   1      -2.217  -3.006  -3.051  0.00  0.00     0.003 C 
ENDBRANCH   8   9
ENDBRANCH   7   8
ENDBRANCH   1   7
TORSDOF 3
ENDMDL
