MODEL 1
REMARK minimizedAffinity -4.83317852
REMARK minimizedRMSD -1
REMARK  3 active torsions:
REMARK  status: ('A' for Active; 'I' for Inactive)
REMARK    1  A    between atoms: C3'_2  and  C2'_3 
REMARK    2  A    between atoms: C2'_3  and  C1'_4 
REMARK    3  A    between atoms: C1'_4  and  C1_5 
ROOT
ATOM      1  C1  N4B d   1       0.737   0.720  -0.040  0.00  0.00    -0.075 A 
ATOM      2  C2  N4B d   1       0.126   1.967   0.219  0.00  0.00     0.002 A 
ATOM      3  C3  N4B d   1       0.851   2.980   0.798  0.00  0.00     0.002 A 
ATOM      4  C4  N4B d   1       2.177   2.764   1.141  0.00  0.00    -0.004 A 
ATOM      5  C5  N4B d   1       2.767   1.566   0.863  0.00  0.00     0.002 A 
ATOM      6  C6  N4B d   1       2.052   0.540   0.279  0.00  0.00     0.002 A 
ENDROOT
BRANCH   1   7
ATOM      7  C1' N4B d   1      -0.038  -0.445  -0.592  0.00  0.00     0.057 C 
BRANCH   7   8
ATOM      8  C2' N4B d   1       0.220  -1.674   0.274  0.00  0.00     0.009 C 
BRANCH   8   9
ATOM      9  C3' N4B d   1      -0.572  -2.880  -0.200  0.00  0.00     0.004 C 
ATOM     10  C4' N4B d   1      -0.167  -3.339  -1.569  0.00  0.00     0.003 C 
ENDBRANCH   8   9
ENDBRANCH   7   8
ENDBRANCH   1   7
TORSDOF 3
ENDMDL
