MODEL 1
REMARK minimizedAffinity -0.283119947
REMARK minimizedRMSD -1
REMARK  3 active torsions:
REMARK  status: ('A' for Active; 'I' for Inactive)
REMARK    1  A    between atoms: C3'_2  and  C2'_3 
REMARK    2  A    between atoms: C2'_3  and  C1'_4 
REMARK    3  A    between atoms: C1'_4  and  C1_5 
ROOT
ATOM      1  C1  N4B d   1      -0.669   0.005   0.307  0.00  0.00    -0.075 A 
ATOM      2  C2  N4B d   1       0.667   0.450   0.405  0.00  0.00     0.002 A 
ATOM      3  C3  N4B d   1       0.935   1.787   0.568  0.00  0.00     0.002 A 
ATOM      4  C4  N4B d   1      -0.111   2.696   0.616  0.00  0.00    -0.004 A 
ATOM      5  C5  N4B d   1      -1.400   2.255   0.546  0.00  0.00     0.002 A 
ATOM      6  C6  N4B d   1      -1.685   0.914   0.386  0.00  0.00     0.002 A 
ENDROOT
BRANCH   1   7
ATOM      7  C1' N4B d   1      -1.009  -1.436   0.042  0.00  0.00     0.057 C 
BRANCH   7   8
ATOM      8  C2' N4B d   1      -0.354  -1.873  -1.265  0.00  0.00     0.009 C 
BRANCH   8   9
ATOM      9  C3' N4B d   1      -1.162  -2.946  -1.975  0.00  0.00     0.004 C 
ATOM     10  C4' N4B d   1      -1.553  -4.074  -1.068  0.00  0.00     0.003 C 
ENDBRANCH   8   9
ENDBRANCH   7   8
ENDBRANCH   1   7
TORSDOF 3
ENDMDL
