MODEL 1
REMARK minimizedAffinity -3.97602129
REMARK minimizedRMSD -1
REMARK  3 active torsions:
REMARK  status: ('A' for Active; 'I' for Inactive)
REMARK    1  A    between atoms: C3'_2  and  C2'_3 
REMARK    2  A    between atoms: C2'_3  and  C1'_4 
REMARK    3  A    between atoms: C1'_4  and  C1_5 
ROOT
ATOM      1  C1  N4B d   1      -0.334  -1.197  -0.207  0.00  0.00    -0.075 A 
ATOM      2  C2  N4B d   1       0.974  -0.868  -0.623  0.00  0.00     0.002 A 
ATOM      3  C3  N4B d   1       1.497   0.368  -0.334  0.00  0.00     0.002 A 
ATOM      4  C4  N4B d   1       0.725   1.295   0.351  0.00  0.00    -0.004 A 
ATOM      5  C5  N4B d   1      -0.529   0.961   0.771  0.00  0.00     0.002 A 
ATOM      6  C6  N4B d   1      -1.065  -0.280   0.491  0.00  0.00     0.002 A 
ENDROOT
BRANCH   1   7
ATOM      7  C1' N4B d   1      -0.980  -2.505  -0.575  0.00  0.00     0.057 C 
BRANCH   7   8
ATOM      8  C2' N4B d   1      -0.471  -2.947  -1.944  0.00  0.00     0.009 C 
BRANCH   8   9
ATOM      9  C3' N4B d   1      -1.526  -3.713  -2.723  0.00  0.00     0.004 C 
ATOM     10  C4' N4B d   1      -2.705  -4.098  -1.879  0.00  0.00     0.003 C 
ENDBRANCH   8   9
ENDBRANCH   7   8
ENDBRANCH   1   7
TORSDOF 3
ENDMDL
