MODEL 1
REMARK minimizedAffinity -0.26409629
REMARK minimizedRMSD -1
REMARK  0 active torsions:
REMARK  status: ('A' for Active; 'I' for Inactive)
ROOT
ATOM      1  C1  DEN d   1      -1.066  -1.204   1.515  0.00  0.00     0.130 A 
ATOM      2  C2  DEN d   1      -1.336  -2.628   1.330  0.00  0.00    -0.031 A 
ATOM      3  C3  DEN d   1      -0.996  -2.979  -0.063  0.00  0.00     0.027 A 
ATOM      4  C4  DEN d   1      -0.078  -1.468  -1.941  0.00  0.00     0.027 A 
ATOM      5  C5  DEN d   1       0.301  -0.184  -2.263  0.00  0.00    -0.003 A 
ATOM      6  C6  DEN d   1       0.221   0.849  -1.367  0.00  0.00     0.001 A 
ATOM      7  C7  DEN d   1      -0.209   0.606  -0.088  0.00  0.00     0.017 A 
ATOM      8  C8  DEN d   1      -0.600  -0.685   0.242  0.00  0.00    -0.094 A 
ATOM      9  C9  DEN d   1      -0.499  -1.717  -0.675  0.00  0.00    -0.072 A 
ENDROOT
TORSDOF 0
ENDMDL
