MODEL 1
REMARK minimizedAffinity 3.35905027
REMARK minimizedRMSD -1
REMARK  0 active torsions:
REMARK  status: ('A' for Active; 'I' for Inactive)
ROOT
ATOM      1  C1  DEN d   1      -1.740  -0.254   0.288  0.00  0.00     0.130 A 
ATOM      2  C2  DEN d   1      -1.419   0.059   1.678  0.00  0.00    -0.031 A 
ATOM      3  C3  DEN d   1      -0.003   0.475   1.736  0.00  0.00     0.027 A 
ATOM      4  C4  DEN d   1       1.712   0.667  -0.180  0.00  0.00     0.027 A 
ATOM      5  C5  DEN d   1       1.908   0.496  -1.533  0.00  0.00    -0.003 A 
ATOM      6  C6  DEN d   1       0.919   0.035  -2.361  0.00  0.00     0.001 A 
ATOM      7  C7  DEN d   1      -0.325  -0.229  -1.852  0.00  0.00     0.017 A 
ATOM      8  C8  DEN d   1      -0.528  -0.067  -0.488  0.00  0.00    -0.094 A 
ATOM      9  C9  DEN d   1       0.481   0.412   0.331  0.00  0.00    -0.072 A 
ENDROOT
TORSDOF 0
ENDMDL
