MODEL 1
REMARK minimizedAffinity -1.98938048
REMARK minimizedRMSD -1
REMARK  0 active torsions:
REMARK  status: ('A' for Active; 'I' for Inactive)
ROOT
ATOM      1  C1  DEN d   1      -0.748   1.209   0.372  0.00  0.00     0.130 A 
ATOM      2  C2  DEN d   1      -0.366   0.057  -0.441  0.00  0.00    -0.031 A 
ATOM      3  C3  DEN d   1       1.079   0.162  -0.730  0.00  0.00     0.027 A 
ATOM      4  C4  DEN d   1       2.752   1.983   0.002  0.00  0.00     0.027 A 
ATOM      5  C5  DEN d   1       2.893   3.166   0.693  0.00  0.00    -0.003 A 
ATOM      6  C6  DEN d   1       1.832   3.792   1.292  0.00  0.00     0.001 A 
ATOM      7  C7  DEN d   1       0.590   3.214   1.250  0.00  0.00     0.017 A 
ATOM      8  C8  DEN d   1       0.440   2.025   0.548  0.00  0.00    -0.094 A 
ATOM      9  C9  DEN d   1       1.527   1.402  -0.040  0.00  0.00    -0.072 A 
ENDROOT
TORSDOF 0
ENDMDL
