MODEL 1
REMARK minimizedAffinity -0.338860393
REMARK minimizedRMSD -1
REMARK  0 active torsions:
REMARK  status: ('A' for Active; 'I' for Inactive)
ROOT
ATOM      1  C1  DEN d   1       1.455   0.522   0.133  0.00  0.00     0.130 A 
ATOM      2  C2  DEN d   1       0.104   0.065  -0.184  0.00  0.00    -0.031 A 
ATOM      3  C3  DEN d   1      -0.831   1.172   0.103  0.00  0.00     0.027 A 
ATOM      4  C4  DEN d   1      -0.321   3.537   0.996  0.00  0.00     0.027 A 
ATOM      5  C5  DEN d   1       0.677   4.385   1.423  0.00  0.00    -0.003 A 
ATOM      6  C6  DEN d   1       1.989   3.997   1.481  0.00  0.00     0.001 A 
ATOM      7  C7  DEN d   1       2.345   2.742   1.064  0.00  0.00     0.017 A 
ATOM      8  C8  DEN d   1       1.343   1.878   0.639  0.00  0.00    -0.094 A 
ATOM      9  C9  DEN d   1       0.024   2.294   0.576  0.00  0.00    -0.072 A 
ENDROOT
TORSDOF 0
ENDMDL
