MODEL 1
REMARK minimizedAffinity 3.64337564
REMARK minimizedRMSD -1
REMARK  0 active torsions:
REMARK  status: ('A' for Active; 'I' for Inactive)
ROOT
ATOM      1  C1  DEN d   1      -2.237  -1.282   0.201  0.00  0.00     0.130 A 
ATOM      2  C2  DEN d   1      -2.094  -2.394   1.138  0.00  0.00    -0.031 A 
ATOM      3  C3  DEN d   1      -1.019  -2.051   2.092  0.00  0.00     0.027 A 
ATOM      4  C4  DEN d   1       0.425   0.082   2.211  0.00  0.00     0.027 A 
ATOM      5  C5  DEN d   1       0.678   1.301   1.621  0.00  0.00    -0.003 A 
ATOM      6  C6  DEN d   1       0.006   1.726   0.505  0.00  0.00     0.001 A 
ATOM      7  C7  DEN d   1      -0.984   0.945  -0.029  0.00  0.00     0.017 A 
ATOM      8  C8  DEN d   1      -1.240  -0.289   0.556  0.00  0.00    -0.094 A 
ATOM      9  C9  DEN d   1      -0.558  -0.695   1.690  0.00  0.00    -0.072 A 
ENDROOT
TORSDOF 0
ENDMDL
