MODEL 1
REMARK minimizedAffinity -1.53841031
REMARK minimizedRMSD -1
REMARK  0 active torsions:
REMARK  status: ('A' for Active; 'I' for Inactive)
ROOT
ATOM      1  C1  DEN d   1      -1.374  -2.021   0.412  0.00  0.00     0.130 A 
ATOM      2  C2  DEN d   1      -1.420  -1.571   1.801  0.00  0.00    -0.031 A 
ATOM      3  C3  DEN d   1      -0.809  -0.228   1.866  0.00  0.00     0.027 A 
ATOM      4  C4  DEN d   1       0.195   1.192  -0.039  0.00  0.00     0.027 A 
ATOM      5  C5  DEN d   1       0.471   1.226  -1.388  0.00  0.00    -0.003 A 
ATOM      6  C6  DEN d   1       0.185   0.176  -2.219  0.00  0.00     0.001 A 
ATOM      7  C7  DEN d   1      -0.437  -0.937  -1.716  0.00  0.00     0.017 A 
ATOM      8  C8  DEN d   1      -0.712  -0.982  -0.356  0.00  0.00    -0.094 A 
ATOM      9  C9  DEN d   1      -0.426   0.096   0.465  0.00  0.00    -0.072 A 
ENDROOT
TORSDOF 0
ENDMDL
