MODEL 1
REMARK minimizedAffinity -6.41816854
REMARK minimizedRMSD -1
REMARK  0 active torsions:
REMARK  status: ('A' for Active; 'I' for Inactive)
ROOT
ATOM      1  C1  DEN d   1      -0.224   0.677  -0.573  0.00  0.00     0.130 A 
ATOM      2  C2  DEN d   1      -0.426   1.114   0.806  0.00  0.00    -0.031 A 
ATOM      3  C3  DEN d   1      -0.441  -0.086   1.667  0.00  0.00     0.027 A 
ATOM      4  C4  DEN d   1      -0.169  -2.564   1.002  0.00  0.00     0.027 A 
ATOM      5  C5  DEN d   1       0.014  -3.429  -0.053  0.00  0.00    -0.003 A 
ATOM      6  C6  DEN d   1       0.096  -2.993  -1.349  0.00  0.00     0.001 A 
ATOM      7  C7  DEN d   1       0.040  -1.651  -1.619  0.00  0.00     0.017 A 
ATOM      8  C8  DEN d   1      -0.152  -0.773  -0.560  0.00  0.00    -0.094 A 
ATOM      9  C9  DEN d   1      -0.221  -1.232   0.744  0.00  0.00    -0.072 A 
ENDROOT
TORSDOF 0
ENDMDL
