MODEL 1
REMARK minimizedAffinity -4.51375961
REMARK minimizedRMSD -1
REMARK  0 active torsions:
REMARK  status: ('A' for Active; 'I' for Inactive)
ROOT
ATOM      1  C1  DEN d   1      -0.103   0.541  -0.460  0.00  0.00     0.130 A 
ATOM      2  C2  DEN d   1       0.576  -0.327  -1.418  0.00  0.00    -0.031 A 
ATOM      3  C3  DEN d   1       1.979   0.122  -1.527  0.00  0.00     0.027 A 
ATOM      4  C4  DEN d   1       3.160   2.063  -0.307  0.00  0.00     0.027 A 
ATOM      5  C5  DEN d   1       2.992   3.091   0.595  0.00  0.00    -0.003 A 
ATOM      6  C6  DEN d   1       1.782   3.360   1.177  0.00  0.00     0.001 A 
ATOM      7  C7  DEN d   1       0.702   2.563   0.899  0.00  0.00     0.017 A 
ATOM      8  C8  DEN d   1       0.863   1.530  -0.014  0.00  0.00    -0.094 A 
ATOM      9  C9  DEN d   1       2.097   1.266  -0.583  0.00  0.00    -0.072 A 
ENDROOT
TORSDOF 0
ENDMDL
