MODEL 1
REMARK minimizedAffinity -4.84832239
REMARK minimizedRMSD -1
REMARK  0 active torsions:
REMARK  status: ('A' for Active; 'I' for Inactive)
ROOT
ATOM      1  C1  DEN d   1      -1.142  -1.325   1.217  0.00  0.00     0.130 A 
ATOM      2  C2  DEN d   1      -1.303  -2.731   0.857  0.00  0.00    -0.031 A 
ATOM      3  C3  DEN d   1      -0.836  -2.903  -0.533  0.00  0.00     0.027 A 
ATOM      4  C4  DEN d   1       0.121  -1.139  -2.152  0.00  0.00     0.027 A 
ATOM      5  C5  DEN d   1       0.440   0.193  -2.301  0.00  0.00    -0.003 A 
ATOM      6  C6  DEN d   1       0.223   1.111  -1.308  0.00  0.00     0.001 A 
ATOM      7  C7  DEN d   1      -0.286   0.701  -0.104  0.00  0.00     0.017 A 
ATOM      8  C8  DEN d   1      -0.616  -0.639   0.051  0.00  0.00    -0.094 A 
ATOM      9  C9  DEN d   1      -0.378  -1.554  -0.961  0.00  0.00    -0.072 A 
ENDROOT
TORSDOF 0
ENDMDL
