MODEL 1
REMARK minimizedAffinity 0.590783238
REMARK minimizedRMSD -1
REMARK  0 active torsions:
REMARK  status: ('A' for Active; 'I' for Inactive)
ROOT
ATOM      1  C1  DEN d   1       1.232   0.611  -0.766  0.00  0.00     0.130 A 
ATOM      2  C2  DEN d   1      -0.214   0.418  -0.716  0.00  0.00    -0.031 A 
ATOM      3  C3  DEN d   1      -0.812   1.608  -0.078  0.00  0.00     0.027 A 
ATOM      4  C4  DEN d   1       0.355   3.722   0.828  0.00  0.00     0.027 A 
ATOM      5  C5  DEN d   1       1.572   4.338   1.018  0.00  0.00    -0.003 A 
ATOM      6  C6  DEN d   1       2.754   3.745   0.661  0.00  0.00     0.001 A 
ATOM      7  C7  DEN d   1       2.741   2.518   0.053  0.00  0.00     0.017 A 
ATOM      8  C8  DEN d   1       1.519   1.887  -0.136  0.00  0.00    -0.094 A 
ATOM      9  C9  DEN d   1       0.334   2.508   0.221  0.00  0.00    -0.072 A 
ENDROOT
TORSDOF 0
ENDMDL
