MODEL 1
REMARK minimizedAffinity -0.50725615
REMARK minimizedRMSD -1
REMARK  1 active torsions:
REMARK  status: ('A' for Active; 'I' for Inactive)
REMARK    1  A    between atoms: C3_4  and  O_7 
ROOT
ATOM      1  C   UNL d   1      -0.865   1.520  -0.733  0.00  0.00    -0.033 A 
ATOM      2  C1  UNL d   1       0.029   2.281   0.022  0.00  0.00     0.039 A 
ATOM      3  C2  UNL d   1       1.000   1.650   0.802  0.00  0.00    -0.080 A 
ATOM      4  C3  UNL d   1       1.067   0.260   0.817  0.00  0.00     0.150 A 
ATOM      5  C4  UNL d   1       0.182  -0.505   0.064  0.00  0.00    -0.007 A 
ATOM      6  C5  UNL d   1      -0.788   0.127  -0.713  0.00  0.00     0.039 A 
ENDROOT
BRANCH   4   7
ATOM      7  O   UNL d   1       1.994  -0.401   1.566  0.00  0.00    -0.526 OA
ATOM      8  H5  UNL d   1       2.519   0.255   2.056  0.00  0.00     0.418 HD
ENDBRANCH   4   7
TORSDOF 1
ENDMDL
