MODEL 1
REMARK minimizedAffinity -0.872491896
REMARK minimizedRMSD -1
REMARK  1 active torsions:
REMARK  status: ('A' for Active; 'I' for Inactive)
REMARK    1  A    between atoms: C3_4  and  O_7 
ROOT
ATOM      1  C   UNL d   1      -4.988   0.622   0.543  0.00  0.00    -0.033 A 
ATOM      2  C1  UNL d   1      -4.331   1.401   1.497  0.00  0.00     0.039 A 
ATOM      3  C2  UNL d   1      -2.995   1.760   1.308  0.00  0.00    -0.080 A 
ATOM      4  C3  UNL d   1      -2.329   1.335   0.161  0.00  0.00     0.150 A 
ATOM      5  C4  UNL d   1      -2.979   0.562  -0.796  0.00  0.00    -0.007 A 
ATOM      6  C5  UNL d   1      -4.313   0.204  -0.604  0.00  0.00     0.039 A 
ENDROOT
BRANCH   4   7
ATOM      7  O   UNL d   1      -1.024   1.656  -0.065  0.00  0.00    -0.526 OA
ATOM      8  H5  UNL d   1      -0.697   2.169   0.693  0.00  0.00     0.418 HD
ENDBRANCH   4   7
TORSDOF 1
ENDMDL
