MODEL 1
REMARK minimizedAffinity -1.93837428
REMARK minimizedRMSD -1
REMARK  1 active torsions:
REMARK  status: ('A' for Active; 'I' for Inactive)
REMARK    1  A    between atoms: C3_4  and  O_7 
ROOT
ATOM      1  C   UNL d   1      -5.731   1.926  -4.133  0.00  0.00    -0.033 A 
ATOM      2  C1  UNL d   1      -4.738   2.548  -4.892  0.00  0.00     0.039 A 
ATOM      3  C2  UNL d   1      -3.393   2.250  -4.663  0.00  0.00    -0.080 A 
ATOM      4  C3  UNL d   1      -3.055   1.329  -3.675  0.00  0.00     0.150 A 
ATOM      5  C4  UNL d   1      -4.040   0.703  -2.918  0.00  0.00    -0.007 A 
ATOM      6  C5  UNL d   1      -5.382   1.002  -3.147  0.00  0.00     0.039 A 
ENDROOT
BRANCH   4   7
ATOM      7  O   UNL d   1      -1.756   1.010  -3.412  0.00  0.00    -0.526 OA
ATOM      8  H5  UNL d   1      -1.186   1.541  -3.992  0.00  0.00     0.418 HD
ENDBRANCH   4   7
TORSDOF 1
ENDMDL
