MODEL 1
REMARK minimizedAffinity 11.0772161
REMARK minimizedRMSD -1
REMARK  1 active torsions:
REMARK  status: ('A' for Active; 'I' for Inactive)
REMARK    1  A    between atoms: C3_4  and  O_7 
ROOT
ATOM      1  C   UNL d   1      -1.307   1.427   3.444  0.00  0.00    -0.033 A 
ATOM      2  C1  UNL d   1      -1.978   2.318   2.604  0.00  0.00     0.039 A 
ATOM      3  C2  UNL d   1      -1.303   2.917   1.538  0.00  0.00    -0.080 A 
ATOM      4  C3  UNL d   1       0.039   2.617   1.324  0.00  0.00     0.150 A 
ATOM      5  C4  UNL d   1       0.712   1.728   2.155  0.00  0.00    -0.007 A 
ATOM      6  C5  UNL d   1       0.038   1.131   3.219  0.00  0.00     0.039 A 
ENDROOT
BRANCH   4   7
ATOM      7  O   UNL d   1       0.741   3.180   0.300  0.00  0.00    -0.526 OA
ATOM      8  H5  UNL d   1       0.155   3.795  -0.173  0.00  0.00     0.418 HD
ENDBRANCH   4   7
TORSDOF 1
ENDMDL
