MODEL 1
REMARK minimizedAffinity -2.56875658
REMARK minimizedRMSD -1
REMARK  0 active torsions:
REMARK  status: ('A' for Active; 'I' for Inactive)
ROOT
ATOM      1  C1  DEN d   1       1.727   0.814  -1.032  0.00  0.00     0.130 A 
ATOM      2  C2  DEN d   1       2.517  -0.322  -1.501  0.00  0.00    -0.031 A 
ATOM      3  C3  DEN d   1       1.935  -1.551  -0.926  0.00  0.00     0.027 A 
ATOM      4  C4  DEN d   1      -0.105  -1.805   0.632  0.00  0.00     0.027 A 
ATOM      5  C5  DEN d   1      -1.090  -1.123   1.312  0.00  0.00    -0.003 A 
ATOM      6  C6  DEN d   1      -1.184   0.243   1.286  0.00  0.00     0.001 A 
ATOM      7  C7  DEN d   1      -0.303   0.969   0.528  0.00  0.00     0.017 A 
ATOM      8  C8  DEN d   1       0.697   0.290  -0.154  0.00  0.00    -0.094 A 
ATOM      9  C9  DEN d   1       0.767  -1.093  -0.125  0.00  0.00    -0.072 A 
ENDROOT
TORSDOF 0
ENDMDL
