MODEL 1
REMARK minimizedAffinity -3.20413017
REMARK minimizedRMSD -1
REMARK  0 active torsions:
REMARK  status: ('A' for Active; 'I' for Inactive)
ROOT
ATOM      1  C1  DEN d   1      -0.260   1.586  -0.112  0.00  0.00     0.130 A 
ATOM      2  C2  DEN d   1      -1.429   0.964   0.506  0.00  0.00    -0.031 A 
ATOM      3  C3  DEN d   1      -1.168  -0.485   0.621  0.00  0.00     0.027 A 
ATOM      4  C4  DEN d   1       0.923  -1.818  -0.090  0.00  0.00     0.027 A 
ATOM      5  C5  DEN d   1       2.168  -1.727  -0.671  0.00  0.00    -0.003 A 
ATOM      6  C6  DEN d   1       2.674  -0.541  -1.133  0.00  0.00     0.001 A 
ATOM      7  C7  DEN d   1       1.948   0.611  -0.981  0.00  0.00     0.017 A 
ATOM      8  C8  DEN d   1       0.688   0.526  -0.404  0.00  0.00    -0.094 A 
ATOM      9  C9  DEN d   1       0.200  -0.681   0.068  0.00  0.00    -0.072 A 
ENDROOT
TORSDOF 0
ENDMDL
