MODEL 1
REMARK minimizedAffinity -4.3093915
REMARK minimizedRMSD -1
REMARK  0 active torsions:
REMARK  status: ('A' for Active; 'I' for Inactive)
ROOT
ATOM      1  C1  DEN d   1       2.761   1.007  -0.845  0.00  0.00     0.130 A 
ATOM      2  C2  DEN d   1       3.350  -0.326  -0.933  0.00  0.00    -0.031 A 
ATOM      3  C3  DEN d   1       2.279  -1.315  -0.698  0.00  0.00     0.027 A 
ATOM      4  C4  DEN d   1      -0.222  -0.914  -0.213  0.00  0.00     0.027 A 
ATOM      5  C5  DEN d   1      -1.189   0.049  -0.031  0.00  0.00    -0.003 A 
ATOM      6  C6  DEN d   1      -0.904   1.388  -0.073  0.00  0.00     0.001 A 
ATOM      7  C7  DEN d   1       0.373   1.802  -0.348  0.00  0.00     0.017 A 
ATOM      8  C8  DEN d   1       1.355   0.837  -0.526  0.00  0.00    -0.094 A 
ATOM      9  C9  DEN d   1       1.044  -0.512  -0.491  0.00  0.00    -0.072 A 
ENDROOT
TORSDOF 0
ENDMDL
