MODEL 1
REMARK minimizedAffinity -2.92179251
REMARK minimizedRMSD -1
REMARK  0 active torsions:
REMARK  status: ('A' for Active; 'I' for Inactive)
ROOT
ATOM      1  C1  DEN d   1      -0.181   1.653  -0.737  0.00  0.00     0.130 A 
ATOM      2  C2  DEN d   1      -1.552   1.270  -0.410  0.00  0.00    -0.031 A 
ATOM      3  C3  DEN d   1      -1.547  -0.152  -0.014  0.00  0.00     0.027 A 
ATOM      4  C4  DEN d   1       0.441  -1.789   0.130  0.00  0.00     0.027 A 
ATOM      5  C5  DEN d   1       1.798  -1.927  -0.061  0.00  0.00    -0.003 A 
ATOM      6  C6  DEN d   1       2.579  -0.899  -0.519  0.00  0.00     0.001 A 
ATOM      7  C7  DEN d   1       2.015   0.327  -0.759  0.00  0.00     0.017 A 
ATOM      8  C8  DEN d   1       0.646   0.471  -0.576  0.00  0.00    -0.094 A 
ATOM      9  C9  DEN d   1      -0.124  -0.577  -0.101  0.00  0.00    -0.072 A 
ENDROOT
TORSDOF 0
ENDMDL
