MODEL 1
REMARK minimizedAffinity -5.8957715
REMARK minimizedRMSD -1
REMARK  0 active torsions:
REMARK  status: ('A' for Active; 'I' for Inactive)
ROOT
ATOM      1  C1  DEN d   1      -0.672   2.094   0.324  0.00  0.00     0.130 A 
ATOM      2  C2  DEN d   1      -1.890   1.492   0.860  0.00  0.00    -0.031 A 
ATOM      3  C3  DEN d   1      -1.728   0.025   0.825  0.00  0.00     0.027 A 
ATOM      4  C4  DEN d   1       0.283  -1.366   0.002  0.00  0.00     0.027 A 
ATOM      5  C5  DEN d   1       1.542  -1.299  -0.551  0.00  0.00    -0.003 A 
ATOM      6  C6  DEN d   1       2.134  -0.109  -0.880  0.00  0.00     0.001 A 
ATOM      7  C7  DEN d   1       1.483   1.068  -0.616  0.00  0.00     0.017 A 
ATOM      8  C8  DEN d   1       0.209   1.009  -0.066  0.00  0.00    -0.094 A 
ATOM      9  C9  DEN d   1      -0.366  -0.205   0.271  0.00  0.00    -0.072 A 
ENDROOT
TORSDOF 0
ENDMDL
