MODEL 1
REMARK minimizedAffinity -3.80174756
REMARK minimizedRMSD -1
REMARK  0 active torsions:
REMARK  status: ('A' for Active; 'I' for Inactive)
ROOT
ATOM      1  C1  DEN d   1       1.412   0.825  -1.731  0.00  0.00     0.130 A 
ATOM      2  C2  DEN d   1       2.422  -0.205  -1.958  0.00  0.00    -0.031 A 
ATOM      3  C3  DEN d   1       2.138  -1.331  -1.046  0.00  0.00     0.027 A 
ATOM      4  C4  DEN d   1       0.241  -1.580   0.684  0.00  0.00     0.027 A 
ATOM      5  C5  DEN d   1      -0.854  -0.962   1.246  0.00  0.00    -0.003 A 
ATOM      6  C6  DEN d   1      -1.248   0.298   0.882  0.00  0.00     0.001 A 
ATOM      7  C7  DEN d   1      -0.567   0.964  -0.103  0.00  0.00     0.017 A 
ATOM      8  C8  DEN d   1       0.543   0.351  -0.669  0.00  0.00    -0.094 A 
ATOM      9  C9  DEN d   1       0.918  -0.929  -0.296  0.00  0.00    -0.072 A 
ENDROOT
TORSDOF 0
ENDMDL
