MODEL 1
REMARK minimizedAffinity -0.219958544
REMARK minimizedRMSD -1
REMARK  0 active torsions:
REMARK  status: ('A' for Active; 'I' for Inactive)
ROOT
ATOM      1  C1  DEN d   1      -0.040  -1.543   0.212  0.00  0.00     0.130 A 
ATOM      2  C2  DEN d   1      -0.847  -0.469   0.783  0.00  0.00    -0.031 A 
ATOM      3  C3  DEN d   1      -0.362   0.811   0.229  0.00  0.00     0.027 A 
ATOM      4  C4  DEN d   1       1.549   1.230  -1.453  0.00  0.00     0.027 A 
ATOM      5  C5  DEN d   1       2.530   0.629  -2.209  0.00  0.00    -0.003 A 
ATOM      6  C6  DEN d   1       2.744  -0.724  -2.186  0.00  0.00     0.001 A 
ATOM      7  C7  DEN d   1       1.936  -1.526  -1.424  0.00  0.00     0.017 A 
ATOM      8  C8  DEN d   1       0.949  -0.926  -0.653  0.00  0.00    -0.094 A 
ATOM      9  C9  DEN d   1       0.741   0.442  -0.699  0.00  0.00    -0.072 A 
ENDROOT
TORSDOF 0
ENDMDL
