MODEL 1
REMARK minimizedAffinity -3.12102413
REMARK minimizedRMSD -1
REMARK  0 active torsions:
REMARK  status: ('A' for Active; 'I' for Inactive)
ROOT
ATOM      1  C1  DEN d   1       1.336  -1.492   0.437  0.00  0.00     0.130 A 
ATOM      2  C2  DEN d   1       2.660  -1.256  -0.133  0.00  0.00    -0.031 A 
ATOM      3  C3  DEN d   1       2.634   0.051  -0.820  0.00  0.00     0.027 A 
ATOM      4  C4  DEN d   1       0.686   1.725  -1.052  0.00  0.00     0.027 A 
ATOM      5  C5  DEN d   1      -0.637   1.957  -0.745  0.00  0.00    -0.003 A 
ATOM      6  C6  DEN d   1      -1.398   1.049  -0.058  0.00  0.00     0.001 A 
ATOM      7  C7  DEN d   1      -0.829  -0.116   0.385  0.00  0.00     0.017 A 
ATOM      8  C8  DEN d   1       0.502  -0.361   0.073  0.00  0.00    -0.094 A 
ATOM      9  C9  DEN d   1       1.258   0.575  -0.612  0.00  0.00    -0.072 A 
ENDROOT
TORSDOF 0
ENDMDL
