MODEL 1
REMARK minimizedAffinity -4.42731476
REMARK minimizedRMSD -1
REMARK  0 active torsions:
REMARK  status: ('A' for Active; 'I' for Inactive)
ROOT
ATOM      1  C1  DEN d   1      -0.924   1.493  -0.910  0.00  0.00     0.130 A 
ATOM      2  C2  DEN d   1      -0.071   2.411  -1.661  0.00  0.00    -0.031 A 
ATOM      3  C3  DEN d   1       1.266   1.796  -1.781  0.00  0.00     0.027 A 
ATOM      4  C4  DEN d   1       2.094  -0.477  -0.887  0.00  0.00     0.027 A 
ATOM      5  C5  DEN d   1       1.735  -1.602  -0.177  0.00  0.00    -0.003 A 
ATOM      6  C6  DEN d   1       0.486  -1.758   0.362  0.00  0.00     0.001 A 
ATOM      7  C7  DEN d   1      -0.465  -0.792   0.162  0.00  0.00     0.017 A 
ATOM      8  C8  DEN d   1      -0.109   0.348  -0.546  0.00  0.00    -0.094 A 
ATOM      9  C9  DEN d   1       1.156   0.481  -1.093  0.00  0.00    -0.072 A 
ENDROOT
TORSDOF 0
ENDMDL
