MODEL 1
REMARK minimizedAffinity 0.847626269
REMARK minimizedRMSD -1
REMARK  0 active torsions:
REMARK  status: ('A' for Active; 'I' for Inactive)
ROOT
ATOM      1  C1  DEN d   1       0.905   1.660  -1.486  0.00  0.00     0.130 A 
ATOM      2  C2  DEN d   1      -0.269   2.411  -1.049  0.00  0.00    -0.031 A 
ATOM      3  C3  DEN d   1      -1.079   1.530  -0.185  0.00  0.00     0.027 A 
ATOM      4  C4  DEN d   1      -0.630  -0.910   0.520  0.00  0.00     0.027 A 
ATOM      5  C5  DEN d   1       0.234  -1.975   0.391  0.00  0.00    -0.003 A 
ATOM      6  C6  DEN d   1       1.355  -1.914  -0.393  0.00  0.00     0.001 A 
ATOM      7  C7  DEN d   1       1.667  -0.750  -1.043  0.00  0.00     0.017 A 
ATOM      8  C8  DEN d   1       0.796   0.326  -0.924  0.00  0.00    -0.094 A 
ATOM      9  C9  DEN d   1      -0.326   0.249  -0.117  0.00  0.00    -0.072 A 
ENDROOT
TORSDOF 0
ENDMDL
