MODEL 1
REMARK minimizedAffinity -5.78900433
REMARK minimizedRMSD -1
REMARK  0 active torsions:
REMARK  status: ('A' for Active; 'I' for Inactive)
ROOT
ATOM      1  C1  DEN d   1      -0.609  -1.469   0.253  0.00  0.00     0.130 A 
ATOM      2  C2  DEN d   1      -1.571  -0.408   0.536  0.00  0.00    -0.031 A 
ATOM      3  C3  DEN d   1      -0.961   0.879   0.144  0.00  0.00     0.027 A 
ATOM      4  C4  DEN d   1       1.367   1.328  -0.872  0.00  0.00     0.027 A 
ATOM      5  C5  DEN d   1       2.544   0.742  -1.283  0.00  0.00    -0.003 A 
ATOM      6  C6  DEN d   1       2.764  -0.605  -1.180  0.00  0.00     0.001 A 
ATOM      7  C7  DEN d   1       1.775  -1.420  -0.695  0.00  0.00     0.017 A 
ATOM      8  C8  DEN d   1       0.588  -0.836  -0.272  0.00  0.00    -0.094 A 
ATOM      9  C9  DEN d   1       0.380   0.527  -0.395  0.00  0.00    -0.072 A 
ENDROOT
TORSDOF 0
ENDMDL
