MODEL 1
REMARK minimizedAffinity -4.06518173
REMARK minimizedRMSD -1
REMARK  0 active torsions:
REMARK  status: ('A' for Active; 'I' for Inactive)
ROOT
ATOM      1  C1  DEN d   1       0.116   0.540   0.805  0.00  0.00     0.130 A 
ATOM      2  C2  DEN d   1      -0.984  -0.387   0.555  0.00  0.00    -0.031 A 
ATOM      3  C3  DEN d   1      -0.565  -1.314  -0.516  0.00  0.00     0.027 A 
ATOM      4  C4  DEN d   1       1.670  -1.406  -1.800  0.00  0.00     0.027 A 
ATOM      5  C5  DEN d   1       2.905  -0.815  -1.946  0.00  0.00    -0.003 A 
ATOM      6  C6  DEN d   1       3.282   0.280  -1.215  0.00  0.00     0.001 A 
ATOM      7  C7  DEN d   1       2.431   0.792  -0.272  0.00  0.00     0.017 A 
ATOM      8  C8  DEN d   1       1.181   0.207  -0.124  0.00  0.00    -0.094 A 
ATOM      9  C9  DEN d   1       0.823  -0.907  -0.864  0.00  0.00    -0.072 A 
ENDROOT
TORSDOF 0
ENDMDL
