MODEL 1
REMARK minimizedAffinity -3.23332548
REMARK minimizedRMSD -1
REMARK  0 active torsions:
REMARK  status: ('A' for Active; 'I' for Inactive)
ROOT
ATOM      1  C1  DEN d   1      -0.263   1.806  -1.023  0.00  0.00     0.130 A 
ATOM      2  C2  DEN d   1      -1.596   1.366  -0.619  0.00  0.00    -0.031 A 
ATOM      3  C3  DEN d   1      -1.497  -0.038  -0.172  0.00  0.00     0.027 A 
ATOM      4  C4  DEN d   1       0.580  -1.563  -0.060  0.00  0.00     0.027 A 
ATOM      5  C5  DEN d   1       1.933  -1.636  -0.308  0.00  0.00    -0.003 A 
ATOM      6  C6  DEN d   1       2.636  -0.588  -0.839  0.00  0.00     0.001 A 
ATOM      7  C7  DEN d   1       1.998   0.596  -1.097  0.00  0.00     0.017 A 
ATOM      8  C8  DEN d   1       0.633   0.676  -0.857  0.00  0.00    -0.094 A 
ATOM      9  C9  DEN d   1      -0.058  -0.391  -0.308  0.00  0.00    -0.072 A 
ENDROOT
TORSDOF 0
ENDMDL
