MODEL 1
REMARK minimizedAffinity -3.05151033
REMARK minimizedRMSD -1
REMARK  0 active torsions:
REMARK  status: ('A' for Active; 'I' for Inactive)
ROOT
ATOM      1  C1  DEN d   1       2.339  -1.504  -0.496  0.00  0.00     0.130 A 
ATOM      2  C2  DEN d   1       2.878  -0.375  -1.250  0.00  0.00    -0.031 A 
ATOM      3  C3  DEN d   1       1.818   0.646  -1.363  0.00  0.00     0.027 A 
ATOM      4  C4  DEN d   1      -0.591   0.593  -0.444  0.00  0.00     0.027 A 
ATOM      5  C5  DEN d   1      -1.511  -0.160   0.252  0.00  0.00    -0.003 A 
ATOM      6  C6  DEN d   1      -1.225  -1.417   0.714  0.00  0.00     0.001 A 
ATOM      7  C7  DEN d   1       0.026  -1.942   0.525  0.00  0.00     0.017 A 
ATOM      8  C8  DEN d   1       0.956  -1.191  -0.182  0.00  0.00    -0.094 A 
ATOM      9  C9  DEN d   1       0.652   0.083  -0.631  0.00  0.00    -0.072 A 
ENDROOT
TORSDOF 0
ENDMDL
