MODEL 1
REMARK minimizedAffinity -3.76881647
REMARK minimizedRMSD -1
REMARK  0 active torsions:
REMARK  status: ('A' for Active; 'I' for Inactive)
ROOT
ATOM      1  C1  DEN d   1      -0.327  -1.496   0.021  0.00  0.00     0.130 A 
ATOM      2  C2  DEN d   1      -1.077  -0.426   0.673  0.00  0.00    -0.031 A 
ATOM      3  C3  DEN d   1      -0.327   0.833   0.493  0.00  0.00     0.027 A 
ATOM      4  C4  DEN d   1       1.909   1.229  -0.730  0.00  0.00     0.027 A 
ATOM      5  C5  DEN d   1       2.928   0.622  -1.432  0.00  0.00    -0.003 A 
ATOM      6  C6  DEN d   1       2.950  -0.727  -1.667  0.00  0.00     0.001 A 
ATOM      7  C7  DEN d   1       1.910  -1.508  -1.235  0.00  0.00     0.017 A 
ATOM      8  C8  DEN d   1       0.884  -0.905  -0.521  0.00  0.00    -0.094 A 
ATOM      9  C9  DEN d   1       0.873   0.462  -0.304  0.00  0.00    -0.072 A 
ENDROOT
TORSDOF 0
ENDMDL
