MODEL 1
REMARK minimizedAffinity -5.14452076
REMARK minimizedRMSD -1
REMARK  0 active torsions:
REMARK  status: ('A' for Active; 'I' for Inactive)
ROOT
ATOM      1  C1  DEN d   1      -0.967  -1.353  -0.405  0.00  0.00     0.130 A 
ATOM      2  C2  DEN d   1      -1.750  -0.130  -0.253  0.00  0.00    -0.031 A 
ATOM      3  C3  DEN d   1      -0.812   1.007  -0.173  0.00  0.00     0.027 A 
ATOM      4  C4  DEN d   1       1.765   0.993  -0.275  0.00  0.00     0.027 A 
ATOM      5  C5  DEN d   1       2.880   0.192  -0.385  0.00  0.00    -0.003 A 
ATOM      6  C6  DEN d   1       2.793  -1.172  -0.475  0.00  0.00     0.001 A 
ATOM      7  C7  DEN d   1       1.563  -1.773  -0.502  0.00  0.00     0.017 A 
ATOM      8  C8  DEN d   1       0.434  -0.973  -0.383  0.00  0.00    -0.094 A 
ATOM      9  C9  DEN d   1       0.543   0.406  -0.305  0.00  0.00    -0.072 A 
ENDROOT
TORSDOF 0
ENDMDL
