MODEL 1
REMARK minimizedAffinity -4.26993942
REMARK minimizedRMSD -1
REMARK  0 active torsions:
REMARK  status: ('A' for Active; 'I' for Inactive)
ROOT
ATOM      1  C1  DEN d   1      -1.561   2.336   2.426  0.00  0.00     0.130 A 
ATOM      2  C2  DEN d   1      -2.783   1.837   3.051  0.00  0.00    -0.031 A 
ATOM      3  C3  DEN d   1      -3.125   0.547   2.419  0.00  0.00     0.027 A 
ATOM      4  C4  DEN d   1      -1.885  -0.721   0.546  0.00  0.00     0.027 A 
ATOM      5  C5  DEN d   1      -0.805  -0.687  -0.308  0.00  0.00    -0.003 A 
ATOM      6  C6  DEN d   1       0.072   0.365  -0.335  0.00  0.00     0.001 A 
ATOM      7  C7  DEN d   1      -0.090   1.406   0.542  0.00  0.00     0.017 A 
ATOM      8  C8  DEN d   1      -1.180   1.382   1.401  0.00  0.00    -0.094 A 
ATOM      9  C9  DEN d   1      -2.049   0.304   1.420  0.00  0.00    -0.072 A 
ENDROOT
TORSDOF 0
ENDMDL
