MODEL 1
REMARK minimizedAffinity 18.1306
REMARK minimizedRMSD -1
REMARK  1 active torsions:
REMARK  status: ('A' for Active; 'I' for Inactive)
REMARK    1  A    between atoms: N_2  and  C1_3 
ROOT
ATOM      1  C1  UNL d   1       4.543  -2.211   1.442  0.00  0.00     0.143 A 
ATOM      2  C2  UNL d   1       3.619  -2.478   0.426  0.00  0.00    -0.057 A 
ATOM      3  C3  UNL d   1       2.339  -1.910   0.441  0.00  0.00     0.033 A 
ATOM      4  C4  UNL d   1       1.950  -1.086   1.491  0.00  0.00    -0.042 A 
ATOM      5  C5  UNL d   1       2.843  -0.827   2.525  0.00  0.00     0.033 A 
ATOM      6  C6  UNL d   1       4.122  -1.391   2.500  0.00  0.00    -0.057 A 
ENDROOT
BRANCH   1   7
ATOM      7  N   UNL d   1       5.796  -2.822   1.534  0.00  0.00    -0.732 N 
ATOM      8  C   UNL d   1       5.958  -4.223   1.210  0.00  0.00     0.284 C 
ATOM      9  H3  UNL d   1       6.545  -2.226   1.190  0.00  0.00     0.395 HD
ENDBRANCH   1   7
TORSDOF 1
ENDMDL
