MODEL 1
REMARK minimizedAffinity 9.80247498
REMARK minimizedRMSD -1
REMARK  1 active torsions:
REMARK  status: ('A' for Active; 'I' for Inactive)
REMARK    1  A    between atoms: N_2  and  C1_3 
ROOT
ATOM      1  C1  UNL d   1       5.148  -3.708   0.921  0.00  0.00     0.143 A 
ATOM      2  C2  UNL d   1       3.791  -3.838   0.606  0.00  0.00    -0.057 A 
ATOM      3  C3  UNL d   1       2.978  -2.713   0.423  0.00  0.00     0.033 A 
ATOM      4  C4  UNL d   1       3.503  -1.435   0.581  0.00  0.00    -0.042 A 
ATOM      5  C5  UNL d   1       4.843  -1.282   0.918  0.00  0.00     0.033 A 
ATOM      6  C6  UNL d   1       5.652  -2.409   1.093  0.00  0.00    -0.057 A 
ENDROOT
BRANCH   1   7
ATOM      7  N   UNL d   1       5.986  -4.788   1.212  0.00  0.00    -0.732 N 
ATOM      8  C   UNL d   1       5.458  -5.983   1.835  0.00  0.00     0.284 C 
ATOM      9  H3  UNL d   1       6.659  -4.969   0.470  0.00  0.00     0.395 HD
ENDBRANCH   1   7
TORSDOF 1
ENDMDL
