MODEL 1
REMARK minimizedAffinity 12.6733599
REMARK minimizedRMSD -1
REMARK  1 active torsions:
REMARK  status: ('A' for Active; 'I' for Inactive)
REMARK    1  A    between atoms: N_2  and  C1_3 
ROOT
ATOM      1  C1  UNL d   1       1.449  -3.619  -1.163  0.00  0.00     0.143 A 
ATOM      2  C2  UNL d   1       2.287  -3.620  -0.042  0.00  0.00    -0.057 A 
ATOM      3  C3  UNL d   1       2.453  -2.472   0.741  0.00  0.00     0.033 A 
ATOM      4  C4  UNL d   1       1.804  -1.290   0.400  0.00  0.00    -0.042 A 
ATOM      5  C5  UNL d   1       0.985  -1.259  -0.723  0.00  0.00     0.033 A 
ATOM      6  C6  UNL d   1       0.819  -2.410  -1.498  0.00  0.00    -0.057 A 
ENDROOT
BRANCH   1   7
ATOM      7  N   UNL d   1       1.320  -4.700  -2.038  0.00  0.00    -0.732 N 
ATOM      8  C   UNL d   1       1.850  -6.000  -1.688  0.00  0.00     0.284 C 
ATOM      9  H3  UNL d   1       0.406  -4.730  -2.486  0.00  0.00     0.395 HD
ENDBRANCH   1   7
TORSDOF 1
ENDMDL
