MODEL 1
REMARK minimizedAffinity 16.0852547
REMARK minimizedRMSD -1
REMARK  1 active torsions:
REMARK  status: ('A' for Active; 'I' for Inactive)
REMARK    1  A    between atoms: N_2  and  C1_3 
ROOT
ATOM      1  C1  UNL d   1       4.387  -4.914  -2.241  0.00  0.00     0.143 A 
ATOM      2  C2  UNL d   1       4.784  -4.283  -3.425  0.00  0.00    -0.057 A 
ATOM      3  C3  UNL d   1       3.860  -3.614  -4.236  0.00  0.00     0.033 A 
ATOM      4  C4  UNL d   1       2.513  -3.589  -3.892  0.00  0.00    -0.042 A 
ATOM      5  C5  UNL d   1       2.091  -4.231  -2.733  0.00  0.00     0.033 A 
ATOM      6  C6  UNL d   1       3.020  -4.892  -1.923  0.00  0.00    -0.057 A 
ENDROOT
BRANCH   1   7
ATOM      7  N   UNL d   1       5.241  -5.680  -1.443  0.00  0.00    -0.732 N 
ATOM      8  C   UNL d   1       5.488  -5.313  -0.065  0.00  0.00     0.284 C 
ATOM      9  H3  UNL d   1       5.120  -6.679  -1.592  0.00  0.00     0.395 HD
ENDBRANCH   1   7
TORSDOF 1
ENDMDL
