MODEL 1
REMARK minimizedAffinity 11.8360329
REMARK minimizedRMSD -1
REMARK  1 active torsions:
REMARK  status: ('A' for Active; 'I' for Inactive)
REMARK    1  A    between atoms: N_2  and  C1_3 
ROOT
ATOM      1  C1  UNL d   1      -4.556   5.564  -0.868  0.00  0.00     0.143 A 
ATOM      2  C2  UNL d   1      -3.438   5.685  -0.034  0.00  0.00    -0.057 A 
ATOM      3  C3  UNL d   1      -3.579   5.884   1.345  0.00  0.00     0.033 A 
ATOM      4  C4  UNL d   1      -4.845   5.996   1.912  0.00  0.00    -0.042 A 
ATOM      5  C5  UNL d   1      -5.969   5.904   1.099  0.00  0.00     0.033 A 
ATOM      6  C6  UNL d   1      -5.822   5.699  -0.277  0.00  0.00    -0.057 A 
ENDROOT
BRANCH   1   7
ATOM      7  N   UNL d   1      -4.481   5.464  -2.259  0.00  0.00    -0.732 N 
ATOM      8  C   UNL d   1      -3.604   4.496  -2.882  0.00  0.00     0.284 C 
ATOM      9  H3  UNL d   1      -5.392   5.547  -2.704  0.00  0.00     0.395 HD
ENDBRANCH   1   7
TORSDOF 1
ENDMDL
