MODEL 1
REMARK minimizedAffinity 0.457861841
REMARK minimizedRMSD -1
REMARK  1 active torsions:
REMARK  status: ('A' for Active; 'I' for Inactive)
REMARK    1  A    between atoms: N_2  and  C1_3 
ROOT
ATOM      1  C1  UNL d   1      -3.826   2.929  -4.396  0.00  0.00     0.143 A 
ATOM      2  C2  UNL d   1      -2.471   2.955  -4.048  0.00  0.00    -0.057 A 
ATOM      3  C3  UNL d   1      -1.729   4.141  -4.103  0.00  0.00     0.033 A 
ATOM      4  C4  UNL d   1      -2.325   5.321  -4.536  0.00  0.00    -0.042 A 
ATOM      5  C5  UNL d   1      -3.664   5.314  -4.910  0.00  0.00     0.033 A 
ATOM      6  C6  UNL d   1      -4.401   4.127  -4.847  0.00  0.00    -0.057 A 
ENDROOT
BRANCH   1   7
ATOM      7  N   UNL d   1      -4.591   1.762  -4.456  0.00  0.00    -0.732 N 
ATOM      8  C   UNL d   1      -5.978   1.810  -4.866  0.00  0.00     0.284 C 
ATOM      9  H3  UNL d   1      -4.071   0.976  -4.840  0.00  0.00     0.395 HD
ENDBRANCH   1   7
TORSDOF 1
ENDMDL
