MODEL 1
REMARK minimizedAffinity 18.1560707
REMARK minimizedRMSD -1
REMARK  1 active torsions:
REMARK  status: ('A' for Active; 'I' for Inactive)
REMARK    1  A    between atoms: N_2  and  C1_3 
ROOT
ATOM      1  C1  UNL d   1       1.334   3.138   1.763  0.00  0.00     0.143 A 
ATOM      2  C2  UNL d   1       1.593   2.746   3.081  0.00  0.00    -0.057 A 
ATOM      3  C3  UNL d   1       0.916   1.669   3.665  0.00  0.00     0.033 A 
ATOM      4  C4  UNL d   1      -0.058   0.982   2.948  0.00  0.00    -0.042 A 
ATOM      5  C5  UNL d   1      -0.351   1.370   1.646  0.00  0.00     0.033 A 
ATOM      6  C6  UNL d   1       0.334   2.442   1.066  0.00  0.00    -0.057 A 
ENDROOT
BRANCH   1   7
ATOM      7  N   UNL d   1       1.903   4.262   1.159  0.00  0.00    -0.732 N 
ATOM      8  C   UNL d   1       1.666   4.547  -0.240  0.00  0.00     0.284 C 
ATOM      9  H3  UNL d   1       1.876   5.082   1.761  0.00  0.00     0.395 HD
ENDBRANCH   1   7
TORSDOF 1
ENDMDL
