MODEL 1
REMARK minimizedAffinity 6.56131268
REMARK minimizedRMSD -1
REMARK  1 active torsions:
REMARK  status: ('A' for Active; 'I' for Inactive)
REMARK    1  A    between atoms: N_2  and  C1_3 
ROOT
ATOM      1  C1  UNL d   1       3.282  -3.578   0.255  0.00  0.00     0.143 A 
ATOM      2  C2  UNL d   1       4.244  -4.591   0.191  0.00  0.00    -0.057 A 
ATOM      3  C3  UNL d   1       5.587  -4.337   0.492  0.00  0.00     0.033 A 
ATOM      4  C4  UNL d   1       5.999  -3.054   0.835  0.00  0.00    -0.042 A 
ATOM      5  C5  UNL d   1       5.064  -2.025   0.881  0.00  0.00     0.033 A 
ATOM      6  C6  UNL d   1       3.723  -2.287   0.586  0.00  0.00    -0.057 A 
ENDROOT
BRANCH   1   7
ATOM      7  N   UNL d   1       1.949  -3.745  -0.128  0.00  0.00    -0.732 N 
ATOM      8  C   UNL d   1       1.614  -4.470  -1.335  0.00  0.00     0.284 C 
ATOM      9  H3  UNL d   1       1.340  -3.948   0.661  0.00  0.00     0.395 HD
ENDBRANCH   1   7
TORSDOF 1
ENDMDL
