MODEL 1
REMARK minimizedAffinity 10.4457874
REMARK minimizedRMSD -1
REMARK  1 active torsions:
REMARK  status: ('A' for Active; 'I' for Inactive)
REMARK    1  A    between atoms: N_2  and  C1_3 
ROOT
ATOM      1  C1  UNL d   1       2.481  -3.113   0.044  0.00  0.00     0.143 A 
ATOM      2  C2  UNL d   1       3.593  -3.847   0.472  0.00  0.00    -0.057 A 
ATOM      3  C3  UNL d   1       4.654  -3.230   1.146  0.00  0.00     0.033 A 
ATOM      4  C4  UNL d   1       4.635  -1.859   1.381  0.00  0.00    -0.042 A 
ATOM      5  C5  UNL d   1       3.551  -1.106   0.943  0.00  0.00     0.033 A 
ATOM      6  C6  UNL d   1       2.492  -1.729   0.276  0.00  0.00    -0.057 A 
ENDROOT
BRANCH   1   7
ATOM      7  N   UNL d   1       1.441  -3.650  -0.718  0.00  0.00    -0.732 N 
ATOM      8  C   UNL d   1       1.720  -4.565  -1.804  0.00  0.00     0.284 C 
ATOM      9  H3  UNL d   1       0.638  -3.912  -0.150  0.00  0.00     0.395 HD
ENDBRANCH   1   7
TORSDOF 1
ENDMDL
