MODEL 1
REMARK minimizedAffinity 8.45868301
REMARK minimizedRMSD -1
REMARK  1 active torsions:
REMARK  status: ('A' for Active; 'I' for Inactive)
REMARK    1  A    between atoms: N_2  and  C1_3 
ROOT
ATOM      1  C1  UNL d   1      -5.714  -4.529   2.909  0.00  0.00     0.143 A 
ATOM      2  C2  UNL d   1      -5.888  -5.802   3.463  0.00  0.00    -0.057 A 
ATOM      3  C3  UNL d   1      -5.866  -6.000   4.849  0.00  0.00     0.033 A 
ATOM      4  C4  UNL d   1      -5.640  -4.929   5.707  0.00  0.00    -0.042 A 
ATOM      5  C5  UNL d   1      -5.439  -3.659   5.178  0.00  0.00     0.033 A 
ATOM      6  C6  UNL d   1      -5.469  -3.466   3.793  0.00  0.00    -0.057 A 
ENDROOT
BRANCH   1   7
ATOM      7  N   UNL d   1      -5.627  -4.283   1.537  0.00  0.00    -0.732 N 
ATOM      8  C   UNL d   1      -5.382  -2.945   1.042  0.00  0.00     0.284 C 
ATOM      9  H3  UNL d   1      -5.114  -5.009   1.044  0.00  0.00     0.395 HD
ENDBRANCH   1   7
TORSDOF 1
ENDMDL
