MODEL 1
REMARK minimizedAffinity 7.36663294
REMARK minimizedRMSD -1
REMARK  1 active torsions:
REMARK  status: ('A' for Active; 'I' for Inactive)
REMARK    1  A    between atoms: N_2  and  C1_3 
ROOT
ATOM      1  C1  UNL d   1       3.929  -3.753   0.317  0.00  0.00     0.143 A 
ATOM      2  C2  UNL d   1       4.804  -4.204   1.311  0.00  0.00    -0.057 A 
ATOM      3  C3  UNL d   1       5.646  -5.301   1.093  0.00  0.00     0.033 A 
ATOM      4  C4  UNL d   1       5.606  -5.987  -0.117  0.00  0.00    -0.042 A 
ATOM      5  C5  UNL d   1       4.726  -5.571  -1.110  0.00  0.00     0.033 A 
ATOM      6  C6  UNL d   1       3.892  -4.471  -0.888  0.00  0.00    -0.057 A 
ENDROOT
BRANCH   1   7
ATOM      7  N   UNL d   1       2.997  -2.730   0.508  0.00  0.00    -0.732 N 
ATOM      8  C   UNL d   1       3.332  -1.566   1.300  0.00  0.00     0.284 C 
ATOM      9  H3  UNL d   1       2.472  -2.520  -0.338  0.00  0.00     0.395 HD
ENDBRANCH   1   7
TORSDOF 1
ENDMDL
