MODEL 1
REMARK minimizedAffinity 11.4447241
REMARK minimizedRMSD -1
REMARK  1 active torsions:
REMARK  status: ('A' for Active; 'I' for Inactive)
REMARK    1  A    between atoms: N_2  and  C1_3 
ROOT
ATOM      1  C1  UNL d   1      -4.988   5.784  -0.332  0.00  0.00     0.143 A 
ATOM      2  C2  UNL d   1      -3.660   5.818   0.106  0.00  0.00    -0.057 A 
ATOM      3  C3  UNL d   1      -3.347   5.910   1.468  0.00  0.00     0.033 A 
ATOM      4  C4  UNL d   1      -4.361   5.998   2.416  0.00  0.00    -0.042 A 
ATOM      5  C5  UNL d   1      -5.688   5.991   2.002  0.00  0.00     0.033 A 
ATOM      6  C6  UNL d   1      -5.994   5.893   0.641  0.00  0.00    -0.057 A 
ENDROOT
BRANCH   1   7
ATOM      7  N   UNL d   1      -5.363   5.793  -1.678  0.00  0.00    -0.732 N 
ATOM      8  C   UNL d   1      -4.364   5.879  -2.721  0.00  0.00     0.284 C 
ATOM      9  H3  UNL d   1      -6.116   5.137  -1.876  0.00  0.00     0.395 HD
ENDBRANCH   1   7
TORSDOF 1
ENDMDL
