MODEL 1
REMARK minimizedAffinity 3.25351095
REMARK minimizedRMSD -1
REMARK  1 active torsions:
REMARK  status: ('A' for Active; 'I' for Inactive)
REMARK    1  A    between atoms: N_2  and  C1_3 
ROOT
ATOM      1  C1  UNL d   1      -1.156   5.005  -0.176  0.00  0.00     0.143 A 
ATOM      2  C2  UNL d   1      -0.495   5.132  -1.403  0.00  0.00    -0.057 A 
ATOM      3  C3  UNL d   1       0.385   4.143  -1.858  0.00  0.00     0.033 A 
ATOM      4  C4  UNL d   1       0.643   3.019  -1.079  0.00  0.00    -0.042 A 
ATOM      5  C5  UNL d   1       0.016   2.885   0.155  0.00  0.00     0.033 A 
ATOM      6  C6  UNL d   1      -0.867   3.873   0.601  0.00  0.00    -0.057 A 
ENDROOT
BRANCH   1   7
ATOM      7  N   UNL d   1      -1.966   6.000   0.377  0.00  0.00    -0.732 N 
ATOM      8  C   UNL d   1      -3.408   5.888   0.326  0.00  0.00     0.284 C 
ATOM      9  H3  UNL d   1      -1.607   6.345   1.264  0.00  0.00     0.395 HD
ENDBRANCH   1   7
TORSDOF 1
ENDMDL
