MODEL 1
REMARK minimizedAffinity 16.6603317
REMARK minimizedRMSD -1
REMARK  1 active torsions:
REMARK  status: ('A' for Active; 'I' for Inactive)
REMARK    1  A    between atoms: N_2  and  C1_3 
ROOT
ATOM      1  C1  UNL d   1       2.256  -0.546  -4.944  0.00  0.00     0.143 A 
ATOM      2  C2  UNL d   1       2.473   0.290  -3.844  0.00  0.00    -0.057 A 
ATOM      3  C3  UNL d   1       1.898   1.565  -3.776  0.00  0.00     0.033 A 
ATOM      4  C4  UNL d   1       1.116   2.038  -4.825  0.00  0.00    -0.042 A 
ATOM      5  C5  UNL d   1       0.907   1.234  -5.940  0.00  0.00     0.033 A 
ATOM      6  C6  UNL d   1       1.479  -0.041  -5.998  0.00  0.00    -0.057 A 
ENDROOT
BRANCH   1   7
ATOM      7  N   UNL d   1       2.880  -1.785  -5.115  0.00  0.00    -0.732 N 
ATOM      8  C   UNL d   1       2.187  -2.876  -5.766  0.00  0.00     0.284 C 
ATOM      9  H3  UNL d   1       3.857  -1.693  -5.384  0.00  0.00     0.395 HD
ENDBRANCH   1   7
TORSDOF 1
ENDMDL
