MODEL 1
REMARK minimizedAffinity 13.2896013
REMARK minimizedRMSD -1
REMARK  1 active torsions:
REMARK  status: ('A' for Active; 'I' for Inactive)
REMARK    1  A    between atoms: N_2  and  C1_3 
ROOT
ATOM      1  C1  UNL d   1      -2.233   2.768   1.044  0.00  0.00     0.143 A 
ATOM      2  C2  UNL d   1      -1.555   2.943  -0.167  0.00  0.00    -0.057 A 
ATOM      3  C3  UNL d   1      -0.236   2.501  -0.332  0.00  0.00     0.033 A 
ATOM      4  C4  UNL d   1       0.439   1.900   0.725  0.00  0.00    -0.042 A 
ATOM      5  C5  UNL d   1      -0.206   1.738   1.945  0.00  0.00     0.033 A 
ATOM      6  C6  UNL d   1      -1.525   2.176   2.102  0.00  0.00    -0.057 A 
ENDROOT
BRANCH   1   7
ATOM      7  N   UNL d   1      -3.509   3.273   1.301  0.00  0.00    -0.732 N 
ATOM      8  C   UNL d   1      -3.784   4.688   1.164  0.00  0.00     0.284 C 
ATOM      9  H3  UNL d   1      -4.246   2.670   0.942  0.00  0.00     0.395 HD
ENDBRANCH   1   7
TORSDOF 1
ENDMDL
