MODEL 1
REMARK minimizedAffinity 20.4618473
REMARK minimizedRMSD -1
REMARK  1 active torsions:
REMARK  status: ('A' for Active; 'I' for Inactive)
REMARK    1  A    between atoms: N_2  and  C1_3 
ROOT
ATOM      1  C1  UNL d   1      -2.779   3.858   0.585  0.00  0.00     0.143 A 
ATOM      2  C2  UNL d   1      -1.543   4.230   0.044  0.00  0.00    -0.057 A 
ATOM      3  C3  UNL d   1      -0.453   3.350   0.051  0.00  0.00     0.033 A 
ATOM      4  C4  UNL d   1      -0.572   2.090   0.626  0.00  0.00    -0.042 A 
ATOM      5  C5  UNL d   1      -1.784   1.708   1.192  0.00  0.00     0.033 A 
ATOM      6  C6  UNL d   1      -2.870   2.588   1.177  0.00  0.00    -0.057 A 
ENDROOT
BRANCH   1   7
ATOM      7  N   UNL d   1      -3.871   4.722   0.698  0.00  0.00    -0.732 N 
ATOM      8  C   UNL d   1      -3.879   5.774   1.691  0.00  0.00     0.284 C 
ATOM      9  H3  UNL d   1      -4.238   5.003  -0.209  0.00  0.00     0.395 HD
ENDBRANCH   1   7
TORSDOF 1
ENDMDL
