MODEL 1
REMARK minimizedAffinity 10.0130901
REMARK minimizedRMSD -1
REMARK  1 active torsions:
REMARK  status: ('A' for Active; 'I' for Inactive)
REMARK    1  A    between atoms: N_2  and  C1_3 
ROOT
ATOM      1  C1  UNL d   1      -0.235   2.409   0.089  0.00  0.00     0.143 A 
ATOM      2  C2  UNL d   1      -0.669   2.361  -1.240  0.00  0.00    -0.057 A 
ATOM      3  C3  UNL d   1      -0.662   3.505  -2.047  0.00  0.00     0.033 A 
ATOM      4  C4  UNL d   1      -0.246   4.727  -1.529  0.00  0.00    -0.042 A 
ATOM      5  C5  UNL d   1       0.165   4.803  -0.203  0.00  0.00     0.033 A 
ATOM      6  C6  UNL d   1       0.162   3.656   0.596  0.00  0.00    -0.057 A 
ENDROOT
BRANCH   1   7
ATOM      7  N   UNL d   1      -0.312   1.328   0.971  0.00  0.00    -0.732 N 
ATOM      8  C   UNL d   1      -0.847   1.501   2.304  0.00  0.00     0.284 C 
ATOM      9  H3  UNL d   1      -0.611   0.471   0.511  0.00  0.00     0.395 HD
ENDBRANCH   1   7
TORSDOF 1
ENDMDL
