MODEL 1
REMARK minimizedAffinity -2.36998224
REMARK minimizedRMSD -1
REMARK  1 active torsions:
REMARK  status: ('A' for Active; 'I' for Inactive)
REMARK    1  A    between atoms: C1_2  and  C2_3 
ROOT
ATOM      1  C2  UNL d   1      -1.119  -0.287  -0.313  0.00  0.00    -0.081 A 
ATOM      2  C3  UNL d   1      -1.874  -0.811  -1.369  0.00  0.00     0.006 A 
ATOM      3  C4  UNL d   1      -3.172  -1.277  -1.149  0.00  0.00     0.002 A 
ATOM      4  C5  UNL d   1      -3.740  -1.219   0.128  0.00  0.00    -0.080 A 
ATOM      5  C6  UNL d   1      -5.144  -1.687   0.372  0.00  0.00     0.076 C 
ATOM      6  C7  UNL d   1      -2.980  -0.711   1.187  0.00  0.00     0.002 A 
ATOM      7  C8  UNL d   1      -1.681  -0.246   0.968  0.00  0.00     0.006 A 
ENDROOT
BRANCH   1   8
ATOM      8  C1  UNL d   1       0.257   0.276  -0.560  0.00  0.00     0.054 C 
ATOM      9  C   UNL d   1       1.313  -0.471   0.244  0.00  0.00     0.018 C 
ENDBRANCH   1   8
TORSDOF 1
ENDMDL
