MODEL 1
REMARK minimizedAffinity 2.03629994
REMARK minimizedRMSD -1
REMARK  1 active torsions:
REMARK  status: ('A' for Active; 'I' for Inactive)
REMARK    1  A    between atoms: C1_2  and  C2_3 
ROOT
ATOM      1  C2  UNL d   1       0.616  -2.042   2.632  0.00  0.00    -0.081 A 
ATOM      2  C3  UNL d   1       0.317  -1.738   1.299  0.00  0.00     0.006 A 
ATOM      3  C4  UNL d   1       1.195  -0.964   0.535  0.00  0.00     0.002 A 
ATOM      4  C5  UNL d   1       2.388  -0.489   1.089  0.00  0.00    -0.080 A 
ATOM      5  C6  UNL d   1       3.353   0.317   0.271  0.00  0.00     0.076 C 
ATOM      6  C7  UNL d   1       2.678  -0.778   2.427  0.00  0.00     0.002 A 
ATOM      7  C8  UNL d   1       1.801  -1.551   3.191  0.00  0.00     0.006 A 
ENDROOT
BRANCH   1   8
ATOM      8  C1  UNL d   1      -0.296  -2.930   3.439  0.00  0.00     0.054 C 
ATOM      9  C   UNL d   1      -0.670  -4.187   2.667  0.00  0.00     0.018 C 
ENDBRANCH   1   8
TORSDOF 1
ENDMDL
