MODEL 1
REMARK minimizedAffinity -5.4162693
REMARK minimizedRMSD -1
REMARK  1 active torsions:
REMARK  status: ('A' for Active; 'I' for Inactive)
REMARK    1  A    between atoms: C1_2  and  C2_3 
ROOT
ATOM      1  C2  UNL d   1      -0.183  -0.257  -0.286  0.00  0.00    -0.081 A 
ATOM      2  C3  UNL d   1      -0.895  -0.227   0.919  0.00  0.00     0.006 A 
ATOM      3  C4  UNL d   1      -0.245  -0.464   2.132  0.00  0.00     0.002 A 
ATOM      4  C5  UNL d   1       1.129  -0.728   2.161  0.00  0.00    -0.080 A 
ATOM      5  C6  UNL d   1       1.845  -0.955   3.460  0.00  0.00     0.076 C 
ATOM      6  C7  UNL d   1       1.837  -0.776   0.956  0.00  0.00     0.002 A 
ATOM      7  C8  UNL d   1       1.187  -0.540  -0.257  0.00  0.00     0.006 A 
ENDROOT
BRANCH   1   8
ATOM      8  C1  UNL d   1      -0.869   0.062  -1.590  0.00  0.00     0.054 C 
ATOM      9  C   UNL d   1      -0.406   1.402  -2.145  0.00  0.00     0.018 C 
ENDBRANCH   1   8
TORSDOF 1
ENDMDL
