MODEL 1
REMARK minimizedAffinity -4.32584429
REMARK minimizedRMSD -1
REMARK  1 active torsions:
REMARK  status: ('A' for Active; 'I' for Inactive)
REMARK    1  A    between atoms: C1_2  and  C2_3 
ROOT
ATOM      1  C2  UNL d   1      -0.025   0.144   1.131  0.00  0.00    -0.081 A 
ATOM      2  C3  UNL d   1       0.880  -0.556   1.938  0.00  0.00     0.006 A 
ATOM      3  C4  UNL d   1       0.428  -1.534   2.826  0.00  0.00     0.002 A 
ATOM      4  C5  UNL d   1      -0.935  -1.835   2.917  0.00  0.00    -0.080 A 
ATOM      5  C6  UNL d   1      -1.431  -2.904   3.845  0.00  0.00     0.076 C 
ATOM      6  C7  UNL d   1      -1.842  -1.123   2.124  0.00  0.00     0.002 A 
ATOM      7  C8  UNL d   1      -1.390  -0.145   1.236  0.00  0.00     0.006 A 
ENDROOT
BRANCH   1   8
ATOM      8  C1  UNL d   1       0.466   1.154   0.126  0.00  0.00     0.054 C 
ATOM      9  C   UNL d   1      -0.214   0.967  -1.223  0.00  0.00     0.018 C 
ENDBRANCH   1   8
TORSDOF 1
ENDMDL
