MODEL 1
REMARK minimizedAffinity -0.146594599
REMARK minimizedRMSD -1
REMARK  1 active torsions:
REMARK  status: ('A' for Active; 'I' for Inactive)
REMARK    1  A    between atoms: C1_2  and  C2_3 
ROOT
ATOM      1  C2  UNL d   1      -1.192  -0.806   0.153  0.00  0.00    -0.081 A 
ATOM      2  C3  UNL d   1       0.108  -0.463  -0.240  0.00  0.00     0.006 A 
ATOM      3  C4  UNL d   1       1.138  -0.397   0.701  0.00  0.00     0.002 A 
ATOM      4  C5  UNL d   1       0.888  -0.679   2.048  0.00  0.00    -0.080 A 
ATOM      5  C6  UNL d   1       1.991  -0.640   3.063  0.00  0.00     0.076 C 
ATOM      6  C7  UNL d   1      -0.414  -1.004   2.444  0.00  0.00     0.002 A 
ATOM      7  C8  UNL d   1      -1.444  -1.071   1.503  0.00  0.00     0.006 A 
ENDROOT
BRANCH   1   8
ATOM      8  C1  UNL d   1      -2.291  -0.942  -0.870  0.00  0.00     0.054 C 
ATOM      9  C   UNL d   1      -3.342  -1.947  -0.421  0.00  0.00     0.018 C 
ENDBRANCH   1   8
TORSDOF 1
ENDMDL
