MODEL 1
REMARK minimizedAffinity -3.49173617
REMARK minimizedRMSD -1
REMARK  1 active torsions:
REMARK  status: ('A' for Active; 'I' for Inactive)
REMARK    1  A    between atoms: C1_2  and  C2_3 
ROOT
ATOM      1  C2  UNL d   1      -0.412  -0.484   0.255  0.00  0.00    -0.081 A 
ATOM      2  C3  UNL d   1      -1.173  -0.941   1.337  0.00  0.00     0.006 A 
ATOM      3  C4  UNL d   1      -2.496  -1.349   1.151  0.00  0.00     0.002 A 
ATOM      4  C5  UNL d   1      -3.077  -1.314  -0.121  0.00  0.00    -0.080 A 
ATOM      5  C6  UNL d   1      -4.487  -1.778  -0.340  0.00  0.00     0.076 C 
ATOM      6  C7  UNL d   1      -2.322  -0.841  -1.200  0.00  0.00     0.002 A 
ATOM      7  C8  UNL d   1      -1.000  -0.432  -1.014  0.00  0.00     0.006 A 
ENDROOT
BRANCH   1   8
ATOM      8  C1  UNL d   1       1.035  -0.104   0.441  0.00  0.00     0.054 C 
ATOM      9  C   UNL d   1       1.531  -0.481   1.829  0.00  0.00     0.018 C 
ENDBRANCH   1   8
TORSDOF 1
ENDMDL
