MODEL 1
REMARK minimizedAffinity 1.96282041
REMARK minimizedRMSD -1
REMARK  1 active torsions:
REMARK  status: ('A' for Active; 'I' for Inactive)
REMARK    1  A    between atoms: C1_2  and  C2_3 
ROOT
ATOM      1  C2  UNL d   1      -1.419  -0.283  -0.314  0.00  0.00    -0.081 A 
ATOM      2  C3  UNL d   1      -2.148  -0.647  -1.452  0.00  0.00     0.006 A 
ATOM      3  C4  UNL d   1      -3.437  -1.172  -1.329  0.00  0.00     0.002 A 
ATOM      4  C5  UNL d   1      -4.020  -1.335  -0.068  0.00  0.00    -0.080 A 
ATOM      5  C6  UNL d   1      -5.414  -1.869   0.076  0.00  0.00     0.076 C 
ATOM      6  C7  UNL d   1      -3.284  -0.987   1.070  0.00  0.00     0.002 A 
ATOM      7  C8  UNL d   1      -1.996  -0.463   0.948  0.00  0.00     0.006 A 
ENDROOT
BRANCH   1   8
ATOM      8  C1  UNL d   1      -0.054   0.344  -0.446  0.00  0.00     0.054 C 
ATOM      9  C   UNL d   1       0.947  -0.306   0.498  0.00  0.00     0.018 C 
ENDBRANCH   1   8
TORSDOF 1
ENDMDL
