MODEL 1
REMARK minimizedAffinity -1.20738697
REMARK minimizedRMSD -1
REMARK  1 active torsions:
REMARK  status: ('A' for Active; 'I' for Inactive)
REMARK    1  A    between atoms: C1_2  and  C2_3 
ROOT
ATOM      1  C2  UNL d   1      -1.286   3.190  -2.860  0.00  0.00    -0.081 A 
ATOM      2  C3  UNL d   1      -1.232   3.505  -4.223  0.00  0.00     0.006 A 
ATOM      3  C4  UNL d   1      -0.025   3.429  -4.921  0.00  0.00     0.002 A 
ATOM      4  C5  UNL d   1       1.147   3.030  -4.269  0.00  0.00    -0.080 A 
ATOM      5  C6  UNL d   1       2.445   2.915  -5.013  0.00  0.00     0.076 C 
ATOM      6  C7  UNL d   1       1.098   2.732  -2.903  0.00  0.00     0.002 A 
ATOM      7  C8  UNL d   1      -0.109   2.809  -2.205  0.00  0.00     0.006 A 
ENDROOT
BRANCH   1   8
ATOM      8  C1  UNL d   1      -2.599   3.208  -2.119  0.00  0.00     0.054 C 
ATOM      9  C   UNL d   1      -3.777   3.206  -3.083  0.00  0.00     0.018 C 
ENDBRANCH   1   8
TORSDOF 1
ENDMDL
