MODEL 1
REMARK minimizedAffinity -0.439225256
REMARK minimizedRMSD -1
REMARK  1 active torsions:
REMARK  status: ('A' for Active; 'I' for Inactive)
REMARK    1  A    between atoms: C1_2  and  C2_3 
ROOT
ATOM      1  C2  UNL d   1      -0.595  -0.396  -0.956  0.00  0.00    -0.081 A 
ATOM      2  C3  UNL d   1      -0.901   0.202   0.272  0.00  0.00     0.006 A 
ATOM      3  C4  UNL d   1       0.049   0.245   1.296  0.00  0.00     0.002 A 
ATOM      4  C5  UNL d   1       1.322  -0.303   1.106  0.00  0.00    -0.080 A 
ATOM      5  C6  UNL d   1       2.360  -0.238   2.186  0.00  0.00     0.076 C 
ATOM      6  C7  UNL d   1       1.622  -0.917  -0.115  0.00  0.00     0.002 A 
ATOM      7  C8  UNL d   1       0.672  -0.960  -1.138  0.00  0.00     0.006 A 
ENDROOT
BRANCH   1   8
ATOM      8  C1  UNL d   1      -1.595  -0.386  -2.084  0.00  0.00     0.054 C 
ATOM      9  C   UNL d   1      -2.187   1.002  -2.286  0.00  0.00     0.018 C 
ENDBRANCH   1   8
TORSDOF 1
ENDMDL
