MODEL 1
REMARK minimizedAffinity -5.39125061
REMARK minimizedRMSD -1
REMARK  0 active torsions:
REMARK  status: ('A' for Active; 'I' for Inactive)
ROOT
ATOM      1  C   UNL d   1      -2.258  -1.604  -0.402  0.00  0.00     0.124 A 
ATOM      2  C1  UNL d   1      -1.737  -1.617   0.885  0.00  0.00     0.062 A 
ATOM      3  C2  UNL d   1      -0.652  -0.807   1.209  0.00  0.00     0.162 A 
ATOM      4  C3  UNL d   1      -0.081   0.023   0.244  0.00  0.00    -0.034 A 
ATOM      5  C4  UNL d   1      -0.610   0.029  -1.048  0.00  0.00     0.162 A 
ATOM      6  C5  UNL d   1      -1.694  -0.782  -1.367  0.00  0.00     0.062 A 
ATOM      7  F   UNL d   1      -2.196  -0.769  -2.610  0.00  0.00    -0.097 F 
ATOM      8  F1  UNL d   1      -0.085   0.815  -2.000  0.00  0.00    -0.096 F 
ATOM      9  I   UNL d   1       1.541   1.235   0.724  0.00  0.00    -0.060 I 
ATOM     10  F2  UNL d   1      -0.170  -0.839   2.460  0.00  0.00    -0.096 F 
ATOM     11  F3  UNL d   1      -2.280  -2.411   1.819  0.00  0.00    -0.097 F 
ATOM     12  F4  UNL d   1      -3.301  -2.385  -0.711  0.00  0.00    -0.092 F 
ENDROOT
TORSDOF 0
ENDMDL
