MODEL 1
REMARK minimizedAffinity 2.30967474
REMARK minimizedRMSD -1
REMARK  0 active torsions:
REMARK  status: ('A' for Active; 'I' for Inactive)
ROOT
ATOM      1  C   UNL d   1      -0.833  -1.481   1.417  0.00  0.00     0.124 A 
ATOM      2  C1  UNL d   1      -1.162  -0.494   0.498  0.00  0.00     0.062 A 
ATOM      3  C2  UNL d   1      -0.239   0.495   0.173  0.00  0.00     0.162 A 
ATOM      4  C3  UNL d   1       1.023   0.503   0.766  0.00  0.00    -0.034 A 
ATOM      5  C4  UNL d   1       1.347  -0.491   1.691  0.00  0.00     0.162 A 
ATOM      6  C5  UNL d   1       0.421  -1.478   2.013  0.00  0.00     0.062 A 
ATOM      7  F   UNL d   1       0.741  -2.430   2.902  0.00  0.00    -0.097 F 
ATOM      8  F1  UNL d   1       2.551  -0.513   2.281  0.00  0.00    -0.096 F 
ATOM      9  I   UNL d   1       2.406   1.981   0.282  0.00  0.00    -0.060 I 
ATOM     10  F2  UNL d   1      -0.584   1.436  -0.719  0.00  0.00    -0.096 F 
ATOM     11  F3  UNL d   1      -2.373  -0.494  -0.078  0.00  0.00    -0.097 F 
ATOM     12  F4  UNL d   1      -1.723  -2.431   1.730  0.00  0.00    -0.092 F 
ENDROOT
TORSDOF 0
ENDMDL
