MODEL 1
REMARK minimizedAffinity 3.32558131
REMARK minimizedRMSD -1
REMARK  0 active torsions:
REMARK  status: ('A' for Active; 'I' for Inactive)
ROOT
ATOM      1  C   UNL d   1      -1.244  -0.571  -1.114  0.00  0.00     0.124 A 
ATOM      2  C1  UNL d   1      -0.066  -0.075  -1.655  0.00  0.00     0.062 A 
ATOM      3  C2  UNL d   1       0.756   0.756  -0.901  0.00  0.00     0.162 A 
ATOM      4  C3  UNL d   1       0.404   1.096   0.406  0.00  0.00    -0.034 A 
ATOM      5  C4  UNL d   1      -0.782   0.594   0.943  0.00  0.00     0.162 A 
ATOM      6  C5  UNL d   1      -1.601  -0.236   0.185  0.00  0.00     0.062 A 
ATOM      7  F   UNL d   1      -2.738  -0.714   0.710  0.00  0.00    -0.097 F 
ATOM      8  F1  UNL d   1      -1.151   0.902   2.196  0.00  0.00    -0.096 F 
ATOM      9  I   UNL d   1       1.631   2.339   1.538  0.00  0.00    -0.060 I 
ATOM     10  F2  UNL d   1       1.888   1.221  -1.450  0.00  0.00    -0.096 F 
ATOM     11  F3  UNL d   1       0.281  -0.397  -2.910  0.00  0.00    -0.097 F 
ATOM     12  F4  UNL d   1      -2.034  -1.370  -1.843  0.00  0.00    -0.092 F 
ENDROOT
TORSDOF 0
ENDMDL
