MODEL 1
REMARK minimizedAffinity 0.0177648235
REMARK minimizedRMSD -1
REMARK  0 active torsions:
REMARK  status: ('A' for Active; 'I' for Inactive)
ROOT
ATOM      1  C   UNL d   1      -2.596  -1.568  -0.857  0.00  0.00     0.124 A 
ATOM      2  C1  UNL d   1      -1.862  -1.039  -1.910  0.00  0.00     0.062 A 
ATOM      3  C2  UNL d   1      -0.698  -0.318  -1.659  0.00  0.00     0.162 A 
ATOM      4  C3  UNL d   1      -0.261  -0.122  -0.349  0.00  0.00    -0.034 A 
ATOM      5  C4  UNL d   1      -1.005  -0.656   0.705  0.00  0.00     0.162 A 
ATOM      6  C5  UNL d   1      -2.168  -1.376   0.449  0.00  0.00     0.062 A 
ATOM      7  F   UNL d   1      -2.876  -1.886   1.467  0.00  0.00    -0.097 F 
ATOM      8  F1  UNL d   1      -0.613  -0.486   1.976  0.00  0.00    -0.096 F 
ATOM      9  I   UNL d   1       1.478   0.956   0.031  0.00  0.00    -0.060 I 
ATOM     10  F2  UNL d   1      -0.008   0.181  -2.695  0.00  0.00    -0.096 F 
ATOM     11  F3  UNL d   1      -2.274  -1.223  -3.172  0.00  0.00    -0.097 F 
ATOM     12  F4  UNL d   1      -3.716  -2.261  -1.102  0.00  0.00    -0.092 F 
ENDROOT
TORSDOF 0
ENDMDL
