MODEL 1
REMARK minimizedAffinity -2.57114172
REMARK minimizedRMSD -1
REMARK  0 active torsions:
REMARK  status: ('A' for Active; 'I' for Inactive)
ROOT
ATOM      1  C   UNL d   1       1.828   2.527   1.947  0.00  0.00     0.124 A 
ATOM      2  C1  UNL d   1       2.247   1.283   1.497  0.00  0.00     0.062 A 
ATOM      3  C2  UNL d   1       1.348   0.428   0.865  0.00  0.00     0.162 A 
ATOM      4  C3  UNL d   1       0.021   0.816   0.678  0.00  0.00    -0.034 A 
ATOM      5  C4  UNL d   1      -0.393   2.069   1.135  0.00  0.00     0.162 A 
ATOM      6  C5  UNL d   1       0.510   2.919   1.766  0.00  0.00     0.062 A 
ATOM      7  F   UNL d   1       0.103   4.121   2.200  0.00  0.00    -0.097 F 
ATOM      8  F1  UNL d   1      -1.661   2.473   0.971  0.00  0.00    -0.096 F 
ATOM      9  I   UNL d   1      -1.326  -0.459  -0.266  0.00  0.00    -0.060 I 
ATOM     10  F2  UNL d   1       1.780  -0.768   0.441  0.00  0.00    -0.096 F 
ATOM     11  F3  UNL d   1       3.520   0.902   1.673  0.00  0.00    -0.097 F 
ATOM     12  F4  UNL d   1       2.695   3.347   2.556  0.00  0.00    -0.092 F 
ENDROOT
TORSDOF 0
ENDMDL
