MODEL 1
REMARK minimizedAffinity 1.98664701
REMARK minimizedRMSD -1
REMARK  0 active torsions:
REMARK  status: ('A' for Active; 'I' for Inactive)
ROOT
ATOM      1  C   UNL d   1      -2.471  -1.246  -0.409  0.00  0.00     0.124 A 
ATOM      2  C1  UNL d   1      -1.986  -0.846   0.828  0.00  0.00     0.062 A 
ATOM      3  C2  UNL d   1      -0.756  -0.202   0.923  0.00  0.00     0.162 A 
ATOM      4  C3  UNL d   1      -0.002   0.047  -0.224  0.00  0.00    -0.034 A 
ATOM      5  C4  UNL d   1      -0.496  -0.360  -1.465  0.00  0.00     0.162 A 
ATOM      6  C5  UNL d   1      -1.726  -1.003  -1.554  0.00  0.00     0.062 A 
ATOM      7  F   UNL d   1      -2.194  -1.388  -2.751  0.00  0.00    -0.097 F 
ATOM      8  F1  UNL d   1       0.203  -0.136  -2.588  0.00  0.00    -0.096 F 
ATOM      9  I   UNL d   1       1.839   1.009  -0.087  0.00  0.00    -0.060 I 
ATOM     10  F2  UNL d   1      -0.311   0.173   2.131  0.00  0.00    -0.096 F 
ATOM     11  F3  UNL d   1      -2.704  -1.081   1.936  0.00  0.00    -0.097 F 
ATOM     12  F4  UNL d   1      -3.655  -1.866  -0.497  0.00  0.00    -0.092 F 
ENDROOT
TORSDOF 0
ENDMDL
