MODEL 1
REMARK minimizedAffinity -2.56877899
REMARK minimizedRMSD -1
REMARK  0 active torsions:
REMARK  status: ('A' for Active; 'I' for Inactive)
ROOT
ATOM      1  C   UNL d   1      -2.381  -1.336  -0.373  0.00  0.00     0.124 A 
ATOM      2  C1  UNL d   1      -1.761  -0.901   0.791  0.00  0.00     0.062 A 
ATOM      3  C2  UNL d   1      -0.679  -0.029   0.724  0.00  0.00     0.162 A 
ATOM      4  C3  UNL d   1      -0.209   0.417  -0.512  0.00  0.00    -0.034 A 
ATOM      5  C4  UNL d   1      -0.837  -0.025  -1.678  0.00  0.00     0.162 A 
ATOM      6  C5  UNL d   1      -1.918  -0.897  -1.606  0.00  0.00     0.062 A 
ATOM      7  F   UNL d   1      -2.515  -1.316  -2.731  0.00  0.00    -0.097 F 
ATOM      8  F1  UNL d   1      -0.411   0.383  -2.882  0.00  0.00    -0.096 F 
ATOM      9  I   UNL d   1       1.409   1.721  -0.616  0.00  0.00    -0.060 I 
ATOM     10  F2  UNL d   1      -0.100   0.375   1.865  0.00  0.00    -0.096 F 
ATOM     11  F3  UNL d   1      -2.206  -1.324   1.983  0.00  0.00    -0.097 F 
ATOM     12  F4  UNL d   1      -3.421  -2.176  -0.306  0.00  0.00    -0.092 F 
ENDROOT
TORSDOF 0
ENDMDL
