MODEL 1
REMARK minimizedAffinity -2.03067374
REMARK minimizedRMSD -1
REMARK  0 active torsions:
REMARK  status: ('A' for Active; 'I' for Inactive)
ROOT
ATOM      1  C   UNL d   1      -2.405  -1.024  -0.244  0.00  0.00     0.124 A 
ATOM      2  C1  UNL d   1      -2.109  -0.385  -1.440  0.00  0.00     0.062 A 
ATOM      3  C2  UNL d   1      -0.868   0.220  -1.621  0.00  0.00     0.162 A 
ATOM      4  C3  UNL d   1       0.086   0.188  -0.604  0.00  0.00    -0.034 A 
ATOM      5  C4  UNL d   1      -0.220  -0.456   0.597  0.00  0.00     0.162 A 
ATOM      6  C5  UNL d   1      -1.461  -1.059   0.773  0.00  0.00     0.062 A 
ATOM      7  F   UNL d   1      -1.746  -1.676   1.929  0.00  0.00    -0.097 F 
ATOM      8  F1  UNL d   1       0.674  -0.505   1.595  0.00  0.00    -0.096 F 
ATOM      9  I   UNL d   1       1.941   1.092  -0.871  0.00  0.00    -0.060 I 
ATOM     10  F2  UNL d   1      -0.609   0.831  -2.787  0.00  0.00    -0.096 F 
ATOM     11  F3  UNL d   1      -3.019  -0.349  -2.423  0.00  0.00    -0.097 F 
ATOM     12  F4  UNL d   1      -3.600  -1.605  -0.072  0.00  0.00    -0.092 F 
ENDROOT
TORSDOF 0
ENDMDL
