MODEL 1
REMARK minimizedAffinity -1.59675384
REMARK minimizedRMSD -1
REMARK  0 active torsions:
REMARK  status: ('A' for Active; 'I' for Inactive)
ROOT
ATOM      1  C   UNL d   1      -2.816  -1.146   0.020  0.00  0.00     0.124 A 
ATOM      2  C1  UNL d   1      -2.521  -0.192  -0.944  0.00  0.00     0.062 A 
ATOM      3  C2  UNL d   1      -1.264   0.405  -0.977  0.00  0.00     0.162 A 
ATOM      4  C3  UNL d   1      -0.291   0.048  -0.044  0.00  0.00    -0.034 A 
ATOM      5  C4  UNL d   1      -0.595  -0.911   0.923  0.00  0.00     0.162 A 
ATOM      6  C5  UNL d   1      -1.853  -1.505   0.952  0.00  0.00     0.062 A 
ATOM      7  F   UNL d   1      -2.135  -2.427   1.884  0.00  0.00    -0.097 F 
ATOM      8  F1  UNL d   1       0.318  -1.278   1.836  0.00  0.00    -0.096 F 
ATOM      9  I   UNL d   1       1.590   0.938  -0.090  0.00  0.00    -0.060 I 
ATOM     10  F2  UNL d   1      -1.007   1.324  -1.920  0.00  0.00    -0.096 F 
ATOM     11  F3  UNL d   1      -3.450   0.158  -1.846  0.00  0.00    -0.097 F 
ATOM     12  F4  UNL d   1      -4.026  -1.718   0.050  0.00  0.00    -0.092 F 
ENDROOT
TORSDOF 0
ENDMDL
