MODEL 1
REMARK minimizedAffinity -2.85194135
REMARK minimizedRMSD -1
REMARK  0 active torsions:
REMARK  status: ('A' for Active; 'I' for Inactive)
ROOT
ATOM      1  C   UNL d   1      -2.954  -0.767  -0.806  0.00  0.00     0.124 A 
ATOM      2  C1  UNL d   1      -1.950  -1.162  -1.679  0.00  0.00     0.062 A 
ATOM      3  C2  UNL d   1      -0.677  -0.609  -1.579  0.00  0.00     0.162 A 
ATOM      4  C3  UNL d   1      -0.400   0.346  -0.601  0.00  0.00    -0.034 A 
ATOM      5  C4  UNL d   1      -1.414   0.739   0.274  0.00  0.00     0.162 A 
ATOM      6  C5  UNL d   1      -2.685   0.183   0.170  0.00  0.00     0.062 A 
ATOM      7  F   UNL d   1      -3.653   0.566   1.015  0.00  0.00    -0.097 F 
ATOM      8  F1  UNL d   1      -1.182   1.654   1.226  0.00  0.00    -0.096 F 
ATOM      9  I   UNL d   1       1.503   1.176  -0.448  0.00  0.00    -0.060 I 
ATOM     10  F2  UNL d   1       0.273  -1.009  -2.437  0.00  0.00    -0.096 F 
ATOM     11  F3  UNL d   1      -2.208  -2.079  -2.623  0.00  0.00    -0.097 F 
ATOM     12  F4  UNL d   1      -4.178  -1.300  -0.905  0.00  0.00    -0.092 F 
ENDROOT
TORSDOF 0
ENDMDL
