MODEL 1
REMARK minimizedAffinity -2.56295705
REMARK minimizedRMSD -1
REMARK  0 active torsions:
REMARK  status: ('A' for Active; 'I' for Inactive)
ROOT
ATOM      1  C   UNL d   1      -2.126  -1.275  -0.425  0.00  0.00     0.124 A 
ATOM      2  C1  UNL d   1      -1.651  -0.575  -1.525  0.00  0.00     0.062 A 
ATOM      3  C2  UNL d   1      -0.594   0.319  -1.383  0.00  0.00     0.162 A 
ATOM      4  C3  UNL d   1      -0.003   0.517  -0.135  0.00  0.00    -0.034 A 
ATOM      5  C4  UNL d   1      -0.487  -0.190   0.967  0.00  0.00     0.162 A 
ATOM      6  C5  UNL d   1      -1.544  -1.082   0.820  0.00  0.00     0.062 A 
ATOM      7  F   UNL d   1      -2.001  -1.758   1.884  0.00  0.00    -0.097 F 
ATOM      8  F1  UNL d   1       0.058  -0.024   2.182  0.00  0.00    -0.096 F 
ATOM      9  I   UNL d   1       1.579   1.852   0.082  0.00  0.00    -0.060 I 
ATOM     10  F2  UNL d   1      -0.155   0.982  -2.463  0.00  0.00    -0.096 F 
ATOM     11  F3  UNL d   1      -2.213  -0.758  -2.729  0.00  0.00    -0.097 F 
ATOM     12  F4  UNL d   1      -3.144  -2.133  -0.565  0.00  0.00    -0.092 F 
ENDROOT
TORSDOF 0
ENDMDL
