MODEL 1
REMARK minimizedAffinity -2.02407527
REMARK minimizedRMSD -1
REMARK  0 active torsions:
REMARK  status: ('A' for Active; 'I' for Inactive)
ROOT
ATOM      1  C   UNL d   1       2.121   1.215   1.048  0.00  0.00     0.124 A 
ATOM      2  C1  UNL d   1       1.613  -0.016   1.441  0.00  0.00     0.062 A 
ATOM      3  C2  UNL d   1       0.580  -0.608   0.720  0.00  0.00     0.162 A 
ATOM      4  C3  UNL d   1       0.048   0.029  -0.401  0.00  0.00    -0.034 A 
ATOM      5  C4  UNL d   1       0.564   1.267  -0.788  0.00  0.00     0.162 A 
ATOM      6  C5  UNL d   1       1.596   1.855  -0.065  0.00  0.00     0.062 A 
ATOM      7  F   UNL d   1       2.086   3.044  -0.446  0.00  0.00    -0.097 F 
ATOM      8  F1  UNL d   1       0.076   1.907  -1.861  0.00  0.00    -0.096 F 
ATOM      9  I   UNL d   1      -1.497  -0.854  -1.480  0.00  0.00    -0.060 I 
ATOM     10  F2  UNL d   1       0.108  -1.798   1.122  0.00  0.00    -0.096 F 
ATOM     11  F3  UNL d   1       2.118  -0.636   2.517  0.00  0.00    -0.097 F 
ATOM     12  F4  UNL d   1       3.115   1.783   1.744  0.00  0.00    -0.092 F 
ENDROOT
TORSDOF 0
ENDMDL
