MODEL 1
REMARK minimizedAffinity 0.887631834
REMARK minimizedRMSD -1
REMARK  0 active torsions:
REMARK  status: ('A' for Active; 'I' for Inactive)
ROOT
ATOM      1  C   UNL d   1      -1.880  -0.725  -0.278  0.00  0.00     0.124 A 
ATOM      2  C1  UNL d   1      -1.075  -0.772   0.851  0.00  0.00     0.062 A 
ATOM      3  C2  UNL d   1       0.212  -0.243   0.816  0.00  0.00     0.162 A 
ATOM      4  C3  UNL d   1       0.702   0.339  -0.353  0.00  0.00    -0.034 A 
ATOM      5  C4  UNL d   1      -0.113   0.381  -1.486  0.00  0.00     0.162 A 
ATOM      6  C5  UNL d   1      -1.399  -0.149  -1.445  0.00  0.00     0.062 A 
ATOM      7  F   UNL d   1      -2.175  -0.103  -2.538  0.00  0.00    -0.097 F 
ATOM      8  F1  UNL d   1       0.327   0.933  -2.626  0.00  0.00    -0.096 F 
ATOM      9  I   UNL d   1       2.626   1.131  -0.410  0.00  0.00    -0.060 I 
ATOM     10  F2  UNL d   1       0.968  -0.302   1.923  0.00  0.00    -0.096 F 
ATOM     11  F3  UNL d   1      -1.537  -1.329   1.980  0.00  0.00    -0.097 F 
ATOM     12  F4  UNL d   1      -3.118  -1.236  -0.242  0.00  0.00    -0.092 F 
ENDROOT
TORSDOF 0
ENDMDL
