MODEL 1
REMARK minimizedAffinity -0.885804892
REMARK minimizedRMSD -1
REMARK  0 active torsions:
REMARK  status: ('A' for Active; 'I' for Inactive)
ROOT
ATOM      1  C   UNL d   1      -2.019  -0.154  -1.879  0.00  0.00     0.124 A 
ATOM      2  C1  UNL d   1      -0.825   0.431  -2.278  0.00  0.00     0.062 A 
ATOM      3  C2  UNL d   1       0.214   0.591  -1.366  0.00  0.00     0.162 A 
ATOM      4  C3  UNL d   1       0.065   0.165  -0.046  0.00  0.00    -0.034 A 
ATOM      5  C4  UNL d   1      -1.139  -0.421   0.348  0.00  0.00     0.162 A 
ATOM      6  C5  UNL d   1      -2.175  -0.579  -0.567  0.00  0.00     0.062 A 
ATOM      7  F   UNL d   1      -3.328  -1.144  -0.180  0.00  0.00    -0.097 F 
ATOM      8  F1  UNL d   1      -1.317  -0.842   1.609  0.00  0.00    -0.096 F 
ATOM      9  I   UNL d   1       1.617   0.402   1.320  0.00  0.00    -0.060 I 
ATOM     10  F2  UNL d   1       1.357   1.159  -1.779  0.00  0.00    -0.096 F 
ATOM     11  F3  UNL d   1      -0.672   0.843  -3.544  0.00  0.00    -0.097 F 
ATOM     12  F4  UNL d   1      -3.018  -0.306  -2.758  0.00  0.00    -0.092 F 
ENDROOT
TORSDOF 0
ENDMDL
