MODEL 1
REMARK minimizedAffinity -0.576190948
REMARK minimizedRMSD -1
REMARK  0 active torsions:
REMARK  status: ('A' for Active; 'I' for Inactive)
ROOT
ATOM      1  C   UNL d   1      -2.252  -0.796   0.432  0.00  0.00     0.124 A 
ATOM      2  C1  UNL d   1      -1.138  -1.200   1.155  0.00  0.00     0.062 A 
ATOM      3  C2  UNL d   1       0.109  -0.641   0.890  0.00  0.00     0.162 A 
ATOM      4  C3  UNL d   1       0.249   0.329  -0.103  0.00  0.00    -0.034 A 
ATOM      5  C4  UNL d   1      -0.876   0.729  -0.827  0.00  0.00     0.162 A 
ATOM      6  C5  UNL d   1      -2.120   0.167  -0.558  0.00  0.00     0.062 A 
ATOM      7  F   UNL d   1      -3.195   0.558  -1.258  0.00  0.00    -0.097 F 
ATOM      8  F1  UNL d   1      -0.777   1.659  -1.788  0.00  0.00    -0.096 F 
ATOM      9  I   UNL d   1       2.111   1.167  -0.502  0.00  0.00    -0.060 I 
ATOM     10  F2  UNL d   1       1.168  -1.050   1.605  0.00  0.00    -0.096 F 
ATOM     11  F3  UNL d   1      -1.263  -2.131   2.111  0.00  0.00    -0.097 F 
ATOM     12  F4  UNL d   1      -3.450  -1.337   0.688  0.00  0.00    -0.092 F 
ENDROOT
TORSDOF 0
ENDMDL
