MODEL 1
REMARK minimizedAffinity 8.54059696
REMARK minimizedRMSD -1
REMARK  3 active torsions:
REMARK  status: ('A' for Active; 'I' for Inactive)
REMARK    1  A    between atoms: C3'_2  and  C2'_3 
REMARK    2  A    between atoms: C2'_3  and  C1'_4 
REMARK    3  A    between atoms: C1'_4  and  C1_5 
ROOT
ATOM      1  C1  N4B d   1      -4.943   4.071   3.439  0.00  0.00    -0.075 A 
ATOM      2  C2  N4B d   1      -3.951   5.002   3.817  0.00  0.00     0.002 A 
ATOM      3  C3  N4B d   1      -4.011   5.608   5.048  0.00  0.00     0.002 A 
ATOM      4  C4  N4B d   1      -5.059   5.314   5.906  0.00  0.00    -0.004 A 
ATOM      5  C5  N4B d   1      -6.000   4.394   5.544  0.00  0.00     0.002 A 
ATOM      6  C6  N4B d   1      -5.950   3.775   4.312  0.00  0.00     0.002 A 
ENDROOT
BRANCH   1   7
ATOM      7  C1' N4B d   1      -4.967   3.447   2.070  0.00  0.00     0.057 C 
BRANCH   7   8
ATOM      8  C2' N4B d   1      -4.835   1.933   2.207  0.00  0.00     0.009 C 
BRANCH   8   9
ATOM      9  C3' N4B d   1      -4.150   1.311   1.002  0.00  0.00     0.004 C 
ATOM     10  C4' N4B d   1      -5.082   0.485   0.167  0.00  0.00     0.003 C 
ENDBRANCH   8   9
ENDBRANCH   7   8
ENDBRANCH   1   7
TORSDOF 3
ENDMDL
