MODEL 1
REMARK minimizedAffinity 10.7407446
REMARK minimizedRMSD -1
REMARK  3 active torsions:
REMARK  status: ('A' for Active; 'I' for Inactive)
REMARK    1  A    between atoms: C3'_2  and  C2'_3 
REMARK    2  A    between atoms: C2'_3  and  C1'_4 
REMARK    3  A    between atoms: C1'_4  and  C1_5 
ROOT
ATOM      1  C1  N4B d   1      -5.417   4.390   3.495  0.00  0.00    -0.075 A 
ATOM      2  C2  N4B d   1      -4.371   5.336   3.415  0.00  0.00     0.002 A 
ATOM      3  C3  N4B d   1      -3.957   5.999   4.544  0.00  0.00     0.002 A 
ATOM      4  C4  N4B d   1      -4.584   5.748   5.755  0.00  0.00    -0.004 A 
ATOM      5  C5  N4B d   1      -5.576   4.814   5.829  0.00  0.00     0.002 A 
ATOM      6  C6  N4B d   1      -5.999   4.137   4.702  0.00  0.00     0.002 A 
ENDROOT
BRANCH   1   7
ATOM      7  C1' N4B d   1      -5.961   3.704   2.272  0.00  0.00     0.057 C 
BRANCH   7   8
ATOM      8  C2' N4B d   1      -4.889   2.782   1.696  0.00  0.00     0.009 C 
BRANCH   8   9
ATOM      9  C3' N4B d   1      -5.240   2.309   0.296  0.00  0.00     0.004 C 
ATOM     10  C4' N4B d   1      -4.940   0.855   0.083  0.00  0.00     0.003 C 
ENDBRANCH   8   9
ENDBRANCH   7   8
ENDBRANCH   1   7
TORSDOF 3
ENDMDL
