MODEL 1
REMARK minimizedAffinity 13.2525921
REMARK minimizedRMSD -1
REMARK  3 active torsions:
REMARK  status: ('A' for Active; 'I' for Inactive)
REMARK    1  A    between atoms: C3'_2  and  C2'_3 
REMARK    2  A    between atoms: C2'_3  and  C1'_4 
REMARK    3  A    between atoms: C1'_4  and  C1_5 
ROOT
ATOM      1  C1  N4B d   1       1.703  -0.205  -1.087  0.00  0.00    -0.075 A 
ATOM      2  C2  N4B d   1       2.320   1.043  -1.321  0.00  0.00     0.002 A 
ATOM      3  C3  N4B d   1       3.276   1.510  -0.452  0.00  0.00     0.002 A 
ATOM      4  C4  N4B d   1       3.616   0.757   0.662  0.00  0.00    -0.004 A 
ATOM      5  C5  N4B d   1       3.034  -0.459   0.867  0.00  0.00     0.002 A 
ATOM      6  C6  N4B d   1       2.074  -0.942  -0.000  0.00  0.00     0.002 A 
ENDROOT
BRANCH   1   7
ATOM      7  C1' N4B d   1       0.592  -0.718  -1.962  0.00  0.00     0.057 C 
BRANCH   7   8
ATOM      8  C2' N4B d   1      -0.616   0.204  -1.828  0.00  0.00     0.009 C 
BRANCH   8   9
ATOM      9  C3' N4B d   1      -1.901  -0.474  -2.273  0.00  0.00     0.004 C 
ATOM     10  C4' N4B d   1      -3.032  -0.264  -1.311  0.00  0.00     0.003 C 
ENDBRANCH   8   9
ENDBRANCH   7   8
ENDBRANCH   1   7
TORSDOF 3
ENDMDL
