MODEL 1
REMARK minimizedAffinity 19.3032112
REMARK minimizedRMSD -1
REMARK  3 active torsions:
REMARK  status: ('A' for Active; 'I' for Inactive)
REMARK    1  A    between atoms: C3'_2  and  C2'_3 
REMARK    2  A    between atoms: C2'_3  and  C1'_4 
REMARK    3  A    between atoms: C1'_4  and  C1_5 
ROOT
ATOM      1  C1  N4B d   1      -4.861   2.844  -1.011  0.00  0.00    -0.075 A 
ATOM      2  C2  N4B d   1      -4.716   2.196   0.235  0.00  0.00     0.002 A 
ATOM      3  C3  N4B d   1      -5.163   0.908   0.395  0.00  0.00     0.002 A 
ATOM      4  C4  N4B d   1      -5.773   0.256  -0.666  0.00  0.00    -0.004 A 
ATOM      5  C5  N4B d   1      -5.887   0.880  -1.874  0.00  0.00     0.002 A 
ATOM      6  C6  N4B d   1      -5.438   2.174  -2.051  0.00  0.00     0.002 A 
ENDROOT
BRANCH   1   7
ATOM      7  C1' N4B d   1      -4.465   4.282  -1.210  0.00  0.00     0.057 C 
BRANCH   7   8
ATOM      8  C2' N4B d   1      -3.492   4.690  -0.108  0.00  0.00     0.009 C 
BRANCH   8   9
ATOM      9  C3' N4B d   1      -3.910   5.984   0.569  0.00  0.00     0.004 C 
ATOM     10  C4' N4B d   1      -5.361   5.999   0.946  0.00  0.00     0.003 C 
ENDBRANCH   8   9
ENDBRANCH   7   8
ENDBRANCH   1   7
TORSDOF 3
ENDMDL
