MODEL 1
REMARK minimizedAffinity 6.94725895
REMARK minimizedRMSD -1
REMARK  3 active torsions:
REMARK  status: ('A' for Active; 'I' for Inactive)
REMARK    1  A    between atoms: C3'_2  and  C2'_3 
REMARK    2  A    between atoms: C2'_3  and  C1'_4 
REMARK    3  A    between atoms: C1'_4  and  C1_5 
ROOT
ATOM      1  C1  N4B d   1      -5.155   4.408   3.788  0.00  0.00    -0.075 A 
ATOM      2  C2  N4B d   1      -6.000   4.499   4.916  0.00  0.00     0.002 A 
ATOM      3  C3  N4B d   1      -5.646   5.297   5.977  0.00  0.00     0.002 A 
ATOM      4  C4  N4B d   1      -4.448   5.994   5.940  0.00  0.00    -0.004 A 
ATOM      5  C5  N4B d   1      -3.649   5.921   4.836  0.00  0.00     0.002 A 
ATOM      6  C6  N4B d   1      -3.995   5.127   3.761  0.00  0.00     0.002 A 
ENDROOT
BRANCH   1   7
ATOM      7  C1' N4B d   1      -5.458   3.484   2.641  0.00  0.00     0.057 C 
BRANCH   7   8
ATOM      8  C2' N4B d   1      -4.158   2.860   2.143  0.00  0.00     0.009 C 
BRANCH   8   9
ATOM      9  C3' N4B d   1      -4.188   2.603   0.646  0.00  0.00     0.004 C 
ATOM     10  C4' N4B d   1      -3.484   1.336   0.261  0.00  0.00     0.003 C 
ENDBRANCH   8   9
ENDBRANCH   7   8
ENDBRANCH   1   7
TORSDOF 3
ENDMDL
