MODEL 1
REMARK minimizedAffinity 2.32219768
REMARK minimizedRMSD -1
REMARK  1 active torsions:
REMARK  status: ('A' for Active; 'I' for Inactive)
REMARK    1  A    between atoms: C1_2  and  C2_3 
ROOT
ATOM      1  C2  UNL d   1      -0.013  -0.490   0.846  0.00  0.00    -0.081 A 
ATOM      2  C3  UNL d   1       1.005  -0.831   1.744  0.00  0.00     0.006 A 
ATOM      3  C4  UNL d   1       2.145  -0.032   1.860  0.00  0.00     0.002 A 
ATOM      4  C5  UNL d   1       2.281   1.126   1.086  0.00  0.00    -0.080 A 
ATOM      5  C6  UNL d   1       3.486   2.009   1.222  0.00  0.00     0.076 C 
ATOM      6  C7  UNL d   1       1.272   1.457   0.176  0.00  0.00     0.002 A 
ATOM      7  C8  UNL d   1       0.133   0.657   0.059  0.00  0.00     0.006 A 
ENDROOT
BRANCH   1   8
ATOM      8  C1  UNL d   1      -1.272  -1.315   0.765  0.00  0.00     0.054 C 
ATOM      9  C   UNL d   1      -0.958  -2.805   0.761  0.00  0.00     0.018 C 
ENDBRANCH   1   8
TORSDOF 1
ENDMDL
