MODEL 1
REMARK minimizedAffinity 1.36599171
REMARK minimizedRMSD -1
REMARK  1 active torsions:
REMARK  status: ('A' for Active; 'I' for Inactive)
REMARK    1  A    between atoms: C1_2  and  C2_3 
ROOT
ATOM      1  C2  UNL d   1       1.751   1.465   0.629  0.00  0.00    -0.081 A 
ATOM      2  C3  UNL d   1       0.362   1.574   0.770  0.00  0.00     0.006 A 
ATOM      3  C4  UNL d   1      -0.308   2.712   0.314  0.00  0.00     0.002 A 
ATOM      4  C5  UNL d   1       0.397   3.754  -0.297  0.00  0.00    -0.080 A 
ATOM      5  C6  UNL d   1      -0.315   4.968  -0.818  0.00  0.00     0.076 C 
ATOM      6  C7  UNL d   1       1.786   3.653  -0.422  0.00  0.00     0.002 A 
ATOM      7  C8  UNL d   1       2.457   2.516   0.034  0.00  0.00     0.006 A 
ENDROOT
BRANCH   1   8
ATOM      8  C1  UNL d   1       2.468   0.212   1.061  0.00  0.00     0.054 C 
ATOM      9  C   UNL d   1       1.537  -0.728   1.814  0.00  0.00     0.018 C 
ENDBRANCH   1   8
TORSDOF 1
ENDMDL
