MODEL 1
REMARK minimizedAffinity 13.0372171
REMARK minimizedRMSD -1
REMARK  1 active torsions:
REMARK  status: ('A' for Active; 'I' for Inactive)
REMARK    1  A    between atoms: C1_2  and  C2_3 
ROOT
ATOM      1  C2  UNL d   1       2.341   2.100   0.655  0.00  0.00    -0.081 A 
ATOM      2  C3  UNL d   1       2.388   1.391   1.862  0.00  0.00     0.006 A 
ATOM      3  C4  UNL d   1       3.019   0.146   1.928  0.00  0.00     0.002 A 
ATOM      4  C5  UNL d   1       3.618  -0.407   0.791  0.00  0.00    -0.080 A 
ATOM      5  C6  UNL d   1       4.324  -1.729   0.856  0.00  0.00     0.076 C 
ATOM      6  C7  UNL d   1       3.555   0.293  -0.418  0.00  0.00     0.002 A 
ATOM      7  C8  UNL d   1       2.925   1.537  -0.485  0.00  0.00     0.006 A 
ENDROOT
BRANCH   1   8
ATOM      8  C1  UNL d   1       1.718   3.471   0.596  0.00  0.00     0.054 C 
ATOM      9  C   UNL d   1       2.181   4.236  -0.636  0.00  0.00     0.018 C 
ENDBRANCH   1   8
TORSDOF 1
ENDMDL
