MODEL 1
REMARK minimizedAffinity 4.87980127
REMARK minimizedRMSD -1
REMARK  1 active torsions:
REMARK  status: ('A' for Active; 'I' for Inactive)
REMARK    1  A    between atoms: C1_2  and  C2_3 
ROOT
ATOM      1  C2  UNL d   1       1.492  -0.896   1.592  0.00  0.00    -0.081 A 
ATOM      2  C3  UNL d   1       2.283  -0.826   2.746  0.00  0.00     0.006 A 
ATOM      3  C4  UNL d   1       2.090  -1.732   3.792  0.00  0.00     0.002 A 
ATOM      4  C5  UNL d   1       1.110  -2.726   3.699  0.00  0.00    -0.080 A 
ATOM      5  C6  UNL d   1       0.913  -3.723   4.801  0.00  0.00     0.076 C 
ATOM      6  C7  UNL d   1       0.309  -2.784   2.553  0.00  0.00     0.002 A 
ATOM      7  C8  UNL d   1       0.501  -1.879   1.508  0.00  0.00     0.006 A 
ENDROOT
BRANCH   1   8
ATOM      8  C1  UNL d   1       1.741   0.039   0.436  0.00  0.00     0.054 C 
ATOM      9  C   UNL d   1       2.192   1.410   0.919  0.00  0.00     0.018 C 
ENDBRANCH   1   8
TORSDOF 1
ENDMDL
