MODEL 1
REMARK minimizedAffinity 24.9704762
REMARK minimizedRMSD -1
REMARK  0 active torsions:
REMARK  status: ('A' for Active; 'I' for Inactive)
ROOT
ATOM      1  N1  IND d   1       2.929   1.657  -1.831  0.00  0.00    -0.196 N 
ATOM      2  C2  IND d   1       3.233   0.809  -0.803  0.00  0.00     0.054 A 
ATOM      3  C3  IND d   1       2.823   1.331   0.375  0.00  0.00    -0.031 A 
ATOM      4  C4  IND d   1       1.538   3.513   0.837  0.00  0.00     0.051 A 
ATOM      5  C5  IND d   1       1.067   4.637   0.219  0.00  0.00    -0.031 A 
ATOM      6  C6  IND d   1       1.192   4.828  -1.141  0.00  0.00     0.015 A 
ATOM      7  C7  IND d   1       1.786   3.893  -1.940  0.00  0.00    -0.016 A 
ATOM      8  C8  IND d   1       2.272   2.753  -1.315  0.00  0.00    -0.047 A 
ATOM      9  C9  IND d   1       2.186   2.573   0.071  0.00  0.00    -0.096 A 
ATOM     10  HN1 IND d   1       3.116   1.528  -2.660  0.00  0.00     0.298 HD
ENDROOT
TORSDOF 0
ENDMDL
