MODEL 1
REMARK minimizedAffinity 2.42400932
REMARK minimizedRMSD -1
REMARK  0 active torsions:
REMARK  status: ('A' for Active; 'I' for Inactive)
ROOT
ATOM      1  N1  IND d   1       2.337  -3.083   0.126  0.00  0.00    -0.196 N 
ATOM      2  C2  IND d   1       1.570  -1.965   0.303  0.00  0.00     0.054 A 
ATOM      3  C3  IND d   1       1.137  -1.499  -0.890  0.00  0.00    -0.031 A 
ATOM      4  C4  IND d   1       1.480  -2.470  -3.249  0.00  0.00     0.051 A 
ATOM      5  C5  IND d   1       2.141  -3.461  -3.920  0.00  0.00    -0.031 A 
ATOM      6  C6  IND d   1       2.914  -4.397  -3.264  0.00  0.00     0.015 A 
ATOM      7  C7  IND d   1       3.046  -4.383  -1.904  0.00  0.00    -0.016 A 
ATOM      8  C8  IND d   1       2.383  -3.375  -1.220  0.00  0.00    -0.047 A 
ATOM      9  C9  IND d   1       1.632  -2.397  -1.884  0.00  0.00    -0.096 A 
ATOM     10  HN1 IND d   1       2.725  -3.529   0.750  0.00  0.00     0.298 HD
ENDROOT
TORSDOF 0
ENDMDL
