MODEL 1
REMARK minimizedAffinity 4.36514282
REMARK minimizedRMSD -1
REMARK  0 active torsions:
REMARK  status: ('A' for Active; 'I' for Inactive)
ROOT
ATOM      1  N1  IND d   1      -5.821  -1.886   2.637  0.00  0.00    -0.196 N 
ATOM      2  C2  IND d   1      -5.038  -1.049   3.381  0.00  0.00     0.054 A 
ATOM      3  C3  IND d   1      -4.173  -1.762   4.137  0.00  0.00    -0.031 A 
ATOM      4  C4  IND d   1      -3.800  -4.307   4.235  0.00  0.00     0.051 A 
ATOM      5  C5  IND d   1      -4.301  -5.488   3.762  0.00  0.00    -0.031 A 
ATOM      6  C6  IND d   1      -5.353  -5.529   2.871  0.00  0.00     0.015 A 
ATOM      7  C7  IND d   1      -5.939  -4.386   2.407  0.00  0.00    -0.016 A 
ATOM      8  C8  IND d   1      -5.438  -3.185   2.890  0.00  0.00    -0.047 A 
ATOM      9  C9  IND d   1      -4.398  -3.138   3.828  0.00  0.00    -0.096 A 
ATOM     10  HN1 IND d   1      -6.447  -1.642   2.100  0.00  0.00     0.298 HD
ENDROOT
TORSDOF 0
ENDMDL
