MODEL 1
REMARK minimizedAffinity 10.1324177
REMARK minimizedRMSD -1
REMARK  0 active torsions:
REMARK  status: ('A' for Active; 'I' for Inactive)
ROOT
ATOM      1  N1  IND d   1       3.850  -2.234   0.222  0.00  0.00    -0.196 N 
ATOM      2  C2  IND d   1       3.737  -3.504  -0.271  0.00  0.00     0.054 A 
ATOM      3  C3  IND d   1       2.963  -3.512  -1.379  0.00  0.00    -0.031 A 
ATOM      4  C4  IND d   1       1.862  -1.542  -2.618  0.00  0.00     0.051 A 
ATOM      5  C5  IND d   1       1.652  -0.194  -2.527  0.00  0.00    -0.031 A 
ATOM      6  C6  IND d   1       2.177   0.558  -1.496  0.00  0.00     0.015 A 
ATOM      7  C7  IND d   1       2.944  -0.011  -0.519  0.00  0.00    -0.016 A 
ATOM      8  C8  IND d   1       3.154  -1.380  -0.604  0.00  0.00    -0.047 A 
ATOM      9  C9  IND d   1       2.589  -2.155  -1.625  0.00  0.00    -0.096 A 
ATOM     10  HN1 IND d   1       4.283  -2.007   0.930  0.00  0.00     0.298 HD
ENDROOT
TORSDOF 0
ENDMDL
