MODEL 1
REMARK minimizedAffinity -1.38746202
REMARK minimizedRMSD -1
REMARK  0 active torsions:
REMARK  status: ('A' for Active; 'I' for Inactive)
ROOT
ATOM      1  N1  IND d   1       3.622  -5.479  -3.536  0.00  0.00    -0.196 N 
ATOM      2  C2  IND d   1       2.626  -5.009  -4.347  0.00  0.00     0.054 A 
ATOM      3  C3  IND d   1       1.933  -4.031  -3.722  0.00  0.00    -0.031 A 
ATOM      4  C4  IND d   1       2.323  -2.971  -1.409  0.00  0.00     0.051 A 
ATOM      5  C5  IND d   1       3.090  -3.092  -0.284  0.00  0.00    -0.031 A 
ATOM      6  C6  IND d   1       4.096  -4.032  -0.185  0.00  0.00     0.015 A 
ATOM      7  C7  IND d   1       4.380  -4.882  -1.216  0.00  0.00    -0.016 A 
ATOM      8  C8  IND d   1       3.599  -4.767  -2.357  0.00  0.00    -0.047 A 
ATOM      9  C9  IND d   1       2.549  -3.844  -2.447  0.00  0.00    -0.096 A 
ATOM     10  HN1 IND d   1       4.170  -6.113  -3.730  0.00  0.00     0.298 HD
ENDROOT
TORSDOF 0
ENDMDL
