MODEL 1
REMARK minimizedAffinity 0.443551809
REMARK minimizedRMSD -1
REMARK  0 active torsions:
REMARK  status: ('A' for Active; 'I' for Inactive)
ROOT
ATOM      1  N1  IND d   1       4.046  -4.602  -1.055  0.00  0.00    -0.196 N 
ATOM      2  C2  IND d   1       3.361  -4.131   0.031  0.00  0.00     0.054 A 
ATOM      3  C3  IND d   1       2.399  -3.264  -0.360  0.00  0.00    -0.031 A 
ATOM      4  C4  IND d   1       1.706  -2.551  -2.734  0.00  0.00     0.051 A 
ATOM      5  C5  IND d   1       2.062  -2.687  -4.047  0.00  0.00    -0.031 A 
ATOM      6  C6  IND d   1       3.117  -3.486  -4.437  0.00  0.00     0.015 A 
ATOM      7  C7  IND d   1       3.852  -4.191  -3.526  0.00  0.00    -0.016 A 
ATOM      8  C8  IND d   1       3.498  -4.050  -2.192  0.00  0.00    -0.047 A 
ATOM      9  C9  IND d   1       2.455  -3.208  -1.786  0.00  0.00    -0.096 A 
ATOM     10  HN1 IND d   1       4.708  -5.150  -1.031  0.00  0.00     0.298 HD
ENDROOT
TORSDOF 0
ENDMDL
