MODEL 1
REMARK minimizedAffinity 1.52297187
REMARK minimizedRMSD -1
REMARK  0 active torsions:
REMARK  status: ('A' for Active; 'I' for Inactive)
ROOT
ATOM      1  N1  IND d   1      -3.067   2.250   3.758  0.00  0.00    -0.196 N 
ATOM      2  C2  IND d   1      -3.755   2.344   4.935  0.00  0.00     0.054 A 
ATOM      3  C3  IND d   1      -2.907   2.250   5.984  0.00  0.00    -0.031 A 
ATOM      4  C4  IND d   1      -0.341   2.040   5.999  0.00  0.00     0.051 A 
ATOM      5  C5  IND d   1       0.732   1.879   5.168  0.00  0.00    -0.031 A 
ATOM      6  C6  IND d   1       0.590   1.836   3.796  0.00  0.00     0.015 A 
ATOM      7  C7  IND d   1      -0.633   1.963   3.201  0.00  0.00    -0.016 A 
ATOM      8  C8  IND d   1      -1.725   2.119   4.043  0.00  0.00    -0.047 A 
ATOM      9  C9  IND d   1      -1.593   2.122   5.437  0.00  0.00    -0.096 A 
ATOM     10  HN1 IND d   1      -3.414   2.268   2.971  0.00  0.00     0.298 HD
ENDROOT
TORSDOF 0
ENDMDL
