MODEL 1
REMARK minimizedAffinity 13.8949118
REMARK minimizedRMSD -1
REMARK  0 active torsions:
REMARK  status: ('A' for Active; 'I' for Inactive)
ROOT
ATOM      1  N1  IND d   1      -2.899   1.057   2.206  0.00  0.00    -0.196 N 
ATOM      2  C2  IND d   1      -3.725   1.675   3.103  0.00  0.00     0.054 A 
ATOM      3  C3  IND d   1      -3.015   2.126   4.162  0.00  0.00    -0.031 A 
ATOM      4  C4  IND d   1      -0.476   2.050   4.581  0.00  0.00     0.051 A 
ATOM      5  C5  IND d   1       0.687   1.554   4.062  0.00  0.00    -0.031 A 
ATOM      6  C6  IND d   1       0.715   0.856   2.872  0.00  0.00     0.015 A 
ATOM      7  C7  IND d   1      -0.422   0.636   2.148  0.00  0.00    -0.016 A 
ATOM      8  C8  IND d   1      -1.606   1.132   2.676  0.00  0.00    -0.047 A 
ATOM      9  C9  IND d   1      -1.647   1.804   3.904  0.00  0.00    -0.096 A 
ATOM     10  HN1 IND d   1      -3.146   0.685   1.471  0.00  0.00     0.298 HD
ENDROOT
TORSDOF 0
ENDMDL
