MODEL 1
REMARK minimizedAffinity 10.7616014
REMARK minimizedRMSD -1
REMARK  0 active torsions:
REMARK  status: ('A' for Active; 'I' for Inactive)
ROOT
ATOM      1  N1  IND d   1       3.603  -3.811  -0.226  0.00  0.00    -0.196 N 
ATOM      2  C2  IND d   1       4.744  -4.525   0.012  0.00  0.00     0.054 A 
ATOM      3  C3  IND d   1       5.143  -5.163  -1.112  0.00  0.00    -0.031 A 
ATOM      4  C4  IND d   1       4.131  -5.094  -3.478  0.00  0.00     0.051 A 
ATOM      5  C5  IND d   1       3.063  -4.608  -4.179  0.00  0.00    -0.031 A 
ATOM      6  C6  IND d   1       2.103  -3.813  -3.588  0.00  0.00     0.015 A 
ATOM      7  C7  IND d   1       2.181  -3.464  -2.269  0.00  0.00    -0.016 A 
ATOM      8  C8  IND d   1       3.260  -3.961  -1.552  0.00  0.00    -0.047 A 
ATOM      9  C9  IND d   1       4.215  -4.803  -2.137  0.00  0.00    -0.096 A 
ATOM     10  HN1 IND d   1       3.172  -3.346   0.354  0.00  0.00     0.298 HD
ENDROOT
TORSDOF 0
ENDMDL
