MODEL 1
REMARK minimizedAffinity 6.92281151
REMARK minimizedRMSD -1
REMARK  0 active torsions:
REMARK  status: ('A' for Active; 'I' for Inactive)
ROOT
ATOM      1  N1  IND d   1       0.154   0.828   3.812  0.00  0.00    -0.196 N 
ATOM      2  C2  IND d   1       0.866   0.826   4.980  0.00  0.00     0.054 A 
ATOM      3  C3  IND d   1       0.098   1.271   6.000  0.00  0.00    -0.031 A 
ATOM      4  C4  IND d   1      -2.383   1.959   6.000  0.00  0.00     0.051 A 
ATOM      5  C5  IND d   1      -3.444   2.161   5.163  0.00  0.00    -0.031 A 
ATOM      6  C6  IND d   1      -3.360   1.922   3.807  0.00  0.00     0.015 A 
ATOM      7  C7  IND d   1      -2.209   1.459   3.236  0.00  0.00    -0.016 A 
ATOM      8  C8  IND d   1      -1.126   1.259   4.081  0.00  0.00    -0.047 A 
ATOM      9  C9  IND d   1      -1.193   1.540   5.451  0.00  0.00    -0.096 A 
ATOM     10  HN1 IND d   1       0.456   0.599   3.041  0.00  0.00     0.298 HD
ENDROOT
TORSDOF 0
ENDMDL
