MODEL 1
REMARK minimizedAffinity 16.8946304
REMARK minimizedRMSD -1
REMARK  0 active torsions:
REMARK  status: ('A' for Active; 'I' for Inactive)
ROOT
ATOM      1  N1  IND d   1       4.860   0.093   0.656  0.00  0.00    -0.196 N 
ATOM      2  C2  IND d   1       4.438   1.356   0.348  0.00  0.00     0.054 A 
ATOM      3  C3  IND d   1       3.286   1.309  -0.357  0.00  0.00    -0.031 A 
ATOM      4  C4  IND d   1       1.862  -0.728  -1.030  0.00  0.00     0.051 A 
ATOM      5  C5  IND d   1       1.858  -2.094  -1.005  0.00  0.00    -0.031 A 
ATOM      6  C6  IND d   1       2.873  -2.816  -0.410  0.00  0.00     0.015 A 
ATOM      7  C7  IND d   1       3.929  -2.195   0.194  0.00  0.00    -0.016 A 
ATOM      8  C8  IND d   1       3.941  -0.808   0.164  0.00  0.00    -0.047 A 
ATOM      9  C9  IND d   1       2.935  -0.071  -0.475  0.00  0.00    -0.096 A 
ATOM     10  HN1 IND d   1       5.578  -0.106   1.085  0.00  0.00     0.298 HD
ENDROOT
TORSDOF 0
ENDMDL
