MODEL 1
REMARK minimizedAffinity 20.6431122
REMARK minimizedRMSD -1
REMARK  0 active torsions:
REMARK  status: ('A' for Active; 'I' for Inactive)
ROOT
ATOM      1  N1  IND d   1      -1.528   2.932  -4.311  0.00  0.00    -0.196 N 
ATOM      2  C2  IND d   1      -2.112   1.713  -4.514  0.00  0.00     0.054 A 
ATOM      3  C3  IND d   1      -3.307   1.860  -5.128  0.00  0.00    -0.031 A 
ATOM      4  C4  IND d   1      -4.454   4.000  -5.984  0.00  0.00     0.051 A 
ATOM      5  C5  IND d   1      -4.324   5.360  -5.996  0.00  0.00    -0.031 A 
ATOM      6  C6  IND d   1      -3.232   5.993  -5.439  0.00  0.00     0.015 A 
ATOM      7  C7  IND d   1      -2.220   5.286  -4.855  0.00  0.00    -0.016 A 
ATOM      8  C8  IND d   1      -2.351   3.905  -4.835  0.00  0.00    -0.047 A 
ATOM      9  C9  IND d   1      -3.478   3.259  -5.361  0.00  0.00    -0.096 A 
ATOM     10  HN1 IND d   1      -0.774   3.069  -3.922  0.00  0.00     0.298 HD
ENDROOT
TORSDOF 0
ENDMDL
