MODEL 1
REMARK minimizedAffinity 21.2837105
REMARK minimizedRMSD -1
REMARK  0 active torsions:
REMARK  status: ('A' for Active; 'I' for Inactive)
ROOT
ATOM      1  N1  IND d   1       1.152   0.876  -3.668  0.00  0.00    -0.196 N 
ATOM      2  C2  IND d   1       1.083  -0.404  -4.143  0.00  0.00     0.054 A 
ATOM      3  C3  IND d   1       1.853  -1.226  -3.394  0.00  0.00    -0.031 A 
ATOM      4  C4  IND d   1       3.231  -0.702  -1.283  0.00  0.00     0.051 A 
ATOM      5  C5  IND d   1       3.632   0.335  -0.489  0.00  0.00    -0.031 A 
ATOM      6  C6  IND d   1       3.217   1.631  -0.716  0.00  0.00     0.015 A 
ATOM      7  C7  IND d   1       2.372   1.938  -1.745  0.00  0.00    -0.016 A 
ATOM      8  C8  IND d   1       1.968   0.889  -2.558  0.00  0.00    -0.047 A 
ATOM      9  C9  IND d   1       2.420  -0.422  -2.357  0.00  0.00    -0.096 A 
ATOM     10  HN1 IND d   1       0.754   1.559  -4.007  0.00  0.00     0.298 HD
ENDROOT
TORSDOF 0
ENDMDL
