MODEL 1
REMARK minimizedAffinity 19.3749924
REMARK minimizedRMSD -1
REMARK  0 active torsions:
REMARK  status: ('A' for Active; 'I' for Inactive)
ROOT
ATOM      1  N1  IND d   1       2.174   1.495   4.814  0.00  0.00    -0.196 N 
ATOM      2  C2  IND d   1       1.667   1.951   5.999  0.00  0.00     0.054 A 
ATOM      3  C3  IND d   1       0.357   2.256   5.864  0.00  0.00    -0.031 A 
ATOM      4  C4  IND d   1      -1.182   1.990   3.817  0.00  0.00     0.051 A 
ATOM      5  C5  IND d   1      -1.165   1.648   2.494  0.00  0.00    -0.031 A 
ATOM      6  C6  IND d   1      -0.012   1.227   1.864  0.00  0.00     0.015 A 
ATOM      7  C7  IND d   1       1.170   1.120   2.540  0.00  0.00    -0.016 A 
ATOM      8  C8  IND d   1       1.159   1.473   3.882  0.00  0.00    -0.047 A 
ATOM      9  C9  IND d   1       0.001   1.942   4.516  0.00  0.00    -0.096 A 
ATOM     10  HN1 IND d   1       2.989   1.262   4.673  0.00  0.00     0.298 HD
ENDROOT
TORSDOF 0
ENDMDL
