MODEL 1
REMARK minimizedAffinity 17.9258137
REMARK minimizedRMSD -1
REMARK  0 active torsions:
REMARK  status: ('A' for Active; 'I' for Inactive)
ROOT
ATOM      1  N1  IND d   1      -3.494   1.147   2.774  0.00  0.00    -0.196 N 
ATOM      2  C2  IND d   1      -2.217   0.969   3.230  0.00  0.00     0.054 A 
ATOM      3  C3  IND d   1      -2.086   1.482   4.474  0.00  0.00    -0.031 A 
ATOM      4  C4  IND d   1      -3.859   2.567   5.991  0.00  0.00     0.051 A 
ATOM      5  C5  IND d   1      -5.161   2.984   6.000  0.00  0.00    -0.031 A 
ATOM      6  C6  IND d   1      -5.991   2.803   4.912  0.00  0.00     0.015 A 
ATOM      7  C7  IND d   1      -5.551   2.187   3.775  0.00  0.00    -0.016 A 
ATOM      8  C8  IND d   1      -4.228   1.769   3.761  0.00  0.00    -0.047 A 
ATOM      9  C9  IND d   1      -3.369   1.987   4.845  0.00  0.00    -0.096 A 
ATOM     10  HN1 IND d   1      -3.789   0.911   2.002  0.00  0.00     0.298 HD
ENDROOT
TORSDOF 0
ENDMDL
