MODEL 1
REMARK minimizedAffinity 21.1107044
REMARK minimizedRMSD -1
REMARK  0 active torsions:
REMARK  status: ('A' for Active; 'I' for Inactive)
ROOT
ATOM      1  N1  IND d   1      -5.315   0.093   3.641  0.00  0.00    -0.196 N 
ATOM      2  C2  IND d   1      -4.362  -0.761   4.123  0.00  0.00     0.054 A 
ATOM      3  C3  IND d   1      -3.597  -0.139   5.048  0.00  0.00    -0.031 A 
ATOM      4  C4  IND d   1      -3.795   2.245   5.999  0.00  0.00     0.051 A 
ATOM      5  C5  IND d   1      -4.488   3.412   5.843  0.00  0.00    -0.031 A 
ATOM      6  C6  IND d   1      -5.514   3.535   4.929  0.00  0.00     0.015 A 
ATOM      7  C7  IND d   1      -5.895   2.486   4.141  0.00  0.00    -0.016 A 
ATOM      8  C8  IND d   1      -5.189   1.301   4.292  0.00  0.00    -0.047 A 
ATOM      9  C9  IND d   1      -4.119   1.183   5.188  0.00  0.00    -0.096 A 
ATOM     10  HN1 IND d   1      -5.895  -0.093   3.035  0.00  0.00     0.298 HD
ENDROOT
TORSDOF 0
ENDMDL
