MODEL 1
REMARK minimizedAffinity 15.1292038
REMARK minimizedRMSD -1
REMARK  0 active torsions:
REMARK  status: ('A' for Active; 'I' for Inactive)
ROOT
ATOM      1  N1  IND d   1       0.093  -4.815  -2.145  0.00  0.00    -0.196 N 
ATOM      2  C2  IND d   1      -0.846  -4.356  -3.027  0.00  0.00     0.054 A 
ATOM      3  C3  IND d   1      -0.774  -3.010  -3.132  0.00  0.00    -0.031 A 
ATOM      4  C4  IND d   1       0.874  -1.369  -2.027  0.00  0.00     0.051 A 
ATOM      5  C5  IND d   1       1.889  -1.314  -1.113  0.00  0.00    -0.031 A 
ATOM      6  C6  IND d   1       2.368  -2.445  -0.486  0.00  0.00     0.015 A 
ATOM      7  C7  IND d   1       1.856  -3.682  -0.759  0.00  0.00    -0.016 A 
ATOM      8  C8  IND d   1       0.821  -3.742  -1.681  0.00  0.00    -0.047 A 
ATOM      9  C9  IND d   1       0.301  -2.591  -2.289  0.00  0.00    -0.096 A 
ATOM     10  HN1 IND d   1       0.208  -5.636  -1.918  0.00  0.00     0.298 HD
ENDROOT
TORSDOF 0
ENDMDL
