MODEL 1
REMARK minimizedAffinity -2.36480069
REMARK minimizedRMSD -1
REMARK  0 active torsions:
REMARK  status: ('A' for Active; 'I' for Inactive)
ROOT
ATOM      1  C2' OXE d   1       1.288  -2.552   0.029  0.00  0.00     0.078 C 
ATOM      2  C1' OXE d   1       0.588  -0.407   1.699  0.00  0.00     0.078 C 
ATOM      3  C1  OXE d   1       1.305  -1.578   2.322  0.00  0.00    -0.078 A 
ATOM      4  C2  OXE d   1       1.602  -2.644   1.507  0.00  0.00    -0.078 A 
ATOM      5  C3  OXE d   1       2.312  -3.726   2.019  0.00  0.00     0.003 A 
ATOM      6  C4  OXE d   1       2.590  -3.808   3.389  0.00  0.00    -0.002 A 
ATOM      7  C5  OXE d   1       2.260  -2.751   4.244  0.00  0.00    -0.002 A 
ATOM      8  C6  OXE d   1       1.657  -1.613   3.720  0.00  0.00     0.003 A 
ENDROOT
TORSDOF 0
ENDMDL
