MODEL 1
REMARK minimizedAffinity 13.4285192
REMARK minimizedRMSD -1
REMARK  0 active torsions:
REMARK  status: ('A' for Active; 'I' for Inactive)
ROOT
ATOM      1  C2' OXE d   1       2.994   1.784   1.520  0.00  0.00     0.078 C 
ATOM      2  C1' OXE d   1       2.261   2.685   4.076  0.00  0.00     0.078 C 
ATOM      3  C1  OXE d   1       2.208   1.201   3.811  0.00  0.00    -0.078 A 
ATOM      4  C2  OXE d   1       2.523   0.773   2.544  0.00  0.00    -0.078 A 
ATOM      5  C3  OXE d   1       2.543  -0.589   2.262  0.00  0.00     0.003 A 
ATOM      6  C4  OXE d   1       2.097  -1.517   3.211  0.00  0.00    -0.002 A 
ATOM      7  C5  OXE d   1       1.734  -1.098   4.496  0.00  0.00    -0.002 A 
ATOM      8  C6  OXE d   1       1.824   0.250   4.825  0.00  0.00     0.003 A 
ENDROOT
TORSDOF 0
ENDMDL
