MODEL 1
REMARK minimizedAffinity 13.5520468
REMARK minimizedRMSD -1
REMARK  0 active torsions:
REMARK  status: ('A' for Active; 'I' for Inactive)
ROOT
ATOM      1  C2' OXE d   1      -5.906   3.582  -0.781  0.00  0.00     0.078 C 
ATOM      2  C1' OXE d   1      -3.106   3.409  -0.688  0.00  0.00     0.078 C 
ATOM      3  C1  OXE d   1      -3.873   3.088   0.570  0.00  0.00    -0.078 A 
ATOM      4  C2  OXE d   1      -5.240   3.221   0.529  0.00  0.00    -0.078 A 
ATOM      5  C3  OXE d   1      -5.999   2.885   1.646  0.00  0.00     0.003 A 
ATOM      6  C4  OXE d   1      -5.375   2.561   2.857  0.00  0.00    -0.002 A 
ATOM      7  C5  OXE d   1      -3.981   2.459   2.931  0.00  0.00    -0.002 A 
ATOM      8  C6  OXE d   1      -3.220   2.677   1.789  0.00  0.00     0.003 A 
ENDROOT
TORSDOF 0
ENDMDL
