MODEL 1
REMARK minimizedAffinity 15.9462337
REMARK minimizedRMSD -1
REMARK  0 active torsions:
REMARK  status: ('A' for Active; 'I' for Inactive)
ROOT
ATOM      1  C2' OXE d   1       2.900  -4.864   5.014  0.00  0.00     0.078 C 
ATOM      2  C1' OXE d   1       2.563  -4.823   2.228  0.00  0.00     0.078 C 
ATOM      3  C1  OXE d   1       2.434  -3.517   2.971  0.00  0.00    -0.078 A 
ATOM      4  C2  OXE d   1       2.554  -3.554   4.339  0.00  0.00    -0.078 A 
ATOM      5  C3  OXE d   1       2.498  -2.369   5.068  0.00  0.00     0.003 A 
ATOM      6  C4  OXE d   1       2.167  -1.164   4.437  0.00  0.00    -0.002 A 
ATOM      7  C5  OXE d   1       2.002  -1.111   3.049  0.00  0.00    -0.002 A 
ATOM      8  C6  OXE d   1       2.173  -2.269   2.298  0.00  0.00     0.003 A 
ENDROOT
TORSDOF 0
ENDMDL
