MODEL 1
REMARK minimizedAffinity -0.967490077
REMARK minimizedRMSD -1
REMARK  0 active torsions:
REMARK  status: ('A' for Active; 'I' for Inactive)
ROOT
ATOM      1  C2' OXE d   1       1.877  -2.604   5.976  0.00  0.00     0.078 C 
ATOM      2  C1' OXE d   1       3.705  -3.952   4.325  0.00  0.00     0.078 C 
ATOM      3  C1  OXE d   1       2.967  -2.772   3.742  0.00  0.00    -0.078 A 
ATOM      4  C2  OXE d   1       2.041  -2.147   4.542  0.00  0.00    -0.078 A 
ATOM      5  C3  OXE d   1       1.373  -1.020   4.072  0.00  0.00     0.003 A 
ATOM      6  C4  OXE d   1       1.523  -0.611   2.742  0.00  0.00    -0.002 A 
ATOM      7  C5  OXE d   1       2.432  -1.257   1.898  0.00  0.00    -0.002 A 
ATOM      8  C6  OXE d   1       3.192  -2.311   2.394  0.00  0.00     0.003 A 
ENDROOT
TORSDOF 0
ENDMDL
