MODEL 1
REMARK minimizedAffinity 8.67038822
REMARK minimizedRMSD -1
REMARK  0 active torsions:
REMARK  status: ('A' for Active; 'I' for Inactive)
ROOT
ATOM      1  C2' OXE d   1       2.956   2.435   3.156  0.00  0.00     0.078 C 
ATOM      2  C1' OXE d   1       3.413   1.525   0.540  0.00  0.00     0.078 C 
ATOM      3  C1  OXE d   1       2.849   0.544   1.538  0.00  0.00    -0.078 A 
ATOM      4  C2  OXE d   1       2.672   0.985   2.827  0.00  0.00    -0.078 A 
ATOM      5  C3  OXE d   1       2.104   0.137   3.774  0.00  0.00     0.003 A 
ATOM      6  C4  OXE d   1       1.854  -1.205   3.464  0.00  0.00    -0.002 A 
ATOM      7  C5  OXE d   1       2.064  -1.685   2.167  0.00  0.00    -0.002 A 
ATOM      8  C6  OXE d   1       2.520  -0.815   1.183  0.00  0.00     0.003 A 
ENDROOT
TORSDOF 0
ENDMDL
