MODEL 1
REMARK minimizedAffinity 9.20326519
REMARK minimizedRMSD -1
REMARK  0 active torsions:
REMARK  status: ('A' for Active; 'I' for Inactive)
ROOT
ATOM      1  C2' OXE d   1       3.632   0.291   1.230  0.00  0.00     0.078 C 
ATOM      2  C1' OXE d   1       1.148   0.870   2.402  0.00  0.00     0.078 C 
ATOM      3  C1  OXE d   1       1.908  -0.326   2.919  0.00  0.00    -0.078 A 
ATOM      4  C2  OXE d   1       3.101  -0.629   2.308  0.00  0.00    -0.078 A 
ATOM      5  C3  OXE d   1       3.869  -1.689   2.782  0.00  0.00     0.003 A 
ATOM      6  C4  OXE d   1       3.366  -2.540   3.773  0.00  0.00    -0.002 A 
ATOM      7  C5  OXE d   1       2.135  -2.273   4.382  0.00  0.00    -0.002 A 
ATOM      8  C6  OXE d   1       1.415  -1.147   3.997  0.00  0.00     0.003 A 
ENDROOT
TORSDOF 0
ENDMDL
