MODEL 1
REMARK minimizedAffinity 9.21640491
REMARK minimizedRMSD -1
REMARK  0 active torsions:
REMARK  status: ('A' for Active; 'I' for Inactive)
ROOT
ATOM      1  C2' OXE d   1       5.123  -2.181   2.389  0.00  0.00     0.078 C 
ATOM      2  C1' OXE d   1       4.299  -0.032   0.781  0.00  0.00     0.078 C 
ATOM      3  C1  OXE d   1       3.392  -0.455   1.909  0.00  0.00    -0.078 A 
ATOM      4  C2  OXE d   1       3.781  -1.537   2.662  0.00  0.00    -0.078 A 
ATOM      5  C3  OXE d   1       3.008  -1.935   3.749  0.00  0.00     0.003 A 
ATOM      6  C4  OXE d   1       1.763  -1.341   3.988  0.00  0.00    -0.002 A 
ATOM      7  C5  OXE d   1       1.329  -0.263   3.209  0.00  0.00    -0.002 A 
ATOM      8  C6  OXE d   1       2.149   0.219   2.195  0.00  0.00     0.003 A 
ENDROOT
TORSDOF 0
ENDMDL
