MODEL 1
REMARK minimizedAffinity 9.22773361
REMARK minimizedRMSD -1
REMARK  0 active torsions:
REMARK  status: ('A' for Active; 'I' for Inactive)
ROOT
ATOM      1  C2' OXE d   1       4.350  -3.000   4.230  0.00  0.00     0.078 C 
ATOM      2  C1' OXE d   1       1.956  -1.535   4.204  0.00  0.00     0.078 C 
ATOM      3  C1  OXE d   1       1.917  -2.936   4.760  0.00  0.00    -0.078 A 
ATOM      4  C2  OXE d   1       3.083  -3.662   4.726  0.00  0.00    -0.078 A 
ATOM      5  C3  OXE d   1       3.115  -4.941   5.276  0.00  0.00     0.003 A 
ATOM      6  C4  OXE d   1       1.936  -5.550   5.723  0.00  0.00    -0.002 A 
ATOM      7  C5  OXE d   1       0.730  -4.842   5.730  0.00  0.00    -0.002 A 
ATOM      8  C6  OXE d   1       0.711  -3.522   5.292  0.00  0.00     0.003 A 
ENDROOT
TORSDOF 0
ENDMDL
