MODEL 1
REMARK minimizedAffinity 9.79753113
REMARK minimizedRMSD -1
REMARK  0 active torsions:
REMARK  status: ('A' for Active; 'I' for Inactive)
ROOT
ATOM      1  C2' OXE d   1       3.672   2.526   3.202  0.00  0.00     0.078 C 
ATOM      2  C1' OXE d   1       2.874   2.024   0.558  0.00  0.00     0.078 C 
ATOM      3  C1  OXE d   1       2.642   0.939   1.581  0.00  0.00    -0.078 A 
ATOM      4  C2  OXE d   1       3.079   1.176   2.862  0.00  0.00    -0.078 A 
ATOM      5  C3  OXE d   1       2.841   0.231   3.857  0.00  0.00     0.003 A 
ATOM      6  C4  OXE d   1       2.300  -1.019   3.532  0.00  0.00    -0.002 A 
ATOM      7  C5  OXE d   1       1.885  -1.295   2.225  0.00  0.00    -0.002 A 
ATOM      8  C6  OXE d   1       2.010  -0.313   1.248  0.00  0.00     0.003 A 
ENDROOT
TORSDOF 0
ENDMDL
