MODEL 1
REMARK minimizedAffinity 4.07336092
REMARK minimizedRMSD -1
REMARK  0 active torsions:
REMARK  status: ('A' for Active; 'I' for Inactive)
ROOT
ATOM      1  C   UNL d   1      -5.993   2.997  -5.868  0.00  0.00     0.020 A 
ATOM      2  C1  UNL d   1      -5.730   4.360  -5.994  0.00  0.00     0.020 A 
ATOM      3  C2  UNL d   1      -5.472   5.129  -4.858  0.00  0.00     0.034 A 
ATOM      4  C3  UNL d   1      -5.476   4.536  -3.590  0.00  0.00     0.017 A 
ATOM      5  C4  UNL d   1      -5.741   3.168  -3.464  0.00  0.00     0.017 A 
ATOM      6  C5  UNL d   1      -5.998   2.402  -4.606  0.00  0.00     0.034 A 
ATOM      7 Cl   UNL d   1      -5.764   2.365  -1.934  0.00  0.00    -0.070 Cl
ATOM      8 Cl1  UNL d   1      -5.149   5.548  -2.228  0.00  0.00    -0.070 Cl
ENDROOT
TORSDOF 0
ENDMDL
