MODEL 1
REMARK minimizedAffinity 3.46710205
REMARK minimizedRMSD -1
REMARK  0 active torsions:
REMARK  status: ('A' for Active; 'I' for Inactive)
ROOT
ATOM      1  C   UNL d   1      -6.000   4.729  -4.849  0.00  0.00     0.020 A 
ATOM      2  C1  UNL d   1      -5.848   3.941  -5.990  0.00  0.00     0.020 A 
ATOM      3  C2  UNL d   1      -4.919   2.899  -6.000  0.00  0.00     0.034 A 
ATOM      4  C3  UNL d   1      -4.137   2.643  -4.868  0.00  0.00     0.017 A 
ATOM      5  C4  UNL d   1      -4.290   3.434  -3.724  0.00  0.00     0.017 A 
ATOM      6  C5  UNL d   1      -5.222   4.476  -3.719  0.00  0.00     0.034 A 
ATOM      7 Cl   UNL d   1      -3.361   3.178  -2.289  0.00  0.00    -0.070 Cl
ATOM      8 Cl1  UNL d   1      -3.007   1.338  -4.951  0.00  0.00    -0.070 Cl
ENDROOT
TORSDOF 0
ENDMDL
