MODEL 1
REMARK minimizedAffinity 5.87534714
REMARK minimizedRMSD -1
REMARK  0 active torsions:
REMARK  status: ('A' for Active; 'I' for Inactive)
ROOT
ATOM      1  C   UNL d   1       0.441   4.118  -0.618  0.00  0.00     0.020 A 
ATOM      2  C1  UNL d   1       0.004   5.438  -0.719  0.00  0.00     0.020 A 
ATOM      3  C2  UNL d   1      -0.763   6.000   0.304  0.00  0.00     0.034 A 
ATOM      4  C3  UNL d   1      -1.096   5.241   1.432  0.00  0.00     0.017 A 
ATOM      5  C4  UNL d   1      -0.657   3.916   1.532  0.00  0.00     0.017 A 
ATOM      6  C5  UNL d   1       0.111   3.359   0.505  0.00  0.00     0.034 A 
ATOM      7 Cl   UNL d   1      -1.027   2.917   2.893  0.00  0.00    -0.070 Cl
ATOM      8 Cl1  UNL d   1      -2.047   6.000   2.658  0.00  0.00    -0.070 Cl
ENDROOT
TORSDOF 0
ENDMDL
