MODEL 1
REMARK minimizedAffinity 7.8798933
REMARK minimizedRMSD -1
REMARK  0 active torsions:
REMARK  status: ('A' for Active; 'I' for Inactive)
ROOT
ATOM      1  C   UNL d   1      -5.986  -5.923  -4.666  0.00  0.00     0.020 A 
ATOM      2  C1  UNL d   1      -4.962  -5.966  -5.611  0.00  0.00     0.020 A 
ATOM      3  C2  UNL d   1      -3.634  -5.799  -5.211  0.00  0.00     0.034 A 
ATOM      4  C3  UNL d   1      -3.327  -5.588  -3.862  0.00  0.00     0.017 A 
ATOM      5  C4  UNL d   1      -4.355  -5.545  -2.914  0.00  0.00     0.017 A 
ATOM      6  C5  UNL d   1      -5.683  -5.713  -3.320  0.00  0.00     0.034 A 
ATOM      7 Cl   UNL d   1      -4.054  -5.289  -1.231  0.00  0.00    -0.070 Cl
ATOM      8 Cl1  UNL d   1      -1.664  -5.390  -3.438  0.00  0.00    -0.070 Cl
ENDROOT
TORSDOF 0
ENDMDL
