MODEL 1
REMARK minimizedAffinity 8.04323483
REMARK minimizedRMSD -1
REMARK  0 active torsions:
REMARK  status: ('A' for Active; 'I' for Inactive)
ROOT
ATOM      1  C   UNL d   1       0.103   5.997   0.341  0.00  0.00     0.020 A 
ATOM      2  C1  UNL d   1       0.330   5.541  -0.957  0.00  0.00     0.020 A 
ATOM      3  C2  UNL d   1       0.566   4.184  -1.189  0.00  0.00     0.034 A 
ATOM      4  C3  UNL d   1       0.575   3.279  -0.121  0.00  0.00     0.017 A 
ATOM      5  C4  UNL d   1       0.347   3.738   1.181  0.00  0.00     0.017 A 
ATOM      6  C5  UNL d   1       0.111   5.097   1.407  0.00  0.00     0.034 A 
ATOM      7 Cl   UNL d   1       0.343   2.681   2.549  0.00  0.00    -0.070 Cl
ATOM      8 Cl1  UNL d   1       0.874   1.615  -0.481  0.00  0.00    -0.070 Cl
ENDROOT
TORSDOF 0
ENDMDL
