MODEL 1
REMARK minimizedAffinity 11.5387888
REMARK minimizedRMSD -1
REMARK  0 active torsions:
REMARK  status: ('A' for Active; 'I' for Inactive)
ROOT
ATOM      1  C   UNL d   1       0.634   4.674  -0.608  0.00  0.00     0.020 A 
ATOM      2  C1  UNL d   1      -0.425   3.896  -0.142  0.00  0.00     0.020 A 
ATOM      3  C2  UNL d   1      -0.303   3.201   1.063  0.00  0.00     0.034 A 
ATOM      4  C3  UNL d   1       0.880   3.282   1.806  0.00  0.00     0.017 A 
ATOM      5  C4  UNL d   1       1.943   4.064   1.337  0.00  0.00     0.017 A 
ATOM      6  C5  UNL d   1       1.815   4.758   0.129  0.00  0.00     0.034 A 
ATOM      7 Cl   UNL d   1       3.434   4.213   2.198  0.00  0.00    -0.070 Cl
ATOM      8 Cl1  UNL d   1       0.962   2.397   3.287  0.00  0.00    -0.070 Cl
ENDROOT
TORSDOF 0
ENDMDL
