MODEL 1
REMARK minimizedAffinity 12.0381651
REMARK minimizedRMSD -1
REMARK  0 active torsions:
REMARK  status: ('A' for Active; 'I' for Inactive)
ROOT
ATOM      1  C   UNL d   1      -0.372   6.000   0.224  0.00  0.00     0.020 A 
ATOM      2  C1  UNL d   1       0.567   5.606  -0.729  0.00  0.00     0.020 A 
ATOM      3  C2  UNL d   1       1.144   4.337  -0.658  0.00  0.00     0.034 A 
ATOM      4  C3  UNL d   1       0.784   3.456   0.369  0.00  0.00     0.017 A 
ATOM      5  C4  UNL d   1      -0.159   3.853   1.325  0.00  0.00     0.017 A 
ATOM      6  C5  UNL d   1      -0.733   5.125   1.249  0.00  0.00     0.034 A 
ATOM      7 Cl   UNL d   1      -0.654   2.822   2.621  0.00  0.00    -0.070 Cl
ATOM      8 Cl1  UNL d   1       1.537   1.902   0.396  0.00  0.00    -0.070 Cl
ENDROOT
TORSDOF 0
ENDMDL
