MODEL 1
REMARK minimizedAffinity 9.37207413
REMARK minimizedRMSD -1
REMARK  0 active torsions:
REMARK  status: ('A' for Active; 'I' for Inactive)
ROOT
ATOM      1  C   UNL d   1      -2.003  -5.864  -2.656  0.00  0.00     0.020 A 
ATOM      2  C1  UNL d   1      -1.670  -5.873  -4.009  0.00  0.00     0.020 A 
ATOM      3  C2  UNL d   1      -2.677  -5.915  -4.976  0.00  0.00     0.034 A 
ATOM      4  C3  UNL d   1      -4.022  -5.948  -4.590  0.00  0.00     0.017 A 
ATOM      5  C4  UNL d   1      -4.356  -5.939  -3.231  0.00  0.00     0.017 A 
ATOM      6  C5  UNL d   1      -3.343  -5.897  -2.267  0.00  0.00     0.034 A 
ATOM      7 Cl   UNL d   1      -5.993  -5.978  -2.678  0.00  0.00    -0.070 Cl
ATOM      8 Cl1  UNL d   1      -5.215  -5.999  -5.839  0.00  0.00    -0.070 Cl
ENDROOT
TORSDOF 0
ENDMDL
