MODEL 1
REMARK minimizedAffinity 11.1149845
REMARK minimizedRMSD -1
REMARK  0 active torsions:
REMARK  status: ('A' for Active; 'I' for Inactive)
ROOT
ATOM      1  C   UNL d   1       0.258  -0.362  -2.131  0.00  0.00     0.020 A 
ATOM      2  C1  UNL d   1      -0.951  -1.050  -2.225  0.00  0.00     0.020 A 
ATOM      3  C2  UNL d   1      -2.003  -0.733  -1.364  0.00  0.00     0.034 A 
ATOM      4  C3  UNL d   1      -1.848   0.274  -0.404  0.00  0.00     0.017 A 
ATOM      5  C4  UNL d   1      -0.634   0.964  -0.310  0.00  0.00     0.017 A 
ATOM      6  C5  UNL d   1       0.416   0.642  -1.176  0.00  0.00     0.034 A 
ATOM      7 Cl   UNL d   1      -0.368   2.219   0.848  0.00  0.00    -0.070 Cl
ATOM      8 Cl1  UNL d   1      -3.192   0.614   0.628  0.00  0.00    -0.070 Cl
ENDROOT
TORSDOF 0
ENDMDL
