MODEL 1
REMARK minimizedAffinity 6.24107885
REMARK minimizedRMSD -1
REMARK  0 active torsions:
REMARK  status: ('A' for Active; 'I' for Inactive)
ROOT
ATOM      1  C   UNL d   1       0.401   4.370  -0.796  0.00  0.00     0.020 A 
ATOM      2  C1  UNL d   1      -0.240   3.378  -0.054  0.00  0.00     0.020 A 
ATOM      3  C2  UNL d   1       0.192   3.086   1.242  0.00  0.00     0.034 A 
ATOM      4  C3  UNL d   1       1.268   3.787   1.799  0.00  0.00     0.017 A 
ATOM      5  C4  UNL d   1       1.911   4.782   1.054  0.00  0.00     0.017 A 
ATOM      6  C5  UNL d   1       1.474   5.070  -0.243  0.00  0.00     0.034 A 
ATOM      7 Cl   UNL d   1       3.245   5.688   1.674  0.00  0.00    -0.070 Cl
ATOM      8 Cl1  UNL d   1       1.749   3.374   3.407  0.00  0.00    -0.070 Cl
ENDROOT
TORSDOF 0
ENDMDL
