MODEL 1
REMARK minimizedAffinity 0.817161322
REMARK minimizedRMSD -1
REMARK  0 active torsions:
REMARK  status: ('A' for Active; 'I' for Inactive)
ROOT
ATOM      1  C   UNL d   1      -1.893  -2.283   3.082  0.00  0.00     0.172 C 
ATOM      2  N   UNL d   1      -2.157  -3.702   3.113  0.00  0.00    -0.070 N 
ATOM      3  C1  UNL d   1      -3.380  -4.291   2.934  0.00  0.00    -0.004 A 
ATOM      4  C2  UNL d   1      -3.210  -5.655   3.037  0.00  0.00    -0.047 A 
ATOM      5  C3  UNL d   1      -1.838  -5.894   3.289  0.00  0.00    -0.047 A 
ATOM      6  C4  UNL d   1      -1.209  -4.668   3.331  0.00  0.00    -0.004 A 
ENDROOT
TORSDOF 0
ENDMDL
