MODEL 1
REMARK minimizedAffinity -1.84999061
REMARK minimizedRMSD -1
REMARK  0 active torsions:
REMARK  status: ('A' for Active; 'I' for Inactive)
ROOT
ATOM      1  C   UNL d   1       2.692  -5.811  -4.602  0.00  0.00     0.172 C 
ATOM      2  N   UNL d   1       4.032  -5.422  -4.972  0.00  0.00    -0.070 N 
ATOM      3  C1  UNL d   1       4.788  -6.000  -5.958  0.00  0.00    -0.004 A 
ATOM      4  C2  UNL d   1       6.000  -5.345  -5.999  0.00  0.00    -0.047 A 
ATOM      5  C3  UNL d   1       5.972  -4.340  -5.003  0.00  0.00    -0.047 A 
ATOM      6  C4  UNL d   1       4.743  -4.410  -4.383  0.00  0.00    -0.004 A 
ENDROOT
TORSDOF 0
ENDMDL
