MODEL 1
REMARK minimizedAffinity 0.356623769
REMARK minimizedRMSD -1
REMARK  0 active torsions:
REMARK  status: ('A' for Active; 'I' for Inactive)
ROOT
ATOM      1  C   UNL d   1       3.909   1.697  -5.916  0.00  0.00     0.172 C 
ATOM      2  N   UNL d   1       4.481   3.022  -5.946  0.00  0.00    -0.070 N 
ATOM      3  C1  UNL d   1       5.819   3.314  -5.970  0.00  0.00    -0.004 A 
ATOM      4  C2  UNL d   1       5.951   4.686  -5.995  0.00  0.00    -0.047 A 
ATOM      5  C3  UNL d   1       4.648   5.237  -5.985  0.00  0.00    -0.047 A 
ATOM      6  C4  UNL d   1       3.757   4.185  -5.954  0.00  0.00    -0.004 A 
ENDROOT
TORSDOF 0
ENDMDL
