MODEL 1
REMARK minimizedAffinity -0.262017012
REMARK minimizedRMSD -1
REMARK  0 active torsions:
REMARK  status: ('A' for Active; 'I' for Inactive)
ROOT
ATOM      1  C   UNL d   1       6.000   4.099  -5.593  0.00  0.00     0.172 C 
ATOM      2  N   UNL d   1       5.348   2.820  -5.749  0.00  0.00    -0.070 N 
ATOM      3  C1  UNL d   1       3.995   2.614  -5.800  0.00  0.00    -0.004 A 
ATOM      4  C2  UNL d   1       3.780   1.262  -5.956  0.00  0.00    -0.047 A 
ATOM      5  C3  UNL d   1       5.047   0.633  -5.999  0.00  0.00    -0.047 A 
ATOM      6  C4  UNL d   1       6.000   1.621  -5.869  0.00  0.00    -0.004 A 
ENDROOT
TORSDOF 0
ENDMDL
