MODEL 1
REMARK minimizedAffinity -0.978219569
REMARK minimizedRMSD -1
REMARK  0 active torsions:
REMARK  status: ('A' for Active; 'I' for Inactive)
ROOT
ATOM      1  C   UNL d   1       5.749   0.714  -5.996  0.00  0.00     0.172 C 
ATOM      2  N   UNL d   1       5.240   2.066  -5.997  0.00  0.00    -0.070 N 
ATOM      3  C1  UNL d   1       5.999   3.205  -5.998  0.00  0.00    -0.004 A 
ATOM      4  C2  UNL d   1       5.142   4.284  -6.000  0.00  0.00    -0.047 A 
ATOM      5  C3  UNL d   1       3.821   3.775  -5.997  0.00  0.00    -0.047 A 
ATOM      6  C4  UNL d   1       3.911   2.399  -5.996  0.00  0.00    -0.004 A 
ENDROOT
TORSDOF 0
ENDMDL
