MODEL 1
REMARK minimizedAffinity 8.04181767
REMARK minimizedRMSD -1
REMARK  0 active torsions:
REMARK  status: ('A' for Active; 'I' for Inactive)
ROOT
ATOM      1  C   UNL d   1      -0.663  -2.072   0.671  0.00  0.00     0.172 C 
ATOM      2  N   UNL d   1      -1.054  -2.871  -0.466  0.00  0.00    -0.070 N 
ATOM      3  C1  UNL d   1      -2.096  -3.758  -0.498  0.00  0.00    -0.004 A 
ATOM      4  C2  UNL d   1      -2.138  -4.315  -1.759  0.00  0.00    -0.047 A 
ATOM      5  C3  UNL d   1      -1.084  -3.743  -2.509  0.00  0.00    -0.047 A 
ATOM      6  C4  UNL d   1      -0.429  -2.853  -1.685  0.00  0.00    -0.004 A 
ENDROOT
TORSDOF 0
ENDMDL
