MODEL 1
REMARK minimizedAffinity 3.65199542
REMARK minimizedRMSD -1
REMARK  0 active torsions:
REMARK  status: ('A' for Active; 'I' for Inactive)
ROOT
ATOM      1  C   UNL d   1      -1.269  -3.358  -0.926  0.00  0.00     0.172 C 
ATOM      2  N   UNL d   1      -1.235  -3.523   0.508  0.00  0.00    -0.070 N 
ATOM      3  C1  UNL d   1      -1.140  -2.512   1.427  0.00  0.00    -0.004 A 
ATOM      4  C2  UNL d   1      -1.138  -3.081   2.682  0.00  0.00    -0.047 A 
ATOM      5  C3  UNL d   1      -1.234  -4.482   2.512  0.00  0.00    -0.047 A 
ATOM      6  C4  UNL d   1      -1.293  -4.729   1.157  0.00  0.00    -0.004 A 
ENDROOT
TORSDOF 0
ENDMDL
