MODEL 1
REMARK minimizedAffinity 5.92775917
REMARK minimizedRMSD -1
REMARK  0 active torsions:
REMARK  status: ('A' for Active; 'I' for Inactive)
ROOT
ATOM      1  C   UNL d   1       1.549   1.638   1.719  0.00  0.00     0.172 C 
ATOM      2  N   UNL d   1       0.647   2.490   0.978  0.00  0.00    -0.070 N 
ATOM      3  C1  UNL d   1       0.979   3.243  -0.116  0.00  0.00    -0.004 A 
ATOM      4  C2  UNL d   1      -0.154   3.909  -0.530  0.00  0.00    -0.047 A 
ATOM      5  C3  UNL d   1      -1.204   3.543   0.347  0.00  0.00    -0.047 A 
ATOM      6  C4  UNL d   1      -0.680   2.663   1.270  0.00  0.00    -0.004 A 
ENDROOT
TORSDOF 0
ENDMDL
