MODEL 1
REMARK minimizedAffinity 5.33431911
REMARK minimizedRMSD -1
REMARK  0 active torsions:
REMARK  status: ('A' for Active; 'I' for Inactive)
ROOT
ATOM      1  C   UNL d   1      -0.898   4.166   0.802  0.00  0.00     0.172 C 
ATOM      2  N   UNL d   1      -0.894   3.577   2.120  0.00  0.00    -0.070 N 
ATOM      3  C1  UNL d   1      -1.684   3.964   3.170  0.00  0.00    -0.004 A 
ATOM      4  C2  UNL d   1      -1.380   3.158   4.246  0.00  0.00    -0.047 A 
ATOM      5  C3  UNL d   1      -0.372   2.257   3.829  0.00  0.00    -0.047 A 
ATOM      6  C4  UNL d   1      -0.090   2.538   2.509  0.00  0.00    -0.004 A 
ENDROOT
TORSDOF 0
ENDMDL
