MODEL 1
REMARK minimizedAffinity -2.69217277
REMARK minimizedRMSD -1
REMARK  0 active torsions:
REMARK  status: ('A' for Active; 'I' for Inactive)
ROOT
ATOM      1  C   UNL d   1      -1.153   0.482   1.915  0.00  0.00     0.172 C 
ATOM      2  N   UNL d   1      -1.729   1.534   1.110  0.00  0.00    -0.070 N 
ATOM      3  C1  UNL d   1      -1.075   2.655   0.674  0.00  0.00    -0.004 A 
ATOM      4  C2  UNL d   1      -1.968   3.405  -0.061  0.00  0.00    -0.047 A 
ATOM      5  C3  UNL d   1      -3.201   2.711  -0.067  0.00  0.00    -0.047 A 
ATOM      6  C4  UNL d   1      -3.025   1.556   0.666  0.00  0.00    -0.004 A 
ENDROOT
TORSDOF 0
ENDMDL
