MODEL 1
REMARK minimizedAffinity 6.04503202
REMARK minimizedRMSD -1
REMARK  0 active torsions:
REMARK  status: ('A' for Active; 'I' for Inactive)
ROOT
ATOM      1  C   UNL d   1      -2.275  -5.746  -1.822  0.00  0.00     0.172 C 
ATOM      2  N   UNL d   1      -1.139  -4.855  -1.848  0.00  0.00    -0.070 N 
ATOM      3  C1  UNL d   1      -1.101  -3.593  -1.318  0.00  0.00    -0.004 A 
ATOM      4  C2  UNL d   1       0.156  -3.077  -1.548  0.00  0.00    -0.047 A 
ATOM      5  C3  UNL d   1       0.899  -4.062  -2.240  0.00  0.00    -0.047 A 
ATOM      6  C4  UNL d   1       0.073  -5.153  -2.413  0.00  0.00    -0.004 A 
ENDROOT
TORSDOF 0
ENDMDL
