MODEL 1
REMARK minimizedAffinity 5.83965492
REMARK minimizedRMSD -1
REMARK  0 active torsions:
REMARK  status: ('A' for Active; 'I' for Inactive)
ROOT
ATOM      1  C   UNL d   1       0.802   3.954  -0.019  0.00  0.00     0.172 C 
ATOM      2  N   UNL d   1       1.362   2.902   0.797  0.00  0.00    -0.070 N 
ATOM      3  C1  UNL d   1       1.405   2.891   2.165  0.00  0.00    -0.004 A 
ATOM      4  C2  UNL d   1       2.014   1.719   2.559  0.00  0.00    -0.047 A 
ATOM      5  C3  UNL d   1       2.350   1.002   1.386  0.00  0.00    -0.047 A 
ATOM      6  C4  UNL d   1       1.935   1.757   0.310  0.00  0.00    -0.004 A 
ENDROOT
TORSDOF 0
ENDMDL
