MODEL 1
REMARK minimizedAffinity 3.19961643
REMARK minimizedRMSD -1
REMARK  0 active torsions:
REMARK  status: ('A' for Active; 'I' for Inactive)
ROOT
ATOM      1  C   UNL d   1      -3.899   5.873  -6.000  0.00  0.00     0.172 C 
ATOM      2  N   UNL d   1      -3.296   4.698  -5.416  0.00  0.00    -0.070 N 
ATOM      3  C1  UNL d   1      -3.913   3.488  -5.239  0.00  0.00    -0.004 A 
ATOM      4  C2  UNL d   1      -3.005   2.633  -4.654  0.00  0.00    -0.047 A 
ATOM      5  C3  UNL d   1      -1.801   3.354  -4.471  0.00  0.00    -0.047 A 
ATOM      6  C4  UNL d   1      -2.009   4.629  -4.952  0.00  0.00    -0.004 A 
ENDROOT
TORSDOF 0
ENDMDL
