MODEL 1
REMARK minimizedAffinity -1.07116008
REMARK minimizedRMSD -1
REMARK  0 active torsions:
REMARK  status: ('A' for Active; 'I' for Inactive)
ROOT
ATOM      1  C   UNL d   1       2.452   2.374  -5.986  0.00  0.00     0.172 C 
ATOM      2  N   UNL d   1       3.895   2.366  -5.949  0.00  0.00    -0.070 N 
ATOM      3  C1  UNL d   1       4.685   1.251  -5.861  0.00  0.00    -0.004 A 
ATOM      4  C2  UNL d   1       6.000   1.664  -5.854  0.00  0.00    -0.047 A 
ATOM      5  C3  UNL d   1       6.000   3.077  -5.940  0.00  0.00    -0.047 A 
ATOM      6  C4  UNL d   1       4.684   3.485  -5.998  0.00  0.00    -0.004 A 
ENDROOT
TORSDOF 0
ENDMDL
