MODEL 1
REMARK minimizedAffinity 2.2542398
REMARK minimizedRMSD -1
REMARK  0 active torsions:
REMARK  status: ('A' for Active; 'I' for Inactive)
ROOT
ATOM      1  C   UNL d   1       5.447   4.637  -5.509  0.00  0.00     0.172 C 
ATOM      2  N   UNL d   1       5.017   3.268  -5.671  0.00  0.00    -0.070 N 
ATOM      3  C1  UNL d   1       5.841   2.185  -5.824  0.00  0.00    -0.004 A 
ATOM      4  C2  UNL d   1       5.047   1.065  -5.946  0.00  0.00    -0.047 A 
ATOM      5  C3  UNL d   1       3.700   1.489  -5.863  0.00  0.00    -0.047 A 
ATOM      6  C4  UNL d   1       3.710   2.857  -5.693  0.00  0.00    -0.004 A 
ENDROOT
TORSDOF 0
ENDMDL
