MODEL 1
REMARK minimizedAffinity -1.69242167
REMARK minimizedRMSD -1
REMARK  0 active torsions:
REMARK  status: ('A' for Active; 'I' for Inactive)
ROOT
ATOM      1  C   UNL d   1       5.990   0.596  -5.986  0.00  0.00     0.172 C 
ATOM      2  N   UNL d   1       5.328   1.876  -5.884  0.00  0.00    -0.070 N 
ATOM      3  C1  UNL d   1       3.980   2.089  -6.000  0.00  0.00    -0.004 A 
ATOM      4  C2  UNL d   1       3.751   3.438  -5.842  0.00  0.00    -0.047 A 
ATOM      5  C3  UNL d   1       5.005   4.058  -5.625  0.00  0.00    -0.047 A 
ATOM      6  C4  UNL d   1       5.963   3.067  -5.656  0.00  0.00    -0.004 A 
ENDROOT
TORSDOF 0
ENDMDL
