MODEL 1
REMARK minimizedAffinity -5.41586208
REMARK minimizedRMSD -1
REMARK  1 active torsions:
REMARK  status: ('A' for Active; 'I' for Inactive)
REMARK    1  A    between atoms: N_2  and  C1_3 
ROOT
ATOM      1  C1  UNL d   1      -1.069   0.057   0.466  0.00  0.00     0.143 A 
ATOM      2  C2  UNL d   1      -0.237  -0.499   1.444  0.00  0.00    -0.057 A 
ATOM      3  C3  UNL d   1      -0.726  -0.818   2.717  0.00  0.00     0.033 A 
ATOM      4  C4  UNL d   1      -2.053  -0.560   3.044  0.00  0.00    -0.042 A 
ATOM      5  C5  UNL d   1      -2.892   0.014   2.096  0.00  0.00     0.033 A 
ATOM      6  C6  UNL d   1      -2.400   0.325   0.825  0.00  0.00    -0.057 A 
ENDROOT
BRANCH   1   7
ATOM      7  N   UNL d   1      -0.620   0.487  -0.784  0.00  0.00    -0.732 N 
ATOM      8  C   UNL d   1       0.377  -0.271  -1.510  0.00  0.00     0.284 C 
ATOM      9  H3  UNL d   1      -1.373   0.847  -1.365  0.00  0.00     0.395 HD
ENDBRANCH   1   7
TORSDOF 1
ENDMDL
