MODEL 1
REMARK minimizedAffinity -3.05058122
REMARK minimizedRMSD -1
REMARK  1 active torsions:
REMARK  status: ('A' for Active; 'I' for Inactive)
REMARK    1  A    between atoms: N_2  and  C1_3 
ROOT
ATOM      1  C1  UNL d   1      -0.004  -0.407   0.441  0.00  0.00     0.143 A 
ATOM      2  C2  UNL d   1      -1.318  -0.043   0.754  0.00  0.00    -0.057 A 
ATOM      3  C3  UNL d   1      -1.805  -0.134   2.063  0.00  0.00     0.033 A 
ATOM      4  C4  UNL d   1      -0.991  -0.619   3.082  0.00  0.00    -0.042 A 
ATOM      5  C5  UNL d   1       0.311  -1.010   2.790  0.00  0.00     0.033 A 
ATOM      6  C6  UNL d   1       0.793  -0.910   1.481  0.00  0.00    -0.057 A 
ENDROOT
BRANCH   1   7
ATOM      7  N   UNL d   1       0.508  -0.432  -0.858  0.00  0.00    -0.732 N 
ATOM      8  C   UNL d   1       0.147   0.594  -1.813  0.00  0.00     0.284 C 
ATOM      9  H3  UNL d   1       1.491  -0.697  -0.884  0.00  0.00     0.395 HD
ENDBRANCH   1   7
TORSDOF 1
ENDMDL
