MODEL 1
REMARK minimizedAffinity -1.4492842
REMARK minimizedRMSD -1
REMARK  1 active torsions:
REMARK  status: ('A' for Active; 'I' for Inactive)
REMARK    1  A    between atoms: N_2  and  C1_3 
ROOT
ATOM      1  C1  UNL d   1       0.480   0.363  -0.542  0.00  0.00     0.143 A 
ATOM      2  C2  UNL d   1       1.258   1.257   0.201  0.00  0.00    -0.057 A 
ATOM      3  C3  UNL d   1       1.413   1.108   1.584  0.00  0.00     0.033 A 
ATOM      4  C4  UNL d   1       0.767   0.075   2.255  0.00  0.00    -0.042 A 
ATOM      5  C5  UNL d   1      -0.031  -0.811   1.541  0.00  0.00     0.033 A 
ATOM      6  C6  UNL d   1      -0.177  -0.661   0.158  0.00  0.00    -0.057 A 
ENDROOT
BRANCH   1   7
ATOM      7  N   UNL d   1       0.207   0.516  -1.904  0.00  0.00    -0.732 N 
ATOM      8  C   UNL d   1       0.946  -0.239  -2.893  0.00  0.00     0.284 C 
ATOM      9  H3  UNL d   1      -0.790   0.586  -2.095  0.00  0.00     0.395 HD
ENDBRANCH   1   7
TORSDOF 1
ENDMDL
