MODEL 1
REMARK minimizedAffinity -2.51301479
REMARK minimizedRMSD -1
REMARK  1 active torsions:
REMARK  status: ('A' for Active; 'I' for Inactive)
REMARK    1  A    between atoms: N_2  and  C1_3 
ROOT
ATOM      1  C1  UNL d   1       0.167   0.106  -0.455  0.00  0.00     0.143 A 
ATOM      2  C2  UNL d   1       1.384  -0.066   0.214  0.00  0.00    -0.057 A 
ATOM      3  C3  UNL d   1       1.443  -0.111   1.612  0.00  0.00     0.033 A 
ATOM      4  C4  UNL d   1       0.286   0.045   2.369  0.00  0.00    -0.042 A 
ATOM      5  C5  UNL d   1      -0.930   0.242   1.725  0.00  0.00     0.033 A 
ATOM      6  C6  UNL d   1      -0.984   0.280   0.329  0.00  0.00    -0.057 A 
ENDROOT
BRANCH   1   7
ATOM      7  N   UNL d   1       0.056   0.258  -1.840  0.00  0.00    -0.732 N 
ATOM      8  C   UNL d   1       1.065  -0.284  -2.724  0.00  0.00     0.284 C 
ATOM      9  H3  UNL d   1      -0.898   0.130  -2.169  0.00  0.00     0.395 HD
ENDBRANCH   1   7
TORSDOF 1
ENDMDL
