MODEL 1
REMARK minimizedAffinity -2.29824901
REMARK minimizedRMSD -1
REMARK  1 active torsions:
REMARK  status: ('A' for Active; 'I' for Inactive)
REMARK    1  A    between atoms: N_2  and  C1_3 
ROOT
ATOM      1  C1  UNL d   1       0.186   0.035  -0.905  0.00  0.00     0.143 A 
ATOM      2  C2  UNL d   1      -0.943  -0.005  -0.081  0.00  0.00    -0.057 A 
ATOM      3  C3  UNL d   1      -0.827   0.050   1.313  0.00  0.00     0.033 A 
ATOM      4  C4  UNL d   1       0.427   0.117   1.911  0.00  0.00    -0.042 A 
ATOM      5  C5  UNL d   1       1.565   0.132   1.112  0.00  0.00     0.033 A 
ATOM      6  C6  UNL d   1       1.442   0.084  -0.280  0.00  0.00    -0.057 A 
ENDROOT
BRANCH   1   7
ATOM      7  N   UNL d   1       0.141  -0.115  -2.293  0.00  0.00    -0.732 N 
ATOM      8  C   UNL d   1       1.363  -0.190  -3.066  0.00  0.00     0.284 C 
ATOM      9  H3  UNL d   1      -0.579  -0.769  -2.590  0.00  0.00     0.395 HD
ENDBRANCH   1   7
TORSDOF 1
ENDMDL
