MODEL 1
REMARK minimizedAffinity -3.6250329
REMARK minimizedRMSD -1
REMARK  1 active torsions:
REMARK  status: ('A' for Active; 'I' for Inactive)
REMARK    1  A    between atoms: N_2  and  C1_3 
ROOT
ATOM      1  C1  UNL d   1       3.159  -0.471  -4.033  0.00  0.00     0.143 A 
ATOM      2  C2  UNL d   1       2.722  -1.786  -4.226  0.00  0.00    -0.057 A 
ATOM      3  C3  UNL d   1       1.453  -2.199  -3.803  0.00  0.00     0.033 A 
ATOM      4  C4  UNL d   1       0.606  -1.309  -3.151  0.00  0.00    -0.042 A 
ATOM      5  C5  UNL d   1       1.029  -0.004  -2.925  0.00  0.00     0.033 A 
ATOM      6  C6  UNL d   1       2.295   0.405  -3.356  0.00  0.00    -0.057 A 
ENDROOT
BRANCH   1   7
ATOM      7  N   UNL d   1       4.446  -0.025  -4.342  0.00  0.00    -0.732 N 
ATOM      8  C   UNL d   1       4.778   1.381  -4.264  0.00  0.00     0.284 C 
ATOM      9  H3  UNL d   1       5.168  -0.644  -3.980  0.00  0.00     0.395 HD
ENDBRANCH   1   7
TORSDOF 1
ENDMDL
