MODEL 1
REMARK minimizedAffinity -3.05766034
REMARK minimizedRMSD -1
REMARK  1 active torsions:
REMARK  status: ('A' for Active; 'I' for Inactive)
REMARK    1  A    between atoms: N_2  and  C1_3 
ROOT
ATOM      1  C1  UNL d   1       0.405  -0.599  -1.332  0.00  0.00     0.143 A 
ATOM      2  C2  UNL d   1       0.353  -1.464  -0.234  0.00  0.00    -0.057 A 
ATOM      3  C3  UNL d   1       0.575  -0.998   1.068  0.00  0.00     0.033 A 
ATOM      4  C4  UNL d   1       0.883   0.340   1.291  0.00  0.00    -0.042 A 
ATOM      5  C5  UNL d   1       0.965   1.212   0.212  0.00  0.00     0.033 A 
ATOM      6  C6  UNL d   1       0.735   0.743  -1.085  0.00  0.00    -0.057 A 
ENDROOT
BRANCH   1   7
ATOM      7  N   UNL d   1       0.290  -1.020  -2.660  0.00  0.00    -0.732 N 
ATOM      8  C   UNL d   1       1.469  -1.208  -3.478  0.00  0.00     0.284 C 
ATOM      9  H3  UNL d   1      -0.418  -1.741  -2.779  0.00  0.00     0.395 HD
ENDBRANCH   1   7
TORSDOF 1
ENDMDL
