MODEL 1
REMARK minimizedAffinity -5.08954096
REMARK minimizedRMSD -1
REMARK  1 active torsions:
REMARK  status: ('A' for Active; 'I' for Inactive)
REMARK    1  A    between atoms: N_2  and  C1_3 
ROOT
ATOM      1  C1  UNL d   1       0.390  -0.738   0.775  0.00  0.00     0.143 A 
ATOM      2  C2  UNL d   1       0.474   0.382   1.609  0.00  0.00    -0.057 A 
ATOM      3  C3  UNL d   1      -0.148   0.401   2.863  0.00  0.00     0.033 A 
ATOM      4  C4  UNL d   1      -0.892  -0.692   3.294  0.00  0.00    -0.042 A 
ATOM      5  C5  UNL d   1      -1.010  -1.807   2.471  0.00  0.00     0.033 A 
ATOM      6  C6  UNL d   1      -0.381  -1.822   1.223  0.00  0.00    -0.057 A 
ENDROOT
BRANCH   1   7
ATOM      7  N   UNL d   1       0.904  -0.781  -0.523  0.00  0.00    -0.732 N 
ATOM      8  C   UNL d   1       0.301   0.002  -1.581  0.00  0.00     0.284 C 
ATOM      9  H3  UNL d   1       1.921  -0.787  -0.539  0.00  0.00     0.395 HD
ENDBRANCH   1   7
TORSDOF 1
ENDMDL
