MODEL 1
REMARK minimizedAffinity -1.17785835
REMARK minimizedRMSD -1
REMARK  1 active torsions:
REMARK  status: ('A' for Active; 'I' for Inactive)
REMARK    1  A    between atoms: N_2  and  C1_3 
ROOT
ATOM      1  C1  UNL d   1      -0.036  -0.043   1.630  0.00  0.00     0.143 A 
ATOM      2  C2  UNL d   1      -1.206   0.403   1.006  0.00  0.00    -0.057 A 
ATOM      3  C3  UNL d   1      -1.261   0.595  -0.380  0.00  0.00     0.033 A 
ATOM      4  C4  UNL d   1      -0.135   0.372  -1.165  0.00  0.00    -0.042 A 
ATOM      5  C5  UNL d   1       1.046  -0.047  -0.562  0.00  0.00     0.033 A 
ATOM      6  C6  UNL d   1       1.093  -0.243   0.821  0.00  0.00    -0.057 A 
ENDROOT
BRANCH   1   7
ATOM      7  N   UNL d   1       0.111  -0.158   3.015  0.00  0.00    -0.732 N 
ATOM      8  C   UNL d   1      -1.048  -0.170   3.881  0.00  0.00     0.284 C 
ATOM      9  H3  UNL d   1       0.831  -0.829   3.274  0.00  0.00     0.395 HD
ENDBRANCH   1   7
TORSDOF 1
ENDMDL
