MODEL 1
REMARK minimizedAffinity -4.10672188
REMARK minimizedRMSD -1
REMARK  1 active torsions:
REMARK  status: ('A' for Active; 'I' for Inactive)
REMARK    1  A    between atoms: N_2  and  C1_3 
ROOT
ATOM      1  C1  UNL d   1      -0.026   0.075  -0.031  0.00  0.00     0.143 A 
ATOM      2  C2  UNL d   1      -1.350  -0.210   0.319  0.00  0.00    -0.057 A 
ATOM      3  C3  UNL d   1      -1.738  -0.323   1.660  0.00  0.00     0.033 A 
ATOM      4  C4  UNL d   1      -0.799  -0.181   2.676  0.00  0.00    -0.042 A 
ATOM      5  C5  UNL d   1       0.528   0.078   2.350  0.00  0.00     0.033 A 
ATOM      6  C6  UNL d   1       0.908   0.197   1.010  0.00  0.00    -0.057 A 
ENDROOT
BRANCH   1   7
ATOM      7  N   UNL d   1       0.442   0.103  -1.348  0.00  0.00    -0.732 N 
ATOM      8  C   UNL d   1       0.515  -1.113  -2.129  0.00  0.00     0.284 C 
ATOM      9  H3  UNL d   1       0.100   0.909  -1.865  0.00  0.00     0.395 HD
ENDBRANCH   1   7
TORSDOF 1
ENDMDL
