MODEL 1
REMARK minimizedAffinity -3.59348965
REMARK minimizedRMSD -1
REMARK  1 active torsions:
REMARK  status: ('A' for Active; 'I' for Inactive)
REMARK    1  A    between atoms: N_2  and  C1_3 
ROOT
ATOM      1  C1  UNL d   1       0.450  -0.222   0.050  0.00  0.00     0.143 A 
ATOM      2  C2  UNL d   1       1.530  -0.465   0.905  0.00  0.00    -0.057 A 
ATOM      3  C3  UNL d   1       1.362  -0.507   2.294  0.00  0.00     0.033 A 
ATOM      4  C4  UNL d   1       0.111  -0.277   2.856  0.00  0.00    -0.042 A 
ATOM      5  C5  UNL d   1      -0.972  -0.008   2.028  0.00  0.00     0.033 A 
ATOM      6  C6  UNL d   1      -0.799   0.026   0.641  0.00  0.00    -0.057 A 
ENDROOT
BRANCH   1   7
ATOM      7  N   UNL d   1       0.571  -0.070  -1.333  0.00  0.00    -0.732 N 
ATOM      8  C   UNL d   1       0.776  -1.221  -2.186  0.00  0.00     0.284 C 
ATOM      9  H3  UNL d   1      -0.083   0.614  -1.708  0.00  0.00     0.395 HD
ENDBRANCH   1   7
TORSDOF 1
ENDMDL
