MODEL 1
REMARK minimizedAffinity -3.76311278
REMARK minimizedRMSD -1
REMARK  0 active torsions:
REMARK  status: ('A' for Active; 'I' for Inactive)
ROOT
ATOM      1  N1  IND d   1       0.855   0.973  -1.024  0.00  0.00    -0.196 N 
ATOM      2  C2  IND d   1       1.688  -0.111  -0.997  0.00  0.00     0.054 A 
ATOM      3  C3  IND d   1       1.440  -0.867   0.096  0.00  0.00    -0.031 A 
ATOM      4  C4  IND d   1      -0.353  -0.567   1.919  0.00  0.00     0.051 A 
ATOM      5  C5  IND d   1      -1.325   0.295   2.343  0.00  0.00    -0.031 A 
ATOM      6  C6  IND d   1      -1.628   1.450   1.650  0.00  0.00     0.015 A 
ATOM      7  C7  IND d   1      -0.975   1.780   0.496  0.00  0.00    -0.016 A 
ATOM      8  C8  IND d   1       0.018   0.910   0.067  0.00  0.00    -0.047 A 
ATOM      9  C9  IND d   1       0.358  -0.241   0.789  0.00  0.00    -0.096 A 
ATOM     10  HN1 IND d   1       0.855   1.590  -1.623  0.00  0.00     0.298 HD
ENDROOT
TORSDOF 0
ENDMDL
