MODEL 1
REMARK minimizedAffinity 2.52095699
REMARK minimizedRMSD -1
REMARK  0 active torsions:
REMARK  status: ('A' for Active; 'I' for Inactive)
ROOT
ATOM      1  N1  IND d   1       0.261   0.084  -0.956  0.00  0.00    -0.196 N 
ATOM      2  C2  IND d   1       0.285  -0.085   0.401  0.00  0.00     0.054 A 
ATOM      3  C3  IND d   1       0.605  -1.361   0.710  0.00  0.00    -0.031 A 
ATOM      4  C4  IND d   1       1.228  -3.315  -0.846  0.00  0.00     0.051 A 
ATOM      5  C5  IND d   1       1.310  -3.656  -2.167  0.00  0.00    -0.031 A 
ATOM      6  C6  IND d   1       1.043  -2.749  -3.172  0.00  0.00     0.015 A 
ATOM      7  C7  IND d   1       0.694  -1.458  -2.892  0.00  0.00    -0.016 A 
ATOM      8  C8  IND d   1       0.604  -1.110  -1.552  0.00  0.00    -0.047 A 
ATOM      9  C9  IND d   1       0.832  -2.038  -0.528  0.00  0.00    -0.096 A 
ATOM     10  HN1 IND d   1       0.064   0.813  -1.367  0.00  0.00     0.298 HD
ENDROOT
TORSDOF 0
ENDMDL
