MODEL 1
REMARK minimizedAffinity -3.05060053
REMARK minimizedRMSD -1
REMARK  0 active torsions:
REMARK  status: ('A' for Active; 'I' for Inactive)
ROOT
ATOM      1  N1  IND d   1       0.779  -0.039  -0.621  0.00  0.00    -0.196 N 
ATOM      2  C2  IND d   1       0.608  -1.122   0.195  0.00  0.00     0.054 A 
ATOM      3  C3  IND d   1      -0.116  -0.780   1.285  0.00  0.00    -0.031 A 
ATOM      4  C4  IND d   1      -1.206   1.474   1.883  0.00  0.00     0.051 A 
ATOM      5  C5  IND d   1      -1.297   2.771   1.464  0.00  0.00    -0.031 A 
ATOM      6  C6  IND d   1      -0.690   3.207   0.303  0.00  0.00     0.015 A 
ATOM      7  C7  IND d   1       0.023   2.354  -0.491  0.00  0.00    -0.016 A 
ATOM      8  C8  IND d   1       0.124   1.037  -0.064  0.00  0.00    -0.047 A 
ATOM      9  C9  IND d   1      -0.454   0.599   1.134  0.00  0.00    -0.096 A 
ATOM     10  HN1 IND d   1       1.222  -0.031  -1.358  0.00  0.00     0.298 HD
ENDROOT
TORSDOF 0
ENDMDL
