MODEL 1
REMARK minimizedAffinity -2.18076849
REMARK minimizedRMSD -1
REMARK  0 active torsions:
REMARK  status: ('A' for Active; 'I' for Inactive)
ROOT
ATOM      1  N1  IND d   1       1.152   0.600  -0.862  0.00  0.00    -0.196 N 
ATOM      2  C2  IND d   1       0.876   1.894  -1.203  0.00  0.00     0.054 A 
ATOM      3  C3  IND d   1       0.025   2.445  -0.308  0.00  0.00    -0.031 A 
ATOM      4  C4  IND d   1      -0.962   1.438   1.846  0.00  0.00     0.051 A 
ATOM      5  C5  IND d   1      -1.028   0.274   2.558  0.00  0.00    -0.031 A 
ATOM      6  C6  IND d   1      -0.356  -0.864   2.161  0.00  0.00     0.015 A 
ATOM      7  C7  IND d   1       0.421  -0.876   1.037  0.00  0.00    -0.016 A 
ATOM      8  C8  IND d   1       0.485   0.303   0.307  0.00  0.00    -0.047 A 
ATOM      9  C9  IND d   1      -0.229   1.448   0.682  0.00  0.00    -0.096 A 
ATOM     10  HN1 IND d   1       1.657   0.061  -1.303  0.00  0.00     0.298 HD
ENDROOT
TORSDOF 0
ENDMDL
