MODEL 1
REMARK minimizedAffinity 2.55115795
REMARK minimizedRMSD -1
REMARK  0 active torsions:
REMARK  status: ('A' for Active; 'I' for Inactive)
ROOT
ATOM      1  N1  IND d   1       0.004  -4.355  -2.880  0.00  0.00    -0.196 N 
ATOM      2  C2  IND d   1       0.006  -2.993  -3.004  0.00  0.00     0.054 A 
ATOM      3  C3  IND d   1       0.970  -2.451  -2.227  0.00  0.00    -0.031 A 
ATOM      4  C4  IND d   1       2.725  -3.616  -0.747  0.00  0.00     0.051 A 
ATOM      5  C5  IND d   1       3.097  -4.846  -0.284  0.00  0.00    -0.031 A 
ATOM      6  C6  IND d   1       2.446  -5.999  -0.672  0.00  0.00     0.015 A 
ATOM      7  C7  IND d   1       1.401  -5.966  -1.551  0.00  0.00    -0.016 A 
ATOM      8  C8  IND d   1       1.015  -4.717  -2.018  0.00  0.00    -0.047 A 
ATOM      9  C9  IND d   1       1.645  -3.540  -1.595  0.00  0.00    -0.096 A 
ATOM     10  HN1 IND d   1      -0.539  -4.894  -3.273  0.00  0.00     0.298 HD
ENDROOT
TORSDOF 0
ENDMDL
