MODEL 1
REMARK minimizedAffinity -4.77538776
REMARK minimizedRMSD -1
REMARK  0 active torsions:
REMARK  status: ('A' for Active; 'I' for Inactive)
ROOT
ATOM      1  N1  IND d   1       0.786   1.526  -1.350  0.00  0.00    -0.196 N 
ATOM      2  C2  IND d   1       1.617   0.445  -1.246  0.00  0.00     0.054 A 
ATOM      3  C3  IND d   1       1.238  -0.342  -0.213  0.00  0.00    -0.031 A 
ATOM      4  C4  IND d   1      -0.775  -0.101   1.373  0.00  0.00     0.051 A 
ATOM      5  C5  IND d   1      -1.800   0.745   1.692  0.00  0.00    -0.031 A 
ATOM      6  C6  IND d   1      -2.022   1.917   0.998  0.00  0.00     0.015 A 
ATOM      7  C7  IND d   1      -1.229   2.282  -0.054  0.00  0.00    -0.016 A 
ATOM      8  C8  IND d   1      -0.183   1.429  -0.376  0.00  0.00    -0.047 A 
ATOM      9  C9  IND d   1       0.072   0.260   0.352  0.00  0.00    -0.096 A 
ATOM     10  HN1 IND d   1       0.857   2.159  -1.927  0.00  0.00     0.298 HD
ENDROOT
TORSDOF 0
ENDMDL
