MODEL 1
REMARK minimizedAffinity -4.80612278
REMARK minimizedRMSD -1
REMARK  0 active torsions:
REMARK  status: ('A' for Active; 'I' for Inactive)
ROOT
ATOM      1  N1  IND d   1       1.068  -0.751   0.014  0.00  0.00    -0.196 N 
ATOM      2  C2  IND d   1       1.585  -0.200  -1.125  0.00  0.00     0.054 A 
ATOM      3  C3  IND d   1       0.870   0.888  -1.489  0.00  0.00    -0.031 A 
ATOM      4  C4  IND d   1      -1.125   2.004  -0.305  0.00  0.00     0.051 A 
ATOM      5  C5  IND d   1      -1.979   1.843   0.750  0.00  0.00    -0.031 A 
ATOM      6  C6  IND d   1      -1.857   0.790   1.633  0.00  0.00     0.015 A 
ATOM      7  C7  IND d   1      -0.864  -0.140   1.500  0.00  0.00    -0.016 A 
ATOM      8  C8  IND d   1      -0.000   0.016   0.426  0.00  0.00    -0.047 A 
ATOM      9  C9  IND d   1      -0.145   1.059  -0.498  0.00  0.00    -0.096 A 
ATOM     10  HN1 IND d   1       1.360  -1.457   0.407  0.00  0.00     0.298 HD
ENDROOT
TORSDOF 0
ENDMDL
