MODEL 1
REMARK minimizedAffinity -3.21073627
REMARK minimizedRMSD -1
REMARK  0 active torsions:
REMARK  status: ('A' for Active; 'I' for Inactive)
ROOT
ATOM      1  N1  IND d   1      -1.617   0.768   1.991  0.00  0.00    -0.196 N 
ATOM      2  C2  IND d   1      -2.314   1.876   1.597  0.00  0.00     0.054 A 
ATOM      3  C3  IND d   1      -1.867   2.310   0.397  0.00  0.00    -0.031 A 
ATOM      4  C4  IND d   1      -0.072   1.296  -1.145  0.00  0.00     0.051 A 
ATOM      5  C5  IND d   1       0.866   0.303  -1.198  0.00  0.00    -0.031 A 
ATOM      6  C6  IND d   1       1.026  -0.605  -0.172  0.00  0.00     0.015 A 
ATOM      7  C7  IND d   1       0.242  -0.562   0.946  0.00  0.00    -0.016 A 
ATOM      8  C8  IND d   1      -0.706   0.449   1.007  0.00  0.00    -0.047 A 
ATOM      9  C9  IND d   1      -0.844   1.400  -0.012  0.00  0.00    -0.096 A 
ATOM     10  HN1 IND d   1      -1.728   0.342   2.730  0.00  0.00     0.298 HD
ENDROOT
TORSDOF 0
ENDMDL
