MODEL 1
REMARK minimizedAffinity -3.63270879
REMARK minimizedRMSD -1
REMARK  0 active torsions:
REMARK  status: ('A' for Active; 'I' for Inactive)
ROOT
ATOM      1  N1  IND d   1       0.432  -1.083   0.189  0.00  0.00    -0.196 N 
ATOM      2  C2  IND d   1       0.844  -0.760  -1.073  0.00  0.00     0.054 A 
ATOM      3  C3  IND d   1       0.283   0.406  -1.467  0.00  0.00    -0.031 A 
ATOM      4  C4  IND d   1      -1.260   2.001  -0.162  0.00  0.00     0.051 A 
ATOM      5  C5  IND d   1      -1.942   2.116   1.016  0.00  0.00    -0.031 A 
ATOM      6  C6  IND d   1      -1.864   1.152   2.001  0.00  0.00     0.015 A 
ATOM      7  C7  IND d   1      -1.089   0.038   1.847  0.00  0.00    -0.016 A 
ATOM      8  C8  IND d   1      -0.400  -0.085   0.648  0.00  0.00    -0.047 A 
ATOM      9  C9  IND d   1      -0.509   0.869  -0.372  0.00  0.00    -0.096 A 
ATOM     10  HN1 IND d   1       0.655  -1.790   0.624  0.00  0.00     0.298 HD
ENDROOT
TORSDOF 0
ENDMDL
