MODEL 1
REMARK minimizedAffinity -5.52825451
REMARK minimizedRMSD -1
REMARK  0 active torsions:
REMARK  status: ('A' for Active; 'I' for Inactive)
ROOT
ATOM      1  N1  IND d   1      -1.582   2.456   0.501  0.00  0.00    -0.196 N 
ATOM      2  C2  IND d   1      -2.058   2.321   1.775  0.00  0.00     0.054 A 
ATOM      3  C3  IND d   1      -1.635   1.156   2.315  0.00  0.00    -0.031 A 
ATOM      4  C4  IND d   1      -0.071  -0.632   1.324  0.00  0.00     0.051 A 
ATOM      5  C5  IND d   1       0.590  -0.969   0.176  0.00  0.00    -0.031 A 
ATOM      6  C6  IND d   1       0.562  -0.164  -0.944  0.00  0.00     0.015 A 
ATOM      7  C7  IND d   1      -0.121   1.019  -0.954  0.00  0.00    -0.016 A 
ATOM      8  C8  IND d   1      -0.799   1.361   0.208  0.00  0.00    -0.047 A 
ATOM      9  C9  IND d   1      -0.809   0.527   1.333  0.00  0.00    -0.096 A 
ATOM     10  HN1 IND d   1      -1.744   3.114  -0.028  0.00  0.00     0.298 HD
ENDROOT
TORSDOF 0
ENDMDL
