MODEL 1
REMARK minimizedAffinity -3.70468068
REMARK minimizedRMSD -1
REMARK  0 active torsions:
REMARK  status: ('A' for Active; 'I' for Inactive)
ROOT
ATOM      1  N1  IND d   1      -0.628  -3.000  -2.419  0.00  0.00    -0.196 N 
ATOM      2  C2  IND d   1       0.219  -3.596  -3.311  0.00  0.00     0.054 A 
ATOM      3  C3  IND d   1       1.398  -2.935  -3.354  0.00  0.00    -0.031 A 
ATOM      4  C4  IND d   1       2.190  -0.913  -1.971  0.00  0.00     0.051 A 
ATOM      5  C5  IND d   1       1.755   0.001  -1.054  0.00  0.00    -0.031 A 
ATOM      6  C6  IND d   1       0.479  -0.040  -0.531  0.00  0.00     0.015 A 
ATOM      7  C7  IND d   1      -0.411  -1.010  -0.901  0.00  0.00    -0.016 A 
ATOM      8  C8  IND d   1       0.025  -1.935  -1.838  0.00  0.00    -0.047 A 
ATOM      9  C9  IND d   1       1.305  -1.873  -2.403  0.00  0.00    -0.096 A 
ATOM     10  HN1 IND d   1      -1.433  -3.249  -2.249  0.00  0.00     0.298 HD
ENDROOT
TORSDOF 0
ENDMDL
