MODEL 1
REMARK minimizedAffinity -2.52082396
REMARK minimizedRMSD -1
REMARK  0 active torsions:
REMARK  status: ('A' for Active; 'I' for Inactive)
ROOT
ATOM      1  N1  IND d   1      -1.042   1.648   2.532  0.00  0.00    -0.196 N 
ATOM      2  C2  IND d   1      -1.609   2.654   1.801  0.00  0.00     0.054 A 
ATOM      3  C3  IND d   1      -1.422   2.439   0.480  0.00  0.00    -0.031 A 
ATOM      4  C4  IND d   1      -0.301   0.450  -0.710  0.00  0.00     0.051 A 
ATOM      5  C5  IND d   1       0.398  -0.698  -0.464  0.00  0.00    -0.031 A 
ATOM      6  C6  IND d   1       0.657  -1.133   0.820  0.00  0.00     0.015 A 
ATOM      7  C7  IND d   1       0.213  -0.438   1.910  0.00  0.00    -0.016 A 
ATOM      8  C8  IND d   1      -0.492   0.731   1.663  0.00  0.00    -0.047 A 
ATOM      9  C9  IND d   1      -0.720   1.200   0.363  0.00  0.00    -0.096 A 
ATOM     10  HN1 IND d   1      -1.030   1.597   3.390  0.00  0.00     0.298 HD
ENDROOT
TORSDOF 0
ENDMDL
