MODEL 1
REMARK minimizedAffinity -3.51897383
REMARK minimizedRMSD -1
REMARK  0 active torsions:
REMARK  status: ('A' for Active; 'I' for Inactive)
ROOT
ATOM      1  N1  IND d   1       0.166  -0.129  -1.309  0.00  0.00    -0.196 N 
ATOM      2  C2  IND d   1       1.050  -1.096  -0.921  0.00  0.00     0.054 A 
ATOM      3  C3  IND d   1       1.065  -1.207   0.427  0.00  0.00    -0.031 A 
ATOM      4  C4  IND d   1      -0.354   0.026   2.185  0.00  0.00     0.051 A 
ATOM      5  C5  IND d   1      -1.275   1.028   2.316  0.00  0.00    -0.031 A 
ATOM      6  C6  IND d   1      -1.775   1.706   1.224  0.00  0.00     0.015 A 
ATOM      7  C7  IND d   1      -1.379   1.400  -0.047  0.00  0.00    -0.016 A 
ATOM      8  C8  IND d   1      -0.439   0.389  -0.184  0.00  0.00    -0.047 A 
ATOM      9  C9  IND d   1       0.104  -0.275   0.924  0.00  0.00    -0.096 A 
ATOM     10  HN1 IND d   1       0.012   0.115  -2.119  0.00  0.00     0.298 HD
ENDROOT
TORSDOF 0
ENDMDL
