MODEL 1
REMARK minimizedAffinity -6.05870056
REMARK minimizedRMSD -1
REMARK  0 active torsions:
REMARK  status: ('A' for Active; 'I' for Inactive)
ROOT
ATOM      1  N1  IND d   1       0.545   0.304  -0.993  0.00  0.00    -0.196 N 
ATOM      2  C2  IND d   1       0.223  -0.765  -0.204  0.00  0.00     0.054 A 
ATOM      3  C3  IND d   1      -0.628  -0.387   0.776  0.00  0.00    -0.031 A 
ATOM      4  C4  IND d   1      -1.701   1.911   1.213  0.00  0.00     0.051 A 
ATOM      5  C5  IND d   1      -1.684   3.208   0.781  0.00  0.00    -0.031 A 
ATOM      6  C6  IND d   1      -0.909   3.610  -0.287  0.00  0.00     0.015 A 
ATOM      7  C7  IND d   1      -0.128   2.725  -0.974  0.00  0.00    -0.016 A 
ATOM      8  C8  IND d   1      -0.138   1.409  -0.534  0.00  0.00    -0.047 A 
ATOM      9  C9  IND d   1      -0.889   1.003   0.576  0.00  0.00    -0.096 A 
ATOM     10  HN1 IND d   1       1.084   0.288  -1.663  0.00  0.00     0.298 HD
ENDROOT
TORSDOF 0
ENDMDL
