MODEL 1
REMARK minimizedAffinity -2.43050599
REMARK minimizedRMSD -1
REMARK  0 active torsions:
REMARK  status: ('A' for Active; 'I' for Inactive)
ROOT
ATOM      1  N1  IND d   1       1.379  -5.986  -1.123  0.00  0.00    -0.196 N 
ATOM      2  C2  IND d   1       2.472  -5.919  -0.304  0.00  0.00     0.054 A 
ATOM      3  C3  IND d   1       2.974  -4.664  -0.292  0.00  0.00    -0.031 A 
ATOM      4  C4  IND d   1       2.101  -2.542  -1.461  0.00  0.00     0.051 A 
ATOM      5  C5  IND d   1       1.152  -2.113  -2.346  0.00  0.00    -0.031 A 
ATOM      6  C6  IND d   1       0.209  -2.969  -2.876  0.00  0.00     0.015 A 
ATOM      7  C7  IND d   1       0.173  -4.291  -2.532  0.00  0.00    -0.016 A 
ATOM      8  C8  IND d   1       1.140  -4.732  -1.639  0.00  0.00    -0.047 A 
ATOM      9  C9  IND d   1       2.125  -3.877  -1.130  0.00  0.00    -0.096 A 
ATOM     10  HN1 IND d   1       0.918  -6.694  -1.287  0.00  0.00     0.298 HD
ENDROOT
TORSDOF 0
ENDMDL
