MODEL 1
REMARK minimizedAffinity -5.96926451
REMARK minimizedRMSD -1
REMARK  0 active torsions:
REMARK  status: ('A' for Active; 'I' for Inactive)
ROOT
ATOM      1  N1  IND d   1       1.043   0.618  -0.774  0.00  0.00    -0.196 N 
ATOM      2  C2  IND d   1       0.987  -0.503   0.008  0.00  0.00     0.054 A 
ATOM      3  C3  IND d   1       0.170  -0.298   1.066  0.00  0.00    -0.031 A 
ATOM      4  C4  IND d   1      -1.255   1.762   1.657  0.00  0.00     0.051 A 
ATOM      5  C5  IND d   1      -1.508   3.047   1.263  0.00  0.00    -0.031 A 
ATOM      6  C6  IND d   1      -0.913   3.597   0.146  0.00  0.00     0.015 A 
ATOM      7  C7  IND d   1      -0.049   2.877  -0.629  0.00  0.00    -0.016 A 
ATOM      8  C8  IND d   1       0.216   1.575  -0.228  0.00  0.00    -0.047 A 
ATOM      9  C9  IND d   1      -0.352   1.025   0.929  0.00  0.00    -0.096 A 
ATOM     10  HN1 IND d   1       1.515   0.709  -1.486  0.00  0.00     0.298 HD
ENDROOT
TORSDOF 0
ENDMDL
