MODEL 1
REMARK minimizedAffinity -3.47294259
REMARK minimizedRMSD -1
REMARK  0 active torsions:
REMARK  status: ('A' for Active; 'I' for Inactive)
ROOT
ATOM      1  N1  IND d   1       0.824  -5.999  -0.740  0.00  0.00    -0.196 N 
ATOM      2  C2  IND d   1       1.991  -5.997  -0.029  0.00  0.00     0.054 A 
ATOM      3  C3  IND d   1       2.655  -4.835  -0.218  0.00  0.00    -0.031 A 
ATOM      4  C4  IND d   1       1.964  -2.758  -1.573  0.00  0.00     0.051 A 
ATOM      5  C5  IND d   1       0.999  -2.300  -2.425  0.00  0.00    -0.031 A 
ATOM      6  C6  IND d   1      -0.098  -3.066  -2.764  0.00  0.00     0.015 A 
ATOM      7  C7  IND d   1      -0.276  -4.320  -2.252  0.00  0.00    -0.016 A 
ATOM      8  C8  IND d   1       0.705  -4.791  -1.392  0.00  0.00    -0.047 A 
ATOM      9  C9  IND d   1       1.842  -4.035  -1.078  0.00  0.00    -0.096 A 
ATOM     10  HN1 IND d   1       0.258  -6.646  -0.775  0.00  0.00     0.298 HD
ENDROOT
TORSDOF 0
ENDMDL
