MODEL 1
REMARK minimizedAffinity -1.71097064
REMARK minimizedRMSD -1
REMARK  0 active torsions:
REMARK  status: ('A' for Active; 'I' for Inactive)
ROOT
ATOM      1  C   UNL d   1      -3.170  -0.110   0.356  0.00  0.00     0.077 C 
ATOM      2  C1  UNL d   1      -1.717  -0.339   0.651  0.00  0.00    -0.074 A 
ATOM      3  C2  UNL d   1      -1.319  -1.117   1.742  0.00  0.00    -0.005 A 
ATOM      4  C3  UNL d   1       0.035  -1.329   1.999  0.00  0.00     0.006 A 
ATOM      5  C4  UNL d   1       1.004  -0.765   1.168  0.00  0.00    -0.005 A 
ATOM      6  C5  UNL d   1       0.625   0.016   0.071  0.00  0.00    -0.074 A 
ATOM      7  C6  UNL d   1       1.653   0.621  -0.838  0.00  0.00     0.077 C 
ATOM      8  C7  UNL d   1      -0.738   0.218  -0.184  0.00  0.00    -0.001 A 
ENDROOT
TORSDOF 0
ENDMDL
