MODEL 1
REMARK minimizedAffinity -2.83726668
REMARK minimizedRMSD -1
REMARK  0 active torsions:
REMARK  status: ('A' for Active; 'I' for Inactive)
ROOT
ATOM      1  C   UNL d   1       2.265   1.123  -0.674  0.00  0.00     0.077 C 
ATOM      2  C1  UNL d   1       0.949   0.448  -0.422  0.00  0.00    -0.074 A 
ATOM      3  C2  UNL d   1      -0.121   0.606  -1.308  0.00  0.00    -0.005 A 
ATOM      4  C3  UNL d   1      -1.336  -0.036  -1.065  0.00  0.00     0.006 A 
ATOM      5  C4  UNL d   1      -1.492  -0.840   0.064  0.00  0.00    -0.005 A 
ATOM      6  C5  UNL d   1      -0.432  -1.010   0.961  0.00  0.00    -0.074 A 
ATOM      7  C6  UNL d   1      -0.580  -1.879   2.175  0.00  0.00     0.077 C 
ATOM      8  C7  UNL d   1       0.787  -0.368   0.707  0.00  0.00    -0.001 A 
ENDROOT
TORSDOF 0
ENDMDL
