MODEL 1
REMARK minimizedAffinity -3.42041707
REMARK minimizedRMSD -1
REMARK  0 active torsions:
REMARK  status: ('A' for Active; 'I' for Inactive)
ROOT
ATOM      1  C   UNL d   1       4.126   3.116  -1.421  0.00  0.00     0.077 C 
ATOM      2  C1  UNL d   1       3.347   2.464  -0.318  0.00  0.00    -0.074 A 
ATOM      3  C2  UNL d   1       3.524   2.852   1.014  0.00  0.00    -0.005 A 
ATOM      4  C3  UNL d   1       2.786   2.243   2.029  0.00  0.00     0.006 A 
ATOM      5  C4  UNL d   1       1.864   1.241   1.722  0.00  0.00    -0.005 A 
ATOM      6  C5  UNL d   1       1.672   0.841   0.396  0.00  0.00    -0.074 A 
ATOM      7  C6  UNL d   1       0.678  -0.227   0.049  0.00  0.00     0.077 C 
ATOM      8  C7  UNL d   1       2.413   1.462  -0.618  0.00  0.00    -0.001 A 
ENDROOT
TORSDOF 0
ENDMDL
