MODEL 1
REMARK minimizedAffinity -4.15866566
REMARK minimizedRMSD -1
REMARK  0 active torsions:
REMARK  status: ('A' for Active; 'I' for Inactive)
ROOT
ATOM      1  C   UNL d   1      -3.238  -0.724   0.548  0.00  0.00     0.077 C 
ATOM      2  C1  UNL d   1      -1.798  -0.475   0.212  0.00  0.00    -0.074 A 
ATOM      3  C2  UNL d   1      -1.432   0.075  -1.021  0.00  0.00    -0.005 A 
ATOM      4  C3  UNL d   1      -0.089   0.310  -1.315  0.00  0.00     0.006 A 
ATOM      5  C4  UNL d   1       0.900  -0.002  -0.382  0.00  0.00    -0.005 A 
ATOM      6  C5  UNL d   1       0.553  -0.552   0.857  0.00  0.00    -0.074 A 
ATOM      7  C6  UNL d   1       1.603  -0.883   1.875  0.00  0.00     0.077 C 
ATOM      8  C7  UNL d   1      -0.799  -0.778   1.148  0.00  0.00    -0.001 A 
ENDROOT
TORSDOF 0
ENDMDL
