MODEL 1
REMARK minimizedAffinity -3.45142889
REMARK minimizedRMSD -1
REMARK  0 active torsions:
REMARK  status: ('A' for Active; 'I' for Inactive)
ROOT
ATOM      1  C   UNL d   1      -1.082   0.220  -0.248  0.00  0.00     0.077 C 
ATOM      2  C1  UNL d   1       0.357   0.480   0.085  0.00  0.00    -0.074 A 
ATOM      3  C2  UNL d   1       1.324  -0.518  -0.076  0.00  0.00    -0.005 A 
ATOM      4  C3  UNL d   1       2.660  -0.259   0.228  0.00  0.00     0.006 A 
ATOM      5  C4  UNL d   1       3.043   0.999   0.696  0.00  0.00    -0.005 A 
ATOM      6  C5  UNL d   1       2.090   2.009   0.863  0.00  0.00    -0.074 A 
ATOM      7  C6  UNL d   1       2.486   3.370   1.356  0.00  0.00     0.077 C 
ATOM      8  C7  UNL d   1       0.751   1.743   0.548  0.00  0.00    -0.001 A 
ENDROOT
TORSDOF 0
ENDMDL
