MODEL 1
REMARK minimizedAffinity -2.07398009
REMARK minimizedRMSD -1
REMARK  0 active torsions:
REMARK  status: ('A' for Active; 'I' for Inactive)
ROOT
ATOM      1  C   UNL d   1       1.597   0.904  -0.345  0.00  0.00     0.077 C 
ATOM      2  C1  UNL d   1       0.573  -0.037   0.217  0.00  0.00    -0.074 A 
ATOM      3  C2  UNL d   1       0.926  -1.002   1.166  0.00  0.00    -0.005 A 
ATOM      4  C3  UNL d   1      -0.039  -1.864   1.686  0.00  0.00     0.006 A 
ATOM      5  C4  UNL d   1      -1.366  -1.770   1.263  0.00  0.00    -0.005 A 
ATOM      6  C5  UNL d   1      -1.738  -0.812   0.315  0.00  0.00    -0.074 A 
ATOM      7  C6  UNL d   1      -3.161  -0.691  -0.143  0.00  0.00     0.077 C 
ATOM      8  C7  UNL d   1      -0.764   0.056  -0.197  0.00  0.00    -0.001 A 
ENDROOT
TORSDOF 0
ENDMDL
