MODEL 1
REMARK minimizedAffinity -3.29647279
REMARK minimizedRMSD -1
REMARK  0 active torsions:
REMARK  status: ('A' for Active; 'I' for Inactive)
ROOT
ATOM      1  C   UNL d   1      -3.549  -1.198   0.138  0.00  0.00     0.077 C 
ATOM      2  C1  UNL d   1      -2.113  -0.809  -0.058  0.00  0.00    -0.074 A 
ATOM      3  C2  UNL d   1      -1.174  -0.990   0.963  0.00  0.00    -0.005 A 
ATOM      4  C3  UNL d   1       0.159  -0.632   0.763  0.00  0.00     0.006 A 
ATOM      5  C4  UNL d   1       0.566  -0.091  -0.457  0.00  0.00    -0.005 A 
ATOM      6  C5  UNL d   1      -0.359   0.096  -1.489  0.00  0.00    -0.074 A 
ATOM      7  C6  UNL d   1       0.064   0.668  -2.810  0.00  0.00     0.077 C 
ATOM      8  C7  UNL d   1      -1.695  -0.272  -1.283  0.00  0.00    -0.001 A 
ENDROOT
TORSDOF 0
ENDMDL
