MODEL 1
REMARK minimizedAffinity -2.28401089
REMARK minimizedRMSD -1
REMARK  0 active torsions:
REMARK  status: ('A' for Active; 'I' for Inactive)
ROOT
ATOM      1  C   UNL d   1       2.724   1.199  -0.432  0.00  0.00     0.077 C 
ATOM      2  C1  UNL d   1       1.435   0.527  -0.065  0.00  0.00    -0.074 A 
ATOM      3  C2  UNL d   1       1.332  -0.246   1.096  0.00  0.00    -0.005 A 
ATOM      4  C3  UNL d   1       0.124  -0.857   1.430  0.00  0.00     0.006 A 
ATOM      5  C4  UNL d   1      -0.993  -0.702   0.608  0.00  0.00    -0.005 A 
ATOM      6  C5  UNL d   1      -0.910   0.068  -0.557  0.00  0.00    -0.074 A 
ATOM      7  C6  UNL d   1      -2.103   0.253  -1.447  0.00  0.00     0.077 C 
ATOM      8  C7  UNL d   1       0.306   0.685  -0.882  0.00  0.00    -0.001 A 
ENDROOT
TORSDOF 0
ENDMDL
