MODEL 1
REMARK minimizedAffinity -3.69767284
REMARK minimizedRMSD -1
REMARK  0 active torsions:
REMARK  status: ('A' for Active; 'I' for Inactive)
ROOT
ATOM      1  C   UNL d   1      -3.298  -0.593   0.361  0.00  0.00     0.077 C 
ATOM      2  C1  UNL d   1      -1.982  -0.395  -0.331  0.00  0.00    -0.074 A 
ATOM      3  C2  UNL d   1      -1.899  -0.383  -1.727  0.00  0.00    -0.005 A 
ATOM      4  C3  UNL d   1      -0.670  -0.189  -2.357  0.00  0.00     0.006 A 
ATOM      5  C4  UNL d   1       0.487  -0.004  -1.599  0.00  0.00    -0.005 A 
ATOM      6  C5  UNL d   1       0.423  -0.011  -0.202  0.00  0.00    -0.074 A 
ATOM      7  C6  UNL d   1       1.655   0.196   0.628  0.00  0.00     0.077 C 
ATOM      8  C7  UNL d   1      -0.817  -0.201   0.424  0.00  0.00    -0.001 A 
ENDROOT
TORSDOF 0
ENDMDL
