MODEL 1
REMARK minimizedAffinity 1.5450331
REMARK minimizedRMSD -1
REMARK  0 active torsions:
REMARK  status: ('A' for Active; 'I' for Inactive)
ROOT
ATOM      1  C   UNL d   1      -4.664   5.752   0.752  0.00  0.00     0.077 C 
ATOM      2  C1  UNL d   1      -4.736   5.763   2.250  0.00  0.00    -0.074 A 
ATOM      3  C2  UNL d   1      -5.946   6.000   2.910  0.00  0.00    -0.005 A 
ATOM      4  C3  UNL d   1      -5.999   5.998   4.304  0.00  0.00     0.006 A 
ATOM      5  C4  UNL d   1      -4.845   5.759   5.050  0.00  0.00    -0.005 A 
ATOM      6  C5  UNL d   1      -3.626   5.520   4.408  0.00  0.00    -0.074 A 
ATOM      7  C6  UNL d   1      -2.378   5.252   5.196  0.00  0.00     0.077 C 
ATOM      8  C7  UNL d   1      -3.582   5.517   3.007  0.00  0.00    -0.001 A 
ENDROOT
TORSDOF 0
ENDMDL
