MODEL 1
REMARK minimizedAffinity -2.9890871
REMARK minimizedRMSD -1
REMARK  0 active torsions:
REMARK  status: ('A' for Active; 'I' for Inactive)
ROOT
ATOM      1  C   UNL d   1       1.626  -1.081   1.515  0.00  0.00     0.077 C 
ATOM      2  C1  UNL d   1       0.658  -0.568   0.491  0.00  0.00    -0.074 A 
ATOM      3  C2  UNL d   1       1.111   0.003  -0.703  0.00  0.00    -0.005 A 
ATOM      4  C3  UNL d   1       0.199   0.467  -1.651  0.00  0.00     0.006 A 
ATOM      5  C4  UNL d   1      -1.173   0.365  -1.415  0.00  0.00    -0.005 A 
ATOM      6  C5  UNL d   1      -1.644  -0.204  -0.228  0.00  0.00    -0.074 A 
ATOM      7  C6  UNL d   1      -3.115  -0.331   0.037  0.00  0.00     0.077 C 
ATOM      8  C7  UNL d   1      -0.721  -0.674   0.717  0.00  0.00    -0.001 A 
ENDROOT
TORSDOF 0
ENDMDL
