MODEL 1
REMARK minimizedAffinity -2.19206929
REMARK minimizedRMSD -1
REMARK  0 active torsions:
REMARK  status: ('A' for Active; 'I' for Inactive)
ROOT
ATOM      1  C   UNL d   1       0.337   1.113  -2.862  0.00  0.00     0.077 C 
ATOM      2  C1  UNL d   1      -0.172   0.492  -1.595  0.00  0.00    -0.074 A 
ATOM      3  C2  UNL d   1       0.670   0.312  -0.493  0.00  0.00    -0.005 A 
ATOM      4  C3  UNL d   1       0.179  -0.258   0.681  0.00  0.00     0.006 A 
ATOM      5  C4  UNL d   1      -1.156  -0.655   0.765  0.00  0.00    -0.005 A 
ATOM      6  C5  UNL d   1      -2.013  -0.482  -0.326  0.00  0.00    -0.074 A 
ATOM      7  C6  UNL d   1      -3.453  -0.894  -0.249  0.00  0.00     0.077 C 
ATOM      8  C7  UNL d   1      -1.514   0.098  -1.500  0.00  0.00    -0.001 A 
ENDROOT
TORSDOF 0
ENDMDL
