MODEL 1
REMARK minimizedAffinity -4.30307579
REMARK minimizedRMSD -1
REMARK  0 active torsions:
REMARK  status: ('A' for Active; 'I' for Inactive)
ROOT
ATOM      1  C   UNL d   1       0.405   0.358  -0.074  0.00  0.00     0.077 C 
ATOM      2  C1  UNL d   1      -0.833  -0.488  -0.084  0.00  0.00    -0.074 A 
ATOM      3  C2  UNL d   1      -1.773  -0.374  -1.114  0.00  0.00    -0.005 A 
ATOM      4  C3  UNL d   1      -2.916  -1.174  -1.115  0.00  0.00     0.006 A 
ATOM      5  C4  UNL d   1      -3.130  -2.094  -0.088  0.00  0.00    -0.005 A 
ATOM      6  C5  UNL d   1      -2.201  -2.223   0.949  0.00  0.00    -0.074 A 
ATOM      7  C6  UNL d   1      -2.411  -3.214   2.055  0.00  0.00     0.077 C 
ATOM      8  C7  UNL d   1      -1.052  -1.420   0.940  0.00  0.00    -0.001 A 
ENDROOT
TORSDOF 0
ENDMDL
