MODEL 1
REMARK minimizedAffinity -5.59045839
REMARK minimizedRMSD -1
REMARK  0 active torsions:
REMARK  status: ('A' for Active; 'I' for Inactive)
ROOT
ATOM      1  C   UNL d   1       1.333   0.881   0.774  0.00  0.00     0.077 C 
ATOM      2  C1  UNL d   1       0.114   0.496  -0.011  0.00  0.00    -0.074 A 
ATOM      3  C2  UNL d   1      -0.073   0.954  -1.319  0.00  0.00    -0.005 A 
ATOM      4  C3  UNL d   1      -1.207   0.579  -2.039  0.00  0.00     0.006 A 
ATOM      5  C4  UNL d   1      -2.164  -0.255  -1.460  0.00  0.00    -0.005 A 
ATOM      6  C5  UNL d   1      -1.993  -0.723  -0.153  0.00  0.00    -0.074 A 
ATOM      7  C6  UNL d   1      -3.007  -1.628   0.481  0.00  0.00     0.077 C 
ATOM      8  C7  UNL d   1      -0.848  -0.348   0.562  0.00  0.00    -0.001 A 
ENDROOT
TORSDOF 0
ENDMDL
