MODEL 1
REMARK minimizedAffinity -1.89366639
REMARK minimizedRMSD -1
REMARK  0 active torsions:
REMARK  status: ('A' for Active; 'I' for Inactive)
ROOT
ATOM      1  C   UNL d   1       1.515  -1.799   1.754  0.00  0.00     0.077 C 
ATOM      2  C1  UNL d   1       0.656  -1.052   0.777  0.00  0.00    -0.074 A 
ATOM      3  C2  UNL d   1       1.193  -0.042  -0.027  0.00  0.00    -0.005 A 
ATOM      4  C3  UNL d   1       0.384   0.637  -0.938  0.00  0.00     0.006 A 
ATOM      5  C4  UNL d   1      -0.969   0.314  -1.054  0.00  0.00    -0.005 A 
ATOM      6  C5  UNL d   1      -1.524  -0.694  -0.259  0.00  0.00    -0.074 A 
ATOM      7  C6  UNL d   1      -2.973  -1.061  -0.377  0.00  0.00     0.077 C 
ATOM      8  C7  UNL d   1      -0.702  -1.377   0.649  0.00  0.00    -0.001 A 
ENDROOT
TORSDOF 0
ENDMDL
