MODEL 1
REMARK minimizedAffinity -6.38116455
REMARK minimizedRMSD -1
REMARK  3 active torsions:
REMARK  status: ('A' for Active; 'I' for Inactive)
REMARK    1  A    between atoms: C3'_2  and  C2'_3 
REMARK    2  A    between atoms: C2'_3  and  C1'_4 
REMARK    3  A    between atoms: C1'_4  and  C1_5 
ROOT
ATOM      1  C1  N4B d   1       0.037   0.099   0.206  0.00  0.00    -0.075 A 
ATOM      2  C2  N4B d   1      -0.086   0.356   1.589  0.00  0.00     0.002 A 
ATOM      3  C3  N4B d   1      -1.016   1.260   2.039  0.00  0.00     0.002 A 
ATOM      4  C4  N4B d   1      -1.818   1.931   1.128  0.00  0.00    -0.004 A 
ATOM      5  C5  N4B d   1      -1.710   1.658  -0.205  0.00  0.00     0.002 A 
ATOM      6  C6  N4B d   1      -0.782   0.749  -0.671  0.00  0.00     0.002 A 
ENDROOT
BRANCH   1   7
ATOM      7  C1' N4B d   1       1.098  -0.817  -0.340  0.00  0.00     0.057 C 
BRANCH   7   8
ATOM      8  C2' N4B d   1       0.480  -1.721  -1.402  0.00  0.00     0.009 C 
BRANCH   8   9
ATOM      9  C3' N4B d   1       1.043  -3.131  -1.346  0.00  0.00     0.004 C 
ATOM     10  C4' N4B d   1      -0.012  -4.169  -1.109  0.00  0.00     0.003 C 
ENDBRANCH   8   9
ENDBRANCH   7   8
ENDBRANCH   1   7
TORSDOF 3
ENDMDL
