MODEL 1
REMARK minimizedAffinity -4.56127596
REMARK minimizedRMSD -1
REMARK  3 active torsions:
REMARK  status: ('A' for Active; 'I' for Inactive)
REMARK    1  A    between atoms: C3'_2  and  C2'_3 
REMARK    2  A    between atoms: C2'_3  and  C1'_4 
REMARK    3  A    between atoms: C1'_4  and  C1_5 
ROOT
ATOM      1  C1  N4B d   1       0.836  -1.800  -1.214  0.00  0.00    -0.075 A 
ATOM      2  C2  N4B d   1       0.835  -3.085  -0.627  0.00  0.00     0.002 A 
ATOM      3  C3  N4B d   1       0.371  -4.164  -1.338  0.00  0.00     0.002 A 
ATOM      4  C4  N4B d   1      -0.111  -3.981  -2.626  0.00  0.00    -0.004 A 
ATOM      5  C5  N4B d   1      -0.083  -2.741  -3.195  0.00  0.00     0.002 A 
ATOM      6  C6  N4B d   1       0.384  -1.648  -2.493  0.00  0.00     0.002 A 
ENDROOT
BRANCH   1   7
ATOM      7  C1' N4B d   1       1.253  -0.576  -0.445  0.00  0.00     0.057 C 
BRANCH   7   8
ATOM      8  C2' N4B d   1       0.069   0.382  -0.348  0.00  0.00     0.009 C 
BRANCH   8   9
ATOM      9  C3' N4B d   1      -0.942  -0.068   0.692  0.00  0.00     0.004 C 
ATOM     10  C4' N4B d   1      -0.631   0.447   2.066  0.00  0.00     0.003 C 
ENDBRANCH   8   9
ENDBRANCH   7   8
ENDBRANCH   1   7
TORSDOF 3
ENDMDL
