MODEL 1
REMARK minimizedAffinity -4.54435492
REMARK minimizedRMSD -1
REMARK  3 active torsions:
REMARK  status: ('A' for Active; 'I' for Inactive)
REMARK    1  A    between atoms: C3'_2  and  C2'_3 
REMARK    2  A    between atoms: C2'_3  and  C1'_4 
REMARK    3  A    between atoms: C1'_4  and  C1_5 
ROOT
ATOM      1  C1  N4B d   1       0.979  -1.689  -1.196  0.00  0.00    -0.075 A 
ATOM      2  C2  N4B d   1       1.406  -2.830  -0.483  0.00  0.00     0.002 A 
ATOM      3  C3  N4B d   1       1.149  -4.085  -0.979  0.00  0.00     0.002 A 
ATOM      4  C4  N4B d   1       0.454  -4.223  -2.171  0.00  0.00    -0.004 A 
ATOM      5  C5  N4B d   1       0.067  -3.114  -2.866  0.00  0.00     0.002 A 
ATOM      6  C6  N4B d   1       0.322  -1.847  -2.381  0.00  0.00     0.002 A 
ENDROOT
BRANCH   1   7
ATOM      7  C1' N4B d   1       1.161  -0.298  -0.651  0.00  0.00     0.057 C 
BRANCH   7   8
ATOM      8  C2' N4B d   1      -0.208   0.305  -0.352  0.00  0.00     0.009 C 
BRANCH   8   9
ATOM      9  C3' N4B d   1      -0.631   0.069   1.088  0.00  0.00     0.004 C 
ATOM     10  C4' N4B d   1      -1.098   1.320   1.769  0.00  0.00     0.003 C 
ENDBRANCH   8   9
ENDBRANCH   7   8
ENDBRANCH   1   7
TORSDOF 3
ENDMDL
