MODEL 1
REMARK minimizedAffinity -4.92407513
REMARK minimizedRMSD -1
REMARK  3 active torsions:
REMARK  status: ('A' for Active; 'I' for Inactive)
REMARK    1  A    between atoms: C3'_2  and  C2'_3 
REMARK    2  A    between atoms: C2'_3  and  C1'_4 
REMARK    3  A    between atoms: C1'_4  and  C1_5 
ROOT
ATOM      1  C1  N4B d   1       0.171   0.022   0.232  0.00  0.00    -0.075 A 
ATOM      2  C2  N4B d   1       0.114   0.435   1.581  0.00  0.00     0.002 A 
ATOM      3  C3  N4B d   1      -0.932   1.209   2.018  0.00  0.00     0.002 A 
ATOM      4  C4  N4B d   1      -1.919   1.596   1.125  0.00  0.00    -0.004 A 
ATOM      5  C5  N4B d   1      -1.871   1.172  -0.171  0.00  0.00     0.002 A 
ATOM      6  C6  N4B d   1      -0.827   0.390  -0.624  0.00  0.00     0.002 A 
ENDROOT
BRANCH   1   7
ATOM      7  C1' N4B d   1       1.339  -0.753  -0.313  0.00  0.00     0.057 C 
BRANCH   7   8
ATOM      8  C2' N4B d   1       0.853  -1.674  -1.429  0.00  0.00     0.009 C 
BRANCH   8   9
ATOM      9  C3' N4B d   1       1.449  -3.067  -1.316  0.00  0.00     0.004 C 
ATOM     10  C4' N4B d   1       0.421  -4.151  -1.450  0.00  0.00     0.003 C 
ENDBRANCH   8   9
ENDBRANCH   7   8
ENDBRANCH   1   7
TORSDOF 3
ENDMDL
