MODEL 1
REMARK minimizedAffinity -0.919731021
REMARK minimizedRMSD -1
REMARK  3 active torsions:
REMARK  status: ('A' for Active; 'I' for Inactive)
REMARK    1  A    between atoms: C3'_2  and  C2'_3 
REMARK    2  A    between atoms: C2'_3  and  C1'_4 
REMARK    3  A    between atoms: C1'_4  and  C1_5 
ROOT
ATOM      1  C1  N4B d   1      -1.296   0.408   0.288  0.00  0.00    -0.075 A 
ATOM      2  C2  N4B d   1      -0.458   0.530   1.418  0.00  0.00     0.002 A 
ATOM      3  C3  N4B d   1      -0.788   1.402   2.426  0.00  0.00     0.002 A 
ATOM      4  C4  N4B d   1      -1.937   2.171   2.319  0.00  0.00    -0.004 A 
ATOM      5  C5  N4B d   1      -2.754   2.028   1.236  0.00  0.00     0.002 A 
ATOM      6  C6  N4B d   1      -2.436   1.153   0.217  0.00  0.00     0.002 A 
ENDROOT
BRANCH   1   7
ATOM      7  C1' N4B d   1      -0.931  -0.468  -0.879  0.00  0.00     0.057 C 
BRANCH   7   8
ATOM      8  C2' N4B d   1      -0.935  -1.927  -0.431  0.00  0.00     0.009 C 
BRANCH   8   9
ATOM      9  C3' N4B d   1      -0.489  -2.864  -1.541  0.00  0.00     0.004 C 
ATOM     10  C4' N4B d   1       0.460  -3.921  -1.062  0.00  0.00     0.003 C 
ENDBRANCH   8   9
ENDBRANCH   7   8
ENDBRANCH   1   7
TORSDOF 3
ENDMDL
