MODEL 1
REMARK minimizedAffinity 7.27105999
REMARK minimizedRMSD -1
REMARK  3 active torsions:
REMARK  status: ('A' for Active; 'I' for Inactive)
REMARK    1  A    between atoms: C3'_2  and  C2'_3 
REMARK    2  A    between atoms: C2'_3  and  C1'_4 
REMARK    3  A    between atoms: C1'_4  and  C1_5 
ROOT
ATOM      1  C1  N4B d   1       2.410  -5.892   1.682  0.00  0.00    -0.075 A 
ATOM      2  C2  N4B d   1       1.752  -5.946   2.931  0.00  0.00     0.002 A 
ATOM      3  C3  N4B d   1       2.484  -5.987   4.092  0.00  0.00     0.002 A 
ATOM      4  C4  N4B d   1       3.869  -5.994   4.029  0.00  0.00    -0.004 A 
ATOM      5  C5  N4B d   1       4.497  -5.916   2.820  0.00  0.00     0.002 A 
ATOM      6  C6  N4B d   1       3.774  -5.870   1.646  0.00  0.00     0.002 A 
ENDROOT
BRANCH   1   7
ATOM      7  C1' N4B d   1       1.653  -5.932   0.383  0.00  0.00     0.057 C 
BRANCH   7   8
ATOM      8  C2' N4B d   1       1.779  -4.580  -0.312  0.00  0.00     0.009 C 
BRANCH   8   9
ATOM      9  C3' N4B d   1       0.874  -4.479  -1.528  0.00  0.00     0.004 C 
ATOM     10  C4' N4B d   1      -0.253  -3.509  -1.335  0.00  0.00     0.003 C 
ENDBRANCH   8   9
ENDBRANCH   7   8
ENDBRANCH   1   7
TORSDOF 3
ENDMDL
