MODEL 1
REMARK minimizedAffinity 2.09521914
REMARK minimizedRMSD -1
REMARK  3 active torsions:
REMARK  status: ('A' for Active; 'I' for Inactive)
REMARK    1  A    between atoms: C3'_2  and  C2'_3 
REMARK    2  A    between atoms: C2'_3  and  C1'_4 
REMARK    3  A    between atoms: C1'_4  and  C1_5 
ROOT
ATOM      1  C1  N4B d   1      -0.514   1.007   1.418  0.00  0.00    -0.075 A 
ATOM      2  C2  N4B d   1       0.173   1.682   0.384  0.00  0.00     0.002 A 
ATOM      3  C3  N4B d   1       0.732   0.969  -0.648  0.00  0.00     0.002 A 
ATOM      4  C4  N4B d   1       0.633  -0.414  -0.658  0.00  0.00    -0.004 A 
ATOM      5  C5  N4B d   1      -0.054  -1.056   0.330  0.00  0.00     0.002 A 
ATOM      6  C6  N4B d   1      -0.624  -0.352   1.372  0.00  0.00     0.002 A 
ENDROOT
BRANCH   1   7
ATOM      7  C1' N4B d   1      -1.068   1.737   2.611  0.00  0.00     0.057 C 
BRANCH   7   8
ATOM      8  C2' N4B d   1      -0.608   3.191   2.567  0.00  0.00     0.009 C 
BRANCH   8   9
ATOM      9  C3' N4B d   1       0.435   3.490   3.630  0.00  0.00     0.004 C 
ATOM     10  C4' N4B d   1       1.159   4.780   3.387  0.00  0.00     0.003 C 
ENDBRANCH   8   9
ENDBRANCH   7   8
ENDBRANCH   1   7
TORSDOF 3
ENDMDL
