MODEL 1
REMARK minimizedAffinity -1.48204184
REMARK minimizedRMSD -1
REMARK  3 active torsions:
REMARK  status: ('A' for Active; 'I' for Inactive)
REMARK    1  A    between atoms: C3'_2  and  C2'_3 
REMARK    2  A    between atoms: C2'_3  and  C1'_4 
REMARK    3  A    between atoms: C1'_4  and  C1_5 
ROOT
ATOM      1  C1  N4B d   1       0.082   0.132   0.272  0.00  0.00    -0.075 A 
ATOM      2  C2  N4B d   1      -0.110   0.088   1.670  0.00  0.00     0.002 A 
ATOM      3  C3  N4B d   1      -1.004   0.942   2.267  0.00  0.00     0.002 A 
ATOM      4  C4  N4B d   1      -1.701   1.857   1.492  0.00  0.00    -0.004 A 
ATOM      5  C5  N4B d   1      -1.528   1.876   0.139  0.00  0.00     0.002 A 
ATOM      6  C6  N4B d   1      -0.635   1.020  -0.475  0.00  0.00     0.002 A 
ENDROOT
BRANCH   1   7
ATOM      7  C1' N4B d   1       1.112  -0.723  -0.416  0.00  0.00     0.057 C 
BRANCH   7   8
ATOM      8  C2' N4B d   1       0.409  -1.863  -1.147  0.00  0.00     0.009 C 
BRANCH   8   9
ATOM      9  C3' N4B d   1       1.044  -3.210  -0.844  0.00  0.00     0.004 C 
ATOM     10  C4' N4B d   1       0.138  -4.363  -1.157  0.00  0.00     0.003 C 
ENDBRANCH   8   9
ENDBRANCH   7   8
ENDBRANCH   1   7
TORSDOF 3
ENDMDL
