MODEL 1
REMARK minimizedAffinity 2.87411761
REMARK minimizedRMSD -1
REMARK  0 active torsions:
REMARK  status: ('A' for Active; 'I' for Inactive)
ROOT
ATOM      1  C   UNL d   1       0.974   1.461   2.159  0.00  0.00     0.172 C 
ATOM      2  N   UNL d   1       2.330   1.091   1.829  0.00  0.00    -0.070 N 
ATOM      3  C1  UNL d   1       3.063   0.113   2.447  0.00  0.00    -0.004 A 
ATOM      4  C2  UNL d   1       4.301   0.069   1.843  0.00  0.00    -0.047 A 
ATOM      5  C3  UNL d   1       4.312   1.054   0.827  0.00  0.00    -0.047 A 
ATOM      6  C4  UNL d   1       3.079   1.672   0.841  0.00  0.00    -0.004 A 
ENDROOT
TORSDOF 0
ENDMDL
