MODEL 1
REMARK minimizedAffinity -1.62271392
REMARK minimizedRMSD -1
REMARK  0 active torsions:
REMARK  status: ('A' for Active; 'I' for Inactive)
ROOT
ATOM      1  C   UNL d   1      -4.873   4.314   5.899  0.00  0.00     0.172 C 
ATOM      2  N   UNL d   1      -5.311   4.716   4.583  0.00  0.00    -0.070 N 
ATOM      3  C1  UNL d   1      -5.478   3.884   3.508  0.00  0.00    -0.004 A 
ATOM      4  C2  UNL d   1      -5.906   4.649   2.445  0.00  0.00    -0.047 A 
ATOM      5  C3  UNL d   1      -5.999   5.987   2.895  0.00  0.00    -0.047 A 
ATOM      6  C4  UNL d   1      -5.625   6.000   4.223  0.00  0.00    -0.004 A 
ENDROOT
TORSDOF 0
ENDMDL
