MODEL 1
REMARK minimizedAffinity 1.11399472
REMARK minimizedRMSD -1
REMARK  0 active torsions:
REMARK  status: ('A' for Active; 'I' for Inactive)
ROOT
ATOM      1  C   UNL d   1       3.347   4.253   1.370  0.00  0.00     0.172 C 
ATOM      2  N   UNL d   1       2.925   2.875   1.286  0.00  0.00    -0.070 N 
ATOM      3  C1  UNL d   1       1.636   2.426   1.398  0.00  0.00    -0.004 A 
ATOM      4  C2  UNL d   1       1.653   1.055   1.262  0.00  0.00    -0.047 A 
ATOM      5  C3  UNL d   1       2.999   0.666   1.062  0.00  0.00    -0.047 A 
ATOM      6  C4  UNL d   1       3.765   1.812   1.081  0.00  0.00    -0.004 A 
ENDROOT
TORSDOF 0
ENDMDL
