MODEL 1
REMARK minimizedAffinity 9.47792625
REMARK minimizedRMSD -1
REMARK  0 active torsions:
REMARK  status: ('A' for Active; 'I' for Inactive)
ROOT
ATOM      1  C   UNL d   1      -4.343  -2.924  -2.286  0.00  0.00     0.172 C 
ATOM      2  N   UNL d   1      -3.462  -4.015  -2.628  0.00  0.00    -0.070 N 
ATOM      3  C1  UNL d   1      -2.601  -4.042  -3.693  0.00  0.00    -0.004 A 
ATOM      4  C2  UNL d   1      -1.941  -5.252  -3.671  0.00  0.00    -0.047 A 
ATOM      5  C3  UNL d   1      -2.422  -5.977  -2.555  0.00  0.00    -0.047 A 
ATOM      6  C4  UNL d   1      -3.363  -5.188  -1.927  0.00  0.00    -0.004 A 
ENDROOT
TORSDOF 0
ENDMDL
