MODEL 1
REMARK minimizedAffinity 3.85642338
REMARK minimizedRMSD -1
REMARK  0 active torsions:
REMARK  status: ('A' for Active; 'I' for Inactive)
ROOT
ATOM      1  C   UNL d   1      -4.517   2.697   3.380  0.00  0.00     0.172 C 
ATOM      2  N   UNL d   1      -5.015   4.030   3.622  0.00  0.00    -0.070 N 
ATOM      3  C1  UNL d   1      -5.702   4.802   2.723  0.00  0.00    -0.004 A 
ATOM      4  C2  UNL d   1      -6.000   6.000   3.336  0.00  0.00    -0.047 A 
ATOM      5  C3  UNL d   1      -5.473   5.947   4.648  0.00  0.00    -0.047 A 
ATOM      6  C4  UNL d   1      -4.869   4.717   4.799  0.00  0.00    -0.004 A 
ENDROOT
TORSDOF 0
ENDMDL
