MODEL 1
REMARK minimizedAffinity 13.0070772
REMARK minimizedRMSD -1
REMARK  0 active torsions:
REMARK  status: ('A' for Active; 'I' for Inactive)
ROOT
ATOM      1  C   UNL d   1       5.960   6.000   5.866  0.00  0.00     0.172 C 
ATOM      2  N   UNL d   1       5.443   5.480   4.622  0.00  0.00    -0.070 N 
ATOM      3  C1  UNL d   1       5.968   4.431   3.916  0.00  0.00    -0.004 A 
ATOM      4  C2  UNL d   1       5.191   4.248   2.792  0.00  0.00    -0.047 A 
ATOM      5  C3  UNL d   1       4.165   5.221   2.823  0.00  0.00    -0.047 A 
ATOM      6  C4  UNL d   1       4.345   5.971   3.966  0.00  0.00    -0.004 A 
ENDROOT
TORSDOF 0
ENDMDL
