MODEL 1
REMARK minimizedAffinity 2.81133175
REMARK minimizedRMSD -1
REMARK  0 active torsions:
REMARK  status: ('A' for Active; 'I' for Inactive)
ROOT
ATOM      1  C   UNL d   1       5.935   5.962   5.185  0.00  0.00     0.172 C 
ATOM      2  N   UNL d   1       5.316   5.938   3.880  0.00  0.00    -0.070 N 
ATOM      3  C1  UNL d   1       5.977   5.855   2.684  0.00  0.00    -0.004 A 
ATOM      4  C2  UNL d   1       5.034   5.859   1.679  0.00  0.00    -0.047 A 
ATOM      5  C3  UNL d   1       3.762   5.948   2.293  0.00  0.00    -0.047 A 
ATOM      6  C4  UNL d   1       3.966   5.996   3.656  0.00  0.00    -0.004 A 
ENDROOT
TORSDOF 0
ENDMDL
