MODEL 1
REMARK minimizedAffinity 1.28745556
REMARK minimizedRMSD -1
REMARK  0 active torsions:
REMARK  status: ('A' for Active; 'I' for Inactive)
ROOT
ATOM      1  C   UNL d   1       3.774   3.973  -3.005  0.00  0.00     0.172 C 
ATOM      2  N   UNL d   1       4.175   4.797  -4.121  0.00  0.00    -0.070 N 
ATOM      3  C1  UNL d   1       3.351   5.248  -5.118  0.00  0.00    -0.004 A 
ATOM      4  C2  UNL d   1       4.111   5.999  -5.987  0.00  0.00    -0.047 A 
ATOM      5  C3  UNL d   1       5.439   5.999  -5.497  0.00  0.00    -0.047 A 
ATOM      6  C4  UNL d   1       5.450   5.248  -4.341  0.00  0.00    -0.004 A 
ENDROOT
TORSDOF 0
ENDMDL
