MODEL 1
REMARK minimizedAffinity 1.21971858
REMARK minimizedRMSD -1
REMARK  0 active torsions:
REMARK  status: ('A' for Active; 'I' for Inactive)
ROOT
ATOM      1  C   UNL d   1       5.907   5.629   4.773  0.00  0.00     0.172 C 
ATOM      2  N   UNL d   1       5.316   5.720   3.459  0.00  0.00    -0.070 N 
ATOM      3  C1  UNL d   1       3.997   5.975   3.192  0.00  0.00    -0.004 A 
ATOM      4  C2  UNL d   1       3.837   5.981   1.823  0.00  0.00    -0.047 A 
ATOM      5  C3  UNL d   1       5.102   5.719   1.247  0.00  0.00    -0.047 A 
ATOM      6  C4  UNL d   1       6.000   5.562   2.283  0.00  0.00    -0.004 A 
ENDROOT
TORSDOF 0
ENDMDL
