MODEL 1
REMARK minimizedAffinity 6.79761362
REMARK minimizedRMSD -1
REMARK  0 active torsions:
REMARK  status: ('A' for Active; 'I' for Inactive)
ROOT
ATOM      1  C   UNL d   1      -0.364   3.526  -1.615  0.00  0.00     0.172 C 
ATOM      2  N   UNL d   1      -1.577   4.300  -1.492  0.00  0.00    -0.070 N 
ATOM      3  C1  UNL d   1      -1.694   5.644  -1.727  0.00  0.00    -0.004 A 
ATOM      4  C2  UNL d   1      -3.006   6.000  -1.501  0.00  0.00    -0.047 A 
ATOM      5  C3  UNL d   1      -3.701   4.829  -1.115  0.00  0.00    -0.047 A 
ATOM      6  C4  UNL d   1      -2.793   3.792  -1.118  0.00  0.00    -0.004 A 
ENDROOT
TORSDOF 0
ENDMDL
