MODEL 1
REMARK minimizedAffinity 5.71253347
REMARK minimizedRMSD -1
REMARK  0 active torsions:
REMARK  status: ('A' for Active; 'I' for Inactive)
ROOT
ATOM      1  C   UNL d   1       4.262   0.267   2.107  0.00  0.00     0.172 C 
ATOM      2  N   UNL d   1       2.915   0.610   1.717  0.00  0.00    -0.070 N 
ATOM      3  C1  UNL d   1       2.417   0.563   0.442  0.00  0.00    -0.004 A 
ATOM      4  C2  UNL d   1       1.099   0.963   0.489  0.00  0.00    -0.047 A 
ATOM      5  C3  UNL d   1       0.795   1.262   1.838  0.00  0.00    -0.047 A 
ATOM      6  C4  UNL d   1       1.937   1.034   2.577  0.00  0.00    -0.004 A 
ENDROOT
TORSDOF 0
ENDMDL
