MODEL 1
REMARK minimizedAffinity 10.2059698
REMARK minimizedRMSD -1
REMARK  0 active torsions:
REMARK  status: ('A' for Active; 'I' for Inactive)
ROOT
ATOM      1  C   UNL d   1       3.545   4.776   1.500  0.00  0.00     0.172 C 
ATOM      2  N   UNL d   1       2.631   3.659   1.483  0.00  0.00    -0.070 N 
ATOM      3  C1  UNL d   1       2.983   2.341   1.359  0.00  0.00    -0.004 A 
ATOM      4  C2  UNL d   1       1.827   1.591   1.389  0.00  0.00    -0.047 A 
ATOM      5  C3  UNL d   1       0.743   2.488   1.535  0.00  0.00    -0.047 A 
ATOM      6  C4  UNL d   1       1.269   3.762   1.591  0.00  0.00    -0.004 A 
ENDROOT
TORSDOF 0
ENDMDL
