MODEL 1
REMARK minimizedAffinity 8.40193939
REMARK minimizedRMSD -1
REMARK  0 active torsions:
REMARK  status: ('A' for Active; 'I' for Inactive)
ROOT
ATOM      1  C   UNL d   1       4.830   2.602  -3.792  0.00  0.00     0.172 C 
ATOM      2  N   UNL d   1       4.835   1.344  -4.502  0.00  0.00    -0.070 N 
ATOM      3  C1  UNL d   1       4.110   1.061  -5.628  0.00  0.00    -0.004 A 
ATOM      4  C2  UNL d   1       4.390  -0.238  -5.995  0.00  0.00    -0.047 A 
ATOM      5  C3  UNL d   1       5.314  -0.753  -5.056  0.00  0.00    -0.047 A 
ATOM      6  C4  UNL d   1       5.573   0.247  -4.142  0.00  0.00    -0.004 A 
ENDROOT
TORSDOF 0
ENDMDL
