MODEL 1
REMARK minimizedAffinity 0.612838268
REMARK minimizedRMSD -1
REMARK  0 active torsions:
REMARK  status: ('A' for Active; 'I' for Inactive)
ROOT
ATOM      1  C   UNL d   1       0.160  -2.494  -0.294  0.00  0.00     0.172 C 
ATOM      2  N   UNL d   1      -0.799  -2.632  -1.365  0.00  0.00    -0.070 N 
ATOM      3  C1  UNL d   1      -1.914  -1.858  -1.544  0.00  0.00    -0.004 A 
ATOM      4  C2  UNL d   1      -2.563  -2.306  -2.674  0.00  0.00    -0.047 A 
ATOM      5  C3  UNL d   1      -1.812  -3.387  -3.193  0.00  0.00    -0.047 A 
ATOM      6  C4  UNL d   1      -0.725  -3.568  -2.363  0.00  0.00    -0.004 A 
ENDROOT
TORSDOF 0
ENDMDL
