MODEL 1
REMARK minimizedAffinity 6.58513927
REMARK minimizedRMSD -1
REMARK  0 active torsions:
REMARK  status: ('A' for Active; 'I' for Inactive)
ROOT
ATOM      1  C   UNL d   1       4.193   1.590  -1.625  0.00  0.00     0.172 C 
ATOM      2  N   UNL d   1       3.458   1.257  -0.427  0.00  0.00    -0.070 N 
ATOM      3  C1  UNL d   1       3.542   0.074   0.257  0.00  0.00    -0.004 A 
ATOM      4  C2  UNL d   1       2.690   0.150   1.338  0.00  0.00    -0.047 A 
ATOM      5  C3  UNL d   1       2.071   1.422   1.300  0.00  0.00    -0.047 A 
ATOM      6  C4  UNL d   1       2.565   2.087   0.198  0.00  0.00    -0.004 A 
ENDROOT
TORSDOF 0
ENDMDL
