MODEL 1
REMARK minimizedAffinity 5.4169116
REMARK minimizedRMSD -1
REMARK  0 active torsions:
REMARK  status: ('A' for Active; 'I' for Inactive)
ROOT
ATOM      1  C   UNL d   1      -4.587  -4.608  -2.308  0.00  0.00     0.172 C 
ATOM      2  N   UNL d   1      -3.459  -3.734  -2.529  0.00  0.00    -0.070 N 
ATOM      3  C1  UNL d   1      -2.763  -3.610  -3.702  0.00  0.00    -0.004 A 
ATOM      4  C2  UNL d   1      -1.766  -2.679  -3.505  0.00  0.00    -0.047 A 
ATOM      5  C3  UNL d   1      -1.866  -2.229  -2.167  0.00  0.00    -0.047 A 
ATOM      6  C4  UNL d   1      -2.923  -2.898  -1.586  0.00  0.00    -0.004 A 
ENDROOT
TORSDOF 0
ENDMDL
