MODEL 1
REMARK minimizedAffinity 5.17869711
REMARK minimizedRMSD -1
REMARK  0 active torsions:
REMARK  status: ('A' for Active; 'I' for Inactive)
ROOT
ATOM      1  C   UNL d   1      -4.369  -3.723  -2.600  0.00  0.00     0.172 C 
ATOM      2  N   UNL d   1      -3.134  -2.974  -2.587  0.00  0.00    -0.070 N 
ATOM      3  C1  UNL d   1      -2.393  -2.638  -3.688  0.00  0.00    -0.004 A 
ATOM      4  C2  UNL d   1      -1.294  -1.928  -3.256  0.00  0.00    -0.047 A 
ATOM      5  C3  UNL d   1      -1.377  -1.834  -1.847  0.00  0.00    -0.047 A 
ATOM      6  C4  UNL d   1      -2.526  -2.491  -1.459  0.00  0.00    -0.004 A 
ENDROOT
TORSDOF 0
ENDMDL
