MODEL 1
REMARK minimizedAffinity 11.0676641
REMARK minimizedRMSD -1
REMARK  0 active torsions:
REMARK  status: ('A' for Active; 'I' for Inactive)
ROOT
ATOM      1  C   UNL d   1       2.507  -5.644   2.330  0.00  0.00     0.077 C 
ATOM      2  C1  UNL d   1       1.943  -4.263   2.485  0.00  0.00    -0.074 A 
ATOM      3  C2  UNL d   1       1.309  -3.621   1.417  0.00  0.00    -0.005 A 
ATOM      4  C3  UNL d   1       0.781  -2.340   1.578  0.00  0.00     0.006 A 
ATOM      5  C4  UNL d   1       0.882  -1.689   2.808  0.00  0.00    -0.005 A 
ATOM      6  C5  UNL d   1       1.512  -2.315   3.888  0.00  0.00    -0.074 A 
ATOM      7  C6  UNL d   1       1.621  -1.632   5.220  0.00  0.00     0.077 C 
ATOM      8  C7  UNL d   1       2.034  -3.605   3.720  0.00  0.00    -0.001 A 
ENDROOT
TORSDOF 0
ENDMDL
