MODEL 1
REMARK minimizedAffinity 10.9348345
REMARK minimizedRMSD -1
REMARK  0 active torsions:
REMARK  status: ('A' for Active; 'I' for Inactive)
ROOT
ATOM      1  C   UNL d   1       3.707  -0.582  -2.295  0.00  0.00     0.077 C 
ATOM      2  C1  UNL d   1       4.389  -0.225  -3.582  0.00  0.00    -0.074 A 
ATOM      3  C2  UNL d   1       5.253  -1.126  -4.212  0.00  0.00    -0.005 A 
ATOM      4  C3  UNL d   1       5.872  -0.784  -5.414  0.00  0.00     0.006 A 
ATOM      5  C4  UNL d   1       5.634   0.462  -5.997  0.00  0.00    -0.005 A 
ATOM      6  C5  UNL d   1       4.773   1.376  -5.382  0.00  0.00    -0.074 A 
ATOM      7  C6  UNL d   1       4.499   2.714  -6.000  0.00  0.00     0.077 C 
ATOM      8  C7  UNL d   1       4.149   1.021  -4.178  0.00  0.00    -0.001 A 
ENDROOT
TORSDOF 0
ENDMDL
