MODEL 1
REMARK minimizedAffinity 0.715473115
REMARK minimizedRMSD -1
REMARK  0 active torsions:
REMARK  status: ('A' for Active; 'I' for Inactive)
ROOT
ATOM      1  C   UNL d   1       3.306   1.631  -5.871  0.00  0.00     0.077 C 
ATOM      2  C1  UNL d   1       3.795   0.308  -5.362  0.00  0.00    -0.074 A 
ATOM      3  C2  UNL d   1       4.960  -0.273  -5.875  0.00  0.00    -0.005 A 
ATOM      4  C3  UNL d   1       5.408  -1.500  -5.385  0.00  0.00     0.006 A 
ATOM      5  C4  UNL d   1       4.697  -2.156  -4.379  0.00  0.00    -0.005 A 
ATOM      6  C5  UNL d   1       3.532  -1.590  -3.854  0.00  0.00    -0.074 A 
ATOM      7  C6  UNL d   1       2.762  -2.278  -2.766  0.00  0.00     0.077 C 
ATOM      8  C7  UNL d   1       3.092  -0.354  -4.346  0.00  0.00    -0.001 A 
ENDROOT
TORSDOF 0
ENDMDL
