MODEL 1
REMARK minimizedAffinity 4.68524504
REMARK minimizedRMSD -1
REMARK  0 active torsions:
REMARK  status: ('A' for Active; 'I' for Inactive)
ROOT
ATOM      1  C   UNL d   1       4.855  -0.977  -1.122  0.00  0.00     0.077 C 
ATOM      2  C1  UNL d   1       4.601  -0.593  -2.549  0.00  0.00    -0.074 A 
ATOM      3  C2  UNL d   1       3.610   0.337  -2.878  0.00  0.00    -0.005 A 
ATOM      4  C3  UNL d   1       3.391   0.692  -4.209  0.00  0.00     0.006 A 
ATOM      5  C4  UNL d   1       4.161   0.120  -5.224  0.00  0.00    -0.005 A 
ATOM      6  C5  UNL d   1       5.157  -0.811  -4.914  0.00  0.00    -0.074 A 
ATOM      7  C6  UNL d   1       6.000  -1.427  -5.991  0.00  0.00     0.077 C 
ATOM      8  C7  UNL d   1       5.375  -1.156  -3.573  0.00  0.00    -0.001 A 
ENDROOT
TORSDOF 0
ENDMDL
