MODEL 1
REMARK minimizedAffinity 2.92680144
REMARK minimizedRMSD -1
REMARK  0 active torsions:
REMARK  status: ('A' for Active; 'I' for Inactive)
ROOT
ATOM      1  C   UNL d   1       5.049  -0.355  -6.000  0.00  0.00     0.077 C 
ATOM      2  C1  UNL d   1       4.912  -0.840  -4.587  0.00  0.00    -0.074 A 
ATOM      3  C2  UNL d   1       5.883  -0.541  -3.627  0.00  0.00    -0.005 A 
ATOM      4  C3  UNL d   1       5.737  -0.991  -2.315  0.00  0.00     0.006 A 
ATOM      5  C4  UNL d   1       4.620  -1.743  -1.950  0.00  0.00    -0.005 A 
ATOM      6  C5  UNL d   1       3.638  -2.051  -2.897  0.00  0.00    -0.074 A 
ATOM      7  C6  UNL d   1       2.426  -2.850  -2.519  0.00  0.00     0.077 C 
ATOM      8  C7  UNL d   1       3.788  -1.589  -4.212  0.00  0.00    -0.001 A 
ENDROOT
TORSDOF 0
ENDMDL
