MODEL 1
REMARK minimizedAffinity 6.80959177
REMARK minimizedRMSD -1
REMARK  0 active torsions:
REMARK  status: ('A' for Active; 'I' for Inactive)
ROOT
ATOM      1  C   UNL d   1      -6.000  -5.979  -5.179  0.00  0.00     0.077 C 
ATOM      2  C1  UNL d   1      -5.335  -4.641  -5.053  0.00  0.00    -0.074 A 
ATOM      3  C2  UNL d   1      -4.399  -4.211  -6.000  0.00  0.00    -0.005 A 
ATOM      4  C3  UNL d   1      -3.797  -2.960  -5.875  0.00  0.00     0.006 A 
ATOM      5  C4  UNL d   1      -4.123  -2.126  -4.804  0.00  0.00    -0.005 A 
ATOM      6  C5  UNL d   1      -5.057  -2.538  -3.849  0.00  0.00    -0.074 A 
ATOM      7  C6  UNL d   1      -5.426  -1.651  -2.697  0.00  0.00     0.077 C 
ATOM      8  C7  UNL d   1      -5.664  -3.794  -3.985  0.00  0.00    -0.001 A 
ENDROOT
TORSDOF 0
ENDMDL
