MODEL 1
REMARK minimizedAffinity 17.2532558
REMARK minimizedRMSD -1
REMARK  0 active torsions:
REMARK  status: ('A' for Active; 'I' for Inactive)
ROOT
ATOM      1  C   UNL d   1      -6.000   4.127  -0.522  0.00  0.00     0.077 C 
ATOM      2  C1  UNL d   1      -5.438   3.379  -1.695  0.00  0.00    -0.074 A 
ATOM      3  C2  UNL d   1      -5.999   3.513  -2.969  0.00  0.00    -0.005 A 
ATOM      4  C3  UNL d   1      -5.460   2.818  -4.051  0.00  0.00     0.006 A 
ATOM      5  C4  UNL d   1      -4.357   1.984  -3.872  0.00  0.00    -0.005 A 
ATOM      6  C5  UNL d   1      -3.782   1.837  -2.605  0.00  0.00    -0.074 A 
ATOM      7  C6  UNL d   1      -2.589   0.952  -2.396  0.00  0.00     0.077 C 
ATOM      8  C7  UNL d   1      -4.325   2.544  -1.524  0.00  0.00    -0.001 A 
ENDROOT
TORSDOF 0
ENDMDL
