MODEL 1
REMARK minimizedAffinity 6.52405071
REMARK minimizedRMSD -1
REMARK  0 active torsions:
REMARK  status: ('A' for Active; 'I' for Inactive)
ROOT
ATOM      1  C   UNL d   1      -4.846  -1.688  -5.431  0.00  0.00     0.077 C 
ATOM      2  C1  UNL d   1      -4.821  -3.178  -5.594  0.00  0.00    -0.074 A 
ATOM      3  C2  UNL d   1      -6.000  -3.898  -5.812  0.00  0.00    -0.005 A 
ATOM      4  C3  UNL d   1      -5.959  -5.283  -5.971  0.00  0.00     0.006 A 
ATOM      5  C4  UNL d   1      -4.741  -5.962  -5.914  0.00  0.00    -0.005 A 
ATOM      6  C5  UNL d   1      -3.551  -5.259  -5.699  0.00  0.00    -0.074 A 
ATOM      7  C6  UNL d   1      -2.233  -5.971  -5.645  0.00  0.00     0.077 C 
ATOM      8  C7  UNL d   1      -3.600  -3.866  -5.547  0.00  0.00    -0.001 A 
ENDROOT
TORSDOF 0
ENDMDL
