MODEL 1
REMARK minimizedAffinity 2.25536728
REMARK minimizedRMSD -1
REMARK  0 active torsions:
REMARK  status: ('A' for Active; 'I' for Inactive)
ROOT
ATOM      1  N1  IND d   1      -3.825   4.829  -4.087  0.00  0.00    -0.196 N 
ATOM      2  C2  IND d   1      -3.229   5.979  -3.648  0.00  0.00     0.054 A 
ATOM      3  C3  IND d   1      -1.926   6.000  -4.006  0.00  0.00    -0.031 A 
ATOM      4  C4  IND d   1      -0.587   4.304  -5.405  0.00  0.00     0.051 A 
ATOM      5  C5  IND d   1      -0.690   3.078  -6.000  0.00  0.00    -0.031 A 
ATOM      6  C6  IND d   1      -1.868   2.359  -5.989  0.00  0.00     0.015 A 
ATOM      7  C7  IND d   1      -2.995   2.848  -5.391  0.00  0.00    -0.016 A 
ATOM      8  C8  IND d   1      -2.892   4.090  -4.780  0.00  0.00    -0.047 A 
ATOM      9  C9  IND d   1      -1.687   4.804  -4.751  0.00  0.00    -0.096 A 
ATOM     10  HN1 IND d   1      -4.644   4.606  -3.954  0.00  0.00     0.298 HD
ENDROOT
TORSDOF 0
ENDMDL
