MODEL 1
REMARK minimizedAffinity 10.9888706
REMARK minimizedRMSD -1
REMARK  0 active torsions:
REMARK  status: ('A' for Active; 'I' for Inactive)
ROOT
ATOM      1  N1  IND d   1       1.241  -0.109   0.427  0.00  0.00    -0.196 N 
ATOM      2  C2  IND d   1       2.367   0.395  -0.162  0.00  0.00     0.054 A 
ATOM      3  C3  IND d   1       2.119   1.621  -0.678  0.00  0.00    -0.031 A 
ATOM      4  C4  IND d   1      -0.032   3.032  -0.579  0.00  0.00     0.051 A 
ATOM      5  C5  IND d   1      -1.337   2.980  -0.178  0.00  0.00    -0.031 A 
ATOM      6  C6  IND d   1      -1.860   1.874   0.460  0.00  0.00     0.015 A 
ATOM      7  C7  IND d   1      -1.090   0.778   0.733  0.00  0.00    -0.016 A 
ATOM      8  C8  IND d   1       0.235   0.825   0.321  0.00  0.00    -0.047 A 
ATOM      9  C9  IND d   1       0.759   1.928  -0.365  0.00  0.00    -0.096 A 
ATOM     10  HN1 IND d   1       1.173  -0.880   0.801  0.00  0.00     0.298 HD
ENDROOT
TORSDOF 0
ENDMDL
