MODEL 1
REMARK minimizedAffinity 6.36501026
REMARK minimizedRMSD -1
REMARK  0 active torsions:
REMARK  status: ('A' for Active; 'I' for Inactive)
ROOT
ATOM      1  N1  IND d   1      -1.297   1.976  -5.917  0.00  0.00    -0.196 N 
ATOM      2  C2  IND d   1       0.062   2.127  -5.938  0.00  0.00     0.054 A 
ATOM      3  C3  IND d   1       0.388   3.438  -5.999  0.00  0.00    -0.031 A 
ATOM      4  C4  IND d   1      -1.143   5.508  -5.973  0.00  0.00     0.051 A 
ATOM      5  C5  IND d   1      -2.459   5.874  -5.998  0.00  0.00    -0.031 A 
ATOM      6  C6  IND d   1      -3.476   4.941  -5.994  0.00  0.00     0.015 A 
ATOM      7  C7  IND d   1      -3.213   3.601  -5.954  0.00  0.00    -0.016 A 
ATOM      8  C8  IND d   1      -1.877   3.225  -5.936  0.00  0.00    -0.047 A 
ATOM      9  C9  IND d   1      -0.841   4.166  -5.982  0.00  0.00    -0.096 A 
ATOM     10  HN1 IND d   1      -1.718   1.227  -5.896  0.00  0.00     0.298 HD
ENDROOT
TORSDOF 0
ENDMDL
