MODEL 1
REMARK minimizedAffinity 1.92405558
REMARK minimizedRMSD -1
REMARK  0 active torsions:
REMARK  status: ('A' for Active; 'I' for Inactive)
ROOT
ATOM      1  N1  IND d   1      -3.559   2.188  -5.936  0.00  0.00    -0.196 N 
ATOM      2  C2  IND d   1      -2.217   2.446  -5.962  0.00  0.00     0.054 A 
ATOM      3  C3  IND d   1      -1.994   3.779  -5.994  0.00  0.00    -0.031 A 
ATOM      4  C4  IND d   1      -3.682   5.721  -5.909  0.00  0.00     0.051 A 
ATOM      5  C5  IND d   1      -5.023   5.984  -5.917  0.00  0.00    -0.031 A 
ATOM      6  C6  IND d   1      -5.964   4.975  -5.929  0.00  0.00     0.015 A 
ATOM      7  C7  IND d   1      -5.596   3.659  -5.923  0.00  0.00    -0.016 A 
ATOM      8  C8  IND d   1      -4.235   3.388  -5.922  0.00  0.00    -0.047 A 
ATOM      9  C9  IND d   1      -3.276   4.408  -5.952  0.00  0.00    -0.096 A 
ATOM     10  HN1 IND d   1      -3.920   1.408  -5.931  0.00  0.00     0.298 HD
ENDROOT
TORSDOF 0
ENDMDL
