MODEL 1
REMARK minimizedAffinity 7.64392996
REMARK minimizedRMSD -1
REMARK  0 active torsions:
REMARK  status: ('A' for Active; 'I' for Inactive)
ROOT
ATOM      1  N1  IND d   1       0.733  -0.792   0.995  0.00  0.00    -0.196 N 
ATOM      2  C2  IND d   1       1.662  -0.011   0.368  0.00  0.00     0.054 A 
ATOM      3  C3  IND d   1       1.123   1.182   0.030  0.00  0.00    -0.031 A 
ATOM      4  C4  IND d   1      -1.235   2.103   0.499  0.00  0.00     0.051 A 
ATOM      5  C5  IND d   1      -2.450   1.743   1.011  0.00  0.00    -0.031 A 
ATOM      6  C6  IND d   1      -2.669   0.495   1.558  0.00  0.00     0.015 A 
ATOM      7  C7  IND d   1      -1.675  -0.439   1.623  0.00  0.00    -0.016 A 
ATOM      8  C8  IND d   1      -0.442  -0.080   1.098  0.00  0.00    -0.047 A 
ATOM      9  C9  IND d   1      -0.225   1.170   0.503  0.00  0.00    -0.096 A 
ATOM     10  HN1 IND d   1       0.860  -1.594   1.278  0.00  0.00     0.298 HD
ENDROOT
TORSDOF 0
ENDMDL
