MODEL 1
REMARK minimizedAffinity -1.37247121
REMARK minimizedRMSD -1
REMARK  0 active torsions:
REMARK  status: ('A' for Active; 'I' for Inactive)
ROOT
ATOM      1  N1  IND d   1      -1.489   4.222  -5.992  0.00  0.00    -0.196 N 
ATOM      2  C2  IND d   1      -1.460   2.856  -5.961  0.00  0.00     0.054 A 
ATOM      3  C3  IND d   1      -2.717   2.360  -5.918  0.00  0.00    -0.031 A 
ATOM      4  C4  IND d   1      -4.970   3.605  -5.992  0.00  0.00     0.051 A 
ATOM      5  C5  IND d   1      -5.507   4.861  -5.985  0.00  0.00    -0.031 A 
ATOM      6  C6  IND d   1      -4.716   5.992  -5.983  0.00  0.00     0.015 A 
ATOM      7  C7  IND d   1      -3.352   5.908  -5.999  0.00  0.00    -0.016 A 
ATOM      8  C8  IND d   1      -2.803   4.633  -5.999  0.00  0.00    -0.047 A 
ATOM      9  C9  IND d   1      -3.601   3.482  -5.958  0.00  0.00    -0.096 A 
ATOM     10  HN1 IND d   1      -0.801   4.738  -6.005  0.00  0.00     0.298 HD
ENDROOT
TORSDOF 0
ENDMDL
