MODEL 1
REMARK minimizedAffinity 7.89285469
REMARK minimizedRMSD -1
REMARK  0 active torsions:
REMARK  status: ('A' for Active; 'I' for Inactive)
ROOT
ATOM      1  N1  IND d   1      -4.748   3.816  -5.937  0.00  0.00    -0.196 N 
ATOM      2  C2  IND d   1      -4.955   5.167  -5.892  0.00  0.00     0.054 A 
ATOM      3  C3  IND d   1      -3.774   5.822  -5.843  0.00  0.00    -0.031 A 
ATOM      4  C4  IND d   1      -1.378   4.884  -5.930  0.00  0.00     0.051 A 
ATOM      5  C5  IND d   1      -0.681   3.708  -5.937  0.00  0.00    -0.031 A 
ATOM      6  C6  IND d   1      -1.317   2.484  -5.947  0.00  0.00     0.015 A 
ATOM      7  C7  IND d   1      -2.680   2.389  -5.962  0.00  0.00    -0.016 A 
ATOM      8  C8  IND d   1      -3.391   3.581  -5.948  0.00  0.00    -0.047 A 
ATOM      9  C9  IND d   1      -2.751   4.826  -5.895  0.00  0.00    -0.096 A 
ATOM     10  HN1 IND d   1      -5.363   3.215  -5.956  0.00  0.00     0.298 HD
ENDROOT
TORSDOF 0
ENDMDL
