MODEL 1
REMARK minimizedAffinity 12.239296
REMARK minimizedRMSD -1
REMARK  0 active torsions:
REMARK  status: ('A' for Active; 'I' for Inactive)
ROOT
ATOM      1  N1  IND d   1      -0.521   3.659   4.404  0.00  0.00    -0.196 N 
ATOM      2  C2  IND d   1      -1.851   3.491   4.138  0.00  0.00     0.054 A 
ATOM      3  C3  IND d   1      -2.020   2.912   2.929  0.00  0.00    -0.031 A 
ATOM      4  C4  IND d   1      -0.252   2.063   1.261  0.00  0.00     0.051 A 
ATOM      5  C5  IND d   1       1.097   2.028   1.046  0.00  0.00    -0.031 A 
ATOM      6  C6  IND d   1       1.994   2.543   1.959  0.00  0.00     0.015 A 
ATOM      7  C7  IND d   1       1.574   3.105   3.131  0.00  0.00    -0.016 A 
ATOM      8  C8  IND d   1       0.204   3.148   3.350  0.00  0.00    -0.047 A 
ATOM      9  C9  IND d   1      -0.713   2.665   2.408  0.00  0.00    -0.096 A 
ATOM     10  HN1 IND d   1      -0.192   4.023   5.110  0.00  0.00     0.298 HD
ENDROOT
TORSDOF 0
ENDMDL
