MODEL 1
REMARK minimizedAffinity 13.3422327
REMARK minimizedRMSD -1
REMARK  0 active torsions:
REMARK  status: ('A' for Active; 'I' for Inactive)
ROOT
ATOM      1  N1  IND d   1      -2.113   1.504  -5.960  0.00  0.00    -0.196 N 
ATOM      2  C2  IND d   1      -0.746   1.537  -5.958  0.00  0.00     0.054 A 
ATOM      3  C3  IND d   1      -0.306   2.815  -5.966  0.00  0.00    -0.031 A 
ATOM      4  C4  IND d   1      -1.652   5.008  -5.880  0.00  0.00     0.051 A 
ATOM      5  C5  IND d   1      -2.932   5.488  -5.907  0.00  0.00    -0.031 A 
ATOM      6  C6  IND d   1      -4.025   4.648  -5.951  0.00  0.00     0.015 A 
ATOM      7  C7  IND d   1      -3.880   3.290  -5.959  0.00  0.00    -0.016 A 
ATOM      8  C8  IND d   1      -2.583   2.798  -5.938  0.00  0.00    -0.047 A 
ATOM      9  C9  IND d   1      -1.468   3.647  -5.936  0.00  0.00    -0.096 A 
ATOM     10  HN1 IND d   1      -2.597   0.793  -5.973  0.00  0.00     0.298 HD
ENDROOT
TORSDOF 0
ENDMDL
