MODEL 1
REMARK minimizedAffinity -0.458674431
REMARK minimizedRMSD -1
REMARK  0 active torsions:
REMARK  status: ('A' for Active; 'I' for Inactive)
ROOT
ATOM      1  N1  IND d   1      -2.783   2.515  -5.984  0.00  0.00    -0.196 N 
ATOM      2  C2  IND d   1      -1.514   3.025  -5.982  0.00  0.00     0.054 A 
ATOM      3  C3  IND d   1      -1.551   4.376  -6.000  0.00  0.00    -0.031 A 
ATOM      4  C4  IND d   1      -3.580   5.959  -5.930  0.00  0.00     0.051 A 
ATOM      5  C5  IND d   1      -4.946   5.961  -5.961  0.00  0.00    -0.031 A 
ATOM      6  C6  IND d   1      -5.676   4.790  -6.000  0.00  0.00     0.015 A 
ATOM      7  C7  IND d   1      -5.064   3.569  -5.997  0.00  0.00    -0.016 A 
ATOM      8  C8  IND d   1      -3.677   3.563  -5.972  0.00  0.00    -0.047 A 
ATOM      9  C9  IND d   1      -2.930   4.748  -5.977  0.00  0.00    -0.096 A 
ATOM     10  HN1 IND d   1      -2.988   1.680  -5.992  0.00  0.00     0.298 HD
ENDROOT
TORSDOF 0
ENDMDL
