MODEL 1
REMARK minimizedAffinity 2.36744714
REMARK minimizedRMSD -1
REMARK  0 active torsions:
REMARK  status: ('A' for Active; 'I' for Inactive)
ROOT
ATOM      1  N1  IND d   1      -1.590   2.040  -5.978  0.00  0.00    -0.196 N 
ATOM      2  C2  IND d   1      -0.230   2.179  -5.978  0.00  0.00     0.054 A 
ATOM      3  C3  IND d   1       0.109   3.488  -6.000  0.00  0.00    -0.031 A 
ATOM      4  C4  IND d   1      -1.403   5.570  -5.935  0.00  0.00     0.051 A 
ATOM      5  C5  IND d   1      -2.716   5.950  -5.966  0.00  0.00    -0.031 A 
ATOM      6  C6  IND d   1      -3.741   5.027  -6.000  0.00  0.00     0.015 A 
ATOM      7  C7  IND d   1      -3.491   3.684  -5.993  0.00  0.00    -0.016 A 
ATOM      8  C8  IND d   1      -2.159   3.295  -5.969  0.00  0.00    -0.047 A 
ATOM      9  C9  IND d   1      -1.114   4.227  -5.978  0.00  0.00    -0.096 A 
ATOM     10  HN1 IND d   1      -2.018   1.294  -5.983  0.00  0.00     0.298 HD
ENDROOT
TORSDOF 0
ENDMDL
