MODEL 1
REMARK minimizedAffinity 11.6763945
REMARK minimizedRMSD -1
REMARK  0 active torsions:
REMARK  status: ('A' for Active; 'I' for Inactive)
ROOT
ATOM      1  N1  IND d   1      -2.625   5.722  -5.588  0.00  0.00    -0.196 N 
ATOM      2  C2  IND d   1      -1.517   4.927  -5.684  0.00  0.00     0.054 A 
ATOM      3  C3  IND d   1      -1.878   3.629  -5.790  0.00  0.00    -0.031 A 
ATOM      4  C4  IND d   1      -4.229   2.591  -5.930  0.00  0.00     0.051 A 
ATOM      5  C5  IND d   1      -5.555   2.912  -5.849  0.00  0.00    -0.031 A 
ATOM      6  C6  IND d   1      -5.981   4.214  -5.675  0.00  0.00     0.015 A 
ATOM      7  C7  IND d   1      -5.092   5.248  -5.588  0.00  0.00    -0.016 A 
ATOM      8  C8  IND d   1      -3.745   4.924  -5.663  0.00  0.00    -0.047 A 
ATOM      9  C9  IND d   1      -3.306   3.601  -5.797  0.00  0.00    -0.096 A 
ATOM     10  HN1 IND d   1      -2.622   6.577  -5.496  0.00  0.00     0.298 HD
ENDROOT
TORSDOF 0
ENDMDL
