MODEL 1
REMARK minimizedAffinity 8.06111336
REMARK minimizedRMSD -1
REMARK  0 active torsions:
REMARK  status: ('A' for Active; 'I' for Inactive)
ROOT
ATOM      1  N1  IND d   1      -0.510   3.219  -5.997  0.00  0.00    -0.196 N 
ATOM      2  C2  IND d   1      -0.827   1.889  -5.996  0.00  0.00     0.054 A 
ATOM      3  C3  IND d   1      -2.168   1.725  -5.951  0.00  0.00    -0.031 A 
ATOM      4  C4  IND d   1      -4.034   3.499  -5.975  0.00  0.00     0.051 A 
ATOM      5  C5  IND d   1      -4.237   4.850  -5.936  0.00  0.00    -0.031 A 
ATOM      6  C6  IND d   1      -3.187   5.744  -5.917  0.00  0.00     0.015 A 
ATOM      7  C7  IND d   1      -1.889   5.319  -5.948  0.00  0.00    -0.016 A 
ATOM      8  C8  IND d   1      -1.679   3.948  -5.982  0.00  0.00    -0.047 A 
ATOM      9  C9  IND d   1      -2.740   3.034  -5.958  0.00  0.00    -0.096 A 
ATOM     10  HN1 IND d   1       0.285   3.545  -6.005  0.00  0.00     0.298 HD
ENDROOT
TORSDOF 0
ENDMDL
