MODEL 1
REMARK minimizedAffinity 8.45175648
REMARK minimizedRMSD -1
REMARK  0 active torsions:
REMARK  status: ('A' for Active; 'I' for Inactive)
ROOT
ATOM      1  N1  IND d   1      -3.523  -5.999  -0.661  0.00  0.00    -0.196 N 
ATOM      2  C2  IND d   1      -4.522  -5.388   0.044  0.00  0.00     0.054 A 
ATOM      3  C3  IND d   1      -4.313  -4.053   0.094  0.00  0.00    -0.031 A 
ATOM      4  C4  IND d   1      -2.452  -2.647  -0.997  0.00  0.00     0.051 A 
ATOM      5  C5  IND d   1      -1.292  -2.763  -1.709  0.00  0.00    -0.031 A 
ATOM      6  C6  IND d   1      -0.807  -3.988  -2.119  0.00  0.00     0.015 A 
ATOM      7  C7  IND d   1      -1.475  -5.147  -1.841  0.00  0.00    -0.016 A 
ATOM      8  C8  IND d   1      -2.650  -5.034  -1.111  0.00  0.00    -0.047 A 
ATOM      9  C9  IND d   1      -3.124  -3.797  -0.656  0.00  0.00    -0.096 A 
ATOM     10  HN1 IND d   1      -3.452  -6.845  -0.800  0.00  0.00     0.298 HD
ENDROOT
TORSDOF 0
ENDMDL
