MODEL 1
REMARK minimizedAffinity 4.66453886
REMARK minimizedRMSD -1
REMARK  0 active torsions:
REMARK  status: ('A' for Active; 'I' for Inactive)
ROOT
ATOM      1  N1  IND d   1      -2.306   4.472  -5.937  0.00  0.00    -0.196 N 
ATOM      2  C2  IND d   1      -3.238   3.472  -5.950  0.00  0.00     0.054 A 
ATOM      3  C3  IND d   1      -2.632   2.265  -6.000  0.00  0.00    -0.031 A 
ATOM      4  C4  IND d   1      -0.122   1.692  -5.963  0.00  0.00     0.051 A 
ATOM      5  C5  IND d   1       1.115   2.271  -5.990  0.00  0.00    -0.031 A 
ATOM      6  C6  IND d   1       1.279   3.641  -5.998  0.00  0.00     0.015 A 
ATOM      7  C7  IND d   1       0.206   4.487  -5.968  0.00  0.00    -0.016 A 
ATOM      8  C8  IND d   1      -1.052   3.903  -5.947  0.00  0.00    -0.047 A 
ATOM      9  C9  IND d   1      -1.225   2.513  -5.982  0.00  0.00    -0.096 A 
ATOM     10  HN1 IND d   1      -2.475   5.315  -5.923  0.00  0.00     0.298 HD
ENDROOT
TORSDOF 0
ENDMDL
