MODEL 1
REMARK minimizedAffinity 5.49549675
REMARK minimizedRMSD -1
REMARK  0 active torsions:
REMARK  status: ('A' for Active; 'I' for Inactive)
ROOT
ATOM      1  N1  IND d   1       1.580   0.006   0.094  0.00  0.00    -0.196 N 
ATOM      2  C2  IND d   1       2.150   1.184  -0.300  0.00  0.00     0.054 A 
ATOM      3  C3  IND d   1       1.248   2.189  -0.230  0.00  0.00    -0.031 A 
ATOM      4  C4  IND d   1      -1.188   2.145   0.601  0.00  0.00     0.051 A 
ATOM      5  C5  IND d   1      -2.165   1.291   1.029  0.00  0.00    -0.031 A 
ATOM      6  C6  IND d   1      -1.939  -0.063   1.172  0.00  0.00     0.015 A 
ATOM      7  C7  IND d   1      -0.717  -0.613   0.903  0.00  0.00    -0.016 A 
ATOM      8  C8  IND d   1       0.275   0.251   0.462  0.00  0.00    -0.047 A 
ATOM      9  C9  IND d   1       0.039   1.619   0.274  0.00  0.00    -0.096 A 
ATOM     10  HN1 IND d   1       1.971  -0.760   0.110  0.00  0.00     0.298 HD
ENDROOT
TORSDOF 0
ENDMDL
