MODEL 1
REMARK minimizedAffinity 2.1795783
REMARK minimizedRMSD -1
REMARK  0 active torsions:
REMARK  status: ('A' for Active; 'I' for Inactive)
ROOT
ATOM      1  N1  IND d   1      -1.747   4.858  -5.917  0.00  0.00    -0.196 N 
ATOM      2  C2  IND d   1      -2.662   3.842  -5.930  0.00  0.00     0.054 A 
ATOM      3  C3  IND d   1      -2.035   2.645  -5.988  0.00  0.00    -0.031 A 
ATOM      4  C4  IND d   1       0.484   2.116  -5.966  0.00  0.00     0.051 A 
ATOM      5  C5  IND d   1       1.712   2.716  -5.997  0.00  0.00    -0.031 A 
ATOM      6  C6  IND d   1       1.852   4.089  -5.999  0.00  0.00     0.015 A 
ATOM      7  C7  IND d   1       0.765   4.916  -5.960  0.00  0.00    -0.016 A 
ATOM      8  C8  IND d   1      -0.483   4.310  -5.936  0.00  0.00    -0.047 A 
ATOM      9  C9  IND d   1      -0.633   2.918  -5.976  0.00  0.00    -0.096 A 
ATOM     10  HN1 IND d   1      -1.930   5.698  -5.899  0.00  0.00     0.298 HD
ENDROOT
TORSDOF 0
ENDMDL
