MODEL 1
REMARK minimizedAffinity -0.683125556
REMARK minimizedRMSD -1
REMARK  0 active torsions:
REMARK  status: ('A' for Active; 'I' for Inactive)
ROOT
ATOM      1  N1  IND d   1      -0.330   4.360  -6.000  0.00  0.00    -0.196 N 
ATOM      2  C2  IND d   1      -0.159   3.003  -5.993  0.00  0.00     0.054 A 
ATOM      3  C3  IND d   1      -1.357   2.378  -5.955  0.00  0.00    -0.031 A 
ATOM      4  C4  IND d   1      -3.728   3.382  -6.000  0.00  0.00     0.051 A 
ATOM      5  C5  IND d   1      -4.393   4.575  -5.969  0.00  0.00    -0.031 A 
ATOM      6  C6  IND d   1      -3.725   5.782  -5.950  0.00  0.00     0.015 A 
ATOM      7  C7  IND d   1      -2.360   5.841  -5.971  0.00  0.00    -0.016 A 
ATOM      8  C8  IND d   1      -1.681   4.631  -5.995  0.00  0.00    -0.047 A 
ATOM      9  C9  IND d   1      -2.353   3.402  -5.973  0.00  0.00    -0.096 A 
ATOM     10  HN1 IND d   1       0.300   4.945  -6.006  0.00  0.00     0.298 HD
ENDROOT
TORSDOF 0
ENDMDL
