MODEL 1
REMARK minimizedAffinity 13.5514593
REMARK minimizedRMSD -1
REMARK  0 active torsions:
REMARK  status: ('A' for Active; 'I' for Inactive)
ROOT
ATOM      1  N1  IND d   1      -0.471  -0.982   0.668  0.00  0.00    -0.196 N 
ATOM      2  C2  IND d   1      -1.767  -0.609   0.890  0.00  0.00     0.054 A 
ATOM      3  C3  IND d   1      -1.906   0.726   0.726  0.00  0.00    -0.031 A 
ATOM      4  C4  IND d   1      -0.164   2.475  -0.004  0.00  0.00     0.051 A 
ATOM      5  C5  IND d   1       1.166   2.618  -0.286  0.00  0.00    -0.031 A 
ATOM      6  C6  IND d   1       2.035   1.547  -0.266  0.00  0.00     0.015 A 
ATOM      7  C7  IND d   1       1.603   0.284   0.027  0.00  0.00    -0.016 A 
ATOM      8  C8  IND d   1       0.254   0.136   0.320  0.00  0.00    -0.047 A 
ATOM      9  C9  IND d   1      -0.624   1.227   0.343  0.00  0.00    -0.096 A 
ATOM     10  HN1 IND d   1      -0.161  -1.782   0.735  0.00  0.00     0.298 HD
ENDROOT
TORSDOF 0
ENDMDL
