MODEL 1
REMARK minimizedAffinity -5.81659889
REMARK minimizedRMSD -1
REMARK  3 active torsions:
REMARK  status: ('A' for Active; 'I' for Inactive)
REMARK    1  A    between atoms: C3'_2  and  C2'_3 
REMARK    2  A    between atoms: C2'_3  and  C1'_4 
REMARK    3  A    between atoms: C1'_4  and  C1_5 
ROOT
ATOM      1  C1  N4B d   1       0.408   0.707   0.148  0.00  0.00    -0.075 A 
ATOM      2  C2  N4B d   1      -0.602   1.379   0.871  0.00  0.00     0.002 A 
ATOM      3  C3  N4B d   1      -0.726   2.743   0.770  0.00  0.00     0.002 A 
ATOM      4  C4  N4B d   1       0.156   3.455  -0.029  0.00  0.00    -0.004 A 
ATOM      5  C5  N4B d   1       1.113   2.795  -0.743  0.00  0.00     0.002 A 
ATOM      6  C6  N4B d   1       1.247   1.424  -0.655  0.00  0.00     0.002 A 
ENDROOT
BRANCH   1   7
ATOM      7  C1' N4B d   1       0.637  -0.773   0.293  0.00  0.00     0.057 C 
BRANCH   7   8
ATOM      8  C2' N4B d   1      -0.450  -1.525  -0.470  0.00  0.00     0.009 C 
BRANCH   8   9
ATOM      9  C3' N4B d   1      -0.009  -1.887  -1.877  0.00  0.00     0.004 C 
ATOM     10  C4' N4B d   1      -1.015  -2.732  -2.601  0.00  0.00     0.003 C 
ENDBRANCH   8   9
ENDBRANCH   7   8
ENDBRANCH   1   7
TORSDOF 3
ENDMDL
