MODEL 1
REMARK minimizedAffinity -6.50814342
REMARK minimizedRMSD -1
REMARK  3 active torsions:
REMARK  status: ('A' for Active; 'I' for Inactive)
REMARK    1  A    between atoms: C3'_2  and  C2'_3 
REMARK    2  A    between atoms: C2'_3  and  C1'_4 
REMARK    3  A    between atoms: C1'_4  and  C1_5 
ROOT
ATOM      1  C1  N4B d   1      -0.078   0.292   0.168  0.00  0.00    -0.075 A 
ATOM      2  C2  N4B d   1       1.003   1.182  -0.019  0.00  0.00     0.002 A 
ATOM      3  C3  N4B d   1       0.823   2.530   0.175  0.00  0.00     0.002 A 
ATOM      4  C4  N4B d   1      -0.426   3.010   0.537  0.00  0.00    -0.004 A 
ATOM      5  C5  N4B d   1      -1.458   2.141   0.741  0.00  0.00     0.002 A 
ATOM      6  C6  N4B d   1      -1.291   0.784   0.553  0.00  0.00     0.002 A 
ENDROOT
BRANCH   1   7
ATOM      7  C1' N4B d   1       0.048  -1.180  -0.116  0.00  0.00     0.057 C 
BRANCH   7   8
ATOM      8  C2' N4B d   1      -0.562  -1.480  -1.482  0.00  0.00     0.009 C 
BRANCH   8   9
ATOM      9  C3' N4B d   1      -0.681  -2.973  -1.735  0.00  0.00     0.004 C 
ATOM     10  C4' N4B d   1      -0.441  -3.340  -3.169  0.00  0.00     0.003 C 
ENDBRANCH   8   9
ENDBRANCH   7   8
ENDBRANCH   1   7
TORSDOF 3
ENDMDL
