MODEL 1
REMARK minimizedAffinity -3.06153297
REMARK minimizedRMSD -1
REMARK  3 active torsions:
REMARK  status: ('A' for Active; 'I' for Inactive)
REMARK    1  A    between atoms: C3'_2  and  C2'_3 
REMARK    2  A    between atoms: C2'_3  and  C1'_4 
REMARK    3  A    between atoms: C1'_4  and  C1_5 
ROOT
ATOM      1  C1  N4B d   1       0.312   2.213  -0.101  0.00  0.00    -0.075 A 
ATOM      2  C2  N4B d   1      -0.103   0.898  -0.406  0.00  0.00     0.002 A 
ATOM      3  C3  N4B d   1      -1.066   0.287   0.359  0.00  0.00     0.002 A 
ATOM      4  C4  N4B d   1      -1.612   0.962   1.441  0.00  0.00    -0.004 A 
ATOM      5  C5  N4B d   1      -1.224   2.241   1.713  0.00  0.00     0.002 A 
ATOM      6  C6  N4B d   1      -0.261   2.869   0.950  0.00  0.00     0.002 A 
ENDROOT
BRANCH   1   7
ATOM      7  C1' N4B d   1       1.422   2.890  -0.857  0.00  0.00     0.057 C 
BRANCH   7   8
ATOM      8  C2' N4B d   1       2.395   1.834  -1.372  0.00  0.00     0.009 C 
BRANCH   8   9
ATOM      9  C3' N4B d   1       3.529   1.580  -0.393  0.00  0.00     0.004 C 
ATOM     10  C4' N4B d   1       3.324   0.341   0.426  0.00  0.00     0.003 C 
ENDBRANCH   8   9
ENDBRANCH   7   8
ENDBRANCH   1   7
TORSDOF 3
ENDMDL
