MODEL 1
REMARK minimizedAffinity -5.76080799
REMARK minimizedRMSD -1
REMARK  3 active torsions:
REMARK  status: ('A' for Active; 'I' for Inactive)
REMARK    1  A    between atoms: C3'_2  and  C2'_3 
REMARK    2  A    between atoms: C2'_3  and  C1'_4 
REMARK    3  A    between atoms: C1'_4  and  C1_5 
ROOT
ATOM      1  C1  N4B d   1      -0.139   0.213   0.072  0.00  0.00    -0.075 A 
ATOM      2  C2  N4B d   1      -1.148   0.935   0.745  0.00  0.00     0.002 A 
ATOM      3  C3  N4B d   1      -1.152   2.308   0.706  0.00  0.00     0.002 A 
ATOM      4  C4  N4B d   1      -0.151   2.978   0.019  0.00  0.00    -0.004 A 
ATOM      5  C5  N4B d   1       0.806   2.272  -0.650  0.00  0.00     0.002 A 
ATOM      6  C6  N4B d   1       0.820   0.892  -0.623  0.00  0.00     0.002 A 
ENDROOT
BRANCH   1   7
ATOM      7  C1' N4B d   1      -0.043  -1.286   0.157  0.00  0.00     0.057 C 
BRANCH   7   8
ATOM      8  C2' N4B d   1       0.121  -1.858  -1.248  0.00  0.00     0.009 C 
BRANCH   8   9
ATOM      9  C3' N4B d   1      -0.807  -3.036  -1.494  0.00  0.00     0.004 C 
ATOM     10  C4' N4B d   1      -2.192  -2.613  -1.882  0.00  0.00     0.003 C 
ENDBRANCH   8   9
ENDBRANCH   7   8
ENDBRANCH   1   7
TORSDOF 3
ENDMDL
