MODEL 1
REMARK minimizedAffinity -4.96463203
REMARK minimizedRMSD -1
REMARK  3 active torsions:
REMARK  status: ('A' for Active; 'I' for Inactive)
REMARK    1  A    between atoms: C3'_2  and  C2'_3 
REMARK    2  A    between atoms: C2'_3  and  C1'_4 
REMARK    3  A    between atoms: C1'_4  and  C1_5 
ROOT
ATOM      1  C1  N4B d   1       0.455   1.908   0.727  0.00  0.00    -0.075 A 
ATOM      2  C2  N4B d   1       0.833   0.641   0.231  0.00  0.00     0.002 A 
ATOM      3  C3  N4B d   1      -0.125  -0.305  -0.038  0.00  0.00     0.002 A 
ATOM      4  C4  N4B d   1      -1.461  -0.015   0.199  0.00  0.00    -0.004 A 
ATOM      5  C5  N4B d   1      -1.820   1.219   0.654  0.00  0.00     0.002 A 
ATOM      6  C6  N4B d   1      -0.868   2.181   0.925  0.00  0.00     0.002 A 
ENDROOT
BRANCH   1   7
ATOM      7  C1' N4B d   1       1.473   2.945   1.116  0.00  0.00     0.057 C 
BRANCH   7   8
ATOM      8  C2' N4B d   1       2.731   2.245   1.623  0.00  0.00     0.009 C 
BRANCH   8   9
ATOM      9  C3' N4B d   1       3.028   2.591   3.072  0.00  0.00     0.004 C 
ATOM     10  C4' N4B d   1       1.789   2.700   3.909  0.00  0.00     0.003 C 
ENDBRANCH   8   9
ENDBRANCH   7   8
ENDBRANCH   1   7
TORSDOF 3
ENDMDL
