MODEL 1
REMARK minimizedAffinity -1.81766021
REMARK minimizedRMSD -1
REMARK  1 active torsions:
REMARK  status: ('A' for Active; 'I' for Inactive)
REMARK    1  A    between atoms: C1_2  and  C2_3 
ROOT
ATOM      1  C2  UNL d   1      -1.185  -1.018   0.404  0.00  0.00    -0.076 A 
ATOM      2  C3  UNL d   1      -2.175  -0.056   0.671  0.00  0.00     0.004 A 
ATOM      3  C4  UNL d   1      -1.923   1.302   0.487  0.00  0.00    -0.003 A 
ATOM      4  C5  UNL d   1      -0.678   1.721   0.032  0.00  0.00     0.000 A 
ATOM      5  C6  UNL d   1       0.310   0.780  -0.254  0.00  0.00     0.000 A 
ATOM      6  C7  UNL d   1       0.068  -0.595  -0.089  0.00  0.00    -0.073 A 
ATOM      7  C8  UNL d   1       1.172  -1.566  -0.407  0.00  0.00     0.078 C 
ENDROOT
BRANCH   1   8
ATOM      8  C1  UNL d   1      -1.506  -2.475   0.649  0.00  0.00     0.053 C 
ATOM      9  C   UNL d   1      -0.876  -3.004   1.928  0.00  0.00     0.018 C 
ENDBRANCH   1   8
TORSDOF 1
ENDMDL
