MODEL 1
REMARK minimizedAffinity -2.84670353
REMARK minimizedRMSD -1
REMARK  1 active torsions:
REMARK  status: ('A' for Active; 'I' for Inactive)
REMARK    1  A    between atoms: C1_2  and  C2_3 
ROOT
ATOM      1  C2  UNL d   1       1.289   2.424  -3.423  0.00  0.00    -0.076 A 
ATOM      2  C3  UNL d   1       1.116   3.397  -4.423  0.00  0.00     0.004 A 
ATOM      3  C4  UNL d   1       0.165   4.406  -4.284  0.00  0.00    -0.003 A 
ATOM      4  C5  UNL d   1      -0.629   4.459  -3.144  0.00  0.00     0.000 A 
ATOM      5  C6  UNL d   1      -0.459   3.512  -2.134  0.00  0.00     0.000 A 
ATOM      6  C7  UNL d   1       0.507   2.498  -2.251  0.00  0.00    -0.073 A 
ATOM      7  C8  UNL d   1       0.643   1.499  -1.134  0.00  0.00     0.078 C 
ENDROOT
BRANCH   1   8
ATOM      8  C1  UNL d   1       2.318   1.337  -3.641  0.00  0.00     0.053 C 
ATOM      9  C   UNL d   1       3.726   1.890  -3.797  0.00  0.00     0.018 C 
ENDBRANCH   1   8
TORSDOF 1
ENDMDL
