MODEL 1
REMARK minimizedAffinity -3.83543229
REMARK minimizedRMSD -1
REMARK  1 active torsions:
REMARK  status: ('A' for Active; 'I' for Inactive)
REMARK    1  A    between atoms: C1_2  and  C2_3 
ROOT
ATOM      1  C2  UNL d   1      -1.407  -0.632   0.326  0.00  0.00    -0.076 A 
ATOM      2  C3  UNL d   1      -2.200   0.310   1.003  0.00  0.00     0.004 A 
ATOM      3  C4  UNL d   1      -1.752   1.615   1.201  0.00  0.00    -0.003 A 
ATOM      4  C5  UNL d   1      -0.504   1.999   0.724  0.00  0.00     0.000 A 
ATOM      5  C6  UNL d   1       0.289   1.082   0.034  0.00  0.00     0.000 A 
ATOM      6  C7  UNL d   1      -0.155  -0.233  -0.188  0.00  0.00    -0.073 A 
ATOM      7  C8  UNL d   1       0.744  -1.182  -0.933  0.00  0.00     0.078 C 
ENDROOT
BRANCH   1   8
ATOM      8  C1  UNL d   1      -1.934  -2.040   0.165  0.00  0.00     0.053 C 
ATOM      9  C   UNL d   1      -1.911  -2.823   1.469  0.00  0.00     0.018 C 
ENDBRANCH   1   8
TORSDOF 1
ENDMDL
