MODEL 1
REMARK minimizedAffinity -1.43747866
REMARK minimizedRMSD -1
REMARK  1 active torsions:
REMARK  status: ('A' for Active; 'I' for Inactive)
REMARK    1  A    between atoms: C1_2  and  C2_3 
ROOT
ATOM      1  C2  UNL d   1       2.280   1.002   1.115  0.00  0.00    -0.076 A 
ATOM      2  C3  UNL d   1       2.279  -0.386   1.334  0.00  0.00     0.004 A 
ATOM      3  C4  UNL d   1       3.355  -1.015   1.957  0.00  0.00    -0.003 A 
ATOM      4  C5  UNL d   1       4.450  -0.265   2.373  0.00  0.00     0.000 A 
ATOM      5  C6  UNL d   1       4.460   1.116   2.180  0.00  0.00     0.000 A 
ATOM      6  C7  UNL d   1       3.376   1.768   1.567  0.00  0.00    -0.073 A 
ATOM      7  C8  UNL d   1       3.443   3.258   1.378  0.00  0.00     0.078 C 
ENDROOT
BRANCH   1   8
ATOM      8  C1  UNL d   1       1.097   1.625   0.409  0.00  0.00     0.053 C 
ATOM      9  C   UNL d   1       0.031   0.603   0.045  0.00  0.00     0.018 C 
ENDBRANCH   1   8
TORSDOF 1
ENDMDL
