MODEL 1
REMARK minimizedAffinity 0.606336474
REMARK minimizedRMSD -1
REMARK  1 active torsions:
REMARK  status: ('A' for Active; 'I' for Inactive)
REMARK    1  A    between atoms: C1_2  and  C2_3 
ROOT
ATOM      1  C2  UNL d   1       1.550   0.907   0.310  0.00  0.00    -0.076 A 
ATOM      2  C3  UNL d   1       2.079   2.135   0.745  0.00  0.00     0.004 A 
ATOM      3  C4  UNL d   1       3.220   2.181   1.545  0.00  0.00    -0.003 A 
ATOM      4  C5  UNL d   1       3.850   1.000   1.922  0.00  0.00     0.000 A 
ATOM      5  C6  UNL d   1       3.349  -0.226   1.485  0.00  0.00     0.000 A 
ATOM      6  C7  UNL d   1       2.210  -0.289   0.664  0.00  0.00    -0.073 A 
ATOM      7  C8  UNL d   1       1.709  -1.638   0.227  0.00  0.00     0.078 C 
ENDROOT
BRANCH   1   8
ATOM      8  C1  UNL d   1       0.295   0.918  -0.533  0.00  0.00     0.053 C 
ATOM      9  C   UNL d   1      -0.970   1.025   0.306  0.00  0.00     0.018 C 
ENDBRANCH   1   8
TORSDOF 1
ENDMDL
