MODEL 1
REMARK minimizedAffinity -3.10341454
REMARK minimizedRMSD -1
REMARK  1 active torsions:
REMARK  status: ('A' for Active; 'I' for Inactive)
REMARK    1  A    between atoms: C1_2  and  C2_3 
ROOT
ATOM      1  C2  UNL d   1      -0.913  -0.861   0.297  0.00  0.00    -0.076 A 
ATOM      2  C3  UNL d   1       0.448  -0.903  -0.049  0.00  0.00     0.004 A 
ATOM      3  C4  UNL d   1       1.192   0.269  -0.177  0.00  0.00    -0.003 A 
ATOM      4  C5  UNL d   1       0.587   1.502   0.041  0.00  0.00     0.000 A 
ATOM      5  C6  UNL d   1      -0.759   1.561   0.403  0.00  0.00     0.000 A 
ATOM      6  C7  UNL d   1      -1.519   0.388   0.551  0.00  0.00    -0.073 A 
ATOM      7  C8  UNL d   1      -2.967   0.511   0.938  0.00  0.00     0.078 C 
ENDROOT
BRANCH   1   8
ATOM      8  C1  UNL d   1      -1.676  -2.163   0.394  0.00  0.00     0.053 C 
ATOM      9  C   UNL d   1      -1.445  -2.877   1.717  0.00  0.00     0.018 C 
ENDBRANCH   1   8
TORSDOF 1
ENDMDL
