MODEL 1
REMARK minimizedAffinity 1.56208956
REMARK minimizedRMSD -1
REMARK  1 active torsions:
REMARK  status: ('A' for Active; 'I' for Inactive)
REMARK    1  A    between atoms: C1_2  and  C2_3 
ROOT
ATOM      1  C2  UNL d   1       2.093   0.972   0.516  0.00  0.00    -0.076 A 
ATOM      2  C3  UNL d   1       1.007   0.158   0.884  0.00  0.00     0.004 A 
ATOM      3  C4  UNL d   1      -0.070  -0.035   0.021  0.00  0.00    -0.003 A 
ATOM      4  C5  UNL d   1      -0.079   0.581  -1.225  0.00  0.00     0.000 A 
ATOM      5  C6  UNL d   1       0.998   1.378  -1.614  0.00  0.00     0.000 A 
ATOM      6  C7  UNL d   1       2.099   1.570  -0.763  0.00  0.00    -0.073 A 
ATOM      7  C8  UNL d   1       3.230   2.443  -1.231  0.00  0.00     0.078 C 
ENDROOT
BRANCH   1   8
ATOM      8  C1  UNL d   1       3.220   1.166   1.504  0.00  0.00     0.053 C 
ATOM      9  C   UNL d   1       4.155  -0.032   1.564  0.00  0.00     0.018 C 
ENDBRANCH   1   8
TORSDOF 1
ENDMDL
