MODEL 1
REMARK minimizedAffinity -4.01456118
REMARK minimizedRMSD -1
REMARK  1 active torsions:
REMARK  status: ('A' for Active; 'I' for Inactive)
REMARK    1  A    between atoms: C1_2  and  C2_3 
ROOT
ATOM      1  C2  UNL d   1       0.222  -1.043   0.502  0.00  0.00    -0.076 A 
ATOM      2  C3  UNL d   1      -0.165  -0.423  -0.699  0.00  0.00     0.004 A 
ATOM      3  C4  UNL d   1      -1.452  -0.586  -1.209  0.00  0.00    -0.003 A 
ATOM      4  C5  UNL d   1      -2.374  -1.371  -0.526  0.00  0.00     0.000 A 
ATOM      5  C6  UNL d   1      -2.013  -1.980   0.676  0.00  0.00     0.000 A 
ATOM      6  C7  UNL d   1      -0.725  -1.813   1.212  0.00  0.00    -0.073 A 
ATOM      7  C8  UNL d   1      -0.388  -2.497   2.508  0.00  0.00     0.078 C 
ENDROOT
BRANCH   1   8
ATOM      8  C1  UNL d   1       1.639  -0.852   0.992  0.00  0.00     0.053 C 
ATOM      9  C   UNL d   1       2.107   0.590   0.874  0.00  0.00     0.018 C 
ENDBRANCH   1   8
TORSDOF 1
ENDMDL
