MODEL 1
REMARK minimizedAffinity -1.18910325
REMARK minimizedRMSD -1
REMARK  1 active torsions:
REMARK  status: ('A' for Active; 'I' for Inactive)
REMARK    1  A    between atoms: C1_2  and  C2_3 
ROOT
ATOM      1  C2  UNL d   1       0.093   0.315   0.273  0.00  0.00    -0.076 A 
ATOM      2  C3  UNL d   1       0.292  -1.059   0.055  0.00  0.00     0.004 A 
ATOM      3  C4  UNL d   1      -0.770  -1.958   0.127  0.00  0.00    -0.003 A 
ATOM      4  C5  UNL d   1      -2.050  -1.497   0.416  0.00  0.00     0.000 A 
ATOM      5  C6  UNL d   1      -2.269  -0.135   0.617  0.00  0.00     0.000 A 
ATOM      6  C7  UNL d   1      -1.211   0.787   0.532  0.00  0.00    -0.073 A 
ATOM      7  C8  UNL d   1      -1.503   2.244   0.764  0.00  0.00     0.078 C 
ENDROOT
BRANCH   1   8
ATOM      8  C1  UNL d   1       1.288   1.239   0.209  0.00  0.00     0.053 C 
ATOM      9  C   UNL d   1       2.472   0.717   1.009  0.00  0.00     0.018 C 
ENDBRANCH   1   8
TORSDOF 1
ENDMDL
