MODEL 1
REMARK minimizedAffinity -3.29945326
REMARK minimizedRMSD -1
REMARK  1 active torsions:
REMARK  status: ('A' for Active; 'I' for Inactive)
REMARK    1  A    between atoms: C1_2  and  C2_3 
ROOT
ATOM      1  C2  UNL d   1      -0.399  -0.476   0.460  0.00  0.00    -0.076 A 
ATOM      2  C3  UNL d   1      -1.696  -0.946   0.191  0.00  0.00     0.004 A 
ATOM      3  C4  UNL d   1      -2.086  -2.230   0.568  0.00  0.00    -0.003 A 
ATOM      4  C5  UNL d   1      -1.186  -3.064   1.223  0.00  0.00     0.000 A 
ATOM      5  C6  UNL d   1       0.099  -2.607   1.514  0.00  0.00     0.000 A 
ATOM      6  C7  UNL d   1       0.503  -1.310   1.155  0.00  0.00    -0.073 A 
ATOM      7  C8  UNL d   1       1.903  -0.872   1.488  0.00  0.00     0.078 C 
ENDROOT
BRANCH   1   8
ATOM      8  C1  UNL d   1      -0.023   0.915   0.002  0.00  0.00     0.053 C 
ATOM      9  C   UNL d   1      -0.892   1.991   0.634  0.00  0.00     0.018 C 
ENDBRANCH   1   8
TORSDOF 1
ENDMDL
