MODEL 1
REMARK minimizedAffinity -5.25840235
REMARK minimizedRMSD -1
REMARK  1 active torsions:
REMARK  status: ('A' for Active; 'I' for Inactive)
REMARK    1  A    between atoms: C1_2  and  C2_3 
ROOT
ATOM      1  C2  UNL d   1       0.732  -1.071   0.689  0.00  0.00    -0.076 A 
ATOM      2  C3  UNL d   1       0.257  -2.118   1.497  0.00  0.00     0.004 A 
ATOM      3  C4  UNL d   1      -1.096  -2.450   1.520  0.00  0.00    -0.003 A 
ATOM      4  C5  UNL d   1      -1.997  -1.741   0.733  0.00  0.00     0.000 A 
ATOM      5  C6  UNL d   1      -1.541  -0.711  -0.089  0.00  0.00     0.000 A 
ATOM      6  C7  UNL d   1      -0.178  -0.374  -0.136  0.00  0.00    -0.073 A 
ATOM      7  C8  UNL d   1       0.258   0.750  -1.036  0.00  0.00     0.078 C 
ENDROOT
BRANCH   1   8
ATOM      8  C1  UNL d   1       2.206  -0.738   0.726  0.00  0.00     0.053 C 
ATOM      9  C   UNL d   1       2.506   0.481   1.586  0.00  0.00     0.018 C 
ENDBRANCH   1   8
TORSDOF 1
ENDMDL
