MODEL 1
REMARK minimizedAffinity -0.471907198
REMARK minimizedRMSD -1
REMARK  1 active torsions:
REMARK  status: ('A' for Active; 'I' for Inactive)
REMARK    1  A    between atoms: C1_2  and  C2_3 
ROOT
ATOM      1  C2  UNL d   1       1.712  -1.047  -1.325  0.00  0.00    -0.081 A 
ATOM      2  C3  UNL d   1       1.723   0.323  -1.032  0.00  0.00     0.006 A 
ATOM      3  C4  UNL d   1       1.423   0.774   0.255  0.00  0.00     0.002 A 
ATOM      4  C5  UNL d   1       1.116  -0.136   1.273  0.00  0.00    -0.080 A 
ATOM      5  C6  UNL d   1       0.823   0.333   2.667  0.00  0.00     0.076 C 
ATOM      6  C7  UNL d   1       1.089  -1.503   0.976  0.00  0.00     0.002 A 
ATOM      7  C8  UNL d   1       1.387  -1.955  -0.311  0.00  0.00     0.006 A 
ENDROOT
BRANCH   1   8
ATOM      8  C1  UNL d   1       2.098  -1.540  -2.696  0.00  0.00     0.054 C 
ATOM      9  C   UNL d   1       0.922  -2.207  -3.395  0.00  0.00     0.018 C 
ENDBRANCH   1   8
TORSDOF 1
ENDMDL
