MODEL 1
REMARK minimizedAffinity 5.6059556
REMARK minimizedRMSD -1
REMARK  1 active torsions:
REMARK  status: ('A' for Active; 'I' for Inactive)
REMARK    1  A    between atoms: C1_2  and  C2_3 
ROOT
ATOM      1  C2  UNL d   1       0.231  -0.898   1.798  0.00  0.00    -0.081 A 
ATOM      2  C3  UNL d   1      -0.137  -2.249   1.758  0.00  0.00     0.006 A 
ATOM      3  C4  UNL d   1      -1.417  -2.646   2.150  0.00  0.00     0.002 A 
ATOM      4  C5  UNL d   1      -2.353  -1.700   2.580  0.00  0.00    -0.080 A 
ATOM      5  C6  UNL d   1      -3.741  -2.110   2.975  0.00  0.00     0.076 C 
ATOM      6  C7  UNL d   1      -1.981  -0.353   2.637  0.00  0.00     0.002 A 
ATOM      7  C8  UNL d   1      -0.700   0.045   2.246  0.00  0.00     0.006 A 
ENDROOT
BRANCH   1   8
ATOM      8  C1  UNL d   1       1.590  -0.459   1.315  0.00  0.00     0.054 C 
ATOM      9  C   UNL d   1       2.061  -1.307   0.142  0.00  0.00     0.018 C 
ENDBRANCH   1   8
TORSDOF 1
ENDMDL
