MODEL 1
REMARK minimizedAffinity 3.52789617
REMARK minimizedRMSD -1
REMARK  1 active torsions:
REMARK  status: ('A' for Active; 'I' for Inactive)
REMARK    1  A    between atoms: C1_2  and  C2_3 
ROOT
ATOM      1  C2  UNL d   1       3.078   0.277  -1.549  0.00  0.00    -0.081 A 
ATOM      2  C3  UNL d   1       2.026   1.112  -1.155  0.00  0.00     0.006 A 
ATOM      3  C4  UNL d   1       1.149   0.717  -0.142  0.00  0.00     0.002 A 
ATOM      4  C5  UNL d   1       1.314  -0.516   0.498  0.00  0.00    -0.080 A 
ATOM      5  C6  UNL d   1       0.398  -0.940   1.608  0.00  0.00     0.076 C 
ATOM      6  C7  UNL d   1       2.355  -1.359   0.092  0.00  0.00     0.002 A 
ATOM      7  C8  UNL d   1       3.231  -0.964  -0.921  0.00  0.00     0.006 A 
ENDROOT
BRANCH   1   8
ATOM      8  C1  UNL d   1       4.064   0.728  -2.596  0.00  0.00     0.054 C 
ATOM      9  C   UNL d   1       5.067  -0.370  -2.922  0.00  0.00     0.018 C 
ENDBRANCH   1   8
TORSDOF 1
ENDMDL
