MODEL 1
REMARK minimizedAffinity 6.38995695
REMARK minimizedRMSD -1
REMARK  1 active torsions:
REMARK  status: ('A' for Active; 'I' for Inactive)
REMARK    1  A    between atoms: C1_2  and  C2_3 
ROOT
ATOM      1  C2  UNL d   1      -0.923   4.167  -3.226  0.00  0.00    -0.081 A 
ATOM      2  C3  UNL d   1      -2.044   3.392  -3.550  0.00  0.00     0.006 A 
ATOM      3  C4  UNL d   1      -1.897   2.050  -3.908  0.00  0.00     0.002 A 
ATOM      4  C5  UNL d   1      -0.629   1.459  -3.941  0.00  0.00    -0.080 A 
ATOM      5  C6  UNL d   1      -0.461   0.011  -4.295  0.00  0.00     0.076 C 
ATOM      6  C7  UNL d   1       0.492   2.237  -3.635  0.00  0.00     0.002 A 
ATOM      7  C8  UNL d   1       0.346   3.580  -3.278  0.00  0.00     0.006 A 
ENDROOT
BRANCH   1   8
ATOM      8  C1  UNL d   1      -1.084   5.597  -2.777  0.00  0.00     0.054 C 
ATOM      9  C   UNL d   1      -0.643   5.775  -1.331  0.00  0.00     0.018 C 
ENDBRANCH   1   8
TORSDOF 1
ENDMDL
