MODEL 1
REMARK minimizedAffinity 2.9722085
REMARK minimizedRMSD -1
REMARK  1 active torsions:
REMARK  status: ('A' for Active; 'I' for Inactive)
REMARK    1  A    between atoms: C1_2  and  C2_3 
ROOT
ATOM      1  C2  UNL d   1       2.221  -1.268  -1.000  0.00  0.00    -0.081 A 
ATOM      2  C3  UNL d   1       2.276   0.119  -0.814  0.00  0.00     0.006 A 
ATOM      3  C4  UNL d   1       1.452   0.740   0.128  0.00  0.00     0.002 A 
ATOM      4  C5  UNL d   1       0.567  -0.015   0.905  0.00  0.00    -0.080 A 
ATOM      5  C6  UNL d   1      -0.300   0.635   1.941  0.00  0.00     0.076 C 
ATOM      6  C7  UNL d   1       0.500  -1.399   0.707  0.00  0.00     0.002 A 
ATOM      7  C8  UNL d   1       1.323  -2.020  -0.235  0.00  0.00     0.006 A 
ENDROOT
BRANCH   1   8
ATOM      8  C1  UNL d   1       3.154  -1.949  -1.969  0.00  0.00     0.054 C 
ATOM      9  C   UNL d   1       4.391  -1.103  -2.233  0.00  0.00     0.018 C 
ENDBRANCH   1   8
TORSDOF 1
ENDMDL
