MODEL 1
REMARK minimizedAffinity 3.80155683
REMARK minimizedRMSD -1
REMARK  1 active torsions:
REMARK  status: ('A' for Active; 'I' for Inactive)
REMARK    1  A    between atoms: C1_2  and  C2_3 
ROOT
ATOM      1  C2  UNL d   1       0.531  -0.631   1.592  0.00  0.00    -0.081 A 
ATOM      2  C3  UNL d   1       0.948   0.700   1.723  0.00  0.00     0.006 A 
ATOM      3  C4  UNL d   1       1.707   1.306   0.719  0.00  0.00     0.002 A 
ATOM      4  C5  UNL d   1       2.054   0.595  -0.435  0.00  0.00    -0.080 A 
ATOM      5  C6  UNL d   1       2.842   1.243  -1.535  0.00  0.00     0.076 C 
ATOM      6  C7  UNL d   1       1.652  -0.739  -0.558  0.00  0.00     0.002 A 
ATOM      7  C8  UNL d   1       0.894  -1.346   0.446  0.00  0.00     0.006 A 
ENDROOT
BRANCH   1   8
ATOM      8  C1  UNL d   1      -0.342  -1.267   2.644  0.00  0.00     0.054 C 
ATOM      9  C   UNL d   1      -1.761  -1.471   2.135  0.00  0.00     0.018 C 
ENDBRANCH   1   8
TORSDOF 1
ENDMDL
