MODEL 1
REMARK minimizedAffinity 6.92012548
REMARK minimizedRMSD -1
REMARK  1 active torsions:
REMARK  status: ('A' for Active; 'I' for Inactive)
REMARK    1  A    between atoms: C1_2  and  C2_3 
ROOT
ATOM      1  C2  UNL d   1      -1.120   3.991  -3.222  0.00  0.00    -0.081 A 
ATOM      2  C3  UNL d   1      -2.173   3.076  -3.344  0.00  0.00     0.006 A 
ATOM      3  C4  UNL d   1      -1.922   1.753  -3.715  0.00  0.00     0.002 A 
ATOM      4  C5  UNL d   1      -0.614   1.321  -3.961  0.00  0.00    -0.080 A 
ATOM      5  C6  UNL d   1      -0.328  -0.105  -4.330  0.00  0.00     0.076 C 
ATOM      6  C7  UNL d   1       0.436   2.239  -3.857  0.00  0.00     0.002 A 
ATOM      7  C8  UNL d   1       0.185   3.562  -3.487  0.00  0.00     0.006 A 
ENDROOT
BRANCH   1   8
ATOM      8  C1  UNL d   1      -1.381   5.402  -2.760  0.00  0.00     0.054 C 
ATOM      9  C   UNL d   1      -1.326   5.506  -1.243  0.00  0.00     0.018 C 
ENDBRANCH   1   8
TORSDOF 1
ENDMDL
