MODEL 1
REMARK minimizedAffinity 3.55672979
REMARK minimizedRMSD -1
REMARK  1 active torsions:
REMARK  status: ('A' for Active; 'I' for Inactive)
REMARK    1  A    between atoms: C1_2  and  C2_3 
ROOT
ATOM      1  C2  UNL d   1      -0.927   4.019  -3.560  0.00  0.00    -0.081 A 
ATOM      2  C3  UNL d   1      -2.069   3.210  -3.600  0.00  0.00     0.006 A 
ATOM      3  C4  UNL d   1      -1.996   1.905  -4.094  0.00  0.00     0.002 A 
ATOM      4  C5  UNL d   1      -0.779   1.385  -4.548  0.00  0.00    -0.080 A 
ATOM      5  C6  UNL d   1      -0.680  -0.024  -5.052  0.00  0.00     0.076 C 
ATOM      6  C7  UNL d   1       0.359   2.200  -4.524  0.00  0.00     0.002 A 
ATOM      7  C8  UNL d   1       0.286   3.504  -4.031  0.00  0.00     0.006 A 
ENDROOT
BRANCH   1   8
ATOM      8  C1  UNL d   1      -0.990   5.404  -2.969  0.00  0.00     0.054 C 
ATOM      9  C   UNL d   1      -1.078   5.354  -1.450  0.00  0.00     0.018 C 
ENDBRANCH   1   8
TORSDOF 1
ENDMDL
