MODEL 1
REMARK minimizedAffinity 7.22007608
REMARK minimizedRMSD -1
REMARK  0 active torsions:
REMARK  status: ('A' for Active; 'I' for Inactive)
ROOT
ATOM      1  C4' PXY d   1       0.883  -0.040   3.484  0.00  0.00     0.077 C 
ATOM      2  C1' PXY d   1      -0.180   0.602  -2.161  0.00  0.00     0.077 C 
ATOM      3  C1  PXY d   1       0.104   0.422  -0.683  0.00  0.00    -0.082 A 
ATOM      4  C2  PXY d   1      -0.640   1.057   0.208  0.00  0.00     0.003 A 
ATOM      5  C3  PXY d   1      -0.376   0.931   1.548  0.00  0.00     0.003 A 
ATOM      6  C4  PXY d   1       0.626   0.105   1.982  0.00  0.00    -0.082 A 
ATOM      7  C5  PXY d   1       1.383  -0.555   1.079  0.00  0.00     0.003 A 
ATOM      8  C6  PXY d   1       1.125  -0.381  -0.278  0.00  0.00     0.003 A 
ENDROOT
TORSDOF 0
ENDMDL
