MODEL 1
REMARK minimizedAffinity 10.3609571
REMARK minimizedRMSD -1
REMARK  0 active torsions:
REMARK  status: ('A' for Active; 'I' for Inactive)
ROOT
ATOM      1  C4' PXY d   1       1.091  -0.018   3.247  0.00  0.00     0.077 C 
ATOM      2  C1' PXY d   1      -0.452   0.374  -2.310  0.00  0.00     0.077 C 
ATOM      3  C1  PXY d   1      -0.044   0.259  -0.854  0.00  0.00    -0.082 A 
ATOM      4  C2  PXY d   1      -0.582   1.069   0.042  0.00  0.00     0.003 A 
ATOM      5  C3  PXY d   1      -0.201   1.000   1.358  0.00  0.00     0.003 A 
ATOM      6  C4  PXY d   1       0.702   0.056   1.768  0.00  0.00    -0.082 A 
ATOM      7  C5  PXY d   1       1.248  -0.782   0.862  0.00  0.00     0.003 A 
ATOM      8  C6  PXY d   1       0.878  -0.668  -0.475  0.00  0.00     0.003 A 
ENDROOT
TORSDOF 0
ENDMDL
