MODEL 1
REMARK minimizedAffinity 1.32092285
REMARK minimizedRMSD -1
REMARK  0 active torsions:
REMARK  status: ('A' for Active; 'I' for Inactive)
ROOT
ATOM      1  C4' PXY d   1      -1.666   1.919  -1.601  0.00  0.00     0.077 C 
ATOM      2  C1' PXY d   1       2.113  -0.722   1.886  0.00  0.00     0.077 C 
ATOM      3  C1  PXY d   1       1.130  -0.030   0.961  0.00  0.00    -0.082 A 
ATOM      4  C2  PXY d   1       0.210   0.774   1.468  0.00  0.00     0.003 A 
ATOM      5  C3  PXY d   1      -0.707   1.382   0.650  0.00  0.00     0.003 A 
ATOM      6  C4  PXY d   1      -0.648   1.208  -0.707  0.00  0.00    -0.082 A 
ATOM      7  C5  PXY d   1       0.295   0.397  -1.233  0.00  0.00     0.003 A 
ATOM      8  C6  PXY d   1       1.190  -0.244  -0.381  0.00  0.00     0.003 A 
ENDROOT
TORSDOF 0
ENDMDL
