MODEL 1
REMARK minimizedAffinity 3.31130242
REMARK minimizedRMSD -1
REMARK  0 active torsions:
REMARK  status: ('A' for Active; 'I' for Inactive)
ROOT
ATOM      1  C4' PXY d   1      -2.928  -1.231  -2.557  0.00  0.00     0.077 C 
ATOM      2  C1' PXY d   1      -4.673   3.503  -5.377  0.00  0.00     0.077 C 
ATOM      3  C1  PXY d   1      -4.224   2.254  -4.644  0.00  0.00    -0.082 A 
ATOM      4  C2  PXY d   1      -3.661   2.363  -3.451  0.00  0.00     0.003 A 
ATOM      5  C3  PXY d   1      -3.220   1.246  -2.789  0.00  0.00     0.003 A 
ATOM      6  C4  PXY d   1      -3.405   0.002  -3.329  0.00  0.00    -0.082 A 
ATOM      7  C5  PXY d   1      -3.989  -0.118  -4.540  0.00  0.00     0.003 A 
ATOM      8  C6  PXY d   1      -4.392   1.031  -5.215  0.00  0.00     0.003 A 
ENDROOT
TORSDOF 0
ENDMDL
