MODEL 1
REMARK minimizedAffinity -3.18201113
REMARK minimizedRMSD -1
REMARK  0 active torsions:
REMARK  status: ('A' for Active; 'I' for Inactive)
ROOT
ATOM      1  C4' PXY d   1       0.638   1.928   2.510  0.00  0.00     0.077 C 
ATOM      2  C1' PXY d   1      -0.476   0.079  -2.852  0.00  0.00     0.077 C 
ATOM      3  C1  PXY d   1      -0.186   0.552  -1.441  0.00  0.00    -0.082 A 
ATOM      4  C2  PXY d   1      -0.269   1.841  -1.154  0.00  0.00     0.003 A 
ATOM      5  C3  PXY d   1       0.020   2.289   0.109  0.00  0.00     0.003 A 
ATOM      6  C4  PXY d   1       0.346   1.404   1.101  0.00  0.00    -0.082 A 
ATOM      7  C5  PXY d   1       0.421   0.086   0.819  0.00  0.00     0.003 A 
ATOM      8  C6  PXY d   1       0.164  -0.345  -0.480  0.00  0.00     0.003 A 
ENDROOT
TORSDOF 0
ENDMDL
