MODEL 1
REMARK minimizedAffinity 4.69966936
REMARK minimizedRMSD -1
REMARK  0 active torsions:
REMARK  status: ('A' for Active; 'I' for Inactive)
ROOT
ATOM      1  C4' PXY d   1       2.149  -1.998  -0.968  0.00  0.00     0.077 C 
ATOM      2  C1' PXY d   1      -0.837   2.362   1.376  0.00  0.00     0.077 C 
ATOM      3  C1  PXY d   1      -0.061   1.220   0.750  0.00  0.00    -0.082 A 
ATOM      4  C2  PXY d   1       0.540   0.334   1.528  0.00  0.00     0.003 A 
ATOM      5  C3  PXY d   1       1.272  -0.687   0.979  0.00  0.00     0.003 A 
ATOM      6  C4  PXY d   1       1.346  -0.834  -0.380  0.00  0.00    -0.082 A 
ATOM      7  C5  PXY d   1       0.727   0.060  -1.181  0.00  0.00     0.003 A 
ATOM      8  C6  PXY d   1       0.023   1.113  -0.604  0.00  0.00     0.003 A 
ENDROOT
TORSDOF 0
ENDMDL
