MODEL 1
REMARK minimizedAffinity 0.957826912
REMARK minimizedRMSD -1
REMARK  0 active torsions:
REMARK  status: ('A' for Active; 'I' for Inactive)
ROOT
ATOM      1  C4' PXY d   1       0.086   1.298  -1.298  0.00  0.00     0.077 C 
ATOM      2  C1' PXY d   1       1.959  -0.752   3.772  0.00  0.00     0.077 C 
ATOM      3  C1  PXY d   1       1.460  -0.206   2.449  0.00  0.00    -0.082 A 
ATOM      4  C2  PXY d   1       1.577  -0.939   1.353  0.00  0.00     0.003 A 
ATOM      5  C3  PXY d   1       1.160  -0.448   0.143  0.00  0.00     0.003 A 
ATOM      6  C4  PXY d   1       0.568   0.784   0.061  0.00  0.00    -0.082 A 
ATOM      7  C5  PXY d   1       0.435   1.533   1.177  0.00  0.00     0.003 A 
ATOM      8  C6  PXY d   1       0.902   1.034   2.389  0.00  0.00     0.003 A 
ENDROOT
TORSDOF 0
ENDMDL
