MODEL 1
REMARK minimizedAffinity 7.29445887
REMARK minimizedRMSD -1
REMARK  0 active torsions:
REMARK  status: ('A' for Active; 'I' for Inactive)
ROOT
ATOM      1  C4' PXY d   1      -5.973  -3.371   4.520  0.00  0.00     0.077 C 
ATOM      2  C1' PXY d   1      -5.979   0.763   0.480  0.00  0.00     0.077 C 
ATOM      3  C1  PXY d   1      -5.983  -0.329   1.531  0.00  0.00    -0.082 A 
ATOM      4  C2  PXY d   1      -5.978  -0.003   2.813  0.00  0.00     0.003 A 
ATOM      5  C3  PXY d   1      -5.949  -0.979   3.776  0.00  0.00     0.003 A 
ATOM      6  C4  PXY d   1      -5.979  -2.302   3.424  0.00  0.00    -0.082 A 
ATOM      7  C5  PXY d   1      -5.994  -2.642   2.118  0.00  0.00     0.003 A 
ATOM      8  C6  PXY d   1      -5.981  -1.637   1.155  0.00  0.00     0.003 A 
ENDROOT
TORSDOF 0
ENDMDL
