MODEL 1
REMARK minimizedAffinity 2.65625739
REMARK minimizedRMSD -1
REMARK  0 active torsions:
REMARK  status: ('A' for Active; 'I' for Inactive)
ROOT
ATOM      1  C4' PXY d   1       3.180  -0.918   2.545  0.00  0.00     0.077 C 
ATOM      2  C1' PXY d   1      -0.642   1.862  -0.784  0.00  0.00     0.077 C 
ATOM      3  C1  PXY d   1       0.359   1.142   0.098  0.00  0.00    -0.082 A 
ATOM      4  C2  PXY d   1       1.269   0.355  -0.452  0.00  0.00     0.003 A 
ATOM      5  C3  PXY d   1       2.161  -0.329   0.333  0.00  0.00     0.003 A 
ATOM      6  C4  PXY d   1       2.156  -0.164   1.692  0.00  0.00    -0.082 A 
ATOM      7  C5  PXY d   1       1.237   0.645   2.261  0.00  0.00     0.003 A 
ATOM      8  C6  PXY d   1       0.314   1.299   1.449  0.00  0.00     0.003 A 
ENDROOT
TORSDOF 0
ENDMDL
