MODEL 1
REMARK minimizedAffinity 2.88817191
REMARK minimizedRMSD -1
REMARK  0 active torsions:
REMARK  status: ('A' for Active; 'I' for Inactive)
ROOT
ATOM      1  O1  BZF d   1       0.855  -0.401  -2.025  0.00  0.00    -0.204 OA
ATOM      2  C2  BZF d   1       1.681  -1.501  -1.897  0.00  0.00     0.174 A 
ATOM      3  C3  BZF d   1       1.858  -1.818  -0.598  0.00  0.00    -0.012 A 
ATOM      4  C3A BZF d   1       1.020  -0.913   0.128  0.00  0.00    -0.107 A 
ATOM      5  C4  BZF d   1       0.752  -0.742   1.456  0.00  0.00     0.055 A 
ATOM      6  C5  BZF d   1      -0.056   0.281   1.840  0.00  0.00    -0.016 A 
ATOM      7  C6  BZF d   1      -0.608   1.153   0.925  0.00  0.00     0.022 A 
ATOM      8  C7  BZF d   1      -0.375   1.020  -0.404  0.00  0.00     0.029 A 
ATOM      9  C7A BZF d   1       0.415  -0.032  -0.798  0.00  0.00     0.058 A 
ENDROOT
TORSDOF 0
ENDMDL
