MODEL 1
REMARK minimizedAffinity -1.00850523
REMARK minimizedRMSD -1
REMARK  0 active torsions:
REMARK  status: ('A' for Active; 'I' for Inactive)
ROOT
ATOM      1  O1  BZF d   1       3.743  -2.242  -3.011  0.00  0.00    -0.204 OA
ATOM      2  C2  BZF d   1       3.038  -2.809  -4.056  0.00  0.00     0.174 A 
ATOM      3  C3  BZF d   1       3.202  -4.147  -4.073  0.00  0.00    -0.012 A 
ATOM      4  C3A BZF d   1       3.988  -4.445  -2.916  0.00  0.00    -0.107 A 
ATOM      5  C4  BZF d   1       4.469  -5.606  -2.380  0.00  0.00     0.055 A 
ATOM      6  C5  BZF d   1       5.266  -5.546  -1.281  0.00  0.00    -0.016 A 
ATOM      7  C6  BZF d   1       5.607  -4.344  -0.696  0.00  0.00     0.022 A 
ATOM      8  C7  BZF d   1       5.151  -3.167  -1.188  0.00  0.00     0.029 A 
ATOM      9  C7A BZF d   1       4.318  -3.226  -2.279  0.00  0.00     0.058 A 
ENDROOT
TORSDOF 0
ENDMDL
