MODEL 1
REMARK minimizedAffinity 1.44516051
REMARK minimizedRMSD -1
REMARK  0 active torsions:
REMARK  status: ('A' for Active; 'I' for Inactive)
ROOT
ATOM      1  O1  BZF d   1       3.801  -1.611  -1.454  0.00  0.00    -0.204 OA
ATOM      2  C2  BZF d   1       4.252  -1.588  -0.148  0.00  0.00     0.174 A 
ATOM      3  C3  BZF d   1       4.727  -2.797   0.216  0.00  0.00    -0.012 A 
ATOM      4  C3A BZF d   1       4.647  -3.603  -0.964  0.00  0.00    -0.107 A 
ATOM      5  C4  BZF d   1       4.985  -4.897  -1.241  0.00  0.00     0.055 A 
ATOM      6  C5  BZF d   1       4.712  -5.401  -2.473  0.00  0.00    -0.016 A 
ATOM      7  C6  BZF d   1       4.097  -4.643  -3.448  0.00  0.00     0.022 A 
ATOM      8  C7  BZF d   1       3.748  -3.353  -3.221  0.00  0.00     0.029 A 
ATOM      9  C7A BZF d   1       4.053  -2.830  -1.988  0.00  0.00     0.058 A 
ENDROOT
TORSDOF 0
ENDMDL
