MODEL 1
REMARK minimizedAffinity 3.62678051
REMARK minimizedRMSD -1
REMARK  0 active torsions:
REMARK  status: ('A' for Active; 'I' for Inactive)
ROOT
ATOM      1  O1  BZF d   1       0.468   2.326  -1.547  0.00  0.00    -0.204 OA
ATOM      2  C2  BZF d   1      -0.384   1.538  -0.796  0.00  0.00     0.174 A 
ATOM      3  C3  BZF d   1      -1.162   2.300   0.000  0.00  0.00    -0.012 A 
ATOM      4  C3A BZF d   1      -0.837   3.651  -0.338  0.00  0.00    -0.107 A 
ATOM      5  C4  BZF d   1      -1.289   4.863   0.101  0.00  0.00     0.055 A 
ATOM      6  C5  BZF d   1      -0.713   5.996  -0.380  0.00  0.00    -0.016 A 
ATOM      7  C6  BZF d   1       0.319   5.955  -1.294  0.00  0.00     0.022 A 
ATOM      8  C7  BZF d   1       0.798   4.776  -1.763  0.00  0.00     0.029 A 
ATOM      9  C7A BZF d   1       0.195   3.630  -1.303  0.00  0.00     0.058 A 
ENDROOT
TORSDOF 0
ENDMDL
