MODEL 1
REMARK minimizedAffinity 0.326164246
REMARK minimizedRMSD -1
REMARK  0 active torsions:
REMARK  status: ('A' for Active; 'I' for Inactive)
ROOT
ATOM      1  O1  BZF d   1       2.188  -5.574  -1.944  0.00  0.00    -0.204 OA
ATOM      2  C2  BZF d   1       1.282  -5.204  -0.968  0.00  0.00     0.174 A 
ATOM      3  C3  BZF d   1       1.750  -4.161  -0.253  0.00  0.00    -0.012 A 
ATOM      4  C3A BZF d   1       2.987  -3.801  -0.875  0.00  0.00    -0.107 A 
ATOM      5  C4  BZF d   1       3.914  -2.829  -0.630  0.00  0.00     0.055 A 
ATOM      6  C5  BZF d   1       5.048  -2.795  -1.377  0.00  0.00    -0.016 A 
ATOM      7  C6  BZF d   1       5.290  -3.718  -2.374  0.00  0.00     0.022 A 
ATOM      8  C7  BZF d   1       4.397  -4.697  -2.657  0.00  0.00     0.029 A 
ATOM      9  C7A BZF d   1       3.235  -4.715  -1.926  0.00  0.00     0.058 A 
ENDROOT
TORSDOF 0
ENDMDL
