MODEL 1
REMARK minimizedAffinity -0.7620942
REMARK minimizedRMSD -1
REMARK  0 active torsions:
REMARK  status: ('A' for Active; 'I' for Inactive)
ROOT
ATOM      1  O1  BZF d   1       1.672  -5.062  -2.118  0.00  0.00    -0.204 OA
ATOM      2  C2  BZF d   1       1.081  -5.253  -0.884  0.00  0.00     0.174 A 
ATOM      3  C3  BZF d   1       1.900  -4.845   0.107  0.00  0.00    -0.012 A 
ATOM      4  C3A BZF d   1       3.039  -4.284  -0.553  0.00  0.00    -0.107 A 
ATOM      5  C4  BZF d   1       4.188  -3.698  -0.106  0.00  0.00     0.055 A 
ATOM      6  C5  BZF d   1       5.132  -3.322  -1.008  0.00  0.00    -0.016 A 
ATOM      7  C6  BZF d   1       4.962  -3.522  -2.363  0.00  0.00     0.022 A 
ATOM      8  C7  BZF d   1       3.837  -4.095  -2.854  0.00  0.00     0.029 A 
ATOM      9  C7A BZF d   1       2.867  -4.446  -1.947  0.00  0.00     0.058 A 
ENDROOT
TORSDOF 0
ENDMDL
