MODEL 1
REMARK minimizedAffinity 5.76002169
REMARK minimizedRMSD -1
REMARK  0 active torsions:
REMARK  status: ('A' for Active; 'I' for Inactive)
ROOT
ATOM      1  O1  BZF d   1       0.089   3.420  -1.809  0.00  0.00    -0.204 OA
ATOM      2  C2  BZF d   1       0.756   4.545  -1.365  0.00  0.00     0.174 A 
ATOM      3  C3  BZF d   1       0.840   4.551  -0.019  0.00  0.00    -0.012 A 
ATOM      4  C3A BZF d   1       0.265   3.310   0.400  0.00  0.00    -0.107 A 
ATOM      5  C4  BZF d   1       0.074   2.728   1.621  0.00  0.00     0.055 A 
ATOM      6  C5  BZF d   1      -0.583   1.540   1.691  0.00  0.00    -0.016 A 
ATOM      7  C6  BZF d   1      -1.067   0.911   0.563  0.00  0.00     0.022 A 
ATOM      8  C7  BZF d   1      -0.897   1.447  -0.671  0.00  0.00     0.029 A 
ATOM      9  C7A BZF d   1      -0.204   2.630  -0.748  0.00  0.00     0.058 A 
ENDROOT
TORSDOF 0
ENDMDL
