MODEL 1
REMARK minimizedAffinity 3.66486692
REMARK minimizedRMSD -1
REMARK  0 active torsions:
REMARK  status: ('A' for Active; 'I' for Inactive)
ROOT
ATOM      1  O1  BZF d   1      -4.699   3.650  -2.549  0.00  0.00    -0.204 OA
ATOM      2  C2  BZF d   1      -5.992   3.172  -2.459  0.00  0.00     0.174 A 
ATOM      3  C3  BZF d   1      -5.998   1.871  -2.103  0.00  0.00    -0.012 A 
ATOM      4  C3A BZF d   1      -4.625   1.539  -1.871  0.00  0.00    -0.107 A 
ATOM      5  C4  BZF d   1      -3.990   0.396  -1.476  0.00  0.00     0.055 A 
ATOM      6  C5  BZF d   1      -2.632   0.383  -1.416  0.00  0.00    -0.016 A 
ATOM      7  C6  BZF d   1      -1.880   1.490  -1.747  0.00  0.00     0.022 A 
ATOM      8  C7  BZF d   1      -2.465   2.648  -2.139  0.00  0.00     0.029 A 
ATOM      9  C7A BZF d   1      -3.838   2.675  -2.169  0.00  0.00     0.058 A 
ENDROOT
TORSDOF 0
ENDMDL
