MODEL 1
REMARK minimizedAffinity 8.85507774
REMARK minimizedRMSD -1
REMARK  0 active torsions:
REMARK  status: ('A' for Active; 'I' for Inactive)
ROOT
ATOM      1  O1  BZF d   1       0.231   2.772   1.515  0.00  0.00    -0.204 OA
ATOM      2  C2  BZF d   1      -0.082   1.429   1.597  0.00  0.00     0.174 A 
ATOM      3  C3  BZF d   1      -0.519   0.965   0.409  0.00  0.00    -0.012 A 
ATOM      4  C3A BZF d   1      -0.389   2.066  -0.495  0.00  0.00    -0.107 A 
ATOM      5  C4  BZF d   1      -0.648   2.223  -1.827  0.00  0.00     0.055 A 
ATOM      6  C5  BZF d   1      -0.482   3.448  -2.392  0.00  0.00    -0.016 A 
ATOM      7  C6  BZF d   1      -0.064   4.537  -1.656  0.00  0.00     0.022 A 
ATOM      8  C7  BZF d   1       0.210   4.429  -0.333  0.00  0.00     0.029 A 
ATOM      9  C7A BZF d   1       0.074   3.185   0.234  0.00  0.00     0.058 A 
ENDROOT
TORSDOF 0
ENDMDL
