MODEL 1
REMARK minimizedAffinity 8.96693325
REMARK minimizedRMSD -1
REMARK  0 active torsions:
REMARK  status: ('A' for Active; 'I' for Inactive)
ROOT
ATOM      1  O1  BZF d   1       0.394   4.652  -1.993  0.00  0.00    -0.204 OA
ATOM      2  C2  BZF d   1       0.747   5.743  -1.222  0.00  0.00     0.174 A 
ATOM      3  C3  BZF d   1       0.645   5.453   0.091  0.00  0.00    -0.012 A 
ATOM      4  C3A BZF d   1       0.289   4.069   0.145  0.00  0.00    -0.107 A 
ATOM      5  C4  BZF d   1       0.059   3.198   1.171  0.00  0.00     0.055 A 
ATOM      6  C5  BZF d   1      -0.342   1.931   0.885  0.00  0.00    -0.016 A 
ATOM      7  C6  BZF d   1      -0.528   1.504  -0.413  0.00  0.00     0.022 A 
ATOM      8  C7  BZF d   1      -0.307   2.330  -1.465  0.00  0.00     0.029 A 
ATOM      9  C7A BZF d   1       0.130   3.601  -1.180  0.00  0.00     0.058 A 
ENDROOT
TORSDOF 0
ENDMDL
