MODEL 1
REMARK minimizedAffinity -4.3698926
REMARK minimizedRMSD -1
REMARK  0 active torsions:
REMARK  status: ('A' for Active; 'I' for Inactive)
ROOT
ATOM      1  C   UNL d   1       4.381  -3.246   4.659  0.00  0.00     0.077 C 
ATOM      2  C1  UNL d   1       3.411  -3.118   3.521  0.00  0.00    -0.074 A 
ATOM      3  C2  UNL d   1       3.430  -4.024   2.456  0.00  0.00    -0.005 A 
ATOM      4  C3  UNL d   1       2.516  -3.898   1.410  0.00  0.00     0.006 A 
ATOM      5  C4  UNL d   1       1.576  -2.866   1.418  0.00  0.00    -0.005 A 
ATOM      6  C5  UNL d   1       1.542  -1.952   2.476  0.00  0.00    -0.074 A 
ATOM      7  C6  UNL d   1       0.532  -0.843   2.505  0.00  0.00     0.077 C 
ATOM      8  C7  UNL d   1       2.459  -2.089   3.527  0.00  0.00    -0.001 A 
ENDROOT
TORSDOF 0
ENDMDL
