MODEL 1
REMARK minimizedAffinity 9.53092957
REMARK minimizedRMSD -1
REMARK  0 active torsions:
REMARK  status: ('A' for Active; 'I' for Inactive)
ROOT
ATOM      1  C   UNL d   1      -0.527   4.205   0.311  0.00  0.00     0.077 C 
ATOM      2  C1  UNL d   1       0.577   3.918   1.285  0.00  0.00    -0.074 A 
ATOM      3  C2  UNL d   1       0.514   4.384   2.602  0.00  0.00    -0.005 A 
ATOM      4  C3  UNL d   1       1.544   4.101   3.499  0.00  0.00     0.006 A 
ATOM      5  C4  UNL d   1       2.646   3.351   3.089  0.00  0.00    -0.005 A 
ATOM      6  C5  UNL d   1       2.727   2.875   1.776  0.00  0.00    -0.074 A 
ATOM      7  C6  UNL d   1       3.900   2.059   1.321  0.00  0.00     0.077 C 
ATOM      8  C7  UNL d   1       1.684   3.158   0.883  0.00  0.00    -0.001 A 
ENDROOT
TORSDOF 0
ENDMDL
