MODEL 1
REMARK minimizedAffinity 0.46821329
REMARK minimizedRMSD -1
REMARK  0 active torsions:
REMARK  status: ('A' for Active; 'I' for Inactive)
ROOT
ATOM      1  C   UNL d   1       2.338  -3.077   0.342  0.00  0.00     0.077 C 
ATOM      2  C1  UNL d   1       3.515  -2.669   1.177  0.00  0.00    -0.074 A 
ATOM      3  C2  UNL d   1       4.629  -2.053   0.597  0.00  0.00    -0.005 A 
ATOM      4  C3  UNL d   1       5.713  -1.671   1.388  0.00  0.00     0.006 A 
ATOM      5  C4  UNL d   1       5.694  -1.901   2.764  0.00  0.00    -0.005 A 
ATOM      6  C5  UNL d   1       4.588  -2.515   3.362  0.00  0.00    -0.074 A 
ATOM      7  C6  UNL d   1       4.548  -2.760   4.841  0.00  0.00     0.077 C 
ATOM      8  C7  UNL d   1       3.501  -2.890   2.562  0.00  0.00    -0.001 A 
ENDROOT
TORSDOF 0
ENDMDL
