MODEL 1
REMARK minimizedAffinity 4.30137682
REMARK minimizedRMSD -1
REMARK  0 active torsions:
REMARK  status: ('A' for Active; 'I' for Inactive)
ROOT
ATOM      1  C   UNL d   1       6.000  -6.000  -1.519  0.00  0.00     0.077 C 
ATOM      2  C1  UNL d   1       5.277  -5.598  -0.267  0.00  0.00    -0.074 A 
ATOM      3  C2  UNL d   1       5.851  -5.805   0.992  0.00  0.00    -0.005 A 
ATOM      4  C3  UNL d   1       5.171  -5.417   2.146  0.00  0.00     0.006 A 
ATOM      5  C4  UNL d   1       3.913  -4.820   2.054  0.00  0.00    -0.005 A 
ATOM      6  C5  UNL d   1       3.325  -4.605   0.804  0.00  0.00    -0.074 A 
ATOM      7  C6  UNL d   1       1.978  -3.955   0.687  0.00  0.00     0.077 C 
ATOM      8  C7  UNL d   1       4.017  -4.990  -0.352  0.00  0.00    -0.001 A 
ENDROOT
TORSDOF 0
ENDMDL
