MODEL 1
REMARK minimizedAffinity 3.44273806
REMARK minimizedRMSD -1
REMARK  0 active torsions:
REMARK  status: ('A' for Active; 'I' for Inactive)
ROOT
ATOM      1  C   UNL d   1      -4.470   1.460  -5.959  0.00  0.00     0.077 C 
ATOM      2  C1  UNL d   1      -3.685   0.410  -5.230  0.00  0.00    -0.074 A 
ATOM      3  C2  UNL d   1      -3.391   0.547  -3.870  0.00  0.00    -0.005 A 
ATOM      4  C3  UNL d   1      -2.668  -0.442  -3.203  0.00  0.00     0.006 A 
ATOM      5  C4  UNL d   1      -2.231  -1.576  -3.889  0.00  0.00    -0.005 A 
ATOM      6  C5  UNL d   1      -2.516  -1.731  -5.250  0.00  0.00    -0.074 A 
ATOM      7  C6  UNL d   1      -2.063  -2.948  -6.000  0.00  0.00     0.077 C 
ATOM      8  C7  UNL d   1      -3.250  -0.736  -5.911  0.00  0.00    -0.001 A 
ENDROOT
TORSDOF 0
ENDMDL
