MODEL 1
REMARK minimizedAffinity 7.69228458
REMARK minimizedRMSD -1
REMARK  0 active torsions:
REMARK  status: ('A' for Active; 'I' for Inactive)
ROOT
ATOM      1  C   UNL d   1       3.337  -4.321   1.316  0.00  0.00     0.077 C 
ATOM      2  C1  UNL d   1       2.476  -3.099   1.197  0.00  0.00    -0.074 A 
ATOM      3  C2  UNL d   1       2.613  -2.224   0.115  0.00  0.00    -0.005 A 
ATOM      4  C3  UNL d   1       1.798  -1.097   0.013  0.00  0.00     0.006 A 
ATOM      5  C4  UNL d   1       0.839  -0.833   0.992  0.00  0.00    -0.005 A 
ATOM      6  C5  UNL d   1       0.687  -1.696   2.082  0.00  0.00    -0.074 A 
ATOM      7  C6  UNL d   1      -0.345  -1.433   3.137  0.00  0.00     0.077 C 
ATOM      8  C7  UNL d   1       1.505  -2.831   2.173  0.00  0.00    -0.001 A 
ENDROOT
TORSDOF 0
ENDMDL
