MODEL 1
REMARK minimizedAffinity -0.878849745
REMARK minimizedRMSD -1
REMARK  0 active torsions:
REMARK  status: ('A' for Active; 'I' for Inactive)
ROOT
ATOM      1  C   UNL d   1       5.999   2.640  -3.362  0.00  0.00     0.020 A 
ATOM      2  C1  UNL d   1       5.413   1.424  -3.711  0.00  0.00     0.020 A 
ATOM      3  C2  UNL d   1       4.063   1.375  -4.063  0.00  0.00     0.034 A 
ATOM      4  C3  UNL d   1       3.293   2.544  -4.066  0.00  0.00     0.017 A 
ATOM      5  C4  UNL d   1       3.882   3.765  -3.716  0.00  0.00     0.017 A 
ATOM      6  C5  UNL d   1       5.235   3.808  -3.365  0.00  0.00     0.034 A 
ATOM      7 Cl   UNL d   1       2.998   5.249  -3.698  0.00  0.00    -0.070 Cl
ATOM      8 Cl1  UNL d   1       1.630   2.410  -4.512  0.00  0.00    -0.070 Cl
ENDROOT
TORSDOF 0
ENDMDL
