MODEL 1
REMARK minimizedAffinity 12.8156748
REMARK minimizedRMSD -1
REMARK  0 active torsions:
REMARK  status: ('A' for Active; 'I' for Inactive)
ROOT
ATOM      1  C   UNL d   1       0.265   5.999   0.769  0.00  0.00     0.020 A 
ATOM      2  C1  UNL d   1      -0.608   5.550  -0.220  0.00  0.00     0.020 A 
ATOM      3  C2  UNL d   1      -0.593   4.208  -0.609  0.00  0.00     0.034 A 
ATOM      4  C3  UNL d   1       0.298   3.312  -0.007  0.00  0.00     0.017 A 
ATOM      5  C4  UNL d   1       1.174   3.764   0.986  0.00  0.00     0.017 A 
ATOM      6  C5  UNL d   1       1.154   5.108   1.371  0.00  0.00     0.034 A 
ATOM      7 Cl   UNL d   1       2.302   2.717   1.774  0.00  0.00    -0.070 Cl
ATOM      8 Cl1  UNL d   1       0.262   1.667  -0.536  0.00  0.00    -0.070 Cl
ENDROOT
TORSDOF 0
ENDMDL
