MODEL 1
REMARK minimizedAffinity 10.1549492
REMARK minimizedRMSD -1
REMARK  0 active torsions:
REMARK  status: ('A' for Active; 'I' for Inactive)
ROOT
ATOM      1  C   UNL d   1      -1.950  -4.523  -0.745  0.00  0.00     0.020 A 
ATOM      2  C1  UNL d   1      -2.106  -3.172  -1.053  0.00  0.00     0.020 A 
ATOM      3  C2  UNL d   1      -3.364  -2.675  -1.398  0.00  0.00     0.034 A 
ATOM      4  C3  UNL d   1      -4.473  -3.529  -1.434  0.00  0.00     0.017 A 
ATOM      5  C4  UNL d   1      -4.315  -4.885  -1.124  0.00  0.00     0.017 A 
ATOM      6  C5  UNL d   1      -3.053  -5.377  -0.780  0.00  0.00     0.034 A 
ATOM      7 Cl   UNL d   1      -5.636  -6.000  -1.148  0.00  0.00    -0.070 Cl
ATOM      8 Cl1  UNL d   1      -5.999  -2.846  -1.868  0.00  0.00    -0.070 Cl
ENDROOT
TORSDOF 0
ENDMDL
