MODEL 1
REMARK minimizedAffinity 7.29717207
REMARK minimizedRMSD -1
REMARK  0 active torsions:
REMARK  status: ('A' for Active; 'I' for Inactive)
ROOT
ATOM      1  C   UNL d   1       1.026   2.466   1.170  0.00  0.00     0.020 A 
ATOM      2  C1  UNL d   1       2.087   2.681   0.291  0.00  0.00     0.020 A 
ATOM      3  C2  UNL d   1       2.085   2.073  -0.966  0.00  0.00     0.034 A 
ATOM      4  C3  UNL d   1       1.021   1.248  -1.348  0.00  0.00     0.017 A 
ATOM      5  C4  UNL d   1      -0.043   1.033  -0.465  0.00  0.00     0.017 A 
ATOM      6  C5  UNL d   1      -0.037   1.644   0.793  0.00  0.00     0.034 A 
ATOM      7 Cl   UNL d   1      -1.391   0.028  -0.865  0.00  0.00    -0.070 Cl
ATOM      8 Cl1  UNL d   1       1.085   0.529  -2.918  0.00  0.00    -0.070 Cl
ENDROOT
TORSDOF 0
ENDMDL
