MODEL 1
REMARK minimizedAffinity -1.95649791
REMARK minimizedRMSD -1
REMARK  0 active torsions:
REMARK  status: ('A' for Active; 'I' for Inactive)
ROOT
ATOM      1  C   UNL d   1       0.778  -2.090   0.464  0.00  0.00     0.020 A 
ATOM      2  C1  UNL d   1       0.971  -2.588  -0.825  0.00  0.00     0.020 A 
ATOM      3  C2  UNL d   1       0.901  -1.728  -1.923  0.00  0.00     0.034 A 
ATOM      4  C3  UNL d   1       0.637  -0.367  -1.735  0.00  0.00     0.017 A 
ATOM      5  C4  UNL d   1       0.443   0.132  -0.442  0.00  0.00     0.017 A 
ATOM      6  C5  UNL d   1       0.515  -0.734   0.654  0.00  0.00     0.034 A 
ATOM      7 Cl   UNL d   1       0.113   1.800  -0.131  0.00  0.00    -0.070 Cl
ATOM      8 Cl1  UNL d   1       0.564   0.639  -3.138  0.00  0.00    -0.070 Cl
ENDROOT
TORSDOF 0
ENDMDL
