MODEL 1
REMARK minimizedAffinity 4.15848303
REMARK minimizedRMSD -1
REMARK  0 active torsions:
REMARK  status: ('A' for Active; 'I' for Inactive)
ROOT
ATOM      1  C   UNL d   1       0.873  -0.092  -2.122  0.00  0.00     0.020 A 
ATOM      2  C1  UNL d   1       1.492  -1.341  -2.168  0.00  0.00     0.020 A 
ATOM      3  C2  UNL d   1       1.115  -2.340  -1.268  0.00  0.00     0.034 A 
ATOM      4  C3  UNL d   1       0.117  -2.092  -0.318  0.00  0.00     0.017 A 
ATOM      5  C4  UNL d   1      -0.503  -0.838  -0.273  0.00  0.00     0.017 A 
ATOM      6  C5  UNL d   1      -0.122   0.159  -1.177  0.00  0.00     0.034 A 
ATOM      7 Cl   UNL d   1      -1.742  -0.458   0.870  0.00  0.00    -0.070 Cl
ATOM      8 Cl1  UNL d   1      -0.299  -3.373   0.763  0.00  0.00    -0.070 Cl
ENDROOT
TORSDOF 0
ENDMDL
