MODEL 1
REMARK minimizedAffinity -2.39728451
REMARK minimizedRMSD -1
REMARK  0 active torsions:
REMARK  status: ('A' for Active; 'I' for Inactive)
ROOT
ATOM      1  C   UNL d   1      -0.114   1.489  -0.955  0.00  0.00     0.020 A 
ATOM      2  C1  UNL d   1      -0.743   0.958   0.170  0.00  0.00     0.020 A 
ATOM      3  C2  UNL d   1      -0.631  -0.405   0.454  0.00  0.00     0.034 A 
ATOM      4  C3  UNL d   1       0.111  -1.241  -0.388  0.00  0.00     0.017 A 
ATOM      5  C4  UNL d   1       0.742  -0.706  -1.518  0.00  0.00     0.017 A 
ATOM      6  C5  UNL d   1       0.627   0.659  -1.797  0.00  0.00     0.034 A 
ATOM      7 Cl   UNL d   1       1.675  -1.675  -2.603  0.00  0.00    -0.070 Cl
ATOM      8 Cl1  UNL d   1       0.207  -2.916   0.024  0.00  0.00    -0.070 Cl
ENDROOT
TORSDOF 0
ENDMDL
