MODEL 1
REMARK minimizedAffinity -0.251571476
REMARK minimizedRMSD -1
REMARK  0 active torsions:
REMARK  status: ('A' for Active; 'I' for Inactive)
ROOT
ATOM      1  C   UNL d   1       0.999   0.451  -2.308  0.00  0.00     0.020 A 
ATOM      2  C1  UNL d   1       1.778  -0.695  -2.467  0.00  0.00     0.020 A 
ATOM      3  C2  UNL d   1       1.601  -1.783  -1.610  0.00  0.00     0.034 A 
ATOM      4  C3  UNL d   1       0.643  -1.729  -0.591  0.00  0.00     0.017 A 
ATOM      5  C4  UNL d   1      -0.138  -0.578  -0.433  0.00  0.00     0.017 A 
ATOM      6  C5  UNL d   1       0.043   0.509  -1.293  0.00  0.00     0.034 A 
ATOM      7 Cl   UNL d   1      -1.340  -0.437   0.801  0.00  0.00    -0.070 Cl
ATOM      8 Cl1  UNL d   1       0.478  -3.112   0.432  0.00  0.00    -0.070 Cl
ENDROOT
TORSDOF 0
ENDMDL
