MODEL 1
REMARK minimizedAffinity 0.828565776
REMARK minimizedRMSD -1
REMARK  0 active torsions:
REMARK  status: ('A' for Active; 'I' for Inactive)
ROOT
ATOM      1  C   UNL d   1       1.360  -2.529  -1.086  0.00  0.00     0.020 A 
ATOM      2  C1  UNL d   1       0.600  -1.826  -0.153  0.00  0.00     0.020 A 
ATOM      3  C2  UNL d   1       0.188  -0.520  -0.429  0.00  0.00     0.034 A 
ATOM      4  C3  UNL d   1       0.536   0.086  -1.641  0.00  0.00     0.017 A 
ATOM      5  C4  UNL d   1       1.300  -0.620  -2.577  0.00  0.00     0.017 A 
ATOM      6  C5  UNL d   1       1.709  -1.927  -2.296  0.00  0.00     0.034 A 
ATOM      7 Cl   UNL d   1       1.769   0.061  -4.095  0.00  0.00    -0.070 Cl
ATOM      8 Cl1  UNL d   1      -0.007   1.703  -1.916  0.00  0.00    -0.070 Cl
ENDROOT
TORSDOF 0
ENDMDL
