MODEL 1
REMARK minimizedAffinity -3.83616447
REMARK minimizedRMSD -1
REMARK  0 active torsions:
REMARK  status: ('A' for Active; 'I' for Inactive)
ROOT
ATOM      1  C   UNL d   1       1.608  -0.759  -1.323  0.00  0.00     0.020 A 
ATOM      2  C1  UNL d   1       1.530  -2.146  -1.450  0.00  0.00     0.020 A 
ATOM      3  C2  UNL d   1       1.544  -2.733  -2.717  0.00  0.00     0.034 A 
ATOM      4  C3  UNL d   1       1.636  -1.934  -3.862  0.00  0.00     0.017 A 
ATOM      5  C4  UNL d   1       1.714  -0.542  -3.734  0.00  0.00     0.017 A 
ATOM      6  C5  UNL d   1       1.700   0.041  -2.463  0.00  0.00     0.034 A 
ATOM      7 Cl   UNL d   1       1.829   0.509  -5.101  0.00  0.00    -0.070 Cl
ATOM      8 Cl1  UNL d   1       1.647  -2.727  -5.397  0.00  0.00    -0.070 Cl
ENDROOT
TORSDOF 0
ENDMDL
