MODEL 1
REMARK minimizedAffinity -3.25278807
REMARK minimizedRMSD -1
REMARK  0 active torsions:
REMARK  status: ('A' for Active; 'I' for Inactive)
ROOT
ATOM      1  C   UNL d   1       5.564  -1.488   4.939  0.00  0.00     0.020 A 
ATOM      2  C1  UNL d   1       5.843  -0.628   6.000  0.00  0.00     0.020 A 
ATOM      3  C2  UNL d   1       5.828   0.754   5.800  0.00  0.00     0.034 A 
ATOM      4  C3  UNL d   1       5.534   1.280   4.537  0.00  0.00     0.017 A 
ATOM      5  C4  UNL d   1       5.254   0.415   3.473  0.00  0.00     0.017 A 
ATOM      6  C5  UNL d   1       5.270  -0.968   3.678  0.00  0.00     0.034 A 
ATOM      7 Cl   UNL d   1       4.882   0.989   1.885  0.00  0.00    -0.070 Cl
ATOM      8 Cl1  UNL d   1       5.533   2.999   4.362  0.00  0.00    -0.070 Cl
ENDROOT
TORSDOF 0
ENDMDL
