MODEL 1
REMARK minimizedAffinity 1.09767866
REMARK minimizedRMSD -1
REMARK  0 active torsions:
REMARK  status: ('A' for Active; 'I' for Inactive)
ROOT
ATOM      1  C   UNL d   1       0.519  -0.057  -1.078  0.00  0.00     0.020 A 
ATOM      2  C1  UNL d   1      -0.303  -1.020  -0.495  0.00  0.00     0.020 A 
ATOM      3  C2  UNL d   1      -0.871  -0.786   0.760  0.00  0.00     0.034 A 
ATOM      4  C3  UNL d   1      -0.618   0.413   1.435  0.00  0.00     0.017 A 
ATOM      5  C4  UNL d   1       0.208   1.379   0.849  0.00  0.00     0.017 A 
ATOM      6  C5  UNL d   1       0.775   1.140  -0.407  0.00  0.00     0.034 A 
ATOM      7 Cl   UNL d   1       0.568   2.884   1.621  0.00  0.00    -0.070 Cl
ATOM      8 Cl1  UNL d   1      -1.353   0.636   2.982  0.00  0.00    -0.070 Cl
ENDROOT
TORSDOF 0
ENDMDL
