MODEL 1
REMARK minimizedAffinity -2.32927752
REMARK minimizedRMSD -1
REMARK  0 active torsions:
REMARK  status: ('A' for Active; 'I' for Inactive)
ROOT
ATOM      1  C   UNL d   1      -1.095  -0.387   1.306  0.00  0.00     0.020 A 
ATOM      2  C1  UNL d   1      -0.630  -1.701   1.245  0.00  0.00     0.020 A 
ATOM      3  C2  UNL d   1       0.123  -2.124   0.148  0.00  0.00     0.034 A 
ATOM      4  C3  UNL d   1       0.414  -1.234  -0.892  0.00  0.00     0.017 A 
ATOM      5  C4  UNL d   1      -0.053   0.084  -0.830  0.00  0.00     0.017 A 
ATOM      6  C5  UNL d   1      -0.806   0.503   0.271  0.00  0.00     0.034 A 
ATOM      7 Cl   UNL d   1       0.266   1.240  -2.074  0.00  0.00    -0.070 Cl
ATOM      8 Cl1  UNL d   1       1.350  -1.827  -2.218  0.00  0.00    -0.070 Cl
ENDROOT
TORSDOF 0
ENDMDL
