MODEL 1
REMARK minimizedAffinity -2.4695766
REMARK minimizedRMSD -1
REMARK  0 active torsions:
REMARK  status: ('A' for Active; 'I' for Inactive)
ROOT
ATOM      1  C   UNL d   1       1.941  -0.151  -3.223  0.00  0.00     0.020 A 
ATOM      2  C1  UNL d   1       2.787  -0.992  -2.501  0.00  0.00     0.020 A 
ATOM      3  C2  UNL d   1       2.364  -1.532  -1.285  0.00  0.00     0.034 A 
ATOM      4  C3  UNL d   1       1.091  -1.232  -0.787  0.00  0.00     0.017 A 
ATOM      5  C4  UNL d   1       0.242  -0.388  -1.512  0.00  0.00     0.017 A 
ATOM      6  C5  UNL d   1       0.671   0.150  -2.730  0.00  0.00     0.034 A 
ATOM      7 Cl   UNL d   1      -1.343   0.027  -0.962  0.00  0.00    -0.070 Cl
ATOM      8 Cl1  UNL d   1       0.632  -1.936   0.723  0.00  0.00    -0.070 Cl
ENDROOT
TORSDOF 0
ENDMDL
