MODEL 1
REMARK minimizedAffinity -0.99792093
REMARK minimizedRMSD -1
REMARK  0 active torsions:
REMARK  status: ('A' for Active; 'I' for Inactive)
ROOT
ATOM      1  C   UNL d   1      -1.182   0.869  -0.629  0.00  0.00     0.020 A 
ATOM      2  C1  UNL d   1      -1.002  -0.311   0.090  0.00  0.00     0.020 A 
ATOM      3  C2  UNL d   1      -0.082  -1.264  -0.351  0.00  0.00     0.034 A 
ATOM      4  C3  UNL d   1       0.661  -1.039  -1.516  0.00  0.00     0.017 A 
ATOM      5  C4  UNL d   1       0.480   0.147  -2.237  0.00  0.00     0.017 A 
ATOM      6  C5  UNL d   1      -0.443   1.098  -1.791  0.00  0.00     0.034 A 
ATOM      7 Cl   UNL d   1       1.360   0.496  -3.683  0.00  0.00    -0.070 Cl
ATOM      8 Cl1  UNL d   1       1.782  -2.261  -2.003  0.00  0.00    -0.070 Cl
ENDROOT
TORSDOF 0
ENDMDL
