MODEL 1
REMARK minimizedAffinity 7.50135803
REMARK minimizedRMSD -1
REMARK  0 active torsions:
REMARK  status: ('A' for Active; 'I' for Inactive)
ROOT
ATOM      1  N1  IND d   1      -0.842  -1.473   2.939  0.00  0.00    -0.196 N 
ATOM      2  C2  IND d   1      -1.975  -1.190   2.229  0.00  0.00     0.054 A 
ATOM      3  C3  IND d   1      -1.688  -0.375   1.190  0.00  0.00    -0.031 A 
ATOM      4  C4  IND d   1       0.589   0.534   0.405  0.00  0.00     0.051 A 
ATOM      5  C5  IND d   1       1.910   0.578   0.754  0.00  0.00    -0.031 A 
ATOM      6  C6  IND d   1       2.391  -0.075   1.870  0.00  0.00     0.015 A 
ATOM      7  C7  IND d   1       1.568  -0.809   2.676  0.00  0.00    -0.016 A 
ATOM      8  C8  IND d   1       0.225  -0.850   2.329  0.00  0.00    -0.047 A 
ATOM      9  C9  IND d   1      -0.277  -0.154   1.221  0.00  0.00    -0.096 A 
ATOM     10  HN1 IND d   1      -0.801  -1.959   3.647  0.00  0.00     0.298 HD
ENDROOT
TORSDOF 0
ENDMDL
