MODEL 1
REMARK minimizedAffinity 7.63492537
REMARK minimizedRMSD -1
REMARK  0 active torsions:
REMARK  status: ('A' for Active; 'I' for Inactive)
ROOT
ATOM      1  N1  IND d   1      -1.164  -4.593  -0.694  0.00  0.00    -0.196 N 
ATOM      2  C2  IND d   1      -1.226  -3.340  -1.236  0.00  0.00     0.054 A 
ATOM      3  C3  IND d   1       0.006  -2.784  -1.276  0.00  0.00    -0.031 A 
ATOM      4  C4  IND d   1       2.277  -3.788  -0.599  0.00  0.00     0.051 A 
ATOM      5  C5  IND d   1       2.837  -4.891  -0.017  0.00  0.00    -0.031 A 
ATOM      6  C6  IND d   1       2.076  -5.974   0.375  0.00  0.00     0.015 A 
ATOM      7  C7  IND d   1       0.723  -5.999   0.188  0.00  0.00    -0.016 A 
ATOM      8  C8  IND d   1       0.151  -4.878  -0.396  0.00  0.00    -0.047 A 
ATOM      9  C9  IND d   1       0.912  -3.759  -0.757  0.00  0.00    -0.096 A 
ATOM     10  HN1 IND d   1      -1.834  -5.115  -0.560  0.00  0.00     0.298 HD
ENDROOT
TORSDOF 0
ENDMDL
