MODEL 1
REMARK minimizedAffinity -0.916437626
REMARK minimizedRMSD -1
REMARK  0 active torsions:
REMARK  status: ('A' for Active; 'I' for Inactive)
ROOT
ATOM      1  N1  IND d   1       0.185   2.157  -1.874  0.00  0.00    -0.196 N 
ATOM      2  C2  IND d   1       0.133   3.464  -1.477  0.00  0.00     0.054 A 
ATOM      3  C3  IND d   1       0.187   3.548  -0.128  0.00  0.00    -0.031 A 
ATOM      4  C4  IND d   1       0.463   1.676   1.617  0.00  0.00     0.051 A 
ATOM      5  C5  IND d   1       0.517   0.316   1.739  0.00  0.00    -0.031 A 
ATOM      6  C6  IND d   1       0.465  -0.517   0.639  0.00  0.00     0.015 A 
ATOM      7  C7  IND d   1       0.368  -0.018  -0.629  0.00  0.00    -0.016 A 
ATOM      8  C8  IND d   1       0.305   1.363  -0.755  0.00  0.00    -0.047 A 
ATOM      9  C9  IND d   1       0.315   2.211   0.360  0.00  0.00    -0.096 A 
ATOM     10  HN1 IND d   1       0.148   1.878  -2.687  0.00  0.00     0.298 HD
ENDROOT
TORSDOF 0
ENDMDL
