MODEL 1
REMARK minimizedAffinity 0.0974133611
REMARK minimizedRMSD -1
REMARK  0 active torsions:
REMARK  status: ('A' for Active; 'I' for Inactive)
ROOT
ATOM      1  N1  IND d   1      -0.257   2.213  -1.339  0.00  0.00    -0.196 N 
ATOM      2  C2  IND d   1      -0.104   1.297  -2.342  0.00  0.00     0.054 A 
ATOM      3  C3  IND d   1       0.151   0.073  -1.826  0.00  0.00    -0.031 A 
ATOM      4  C4  IND d   1       0.261  -0.673   0.636  0.00  0.00     0.051 A 
ATOM      5  C5  IND d   1       0.222  -0.186   1.912  0.00  0.00    -0.031 A 
ATOM      6  C6  IND d   1       0.014   1.153   2.175  0.00  0.00     0.015 A 
ATOM      7  C7  IND d   1      -0.174   2.056   1.168  0.00  0.00    -0.016 A 
ATOM      8  C8  IND d   1      -0.128   1.566  -0.130  0.00  0.00    -0.047 A 
ATOM      9  C9  IND d   1       0.124   0.216  -0.404  0.00  0.00    -0.096 A 
ATOM     10  HN1 IND d   1      -0.409   3.053  -1.446  0.00  0.00     0.298 HD
ENDROOT
TORSDOF 0
ENDMDL
