MODEL 1
REMARK minimizedAffinity -3.02741909
REMARK minimizedRMSD -1
REMARK  0 active torsions:
REMARK  status: ('A' for Active; 'I' for Inactive)
ROOT
ATOM      1  N1  IND d   1      -0.366   2.047  -1.572  0.00  0.00    -0.196 N 
ATOM      2  C2  IND d   1      -0.030   1.157  -2.553  0.00  0.00     0.054 A 
ATOM      3  C3  IND d   1       0.397  -0.005  -2.009  0.00  0.00    -0.031 A 
ATOM      4  C4  IND d   1       0.529  -0.700   0.466  0.00  0.00     0.051 A 
ATOM      5  C5  IND d   1       0.363  -0.213   1.732  0.00  0.00    -0.031 A 
ATOM      6  C6  IND d   1      -0.065   1.078   1.966  0.00  0.00     0.015 A 
ATOM      7  C7  IND d   1      -0.356   1.929   0.938  0.00  0.00    -0.016 A 
ATOM      8  C8  IND d   1      -0.182   1.440  -0.349  0.00  0.00    -0.047 A 
ATOM      9  C9  IND d   1       0.293   0.145  -0.592  0.00  0.00    -0.096 A 
ATOM     10  HN1 IND d   1      -0.646   2.850  -1.697  0.00  0.00     0.298 HD
ENDROOT
TORSDOF 0
ENDMDL
