MODEL 1
REMARK minimizedAffinity -6.30237865
REMARK minimizedRMSD -1
REMARK  0 active torsions:
REMARK  status: ('A' for Active; 'I' for Inactive)
ROOT
ATOM      1  N1  IND d   1       0.162   0.173  -0.723  0.00  0.00    -0.196 N 
ATOM      2  C2  IND d   1       0.413  -0.487   0.448  0.00  0.00     0.054 A 
ATOM      3  C3  IND d   1       0.215   0.335   1.502  0.00  0.00    -0.031 A 
ATOM      4  C4  IND d   1      -0.619   2.771   1.544  0.00  0.00     0.051 A 
ATOM      5  C5  IND d   1      -0.945   3.812   0.721  0.00  0.00    -0.031 A 
ATOM      6  C6  IND d   1      -0.921   3.690  -0.653  0.00  0.00     0.015 A 
ATOM      7  C7  IND d   1      -0.580   2.513  -1.258  0.00  0.00    -0.016 A 
ATOM      8  C8  IND d   1      -0.241   1.456  -0.426  0.00  0.00    -0.047 A 
ATOM      9  C9  IND d   1      -0.222   1.587   0.969  0.00  0.00    -0.096 A 
ATOM     10  HN1 IND d   1       0.242  -0.158  -1.513  0.00  0.00     0.298 HD
ENDROOT
TORSDOF 0
ENDMDL
