MODEL 1
REMARK minimizedAffinity -4.84657049
REMARK minimizedRMSD -1
REMARK  0 active torsions:
REMARK  status: ('A' for Active; 'I' for Inactive)
ROOT
ATOM      1  N1  IND d   1       0.614   1.650  -1.627  0.00  0.00    -0.196 N 
ATOM      2  C2  IND d   1       0.822   0.299  -1.625  0.00  0.00     0.054 A 
ATOM      3  C3  IND d   1       0.193  -0.273  -0.573  0.00  0.00    -0.031 A 
ATOM      4  C4  IND d   1      -1.317   0.805   1.212  0.00  0.00     0.051 A 
ATOM      5  C5  IND d   1      -1.775   2.017   1.646  0.00  0.00    -0.031 A 
ATOM      6  C6  IND d   1      -1.455   3.192   0.997  0.00  0.00     0.015 A 
ATOM      7  C7  IND d   1      -0.672   3.198  -0.122  0.00  0.00    -0.016 A 
ATOM      8  C8  IND d   1      -0.200   1.969  -0.562  0.00  0.00    -0.047 A 
ATOM      9  C9  IND d   1      -0.486   0.778   0.117  0.00  0.00    -0.096 A 
ATOM     10  HN1 IND d   1       0.937   2.206  -2.197  0.00  0.00     0.298 HD
ENDROOT
TORSDOF 0
ENDMDL
