MODEL 1
REMARK minimizedAffinity -6.43301678
REMARK minimizedRMSD -1
REMARK  0 active torsions:
REMARK  status: ('A' for Active; 'I' for Inactive)
ROOT
ATOM      1  N1  IND d   1       0.065   2.188  -1.491  0.00  0.00    -0.196 N 
ATOM      2  C2  IND d   1      -0.300   3.505  -1.551  0.00  0.00     0.054 A 
ATOM      3  C3  IND d   1      -0.782   3.914  -0.356  0.00  0.00    -0.031 A 
ATOM      4  C4  IND d   1      -0.969   2.620   1.862  0.00  0.00     0.051 A 
ATOM      5  C5  IND d   1      -0.795   1.377   2.402  0.00  0.00    -0.031 A 
ATOM      6  C6  IND d   1      -0.314   0.319   1.657  0.00  0.00     0.015 A 
ATOM      7  C7  IND d   1       0.024   0.470   0.342  0.00  0.00    -0.016 A 
ATOM      8  C8  IND d   1      -0.157   1.730  -0.211  0.00  0.00    -0.047 A 
ATOM      9  C9  IND d   1      -0.686   2.796   0.528  0.00  0.00    -0.096 A 
ATOM     10  HN1 IND d   1       0.380   1.725  -2.143  0.00  0.00     0.298 HD
ENDROOT
TORSDOF 0
ENDMDL
