MODEL 1
REMARK minimizedAffinity 3.00119066
REMARK minimizedRMSD -1
REMARK  0 active torsions:
REMARK  status: ('A' for Active; 'I' for Inactive)
ROOT
ATOM      1  C   UNL d   1      -0.360   3.368  -1.247  0.00  0.00     0.172 C 
ATOM      2  N   UNL d   1       0.210   3.250   0.074  0.00  0.00    -0.070 N 
ATOM      3  C1  UNL d   1       1.352   3.868   0.509  0.00  0.00    -0.004 A 
ATOM      4  C2  UNL d   1       1.556   3.503   1.822  0.00  0.00    -0.047 A 
ATOM      5  C3  UNL d   1       0.501   2.634   2.189  0.00  0.00    -0.047 A 
ATOM      6  C4  UNL d   1      -0.318   2.495   1.088  0.00  0.00    -0.004 A 
ENDROOT
TORSDOF 0
ENDMDL
