MODEL 1
REMARK minimizedAffinity 2.6325891
REMARK minimizedRMSD -1
REMARK  0 active torsions:
REMARK  status: ('A' for Active; 'I' for Inactive)
ROOT
ATOM      1  C   UNL d   1      -1.872   4.197  -1.906  0.00  0.00     0.172 C 
ATOM      2  N   UNL d   1      -0.865   3.564  -1.087  0.00  0.00    -0.070 N 
ATOM      3  C1  UNL d   1      -0.671   3.782   0.251  0.00  0.00    -0.004 A 
ATOM      4  C2  UNL d   1       0.380   2.991   0.660  0.00  0.00    -0.047 A 
ATOM      5  C3  UNL d   1       0.835   2.273  -0.472  0.00  0.00    -0.047 A 
ATOM      6  C4  UNL d   1       0.046   2.646  -1.539  0.00  0.00    -0.004 A 
ENDROOT
TORSDOF 0
ENDMDL
