MODEL 1
REMARK minimizedAffinity -2.48155642
REMARK minimizedRMSD -1
REMARK  0 active torsions:
REMARK  status: ('A' for Active; 'I' for Inactive)
ROOT
ATOM      1  C   UNL d   1      -4.494   3.783  -6.000  0.00  0.00     0.172 C 
ATOM      2  N   UNL d   1      -4.876   3.447  -4.648  0.00  0.00    -0.070 N 
ATOM      3  C1  UNL d   1      -5.995   3.897  -4.000  0.00  0.00    -0.004 A 
ATOM      4  C2  UNL d   1      -5.998   3.350  -2.735  0.00  0.00    -0.047 A 
ATOM      5  C3  UNL d   1      -4.841   2.544  -2.619  0.00  0.00    -0.047 A 
ATOM      6  C4  UNL d   1      -4.164   2.622  -3.818  0.00  0.00    -0.004 A 
ENDROOT
TORSDOF 0
ENDMDL
