MODEL 1
REMARK minimizedAffinity 1.92862666
REMARK minimizedRMSD -1
REMARK  0 active torsions:
REMARK  status: ('A' for Active; 'I' for Inactive)
ROOT
ATOM      1  C   UNL d   1       0.867   5.670  -1.534  0.00  0.00     0.172 C 
ATOM      2  N   UNL d   1       0.217   4.464  -1.076  0.00  0.00    -0.070 N 
ATOM      3  C1  UNL d   1      -1.066   4.088  -1.371  0.00  0.00    -0.004 A 
ATOM      4  C2  UNL d   1      -1.306   2.882  -0.748  0.00  0.00    -0.047 A 
ATOM      5  C3  UNL d   1      -0.127   2.522  -0.054  0.00  0.00    -0.047 A 
ATOM      6  C4  UNL d   1       0.800   3.519  -0.274  0.00  0.00    -0.004 A 
ENDROOT
TORSDOF 0
ENDMDL
