MODEL 1
REMARK minimizedAffinity 5.05121422
REMARK minimizedRMSD -1
REMARK  0 active torsions:
REMARK  status: ('A' for Active; 'I' for Inactive)
ROOT
ATOM      1  C   UNL d   1       0.419   2.063  -0.383  0.00  0.00     0.172 C 
ATOM      2  N   UNL d   1       0.225   2.275   1.033  0.00  0.00    -0.070 N 
ATOM      3  C1  UNL d   1      -0.966   2.572   1.640  0.00  0.00    -0.004 A 
ATOM      4  C2  UNL d   1      -0.731   2.697   2.992  0.00  0.00    -0.047 A 
ATOM      5  C3  UNL d   1       0.650   2.468   3.205  0.00  0.00    -0.047 A 
ATOM      6  C4  UNL d   1       1.217   2.209   1.975  0.00  0.00    -0.004 A 
ENDROOT
TORSDOF 0
ENDMDL
