MODEL 1
REMARK minimizedAffinity -0.213297084
REMARK minimizedRMSD -1
REMARK  0 active torsions:
REMARK  status: ('A' for Active; 'I' for Inactive)
ROOT
ATOM      1  C   UNL d   1      -2.403   4.793  -1.807  0.00  0.00     0.172 C 
ATOM      2  N   UNL d   1      -1.203   4.249  -1.216  0.00  0.00    -0.070 N 
ATOM      3  C1  UNL d   1      -1.151   3.459  -0.099  0.00  0.00    -0.004 A 
ATOM      4  C2  UNL d   1       0.171   3.148   0.138  0.00  0.00    -0.047 A 
ATOM      5  C3  UNL d   1       0.940   3.774  -0.872  0.00  0.00    -0.047 A 
ATOM      6  C4  UNL d   1       0.064   4.449  -1.696  0.00  0.00    -0.004 A 
ENDROOT
TORSDOF 0
ENDMDL
