MODEL 1
REMARK minimizedAffinity -0.092219308
REMARK minimizedRMSD -1
REMARK  0 active torsions:
REMARK  status: ('A' for Active; 'I' for Inactive)
ROOT
ATOM      1  C   UNL d   1      -6.000   2.075  -2.114  0.00  0.00     0.172 C 
ATOM      2  N   UNL d   1      -5.361   3.017  -3.003  0.00  0.00    -0.070 N 
ATOM      3  C1  UNL d   1      -4.035   3.358  -2.986  0.00  0.00    -0.004 A 
ATOM      4  C2  UNL d   1      -3.823   4.281  -3.987  0.00  0.00    -0.047 A 
ATOM      5  C3  UNL d   1      -5.066   4.503  -4.628  0.00  0.00    -0.047 A 
ATOM      6  C4  UNL d   1      -6.000   3.708  -3.999  0.00  0.00    -0.004 A 
ENDROOT
TORSDOF 0
ENDMDL
