MODEL 1
REMARK minimizedAffinity -1.19411135
REMARK minimizedRMSD -1
REMARK  0 active torsions:
REMARK  status: ('A' for Active; 'I' for Inactive)
ROOT
ATOM      1  C   UNL d   1       0.095   1.644   2.974  0.00  0.00     0.172 C 
ATOM      2  N   UNL d   1      -0.069   2.311   1.704  0.00  0.00    -0.070 N 
ATOM      3  C1  UNL d   1       0.233   1.780   0.478  0.00  0.00    -0.004 A 
ATOM      4  C2  UNL d   1      -0.065   2.727  -0.477  0.00  0.00    -0.047 A 
ATOM      5  C3  UNL d   1      -0.561   3.868   0.197  0.00  0.00    -0.047 A 
ATOM      6  C4  UNL d   1      -0.553   3.583   1.546  0.00  0.00    -0.004 A 
ENDROOT
TORSDOF 0
ENDMDL
