MODEL 1
REMARK minimizedAffinity -1.5701009
REMARK minimizedRMSD -1
REMARK  0 active torsions:
REMARK  status: ('A' for Active; 'I' for Inactive)
ROOT
ATOM      1  C   UNL d   1       0.028   2.462   0.259  0.00  0.00     0.172 C 
ATOM      2  N   UNL d   1      -0.092   3.899   0.188  0.00  0.00    -0.070 N 
ATOM      3  C1  UNL d   1      -0.779   4.687   1.072  0.00  0.00    -0.004 A 
ATOM      4  C2  UNL d   1      -0.652   5.996   0.658  0.00  0.00    -0.047 A 
ATOM      5  C3  UNL d   1       0.139   5.993  -0.516  0.00  0.00    -0.047 A 
ATOM      6  C4  UNL d   1       0.472   4.682  -0.784  0.00  0.00    -0.004 A 
ENDROOT
TORSDOF 0
ENDMDL
