MODEL 1
REMARK minimizedAffinity -1.75325394
REMARK minimizedRMSD -1
REMARK  0 active torsions:
REMARK  status: ('A' for Active; 'I' for Inactive)
ROOT
ATOM      1  C   UNL d   1      -4.358   3.829  -6.000  0.00  0.00     0.172 C 
ATOM      2  N   UNL d   1      -4.731   3.359  -4.687  0.00  0.00    -0.070 N 
ATOM      3  C1  UNL d   1      -6.000   3.349  -4.172  0.00  0.00    -0.004 A 
ATOM      4  C2  UNL d   1      -5.936   2.826  -2.899  0.00  0.00    -0.047 A 
ATOM      5  C3  UNL d   1      -4.581   2.511  -2.638  0.00  0.00    -0.047 A 
ATOM      6  C4  UNL d   1      -3.857   2.851  -3.762  0.00  0.00    -0.004 A 
ENDROOT
TORSDOF 0
ENDMDL
