MODEL 1
REMARK minimizedAffinity -1.04998922
REMARK minimizedRMSD -1
REMARK  2 active torsions:
REMARK  status: ('A' for Active; 'I' for Inactive)
REMARK    1  A    between atoms: C2'_3  and  C1'_4 
REMARK    2  A    between atoms: C1'_4  and  C1_5 
ROOT
ATOM      1  C1  I4B d   1       0.506  -1.447  -1.538  0.00  0.00    -0.075 A 
ATOM      2  C2  I4B d   1       1.563  -2.090  -0.943  0.00  0.00     0.003 A 
ATOM      3  C3  I4B d   1       2.736  -1.371  -0.607  0.00  0.00     0.002 A 
ATOM      4  C4  I4B d   1       2.827  -0.031  -0.926  0.00  0.00    -0.004 A 
ATOM      5  C5  I4B d   1       1.745   0.623  -1.508  0.00  0.00     0.002 A 
ATOM      6  C6  I4B d   1       0.572  -0.086  -1.804  0.00  0.00     0.003 A 
ENDROOT
BRANCH   1   7
ATOM      7  C1' I4B d   1      -0.705  -2.244  -1.910  0.00  0.00     0.060 C 
BRANCH   7   8
ATOM      8  C2' I4B d   1      -1.754  -2.026  -0.839  0.00  0.00    -0.013 C 
ATOM      9  C4' I4B d   1      -2.117  -0.569  -0.720  0.00  0.00     0.013 C 
ATOM     10  C3' I4B d   1      -2.953  -2.856  -1.190  0.00  0.00     0.013 C 
ENDBRANCH   7   8
ENDBRANCH   1   7
TORSDOF 2
ENDMDL
