MODEL 1
REMARK minimizedAffinity 5.64469767
REMARK minimizedRMSD -1
REMARK  2 active torsions:
REMARK  status: ('A' for Active; 'I' for Inactive)
REMARK    1  A    between atoms: C2'_3  and  C1'_4 
REMARK    2  A    between atoms: C1'_4  and  C1_5 
ROOT
ATOM      1  C1  I4B d   1       1.247   1.713  -0.312  0.00  0.00    -0.075 A 
ATOM      2  C2  I4B d   1       1.297   1.969   1.035  0.00  0.00     0.003 A 
ATOM      3  C3  I4B d   1       0.188   1.665   1.861  0.00  0.00     0.002 A 
ATOM      4  C4  I4B d   1      -0.963   1.157   1.293  0.00  0.00    -0.004 A 
ATOM      5  C5  I4B d   1      -1.004   0.876  -0.070  0.00  0.00     0.002 A 
ATOM      6  C6  I4B d   1       0.112   1.144  -0.876  0.00  0.00     0.003 A 
ENDROOT
BRANCH   1   7
ATOM      7  C1' I4B d   1       2.425   2.076  -1.160  0.00  0.00     0.060 C 
BRANCH   7   8
ATOM      8  C2' I4B d   1       2.666   0.942  -2.135  0.00  0.00    -0.013 C 
ATOM      9  C4' I4B d   1       2.388   1.372  -3.551  0.00  0.00     0.013 C 
ATOM     10  C3' I4B d   1       4.087   0.489  -1.976  0.00  0.00     0.013 C 
ENDBRANCH   7   8
ENDBRANCH   1   7
TORSDOF 2
ENDMDL
