MODEL 1
REMARK minimizedAffinity 8.52597046
REMARK minimizedRMSD -1
REMARK  2 active torsions:
REMARK  status: ('A' for Active; 'I' for Inactive)
REMARK    1  A    between atoms: C2'_3  and  C1'_4 
REMARK    2  A    between atoms: C1'_4  and  C1_5 
ROOT
ATOM      1  C1  I4B d   1       0.728   1.836  -1.569  0.00  0.00    -0.075 A 
ATOM      2  C2  I4B d   1       1.301   0.686  -1.084  0.00  0.00     0.003 A 
ATOM      3  C3  I4B d   1       2.493   0.186  -1.662  0.00  0.00     0.002 A 
ATOM      4  C4  I4B d   1       3.047   0.833  -2.747  0.00  0.00    -0.004 A 
ATOM      5  C5  I4B d   1       2.477   2.011  -3.223  0.00  0.00     0.002 A 
ATOM      6  C6  I4B d   1       1.317   2.522  -2.623  0.00  0.00     0.003 A 
ENDROOT
BRANCH   1   7
ATOM      7  C1' I4B d   1      -0.549   2.318  -0.957  0.00  0.00     0.060 C 
BRANCH   7   8
ATOM      8  C2' I4B d   1      -0.867   1.425   0.225  0.00  0.00    -0.013 C 
ATOM      9  C4' I4B d   1      -1.096   2.234   1.474  0.00  0.00     0.013 C 
ATOM     10  C3' I4B d   1      -2.077   0.611  -0.123  0.00  0.00     0.013 C 
ENDBRANCH   7   8
ENDBRANCH   1   7
TORSDOF 2
ENDMDL
