MODEL 1
REMARK minimizedAffinity 5.65288687
REMARK minimizedRMSD -1
REMARK  2 active torsions:
REMARK  status: ('A' for Active; 'I' for Inactive)
REMARK    1  A    between atoms: C2'_3  and  C1'_4 
REMARK    2  A    between atoms: C1'_4  and  C1_5 
ROOT
ATOM      1  C1  I4B d   1      -0.379   0.479  -1.007  0.00  0.00    -0.075 A 
ATOM      2  C2  I4B d   1       0.730  -0.306  -1.202  0.00  0.00     0.003 A 
ATOM      3  C3  I4B d   1       1.829   0.186  -1.947  0.00  0.00     0.002 A 
ATOM      4  C4  I4B d   1       1.757   1.440  -2.518  0.00  0.00    -0.004 A 
ATOM      5  C5  I4B d   1       0.641   2.243  -2.301  0.00  0.00     0.002 A 
ATOM      6  C6  I4B d   1      -0.429   1.765  -1.530  0.00  0.00     0.003 A 
ENDROOT
BRANCH   1   7
ATOM      7  C1' I4B d   1      -1.535  -0.083  -0.243  0.00  0.00     0.060 C 
BRANCH   7   8
ATOM      8  C2' I4B d   1      -1.978  -1.356  -0.937  0.00  0.00    -0.013 C 
ATOM      9  C4' I4B d   1      -1.654  -2.570  -0.107  0.00  0.00     0.013 C 
ATOM     10  C3' I4B d   1      -3.452  -1.254  -1.195  0.00  0.00     0.013 C 
ENDBRANCH   7   8
ENDBRANCH   1   7
TORSDOF 2
ENDMDL
