MODEL 1
REMARK minimizedAffinity 11.0121393
REMARK minimizedRMSD -1
REMARK  2 active torsions:
REMARK  status: ('A' for Active; 'I' for Inactive)
REMARK    1  A    between atoms: C2'_3  and  C1'_4 
REMARK    2  A    between atoms: C1'_4  and  C1_5 
ROOT
ATOM      1  C1  I4B d   1      -0.391   0.338  -0.791  0.00  0.00    -0.075 A 
ATOM      2  C2  I4B d   1      -1.618   0.735  -0.321  0.00  0.00     0.003 A 
ATOM      3  C3  I4B d   1      -2.670  -0.204  -0.196  0.00  0.00     0.002 A 
ATOM      4  C4  I4B d   1      -2.468  -1.509  -0.596  0.00  0.00    -0.004 A 
ATOM      5  C5  I4B d   1      -1.217  -1.914  -1.051  0.00  0.00     0.002 A 
ATOM      6  C6  I4B d   1      -0.167  -0.988  -1.138  0.00  0.00     0.003 A 
ENDROOT
BRANCH   1   7
ATOM      7  C1' I4B d   1       0.689   1.363  -0.942  0.00  0.00     0.060 C 
BRANCH   7   8
ATOM      8  C2' I4B d   1       1.598   0.921  -2.071  0.00  0.00    -0.013 C 
ATOM      9  C4' I4B d   1       1.864   2.050  -3.031  0.00  0.00     0.013 C 
ATOM     10  C3' I4B d   1       2.872   0.412  -1.466  0.00  0.00     0.013 C 
ENDBRANCH   7   8
ENDBRANCH   1   7
TORSDOF 2
ENDMDL
