MODEL 1
REMARK minimizedAffinity 1.11959958
REMARK minimizedRMSD -1
REMARK  2 active torsions:
REMARK  status: ('A' for Active; 'I' for Inactive)
REMARK    1  A    between atoms: C2'_3  and  C1'_4 
REMARK    2  A    between atoms: C1'_4  and  C1_5 
ROOT
ATOM      1  C1  I4B d   1       2.181  -0.541  -1.573  0.00  0.00    -0.075 A 
ATOM      2  C2  I4B d   1       3.097  -0.031  -2.459  0.00  0.00     0.003 A 
ATOM      3  C3  I4B d   1       3.069   1.343  -2.801  0.00  0.00     0.002 A 
ATOM      4  C4  I4B d   1       2.084   2.154  -2.276  0.00  0.00    -0.004 A 
ATOM      5  C5  I4B d   1       1.170   1.640  -1.360  0.00  0.00     0.002 A 
ATOM      6  C6  I4B d   1       1.226   0.287  -0.997  0.00  0.00     0.003 A 
ENDROOT
BRANCH   1   7
ATOM      7  C1' I4B d   1       2.219  -2.003  -1.260  0.00  0.00     0.060 C 
BRANCH   7   8
ATOM      8  C2' I4B d   1       1.227  -2.701  -2.169  0.00  0.00    -0.013 C 
ATOM      9  C4' I4B d   1       1.892  -3.794  -2.964  0.00  0.00     0.013 C 
ATOM     10  C3' I4B d   1       0.122  -3.248  -1.316  0.00  0.00     0.013 C 
ENDBRANCH   7   8
ENDBRANCH   1   7
TORSDOF 2
ENDMDL
