MODEL 1
REMARK minimizedAffinity 5.74034882
REMARK minimizedRMSD -1
REMARK  2 active torsions:
REMARK  status: ('A' for Active; 'I' for Inactive)
REMARK    1  A    between atoms: C2'_3  and  C1'_4 
REMARK    2  A    between atoms: C1'_4  and  C1_5 
ROOT
ATOM      1  C1  I4B d   1       0.563   1.710  -1.760  0.00  0.00    -0.075 A 
ATOM      2  C2  I4B d   1       1.185   0.554  -1.359  0.00  0.00     0.003 A 
ATOM      3  C3  I4B d   1       2.412   0.164  -1.949  0.00  0.00     0.002 A 
ATOM      4  C4  I4B d   1       2.950   0.926  -2.965  0.00  0.00    -0.004 A 
ATOM      5  C5  I4B d   1       2.329   2.109  -3.355  0.00  0.00     0.002 A 
ATOM      6  C6  I4B d   1       1.134   2.510  -2.741  0.00  0.00     0.003 A 
ENDROOT
BRANCH   1   7
ATOM      7  C1' I4B d   1      -0.748   2.075  -1.139  0.00  0.00     0.060 C 
BRANCH   7   8
ATOM      8  C2' I4B d   1      -0.907   1.261   0.129  0.00  0.00    -0.013 C 
ATOM      9  C4' I4B d   1      -1.144   2.150   1.321  0.00  0.00     0.013 C 
ATOM     10  C3' I4B d   1      -2.048   0.309  -0.072  0.00  0.00     0.013 C 
ENDBRANCH   7   8
ENDBRANCH   1   7
TORSDOF 2
ENDMDL
