MODEL 1
REMARK minimizedAffinity 10.9372025
REMARK minimizedRMSD -1
REMARK  2 active torsions:
REMARK  status: ('A' for Active; 'I' for Inactive)
REMARK    1  A    between atoms: C2'_3  and  C1'_4 
REMARK    2  A    between atoms: C1'_4  and  C1_5 
ROOT
ATOM      1  C1  I4B d   1       1.896   0.183  -1.531  0.00  0.00    -0.075 A 
ATOM      2  C2  I4B d   1       1.003  -0.592  -2.229  0.00  0.00     0.003 A 
ATOM      3  C3  I4B d   1       1.105  -2.003  -2.194  0.00  0.00     0.002 A 
ATOM      4  C4  I4B d   1       2.139  -2.593  -1.495  0.00  0.00    -0.004 A 
ATOM      5  C5  I4B d   1       3.029  -1.807  -0.770  0.00  0.00     0.002 A 
ATOM      6  C6  I4B d   1       2.900  -0.410  -0.778  0.00  0.00     0.003 A 
ENDROOT
BRANCH   1   7
ATOM      7  C1' I4B d   1       1.778   1.672  -1.616  0.00  0.00     0.060 C 
BRANCH   7   8
ATOM      8  C2' I4B d   1       1.919   2.069  -3.072  0.00  0.00    -0.013 C 
ATOM      9  C4' I4B d   1       1.643   3.537  -3.266  0.00  0.00     0.013 C 
ATOM     10  C3' I4B d   1       3.308   1.716  -3.515  0.00  0.00     0.013 C 
ENDBRANCH   7   8
ENDBRANCH   1   7
TORSDOF 2
ENDMDL
