MODEL 1
REMARK minimizedAffinity 4.88387632
REMARK minimizedRMSD -1
REMARK  2 active torsions:
REMARK  status: ('A' for Active; 'I' for Inactive)
REMARK    1  A    between atoms: C2'_3  and  C1'_4 
REMARK    2  A    between atoms: C1'_4  and  C1_5 
ROOT
ATOM      1  C1  I4B d   1      -0.459   0.765  -0.041  0.00  0.00    -0.075 A 
ATOM      2  C2  I4B d   1       0.249   0.428  -1.167  0.00  0.00     0.003 A 
ATOM      3  C3  I4B d   1       1.622   0.758  -1.272  0.00  0.00     0.002 A 
ATOM      4  C4  I4B d   1       2.230   1.465  -0.255  0.00  0.00    -0.004 A 
ATOM      5  C5  I4B d   1       1.517   1.787   0.896  0.00  0.00     0.002 A 
ATOM      6  C6  I4B d   1       0.167   1.424   1.009  0.00  0.00     0.003 A 
ENDROOT
BRANCH   1   7
ATOM      7  C1' I4B d   1      -1.916   0.431   0.022  0.00  0.00     0.060 C 
BRANCH   7   8
ATOM      8  C2' I4B d   1      -2.042  -1.061   0.256  0.00  0.00    -0.013 C 
ATOM      9  C4' I4B d   1      -2.575  -1.353   1.634  0.00  0.00     0.013 C 
ATOM     10  C3' I4B d   1      -2.943  -1.621  -0.803  0.00  0.00     0.013 C 
ENDBRANCH   7   8
ENDBRANCH   1   7
TORSDOF 2
ENDMDL
