MODEL 1
REMARK minimizedAffinity 4.78009892
REMARK minimizedRMSD -1
REMARK  2 active torsions:
REMARK  status: ('A' for Active; 'I' for Inactive)
REMARK    1  A    between atoms: C2'_3  and  C1'_4 
REMARK    2  A    between atoms: C1'_4  and  C1_5 
ROOT
ATOM      1  C1  I4B d   1       0.107  -2.246  -0.525  0.00  0.00    -0.075 A 
ATOM      2  C2  I4B d   1      -0.663  -3.373  -0.676  0.00  0.00     0.003 A 
ATOM      3  C3  I4B d   1      -2.053  -3.259  -0.922  0.00  0.00     0.002 A 
ATOM      4  C4  I4B d   1      -2.636  -2.009  -0.959  0.00  0.00    -0.004 A 
ATOM      5  C5  I4B d   1      -1.850  -0.867  -0.828  0.00  0.00     0.002 A 
ATOM      6  C6  I4B d   1      -0.468  -0.986  -0.622  0.00  0.00     0.003 A 
ENDROOT
BRANCH   1   7
ATOM      7  C1' I4B d   1       1.565  -2.404  -0.233  0.00  0.00     0.060 C 
BRANCH   7   8
ATOM      8  C2' I4B d   1       2.335  -2.027  -1.483  0.00  0.00    -0.013 C 
ATOM      9  C4' I4B d   1       1.700  -2.620  -2.713  0.00  0.00     0.013 C 
ATOM     10  C3' I4B d   1       2.380  -0.530  -1.565  0.00  0.00     0.013 C 
ENDBRANCH   7   8
ENDBRANCH   1   7
TORSDOF 2
ENDMDL
