MODEL 1
REMARK minimizedAffinity -3.30977917
REMARK minimizedRMSD -1
REMARK  2 active torsions:
REMARK  status: ('A' for Active; 'I' for Inactive)
REMARK    1  A    between atoms: C2'_3  and  C1'_4 
REMARK    2  A    between atoms: C1'_4  and  C1_5 
ROOT
ATOM      1  C1  I4B d   1      -0.236   0.126  -0.075  0.00  0.00    -0.075 A 
ATOM      2  C2  I4B d   1      -0.012  -1.109  -0.631  0.00  0.00     0.003 A 
ATOM      3  C3  I4B d   1       1.301  -1.503  -0.986  0.00  0.00     0.002 A 
ATOM      4  C4  I4B d   1       2.346  -0.618  -0.816  0.00  0.00    -0.004 A 
ATOM      5  C5  I4B d   1       2.120   0.625  -0.232  0.00  0.00     0.002 A 
ATOM      6  C6  I4B d   1       0.824   0.995   0.153  0.00  0.00     0.003 A 
ENDROOT
BRANCH   1   7
ATOM      7  C1' I4B d   1      -1.639   0.523   0.258  0.00  0.00     0.060 C 
BRANCH   7   8
ATOM      8  C2' I4B d   1      -1.752   0.617   1.766  0.00  0.00    -0.013 C 
ATOM      9  C4' I4B d   1      -1.840   2.051   2.218  0.00  0.00     0.013 C 
ATOM     10  C3' I4B d   1      -2.964  -0.159   2.188  0.00  0.00     0.013 C 
ENDBRANCH   7   8
ENDBRANCH   1   7
TORSDOF 2
ENDMDL
