MODEL 1
REMARK minimizedAffinity 6.42787743
REMARK minimizedRMSD -1
REMARK  2 active torsions:
REMARK  status: ('A' for Active; 'I' for Inactive)
REMARK    1  A    between atoms: C2'_3  and  C1'_4 
REMARK    2  A    between atoms: C1'_4  and  C1_5 
ROOT
ATOM      1  C1  I4B d   1       0.719   1.534  -1.791  0.00  0.00    -0.075 A 
ATOM      2  C2  I4B d   1       1.362   2.189  -2.811  0.00  0.00     0.003 A 
ATOM      3  C3  I4B d   1       2.579   1.682  -3.328  0.00  0.00     0.002 A 
ATOM      4  C4  I4B d   1       3.138   0.553  -2.766  0.00  0.00    -0.004 A 
ATOM      5  C5  I4B d   1       2.473  -0.123  -1.747  0.00  0.00     0.002 A 
ATOM      6  C6  I4B d   1       1.249   0.363  -1.264  0.00  0.00     0.003 A 
ENDROOT
BRANCH   1   7
ATOM      7  C1' I4B d   1      -0.548   2.115  -1.246  0.00  0.00     0.060 C 
BRANCH   7   8
ATOM      8  C2' I4B d   1      -0.982   1.267  -0.068  0.00  0.00    -0.013 C 
ATOM      9  C4' I4B d   1      -1.436   2.124   1.084  0.00  0.00     0.013 C 
ATOM     10  C3' I4B d   1      -2.081   0.358  -0.532  0.00  0.00     0.013 C 
ENDBRANCH   7   8
ENDBRANCH   1   7
TORSDOF 2
ENDMDL
