MODEL 1
REMARK minimizedAffinity 5.26683283
REMARK minimizedRMSD -1
REMARK  2 active torsions:
REMARK  status: ('A' for Active; 'I' for Inactive)
REMARK    1  A    between atoms: C2'_3  and  C1'_4 
REMARK    2  A    between atoms: C1'_4  and  C1_5 
ROOT
ATOM      1  C1  I4B d   1       1.420   0.255  -1.650  0.00  0.00    -0.075 A 
ATOM      2  C2  I4B d   1       2.752  -0.054  -1.536  0.00  0.00     0.003 A 
ATOM      3  C3  I4B d   1       3.151  -1.293  -0.977  0.00  0.00     0.002 A 
ATOM      4  C4  I4B d   1       2.192  -2.164  -0.502  0.00  0.00    -0.004 A 
ATOM      5  C5  I4B d   1       0.841  -1.858  -0.639  0.00  0.00     0.002 A 
ATOM      6  C6  I4B d   1       0.452  -0.646  -1.228  0.00  0.00     0.003 A 
ENDROOT
BRANCH   1   7
ATOM      7  C1' I4B d   1       1.036   1.586  -2.215  0.00  0.00     0.060 C 
BRANCH   7   8
ATOM      8  C2' I4B d   1       1.981   1.899  -3.357  0.00  0.00    -0.013 C 
ATOM      9  C4' I4B d   1       1.431   1.407  -4.670  0.00  0.00     0.013 C 
ATOM     10  C3' I4B d   1       2.200   3.382  -3.383  0.00  0.00     0.013 C 
ENDBRANCH   7   8
ENDBRANCH   1   7
TORSDOF 2
ENDMDL
