MODEL 1
REMARK minimizedAffinity 4.61672974
REMARK minimizedRMSD -1
REMARK  2 active torsions:
REMARK  status: ('A' for Active; 'I' for Inactive)
REMARK    1  A    between atoms: C2'_3  and  C1'_4 
REMARK    2  A    between atoms: C1'_4  and  C1_5 
ROOT
ATOM      1  C1  I4B d   1       2.328  -0.013  -2.174  0.00  0.00    -0.075 A 
ATOM      2  C2  I4B d   1       1.015   0.096  -1.789  0.00  0.00     0.003 A 
ATOM      3  C3  I4B d   1       0.477  -0.798  -0.832  0.00  0.00     0.002 A 
ATOM      4  C4  I4B d   1       1.268  -1.810  -0.326  0.00  0.00    -0.004 A 
ATOM      5  C5  I4B d   1       2.605  -1.904  -0.701  0.00  0.00     0.002 A 
ATOM      6  C6  I4B d   1       3.143  -0.992  -1.621  0.00  0.00     0.003 A 
ENDROOT
BRANCH   1   7
ATOM      7  C1' I4B d   1       2.855   0.927  -3.211  0.00  0.00     0.060 C 
BRANCH   7   8
ATOM      8  C2' I4B d   1       1.680   1.685  -3.794  0.00  0.00    -0.013 C 
ATOM      9  C4' I4B d   1       1.829   3.169  -3.583  0.00  0.00     0.013 C 
ATOM     10  C3' I4B d   1       1.593   1.353  -5.254  0.00  0.00     0.013 C 
ENDBRANCH   7   8
ENDBRANCH   1   7
TORSDOF 2
ENDMDL
