MODEL 1
REMARK minimizedAffinity 1.83648503
REMARK minimizedRMSD -1
REMARK  0 active torsions:
REMARK  status: ('A' for Active; 'I' for Inactive)
ROOT
ATOM      1  C1  BNZ d   1       1.519   2.122   0.829  0.00  0.00     0.000 A 
ATOM      2  C2  BNZ d   1       0.437   2.861   0.430  0.00  0.00     0.000 A 
ATOM      3  C3  BNZ d   1       0.600   3.993  -0.319  0.00  0.00     0.000 A 
ATOM      4  C4  BNZ d   1       1.844   4.406  -0.634  0.00  0.00     0.000 A 
ATOM      5  C5  BNZ d   1       2.946   3.677  -0.231  0.00  0.00     0.000 A 
ATOM      6  C6  BNZ d   1       2.776   2.517   0.489  0.00  0.00     0.000 A 
ENDROOT
TORSDOF 0
ENDMDL
