MODEL 1
REMARK minimizedAffinity -1.82432735
REMARK minimizedRMSD -1
REMARK  0 active torsions:
REMARK  status: ('A' for Active; 'I' for Inactive)
ROOT
ATOM      1  C1  BNZ d   1       3.866  -5.967  -3.517  0.00  0.00     0.000 A 
ATOM      2  C2  BNZ d   1       3.090  -5.964  -4.646  0.00  0.00     0.000 A 
ATOM      3  C3  BNZ d   1       3.660  -6.000  -5.887  0.00  0.00     0.000 A 
ATOM      4  C4  BNZ d   1       5.004  -5.999  -6.000  0.00  0.00     0.000 A 
ATOM      5  C5  BNZ d   1       5.800  -5.994  -4.872  0.00  0.00     0.000 A 
ATOM      6  C6  BNZ d   1       5.222  -5.997  -3.623  0.00  0.00     0.000 A 
ENDROOT
TORSDOF 0
ENDMDL
