MODEL 1
REMARK minimizedAffinity 2.96577096
REMARK minimizedRMSD -1
REMARK  0 active torsions:
REMARK  status: ('A' for Active; 'I' for Inactive)
ROOT
ATOM      1  C1  BNZ d   1       4.358  -1.433   2.994  0.00  0.00     0.000 A 
ATOM      2  C2  BNZ d   1       3.160  -1.974   3.380  0.00  0.00     0.000 A 
ATOM      3  C3  BNZ d   1       1.979  -1.416   2.978  0.00  0.00     0.000 A 
ATOM      4  C4  BNZ d   1       1.996  -0.297   2.226  0.00  0.00     0.000 A 
ATOM      5  C5  BNZ d   1       3.195   0.266   1.837  0.00  0.00     0.000 A 
ATOM      6  C6  BNZ d   1       4.382  -0.321   2.210  0.00  0.00     0.000 A 
ENDROOT
TORSDOF 0
ENDMDL
