MODEL 1
REMARK minimizedAffinity 3.74320245
REMARK minimizedRMSD -1
REMARK  0 active torsions:
REMARK  status: ('A' for Active; 'I' for Inactive)
ROOT
ATOM      1  C1  BNZ d   1       3.969  -1.951   4.459  0.00  0.00     0.000 A 
ATOM      2  C2  BNZ d   1       3.665  -0.898   3.639  0.00  0.00     0.000 A 
ATOM      3  C3  BNZ d   1       2.372  -0.643   3.276  0.00  0.00     0.000 A 
ATOM      4  C4  BNZ d   1       1.390  -1.466   3.700  0.00  0.00     0.000 A 
ATOM      5  C5  BNZ d   1       1.682  -2.538   4.520  0.00  0.00     0.000 A 
ATOM      6  C6  BNZ d   1       2.980  -2.768   4.915  0.00  0.00     0.000 A 
ENDROOT
TORSDOF 0
ENDMDL
