MODEL 1
REMARK minimizedAffinity 1.47268379
REMARK minimizedRMSD -1
REMARK  0 active torsions:
REMARK  status: ('A' for Active; 'I' for Inactive)
ROOT
ATOM      1  C1  BNZ d   1       2.108  -2.706   4.021  0.00  0.00     0.000 A 
ATOM      2  C2  BNZ d   1       3.094  -3.371   4.700  0.00  0.00     0.000 A 
ATOM      3  C3  BNZ d   1       4.337  -2.821   4.846  0.00  0.00     0.000 A 
ATOM      4  C4  BNZ d   1       4.604  -1.627   4.279  0.00  0.00     0.000 A 
ATOM      5  C5  BNZ d   1       3.624  -0.948   3.584  0.00  0.00     0.000 A 
ATOM      6  C6  BNZ d   1       2.363  -1.487   3.472  0.00  0.00     0.000 A 
ENDROOT
TORSDOF 0
ENDMDL
