MODEL 1
REMARK minimizedAffinity 2.84016156
REMARK minimizedRMSD -1
REMARK  0 active torsions:
REMARK  status: ('A' for Active; 'I' for Inactive)
ROOT
ATOM      1  C1  BNZ d   1       4.252  -2.295   4.025  0.00  0.00     0.000 A 
ATOM      2  C2  BNZ d   1       4.144  -1.356   3.034  0.00  0.00     0.000 A 
ATOM      3  C3  BNZ d   1       2.921  -0.886   2.645  0.00  0.00     0.000 A 
ATOM      4  C4  BNZ d   1       1.806  -1.384   3.219  0.00  0.00     0.000 A 
ATOM      5  C5  BNZ d   1       1.898  -2.338   4.213  0.00  0.00     0.000 A 
ATOM      6  C6  BNZ d   1       3.133  -2.780   4.629  0.00  0.00     0.000 A 
ENDROOT
TORSDOF 0
ENDMDL
