MODEL 1
REMARK minimizedAffinity 1.11351359
REMARK minimizedRMSD -1
REMARK  0 active torsions:
REMARK  status: ('A' for Active; 'I' for Inactive)
ROOT
ATOM      1  C1  BNZ d   1       4.833  -2.622   5.909  0.00  0.00     0.000 A 
ATOM      2  C2  BNZ d   1       3.669  -2.362   5.236  0.00  0.00     0.000 A 
ATOM      3  C3  BNZ d   1       3.659  -2.250   3.873  0.00  0.00     0.000 A 
ATOM      4  C4  BNZ d   1       4.817  -2.360   3.191  0.00  0.00     0.000 A 
ATOM      5  C5  BNZ d   1       6.000  -2.613   3.856  0.00  0.00     0.000 A 
ATOM      6  C6  BNZ d   1       6.000  -2.763   5.224  0.00  0.00     0.000 A 
ENDROOT
TORSDOF 0
ENDMDL
