MODEL 1
REMARK minimizedAffinity 6.72563028
REMARK minimizedRMSD -1
REMARK  0 active torsions:
REMARK  status: ('A' for Active; 'I' for Inactive)
ROOT
ATOM      1  C1  BNZ d   1      -0.531   3.353   1.481  0.00  0.00     0.000 A 
ATOM      2  C2  BNZ d   1       0.195   2.424   0.784  0.00  0.00     0.000 A 
ATOM      3  C3  BNZ d   1       1.122   2.811  -0.142  0.00  0.00     0.000 A 
ATOM      4  C4  BNZ d   1       1.293   4.124  -0.400  0.00  0.00     0.000 A 
ATOM      5  C5  BNZ d   1       0.562   5.072   0.286  0.00  0.00     0.000 A 
ATOM      6  C6  BNZ d   1      -0.342   4.680   1.246  0.00  0.00     0.000 A 
ENDROOT
TORSDOF 0
ENDMDL
