MODEL 1
REMARK minimizedAffinity 3.33741331
REMARK minimizedRMSD -1
REMARK  0 active torsions:
REMARK  status: ('A' for Active; 'I' for Inactive)
ROOT
ATOM      1  C1  BNZ d   1       2.977  -3.542   3.901  0.00  0.00     0.000 A 
ATOM      2  C2  BNZ d   1       2.164  -2.832   3.059  0.00  0.00     0.000 A 
ATOM      3  C3  BNZ d   1       1.815  -1.542   3.344  0.00  0.00     0.000 A 
ATOM      4  C4  BNZ d   1       2.246  -0.977   4.490  0.00  0.00     0.000 A 
ATOM      5  C5  BNZ d   1       3.059  -1.682   5.355  0.00  0.00     0.000 A 
ATOM      6  C6  BNZ d   1       3.440  -2.968   5.045  0.00  0.00     0.000 A 
ENDROOT
TORSDOF 0
ENDMDL
