MODEL 1
REMARK minimizedAffinity 16.4421177
REMARK minimizedRMSD -1
REMARK  1 active torsions:
REMARK  status: ('A' for Active; 'I' for Inactive)
REMARK    1  A    between atoms: C1_2  and  C2_3 
ROOT
ATOM      1  C2  UNL d   1       1.087  -5.159  -3.775  0.00  0.00    -0.073 A 
ATOM      2  C3  UNL d   1       1.423  -5.823  -4.960  0.00  0.00    -0.002 A 
ATOM      3  C4  UNL d   1       0.479  -5.969  -5.978  0.00  0.00     0.004 A 
ATOM      4  C5  UNL d   1      -0.805  -5.447  -5.824  0.00  0.00    -0.004 A 
ATOM      5  C6  UNL d   1      -1.156  -4.770  -4.652  0.00  0.00    -0.075 A 
ATOM      6  C7  UNL d   1      -2.534  -4.205  -4.470  0.00  0.00     0.076 C 
ATOM      7  C8  UNL d   1      -0.204  -4.630  -3.633  0.00  0.00     0.001 A 
ENDROOT
BRANCH   1   8
ATOM      8  C1  UNL d   1       2.105  -4.993  -2.676  0.00  0.00     0.053 C 
ATOM      9  C   UNL d   1       1.849  -5.941  -1.514  0.00  0.00     0.018 C 
ENDBRANCH   1   8
TORSDOF 1
ENDMDL
