MODEL 1
REMARK minimizedAffinity 16.9543991
REMARK minimizedRMSD -1
REMARK  1 active torsions:
REMARK  status: ('A' for Active; 'I' for Inactive)
REMARK    1  A    between atoms: C1_2  and  C2_3 
ROOT
ATOM      1  C2  UNL d   1       3.754  -2.584   5.086  0.00  0.00    -0.073 A 
ATOM      2  C3  UNL d   1       3.278  -3.452   4.096  0.00  0.00    -0.002 A 
ATOM      3  C4  UNL d   1       2.243  -3.054   3.249  0.00  0.00     0.004 A 
ATOM      4  C5  UNL d   1       1.679  -1.785   3.377  0.00  0.00    -0.004 A 
ATOM      5  C6  UNL d   1       2.149  -0.899   4.352  0.00  0.00    -0.075 A 
ATOM      6  C7  UNL d   1       1.551   0.469   4.504  0.00  0.00     0.076 C 
ATOM      7  C8  UNL d   1       3.187  -1.307   5.201  0.00  0.00     0.001 A 
ENDROOT
BRANCH   1   8
ATOM      8  C1  UNL d   1       4.876  -3.006   5.999  0.00  0.00     0.053 C 
ATOM      9  C   UNL d   1       5.104  -4.509   5.964  0.00  0.00     0.018 C 
ENDBRANCH   1   8
TORSDOF 1
ENDMDL
