MODEL 1
REMARK minimizedAffinity 9.15287971
REMARK minimizedRMSD -1
REMARK  1 active torsions:
REMARK  status: ('A' for Active; 'I' for Inactive)
REMARK    1  A    between atoms: C1_2  and  C2_3 
ROOT
ATOM      1  C2  UNL d   1      -1.505  -0.335  -2.030  0.00  0.00    -0.073 A 
ATOM      2  C3  UNL d   1      -2.208   0.254  -0.973  0.00  0.00    -0.002 A 
ATOM      3  C4  UNL d   1      -3.149   1.254  -1.223  0.00  0.00     0.004 A 
ATOM      4  C5  UNL d   1      -3.402   1.668  -2.530  0.00  0.00    -0.004 A 
ATOM      5  C6  UNL d   1      -2.719   1.083  -3.601  0.00  0.00    -0.075 A 
ATOM      6  C7  UNL d   1      -2.978   1.520  -5.013  0.00  0.00     0.076 C 
ATOM      7  C8  UNL d   1      -1.773   0.082  -3.342  0.00  0.00     0.001 A 
ENDROOT
BRANCH   1   8
ATOM      8  C1  UNL d   1      -0.492  -1.419  -1.766  0.00  0.00     0.053 C 
ATOM      9  C   UNL d   1       0.837  -0.854  -1.292  0.00  0.00     0.018 C 
ENDBRANCH   1   8
TORSDOF 1
ENDMDL
