MODEL 1
REMARK minimizedAffinity 8.1964798
REMARK minimizedRMSD -1
REMARK  1 active torsions:
REMARK  status: ('A' for Active; 'I' for Inactive)
REMARK    1  A    between atoms: C1_2  and  C2_3 
ROOT
ATOM      1  C2  UNL d   1       1.339  -4.076  -1.959  0.00  0.00    -0.073 A 
ATOM      2  C3  UNL d   1      -0.010  -4.354  -2.206  0.00  0.00    -0.002 A 
ATOM      3  C4  UNL d   1      -0.964  -3.339  -2.132  0.00  0.00     0.004 A 
ATOM      4  C5  UNL d   1      -0.580  -2.036  -1.817  0.00  0.00    -0.004 A 
ATOM      5  C6  UNL d   1       0.765  -1.735  -1.578  0.00  0.00    -0.075 A 
ATOM      6  C7  UNL d   1       1.195  -0.339  -1.235  0.00  0.00     0.076 C 
ATOM      7  C8  UNL d   1       1.717  -2.761  -1.652  0.00  0.00     0.001 A 
ENDROOT
BRANCH   1   8
ATOM      8  C1  UNL d   1       2.374  -5.168  -2.044  0.00  0.00     0.053 C 
ATOM      9  C   UNL d   1       3.288  -4.994  -3.247  0.00  0.00     0.018 C 
ENDBRANCH   1   8
TORSDOF 1
ENDMDL
