MODEL 1
REMARK minimizedAffinity 1.64723206
REMARK minimizedRMSD -1
REMARK  1 active torsions:
REMARK  status: ('A' for Active; 'I' for Inactive)
REMARK    1  A    between atoms: C1_2  and  C2_3 
ROOT
ATOM      1  C2  UNL d   1      -0.215   0.652   3.458  0.00  0.00    -0.077 A 
ATOM      2  C3  UNL d   1      -1.424   1.312   3.199  0.00  0.00     0.002 A 
ATOM      3  C4  UNL d   1      -1.437   2.501   2.467  0.00  0.00     0.002 A 
ATOM      4  C5  UNL d   1      -0.245   3.037   1.985  0.00  0.00    -0.004 A 
ATOM      5  C6  UNL d   1       0.963   2.389   2.238  0.00  0.00     0.002 A 
ATOM      6  C7  UNL d   1       0.978   1.201   2.971  0.00  0.00     0.002 A 
ENDROOT
BRANCH   1   7
ATOM      7  C1  UNL d   1      -0.204  -0.656   4.205  0.00  0.00     0.055 C 
ATOM      8  C   UNL d   1       1.163  -1.321   4.138  0.00  0.00     0.019 C 
ENDBRANCH   1   7
TORSDOF 1
ENDMDL
