MODEL 1
REMARK minimizedAffinity 3.83616209
REMARK minimizedRMSD -1
REMARK  1 active torsions:
REMARK  status: ('A' for Active; 'I' for Inactive)
REMARK    1  A    between atoms: C1_2  and  C2_3 
ROOT
ATOM      1  C2  UNL d   1      -0.094   3.592  -0.480  0.00  0.00    -0.077 A 
ATOM      2  C3  UNL d   1      -1.259   3.945  -1.177  0.00  0.00     0.002 A 
ATOM      3  C4  UNL d   1      -1.318   5.144  -1.891  0.00  0.00     0.002 A 
ATOM      4  C5  UNL d   1      -0.216   5.996  -1.919  0.00  0.00    -0.004 A 
ATOM      5  C6  UNL d   1       0.946   5.654  -1.228  0.00  0.00     0.002 A 
ATOM      6  C7  UNL d   1       1.007   4.457  -0.512  0.00  0.00     0.002 A 
ENDROOT
BRANCH   1   7
ATOM      7  C1  UNL d   1      -0.011   2.277   0.250  0.00  0.00     0.055 C 
ATOM      8  C   UNL d   1       0.445   2.471   1.689  0.00  0.00     0.019 C 
ENDBRANCH   1   7
TORSDOF 1
ENDMDL
