MODEL 1
REMARK minimizedAffinity 6.26212025
REMARK minimizedRMSD -1
REMARK  1 active torsions:
REMARK  status: ('A' for Active; 'I' for Inactive)
REMARK    1  A    between atoms: C1_2  and  C2_3 
ROOT
ATOM      1  C2  UNL d   1       5.263  -5.527  -2.988  0.00  0.00    -0.077 A 
ATOM      2  C3  UNL d   1       5.998  -4.908  -1.967  0.00  0.00     0.002 A 
ATOM      3  C4  UNL d   1       5.450  -4.760  -0.692  0.00  0.00     0.002 A 
ATOM      4  C5  UNL d   1       4.166  -5.231  -0.424  0.00  0.00    -0.004 A 
ATOM      5  C6  UNL d   1       3.426  -5.846  -1.433  0.00  0.00     0.002 A 
ATOM      6  C7  UNL d   1       3.972  -5.994  -2.709  0.00  0.00     0.002 A 
ENDROOT
BRANCH   1   7
ATOM      7  C1  UNL d   1       5.871  -5.732  -4.351  0.00  0.00     0.055 C 
ATOM      8  C   UNL d   1       4.798  -5.898  -5.417  0.00  0.00     0.019 C 
ENDBRANCH   1   7
TORSDOF 1
ENDMDL
