MODEL 1
REMARK minimizedAffinity -6.0712657
REMARK minimizedRMSD -1
REMARK  0 active torsions:
REMARK  status: ('A' for Active; 'I' for Inactive)
ROOT
ATOM      1  C   UNL d   1       2.505   1.604  -2.825  0.00  0.00     0.077 C 
ATOM      2  C1  UNL d   1       1.656   0.652  -2.036  0.00  0.00    -0.074 A 
ATOM      3  C2  UNL d   1       2.037  -0.683  -1.870  0.00  0.00    -0.005 A 
ATOM      4  C3  UNL d   1       1.242  -1.554  -1.125  0.00  0.00     0.006 A 
ATOM      5  C4  UNL d   1       0.059  -1.099  -0.540  0.00  0.00    -0.005 A 
ATOM      6  C5  UNL d   1      -0.337   0.233  -0.694  0.00  0.00    -0.074 A 
ATOM      7  C6  UNL d   1      -1.600   0.741  -0.063  0.00  0.00     0.077 C 
ATOM      8  C7  UNL d   1       0.471   1.104  -1.438  0.00  0.00    -0.001 A 
ENDROOT
TORSDOF 0
ENDMDL
