MODEL 1
REMARK minimizedAffinity -5.07821703
REMARK minimizedRMSD -1
REMARK  0 active torsions:
REMARK  status: ('A' for Active; 'I' for Inactive)
ROOT
ATOM      1  C   UNL d   1       3.216  -0.783  -1.119  0.00  0.00     0.077 C 
ATOM      2  C1  UNL d   1       1.993   0.084  -1.057  0.00  0.00    -0.074 A 
ATOM      3  C2  UNL d   1       1.737   1.036  -2.049  0.00  0.00    -0.005 A 
ATOM      4  C3  UNL d   1       0.591   1.829  -1.983  0.00  0.00     0.006 A 
ATOM      5  C4  UNL d   1      -0.309   1.677  -0.927  0.00  0.00    -0.005 A 
ATOM      6  C5  UNL d   1      -0.069   0.729   0.073  0.00  0.00    -0.074 A 
ATOM      7  C6  UNL d   1      -1.031   0.546   1.210  0.00  0.00     0.077 C 
ATOM      8  C7  UNL d   1       1.081  -0.068  -0.004  0.00  0.00    -0.001 A 
ENDROOT
TORSDOF 0
ENDMDL
