MODEL 1
REMARK minimizedAffinity -2.13510609
REMARK minimizedRMSD -1
REMARK  0 active torsions:
REMARK  status: ('A' for Active; 'I' for Inactive)
ROOT
ATOM      1  C   UNL d   1       2.194  -1.519  -1.850  0.00  0.00     0.077 C 
ATOM      2  C1  UNL d   1       1.305  -0.835  -0.855  0.00  0.00    -0.074 A 
ATOM      3  C2  UNL d   1       0.982  -1.446   0.360  0.00  0.00    -0.005 A 
ATOM      4  C3  UNL d   1       0.162  -0.793   1.280  0.00  0.00     0.006 A 
ATOM      5  C4  UNL d   1      -0.344   0.476   0.994  0.00  0.00    -0.005 A 
ATOM      6  C5  UNL d   1      -0.031   1.103  -0.216  0.00  0.00    -0.074 A 
ATOM      7  C6  UNL d   1      -0.557   2.471  -0.535  0.00  0.00     0.077 C 
ATOM      8  C7  UNL d   1       0.800   0.444  -1.132  0.00  0.00    -0.001 A 
ENDROOT
TORSDOF 0
ENDMDL
