MODEL 1
REMARK minimizedAffinity -3.0966568
REMARK minimizedRMSD -1
REMARK  0 active torsions:
REMARK  status: ('A' for Active; 'I' for Inactive)
ROOT
ATOM      1  C   UNL d   1      -2.334   0.205   1.345  0.00  0.00     0.077 C 
ATOM      2  C1  UNL d   1      -1.227   0.341   0.342  0.00  0.00    -0.074 A 
ATOM      3  C2  UNL d   1      -1.120   1.480  -0.461  0.00  0.00    -0.005 A 
ATOM      4  C3  UNL d   1      -0.080   1.597  -1.383  0.00  0.00     0.006 A 
ATOM      5  C4  UNL d   1       0.864   0.576  -1.509  0.00  0.00    -0.005 A 
ATOM      6  C5  UNL d   1       0.774  -0.570  -0.714  0.00  0.00    -0.074 A 
ATOM      7  C6  UNL d   1       1.786  -1.672  -0.831  0.00  0.00     0.077 C 
ATOM      8  C7  UNL d   1      -0.270  -0.677   0.215  0.00  0.00    -0.001 A 
ENDROOT
TORSDOF 0
ENDMDL
