MODEL 1
REMARK minimizedAffinity -1.50876212
REMARK minimizedRMSD -1
REMARK  0 active torsions:
REMARK  status: ('A' for Active; 'I' for Inactive)
ROOT
ATOM      1  C   UNL d   1      -1.831   0.844   3.549  0.00  0.00     0.077 C 
ATOM      2  C1  UNL d   1      -1.532   0.547   2.109  0.00  0.00    -0.074 A 
ATOM      3  C2  UNL d   1      -2.181   1.241   1.083  0.00  0.00    -0.005 A 
ATOM      4  C3  UNL d   1      -1.886   0.962  -0.251  0.00  0.00     0.006 A 
ATOM      5  C4  UNL d   1      -0.941  -0.013  -0.572  0.00  0.00    -0.005 A 
ATOM      6  C5  UNL d   1      -0.281  -0.717   0.440  0.00  0.00    -0.074 A 
ATOM      7  C6  UNL d   1       0.745  -1.761   0.113  0.00  0.00     0.077 C 
ATOM      8  C7  UNL d   1      -0.578  -0.425   1.779  0.00  0.00    -0.001 A 
ENDROOT
TORSDOF 0
ENDMDL
