MODEL 1
REMARK minimizedAffinity -4.03538561
REMARK minimizedRMSD -1
REMARK  0 active torsions:
REMARK  status: ('A' for Active; 'I' for Inactive)
ROOT
ATOM      1  C   UNL d   1       1.620  -1.542   0.234  0.00  0.00     0.077 C 
ATOM      2  C1  UNL d   1       0.443  -0.706   0.639  0.00  0.00    -0.074 A 
ATOM      3  C2  UNL d   1      -0.369  -0.095  -0.321  0.00  0.00    -0.005 A 
ATOM      4  C3  UNL d   1      -1.466   0.672   0.071  0.00  0.00     0.006 A 
ATOM      5  C4  UNL d   1      -1.762   0.835   1.424  0.00  0.00    -0.005 A 
ATOM      6  C5  UNL d   1      -0.962   0.231   2.399  0.00  0.00    -0.074 A 
ATOM      7  C6  UNL d   1      -1.272   0.388   3.858  0.00  0.00     0.077 C 
ATOM      8  C7  UNL d   1       0.135  -0.544   1.997  0.00  0.00    -0.001 A 
ENDROOT
TORSDOF 0
ENDMDL
