MODEL 1
REMARK minimizedAffinity -1.53361285
REMARK minimizedRMSD -1
REMARK  0 active torsions:
REMARK  status: ('A' for Active; 'I' for Inactive)
ROOT
ATOM      1  C   UNL d   1       0.915  -1.296  -0.383  0.00  0.00     0.077 C 
ATOM      2  C1  UNL d   1      -0.203  -0.429   0.116  0.00  0.00    -0.074 A 
ATOM      3  C2  UNL d   1      -0.763   0.562  -0.698  0.00  0.00    -0.005 A 
ATOM      4  C3  UNL d   1      -1.808   1.354  -0.224  0.00  0.00     0.006 A 
ATOM      5  C4  UNL d   1      -2.304   1.164   1.066  0.00  0.00    -0.005 A 
ATOM      6  C5  UNL d   1      -1.758   0.178   1.894  0.00  0.00    -0.074 A 
ATOM      7  C6  UNL d   1      -2.286  -0.046   3.280  0.00  0.00     0.077 C 
ATOM      8  C7  UNL d   1      -0.712  -0.619   1.408  0.00  0.00    -0.001 A 
ENDROOT
TORSDOF 0
ENDMDL
