MODEL 1
REMARK minimizedAffinity -5.0766964
REMARK minimizedRMSD -1
REMARK  0 active torsions:
REMARK  status: ('A' for Active; 'I' for Inactive)
ROOT
ATOM      1  C   UNL d   1      -2.637   0.461   1.869  0.00  0.00     0.077 C 
ATOM      2  C1  UNL d   1      -1.589   0.688   0.821  0.00  0.00    -0.074 A 
ATOM      3  C2  UNL d   1      -1.723   1.716  -0.118  0.00  0.00    -0.005 A 
ATOM      4  C3  UNL d   1      -0.735   1.922  -1.081  0.00  0.00     0.006 A 
ATOM      5  C4  UNL d   1       0.395   1.104  -1.114  0.00  0.00    -0.005 A 
ATOM      6  C5  UNL d   1       0.547   0.072  -0.182  0.00  0.00    -0.074 A 
ATOM      7  C6  UNL d   1       1.760  -0.810  -0.198  0.00  0.00     0.077 C 
ATOM      8  C7  UNL d   1      -0.447  -0.124   0.786  0.00  0.00    -0.001 A 
ENDROOT
TORSDOF 0
ENDMDL
