MODEL 1
REMARK minimizedAffinity -4.24031687
REMARK minimizedRMSD -1
REMARK  0 active torsions:
REMARK  status: ('A' for Active; 'I' for Inactive)
ROOT
ATOM      1  C   UNL d   1       1.599   1.121  -3.309  0.00  0.00     0.077 C 
ATOM      2  C1  UNL d   1       1.216   0.280  -2.127  0.00  0.00    -0.074 A 
ATOM      3  C2  UNL d   1       1.848  -0.944  -1.881  0.00  0.00    -0.005 A 
ATOM      4  C3  UNL d   1       1.488  -1.710  -0.773  0.00  0.00     0.006 A 
ATOM      5  C4  UNL d   1       0.495  -1.262   0.099  0.00  0.00    -0.005 A 
ATOM      6  C5  UNL d   1      -0.147  -0.041  -0.131  0.00  0.00    -0.074 A 
ATOM      7  C6  UNL d   1      -1.210   0.460   0.802  0.00  0.00     0.077 C 
ATOM      8  C7  UNL d   1       0.225   0.727  -1.243  0.00  0.00    -0.001 A 
ENDROOT
TORSDOF 0
ENDMDL
