MODEL 1
REMARK minimizedAffinity -5.6602397
REMARK minimizedRMSD -1
REMARK  0 active torsions:
REMARK  status: ('A' for Active; 'I' for Inactive)
ROOT
ATOM      1  C   UNL d   1      -1.316   0.439   0.392  0.00  0.00     0.077 C 
ATOM      2  C1  UNL d   1      -0.148   0.057  -0.468  0.00  0.00    -0.074 A 
ATOM      3  C2  UNL d   1       0.631  -1.064  -0.165  0.00  0.00    -0.005 A 
ATOM      4  C3  UNL d   1       1.709  -1.412  -0.979  0.00  0.00     0.006 A 
ATOM      5  C4  UNL d   1       2.018  -0.644  -2.103  0.00  0.00    -0.005 A 
ATOM      6  C5  UNL d   1       1.249   0.480  -2.422  0.00  0.00    -0.074 A 
ATOM      7  C6  UNL d   1       1.561   1.310  -3.631  0.00  0.00     0.077 C 
ATOM      8  C7  UNL d   1       0.163   0.819  -1.603  0.00  0.00    -0.001 A 
ENDROOT
TORSDOF 0
ENDMDL
