MODEL 1
REMARK minimizedAffinity -4.08179331
REMARK minimizedRMSD -1
REMARK  0 active torsions:
REMARK  status: ('A' for Active; 'I' for Inactive)
ROOT
ATOM      1  C   UNL d   1      -1.373   1.488   2.763  0.00  0.00     0.077 C 
ATOM      2  C1  UNL d   1      -0.981   1.044   1.385  0.00  0.00    -0.074 A 
ATOM      3  C2  UNL d   1      -1.538   1.645   0.251  0.00  0.00    -0.005 A 
ATOM      4  C3  UNL d   1      -1.156   1.228  -1.025  0.00  0.00     0.006 A 
ATOM      5  C4  UNL d   1      -0.216   0.208  -1.179  0.00  0.00    -0.005 A 
ATOM      6  C5  UNL d   1       0.352  -0.403  -0.057  0.00  0.00    -0.074 A 
ATOM      7  C6  UNL d   1       1.371  -1.494  -0.205  0.00  0.00     0.077 C 
ATOM      8  C7  UNL d   1      -0.031   0.026   1.222  0.00  0.00    -0.001 A 
ENDROOT
TORSDOF 0
ENDMDL
