MODEL 1
REMARK minimizedAffinity -2.41292715
REMARK minimizedRMSD -1
REMARK  0 active torsions:
REMARK  status: ('A' for Active; 'I' for Inactive)
ROOT
ATOM      1  C   UNL d   1       1.137   1.581  -2.976  0.00  0.00     0.077 C 
ATOM      2  C1  UNL d   1       0.856   0.685  -1.806  0.00  0.00    -0.074 A 
ATOM      3  C2  UNL d   1       1.363  -0.617  -1.759  0.00  0.00    -0.005 A 
ATOM      4  C3  UNL d   1       1.101  -1.435  -0.660  0.00  0.00     0.006 A 
ATOM      5  C4  UNL d   1       0.330  -0.960   0.401  0.00  0.00    -0.005 A 
ATOM      6  C5  UNL d   1      -0.186   0.340   0.372  0.00  0.00    -0.074 A 
ATOM      7  C6  UNL d   1      -1.008   0.869   1.509  0.00  0.00     0.077 C 
ATOM      8  C7  UNL d   1       0.088   1.158  -0.732  0.00  0.00    -0.001 A 
ENDROOT
TORSDOF 0
ENDMDL
