MODEL 1
REMARK minimizedAffinity -4.1665287
REMARK minimizedRMSD -1
REMARK  0 active torsions:
REMARK  status: ('A' for Active; 'I' for Inactive)
ROOT
ATOM      1  C1  DEN d   1      -1.769   0.750   0.647  0.00  0.00     0.130 A 
ATOM      2  C2  DEN d   1      -1.692   1.361   1.970  0.00  0.00    -0.031 A 
ATOM      3  C3  DEN d   1      -0.333   1.131   2.501  0.00  0.00     0.027 A 
ATOM      4  C4  DEN d   1       1.650  -0.101   1.404  0.00  0.00     0.027 A 
ATOM      5  C5  DEN d   1       2.060  -0.799   0.289  0.00  0.00    -0.003 A 
ATOM      6  C6  DEN d   1       1.219  -1.056  -0.761  0.00  0.00     0.001 A 
ATOM      7  C7  DEN d   1      -0.063  -0.574  -0.739  0.00  0.00     0.017 A 
ATOM      8  C8  DEN d   1      -0.486   0.124   0.385  0.00  0.00    -0.094 A 
ATOM      9  C9  DEN d   1       0.383   0.384   1.431  0.00  0.00    -0.072 A 
ENDROOT
TORSDOF 0
ENDMDL
