MODEL 1
REMARK minimizedAffinity -5.72114134
REMARK minimizedRMSD -1
REMARK  0 active torsions:
REMARK  status: ('A' for Active; 'I' for Inactive)
ROOT
ATOM      1  C1  DEN d   1       2.125  -0.087   1.263  0.00  0.00     0.130 A 
ATOM      2  C2  DEN d   1       2.357  -0.653  -0.064  0.00  0.00    -0.031 A 
ATOM      3  C3  DEN d   1       1.054  -0.748  -0.753  0.00  0.00     0.027 A 
ATOM      4  C4  DEN d   1      -1.285  -0.072   0.098  0.00  0.00     0.027 A 
ATOM      5  C5  DEN d   1      -1.985   0.444   1.166  0.00  0.00    -0.003 A 
ATOM      6  C6  DEN d   1      -1.374   0.784   2.344  0.00  0.00     0.001 A 
ATOM      7  C7  DEN d   1      -0.016   0.655   2.466  0.00  0.00     0.017 A 
ATOM      8  C8  DEN d   1       0.696   0.129   1.396  0.00  0.00    -0.094 A 
ATOM      9  C9  DEN d   1       0.062  -0.198   0.209  0.00  0.00    -0.072 A 
ENDROOT
TORSDOF 0
ENDMDL
