MODEL 1
REMARK minimizedAffinity 0.855873525
REMARK minimizedRMSD -1
REMARK  0 active torsions:
REMARK  status: ('A' for Active; 'I' for Inactive)
ROOT
ATOM      1  C1  DEN d   1      -1.166  -0.146  -1.759  0.00  0.00     0.130 A 
ATOM      2  C2  DEN d   1      -0.003  -1.025  -1.855  0.00  0.00    -0.031 A 
ATOM      3  C3  DEN d   1       0.546  -1.206  -0.496  0.00  0.00     0.027 A 
ATOM      4  C4  DEN d   1      -0.289  -0.220   1.736  0.00  0.00     0.027 A 
ATOM      5  C5  DEN d   1      -1.236   0.593   2.320  0.00  0.00    -0.003 A 
ATOM      6  C6  DEN d   1      -2.196   1.238   1.588  0.00  0.00     0.001 A 
ATOM      7  C7  DEN d   1      -2.260   1.046   0.233  0.00  0.00     0.017 A 
ATOM      8  C8  DEN d   1      -1.305   0.233  -0.364  0.00  0.00    -0.094 A 
ATOM      9  C9  DEN d   1      -0.349  -0.420   0.395  0.00  0.00    -0.072 A 
ENDROOT
TORSDOF 0
ENDMDL
