MODEL 1
REMARK minimizedAffinity -3.76264524
REMARK minimizedRMSD -1
REMARK  0 active torsions:
REMARK  status: ('A' for Active; 'I' for Inactive)
ROOT
ATOM      1  C1  DEN d   1       0.900   0.180   2.593  0.00  0.00     0.130 A 
ATOM      2  C2  DEN d   1      -0.180   0.990   3.151  0.00  0.00    -0.031 A 
ATOM      3  C3  DEN d   1      -1.097   1.348   2.050  0.00  0.00     0.027 A 
ATOM      4  C4  DEN d   1      -0.954   0.726  -0.449  0.00  0.00     0.027 A 
ATOM      5  C5  DEN d   1      -0.211   0.062  -1.400  0.00  0.00    -0.003 A 
ATOM      6  C6  DEN d   1       0.963  -0.574  -1.095  0.00  0.00     0.001 A 
ATOM      7  C7  DEN d   1       1.405  -0.599   0.201  0.00  0.00     0.017 A 
ATOM      8  C8  DEN d   1       0.665   0.073   1.164  0.00  0.00    -0.094 A 
ATOM      9  C9  DEN d   1      -0.526   0.701   0.839  0.00  0.00    -0.072 A 
ENDROOT
TORSDOF 0
ENDMDL
