MODEL 1
REMARK minimizedAffinity -2.63946342
REMARK minimizedRMSD -1
REMARK  0 active torsions:
REMARK  status: ('A' for Active; 'I' for Inactive)
ROOT
ATOM      1  C1  DEN d   1       1.167  -0.138  -0.501  0.00  0.00     0.130 A 
ATOM      2  C2  DEN d   1      -0.082  -0.565   0.125  0.00  0.00    -0.031 A 
ATOM      3  C3  DEN d   1      -1.066  -0.819  -0.947  0.00  0.00     0.027 A 
ATOM      4  C4  DEN d   1      -0.777  -0.599  -3.501  0.00  0.00     0.027 A 
ATOM      5  C5  DEN d   1       0.101  -0.258  -4.506  0.00  0.00    -0.003 A 
ATOM      6  C6  DEN d   1       1.374   0.176  -4.247  0.00  0.00     0.001 A 
ATOM      7  C7  DEN d   1       1.821   0.237  -2.954  0.00  0.00     0.017 A 
ATOM      8  C8  DEN d   1       0.939  -0.098  -1.934  0.00  0.00    -0.094 A 
ATOM      9  C9  DEN d   1      -0.340  -0.546  -2.217  0.00  0.00    -0.072 A 
ENDROOT
TORSDOF 0
ENDMDL
