MODEL 1
REMARK minimizedAffinity -5.05753851
REMARK minimizedRMSD -1
REMARK  0 active torsions:
REMARK  status: ('A' for Active; 'I' for Inactive)
ROOT
ATOM      1  C1  DEN d   1      -1.322  -0.338  -0.393  0.00  0.00     0.130 A 
ATOM      2  C2  DEN d   1      -0.181  -0.214  -1.296  0.00  0.00    -0.031 A 
ATOM      3  C3  DEN d   1       0.994   0.182  -0.494  0.00  0.00     0.027 A 
ATOM      4  C4  DEN d   1       1.158   0.606   2.045  0.00  0.00     0.027 A 
ATOM      5  C5  DEN d   1       0.450   0.636   3.226  0.00  0.00    -0.003 A 
ATOM      6  C6  DEN d   1      -0.894   0.378   3.278  0.00  0.00     0.001 A 
ATOM      7  C7  DEN d   1      -1.565   0.035   2.134  0.00  0.00     0.017 A 
ATOM      8  C8  DEN d   1      -0.859   0.010   0.938  0.00  0.00    -0.094 A 
ATOM      9  C9  DEN d   1       0.502   0.262   0.908  0.00  0.00    -0.072 A 
ENDROOT
TORSDOF 0
ENDMDL
