MODEL 1
REMARK minimizedAffinity -4.84448242
REMARK minimizedRMSD -1
REMARK  0 active torsions:
REMARK  status: ('A' for Active; 'I' for Inactive)
ROOT
ATOM      1  C1  DEN d   1      -0.700  -1.137  -0.546  0.00  0.00     0.130 A 
ATOM      2  C2  DEN d   1      -2.068  -0.695  -0.290  0.00  0.00    -0.031 A 
ATOM      3  C3  DEN d   1      -2.075   0.053   0.983  0.00  0.00     0.027 A 
ATOM      4  C4  DEN d   1      -0.111   0.572   2.572  0.00  0.00     0.027 A 
ATOM      5  C5  DEN d   1       1.239   0.395   2.783  0.00  0.00    -0.003 A 
ATOM      6  C6  DEN d   1       2.024  -0.328   1.924  0.00  0.00     0.001 A 
ATOM      7  C7  DEN d   1       1.474  -0.863   0.789  0.00  0.00     0.017 A 
ATOM      8  C8  DEN d   1       0.113  -0.695   0.573  0.00  0.00    -0.094 A 
ATOM      9  C9  DEN d   1      -0.662   0.049   1.447  0.00  0.00    -0.072 A 
ENDROOT
TORSDOF 0
ENDMDL
