MODEL 1
REMARK minimizedAffinity -4.5849123
REMARK minimizedRMSD -1
REMARK  0 active torsions:
REMARK  status: ('A' for Active; 'I' for Inactive)
ROOT
ATOM      1  C1  DEN d   1       0.715   0.998   2.490  0.00  0.00     0.130 A 
ATOM      2  C2  DEN d   1      -0.621   1.306   2.994  0.00  0.00    -0.031 A 
ATOM      3  C3  DEN d   1      -1.599   0.934   1.952  0.00  0.00     0.027 A 
ATOM      4  C4  DEN d   1      -1.177  -0.088  -0.379  0.00  0.00     0.027 A 
ATOM      5  C5  DEN d   1      -0.207  -0.517  -1.257  0.00  0.00    -0.003 A 
ATOM      6  C6  DEN d   1       1.129  -0.441  -0.964  0.00  0.00     0.001 A 
ATOM      7  C7  DEN d   1       1.530   0.035   0.256  0.00  0.00     0.017 A 
ATOM      8  C8  DEN d   1       0.559   0.477   1.144  0.00  0.00    -0.094 A 
ATOM      9  C9  DEN d   1      -0.787   0.380   0.834  0.00  0.00    -0.072 A 
ENDROOT
TORSDOF 0
ENDMDL
