MODEL 1
REMARK minimizedAffinity 1.06450748
REMARK minimizedRMSD -1
REMARK  0 active torsions:
REMARK  status: ('A' for Active; 'I' for Inactive)
ROOT
ATOM      1  C   UNL d   1       0.230   5.273   5.985  0.00  0.00     0.172 C 
ATOM      2  N   UNL d   1       1.604   4.836   5.899  0.00  0.00    -0.070 N 
ATOM      3  C1  UNL d   1       2.689   5.649   5.707  0.00  0.00    -0.004 A 
ATOM      4  C2  UNL d   1       3.813   4.852   5.685  0.00  0.00    -0.047 A 
ATOM      5  C3  UNL d   1       3.389   3.515   5.869  0.00  0.00    -0.047 A 
ATOM      6  C4  UNL d   1       2.016   3.534   6.000  0.00  0.00    -0.004 A 
ENDROOT
TORSDOF 0
ENDMDL
