MODEL 1
REMARK minimizedAffinity -1.60964
REMARK minimizedRMSD -1
REMARK  0 active torsions:
REMARK  status: ('A' for Active; 'I' for Inactive)
ROOT
ATOM      1  C   UNL d   1       2.625   1.293   6.000  0.00  0.00     0.172 C 
ATOM      2  N   UNL d   1       2.641   2.724   5.806  0.00  0.00    -0.070 N 
ATOM      3  C1  UNL d   1       1.580   3.568   5.999  0.00  0.00    -0.004 A 
ATOM      4  C2  UNL d   1       2.001   4.848   5.710  0.00  0.00    -0.047 A 
ATOM      5  C3  UNL d   1       3.362   4.770   5.330  0.00  0.00    -0.047 A 
ATOM      6  C4  UNL d   1       3.732   3.444   5.398  0.00  0.00    -0.004 A 
ENDROOT
TORSDOF 0
ENDMDL
