MODEL 1
REMARK minimizedAffinity -2.00522518
REMARK minimizedRMSD -1
REMARK  0 active torsions:
REMARK  status: ('A' for Active; 'I' for Inactive)
ROOT
ATOM      1  C   UNL d   1       1.715   4.447   5.751  0.00  0.00     0.172 C 
ATOM      2  N   UNL d   1       2.615   3.402   5.322  0.00  0.00    -0.070 N 
ATOM      3  C1  UNL d   1       3.377   3.423   4.184  0.00  0.00    -0.004 A 
ATOM      4  C2  UNL d   1       4.095   2.247   4.136  0.00  0.00    -0.047 A 
ATOM      5  C3  UNL d   1       3.751   1.494   5.283  0.00  0.00    -0.047 A 
ATOM      6  C4  UNL d   1       2.833   2.232   6.000  0.00  0.00    -0.004 A 
ENDROOT
TORSDOF 0
ENDMDL
