MODEL 1
REMARK minimizedAffinity -2.11780286
REMARK minimizedRMSD -1
REMARK  0 active torsions:
REMARK  status: ('A' for Active; 'I' for Inactive)
ROOT
ATOM      1  C   UNL d   1      -0.388  -4.993   6.000  0.00  0.00     0.172 C 
ATOM      2  N   UNL d   1       0.087  -3.722   5.506  0.00  0.00    -0.070 N 
ATOM      3  C1  UNL d   1      -0.470  -3.006   4.480  0.00  0.00    -0.004 A 
ATOM      4  C2  UNL d   1       0.272  -1.856   4.317  0.00  0.00    -0.047 A 
ATOM      5  C3  UNL d   1       1.311  -1.882   5.277  0.00  0.00    -0.047 A 
ATOM      6  C4  UNL d   1       1.172  -3.048   6.000  0.00  0.00    -0.004 A 
ENDROOT
TORSDOF 0
ENDMDL
