MODEL 1
REMARK minimizedAffinity 1.5761385
REMARK minimizedRMSD -1
REMARK  0 active torsions:
REMARK  status: ('A' for Active; 'I' for Inactive)
ROOT
ATOM      1  C   UNL d   1      -2.399  -0.095  -1.489  0.00  0.00     0.172 C 
ATOM      2  N   UNL d   1      -3.494   0.165  -0.584  0.00  0.00    -0.070 N 
ATOM      3  C1  UNL d   1      -4.806  -0.158  -0.804  0.00  0.00    -0.004 A 
ATOM      4  C2  UNL d   1      -5.532   0.255   0.292  0.00  0.00    -0.047 A 
ATOM      5  C3  UNL d   1      -4.625   0.849   1.202  0.00  0.00    -0.047 A 
ATOM      6  C4  UNL d   1      -3.370   0.780   0.634  0.00  0.00    -0.004 A 
ENDROOT
TORSDOF 0
ENDMDL
