MODEL 1
REMARK minimizedAffinity 3.50717378
REMARK minimizedRMSD -1
REMARK  0 active torsions:
REMARK  status: ('A' for Active; 'I' for Inactive)
ROOT
ATOM      1  C   UNL d   1       2.950  -0.360  -0.854  0.00  0.00     0.172 C 
ATOM      2  N   UNL d   1       3.766   0.752  -0.426  0.00  0.00    -0.070 N 
ATOM      3  C1  UNL d   1       3.315   1.873   0.217  0.00  0.00    -0.004 A 
ATOM      4  C2  UNL d   1       4.400   2.690   0.452  0.00  0.00    -0.047 A 
ATOM      5  C3  UNL d   1       5.543   2.037  -0.067  0.00  0.00    -0.047 A 
ATOM      6  C4  UNL d   1       5.122   0.839  -0.605  0.00  0.00    -0.004 A 
ENDROOT
TORSDOF 0
ENDMDL
