MODEL 1
REMARK minimizedAffinity 0.849087775
REMARK minimizedRMSD -1
REMARK  0 active torsions:
REMARK  status: ('A' for Active; 'I' for Inactive)
ROOT
ATOM      1  C   UNL d   1       3.753   1.086   5.994  0.00  0.00     0.172 C 
ATOM      2  N   UNL d   1       4.350   2.194   5.286  0.00  0.00    -0.070 N 
ATOM      3  C1  UNL d   1       4.826   3.343   5.858  0.00  0.00    -0.004 A 
ATOM      4  C2  UNL d   1       5.313   4.146   4.850  0.00  0.00    -0.047 A 
ATOM      5  C3  UNL d   1       5.122   3.456   3.629  0.00  0.00    -0.047 A 
ATOM      6  C4  UNL d   1       4.523   2.250   3.929  0.00  0.00    -0.004 A 
ENDROOT
TORSDOF 0
ENDMDL
