MODEL 1
REMARK minimizedAffinity 0.516787767
REMARK minimizedRMSD -1
REMARK  0 active torsions:
REMARK  status: ('A' for Active; 'I' for Inactive)
ROOT
ATOM      1  C   UNL d   1      -0.217  -6.000   6.000  0.00  0.00     0.172 C 
ATOM      2  N   UNL d   1       0.339  -5.189   4.942  0.00  0.00    -0.070 N 
ATOM      3  C1  UNL d   1      -0.040  -5.222   3.627  0.00  0.00    -0.004 A 
ATOM      4  C2  UNL d   1       0.726  -4.302   2.944  0.00  0.00    -0.047 A 
ATOM      5  C3  UNL d   1       1.596  -3.697   3.881  0.00  0.00    -0.047 A 
ATOM      6  C4  UNL d   1       1.336  -4.264   5.110  0.00  0.00    -0.004 A 
ENDROOT
TORSDOF 0
ENDMDL
