MODEL 1
REMARK minimizedAffinity -0.359050781
REMARK minimizedRMSD -1
REMARK  0 active torsions:
REMARK  status: ('A' for Active; 'I' for Inactive)
ROOT
ATOM      1  C   UNL d   1      -5.693   2.021  -6.000  0.00  0.00     0.023 A 
ATOM      2  C1  UNL d   1      -5.170   0.828  -5.501  0.00  0.00     0.003 A 
ATOM      3  C2  UNL d   1      -4.677   0.771  -4.196  0.00  0.00     0.048 A 
ATOM      4  C3  UNL d   1      -4.711   1.912  -3.394  0.00  0.00     0.023 A 
ATOM      5  C4  UNL d   1      -5.235   3.107  -3.888  0.00  0.00     0.048 A 
ATOM      6  C5  UNL d   1      -5.725   3.159  -5.195  0.00  0.00     0.003 A 
ATOM      7  I   UNL d   1      -3.979   1.830  -1.451  0.00  0.00    -0.146 I 
ENDROOT
TORSDOF 0
ENDMDL
