MODEL 1
REMARK minimizedAffinity 3.73624635
REMARK minimizedRMSD -1
REMARK  0 active torsions:
REMARK  status: ('A' for Active; 'I' for Inactive)
ROOT
ATOM      1  C   UNL d   1       0.377   6.000   1.517  0.00  0.00     0.023 A 
ATOM      2  C1  UNL d   1      -0.109   5.365   2.660  0.00  0.00     0.003 A 
ATOM      3  C2  UNL d   1      -0.196   3.972   2.703  0.00  0.00     0.048 A 
ATOM      4  C3  UNL d   1       0.207   3.220   1.600  0.00  0.00     0.023 A 
ATOM      5  C4  UNL d   1       0.695   3.851   0.454  0.00  0.00     0.048 A 
ATOM      6  C5  UNL d   1       0.779   5.244   0.416  0.00  0.00     0.003 A 
ATOM      7  I   UNL d   1       0.079   1.146   1.661  0.00  0.00    -0.146 I 
ENDROOT
TORSDOF 0
ENDMDL
