MODEL 1
REMARK minimizedAffinity 6.65844011
REMARK minimizedRMSD -1
REMARK  0 active torsions:
REMARK  status: ('A' for Active; 'I' for Inactive)
ROOT
ATOM      1  C   UNL d   1       0.278  -0.087   0.612  0.00  0.00     0.023 A 
ATOM      2  C1  UNL d   1      -1.008  -0.520   0.290  0.00  0.00     0.003 A 
ATOM      3  C2  UNL d   1      -1.819   0.255  -0.541  0.00  0.00     0.048 A 
ATOM      4  C3  UNL d   1      -1.338   1.462  -1.047  0.00  0.00     0.023 A 
ATOM      5  C4  UNL d   1      -0.052   1.899  -0.728  0.00  0.00     0.048 A 
ATOM      6  C5  UNL d   1       0.756   1.122   0.104  0.00  0.00     0.003 A 
ATOM      7  I   UNL d   1      -2.544   2.617  -2.284  0.00  0.00    -0.146 I 
ENDROOT
TORSDOF 0
ENDMDL
