MODEL 1
REMARK minimizedAffinity -1.72996867
REMARK minimizedRMSD -1
REMARK  0 active torsions:
REMARK  status: ('A' for Active; 'I' for Inactive)
ROOT
ATOM      1  C   UNL d   1      -5.665   2.502  -5.633  0.00  0.00     0.023 A 
ATOM      2  C1  UNL d   1      -6.000   3.492  -4.709  0.00  0.00     0.003 A 
ATOM      3  C2  UNL d   1      -5.774   3.284  -3.347  0.00  0.00     0.048 A 
ATOM      4  C3  UNL d   1      -5.211   2.083  -2.916  0.00  0.00     0.023 A 
ATOM      5  C4  UNL d   1      -4.874   1.090  -3.836  0.00  0.00     0.048 A 
ATOM      6  C5  UNL d   1      -5.102   1.303  -5.197  0.00  0.00     0.003 A 
ATOM      7  I   UNL d   1      -4.874   1.770  -0.889  0.00  0.00    -0.146 I 
ENDROOT
TORSDOF 0
ENDMDL
