MODEL 1
REMARK minimizedAffinity 0.197822332
REMARK minimizedRMSD -1
REMARK  0 active torsions:
REMARK  status: ('A' for Active; 'I' for Inactive)
ROOT
ATOM      1  C   UNL d   1       0.688   4.292   4.327  0.00  0.00     0.023 A 
ATOM      2  C1  UNL d   1       1.080   4.180   2.993  0.00  0.00     0.003 A 
ATOM      3  C2  UNL d   1       0.874   2.985   2.301  0.00  0.00     0.048 A 
ATOM      4  C3  UNL d   1       0.274   1.906   2.949  0.00  0.00     0.023 A 
ATOM      5  C4  UNL d   1      -0.121   2.013   4.283  0.00  0.00     0.048 A 
ATOM      6  C5  UNL d   1       0.088   3.210   4.971  0.00  0.00     0.003 A 
ATOM      7  I   UNL d   1      -0.034   0.126   1.921  0.00  0.00    -0.146 I 
ENDROOT
TORSDOF 0
ENDMDL
