MODEL 1
REMARK minimizedAffinity 4.30503988
REMARK minimizedRMSD -1
REMARK  0 active torsions:
REMARK  status: ('A' for Active; 'I' for Inactive)
ROOT
ATOM      1  C   UNL d   1      -1.805   3.987  -3.747  0.00  0.00     0.023 A 
ATOM      2  C1  UNL d   1      -2.255   4.810  -4.779  0.00  0.00     0.003 A 
ATOM      3  C2  UNL d   1      -3.459   4.525  -5.426  0.00  0.00     0.048 A 
ATOM      4  C3  UNL d   1      -4.208   3.415  -5.036  0.00  0.00     0.023 A 
ATOM      5  C4  UNL d   1      -3.761   2.589  -4.003  0.00  0.00     0.048 A 
ATOM      6  C5  UNL d   1      -2.556   2.878  -3.360  0.00  0.00     0.003 A 
ATOM      7  I   UNL d   1      -6.000   2.987  -5.998  0.00  0.00    -0.146 I 
ENDROOT
TORSDOF 0
ENDMDL
