MODEL 1
REMARK minimizedAffinity 5.61554813
REMARK minimizedRMSD -1
REMARK  0 active torsions:
REMARK  status: ('A' for Active; 'I' for Inactive)
ROOT
ATOM      1  C   UNL d   1      -5.698   2.325  -5.486  0.00  0.00     0.023 A 
ATOM      2  C1  UNL d   1      -6.000   3.213  -4.453  0.00  0.00     0.003 A 
ATOM      3  C2  UNL d   1      -5.491   2.995  -3.171  0.00  0.00     0.048 A 
ATOM      4  C3  UNL d   1      -4.680   1.887  -2.929  0.00  0.00     0.023 A 
ATOM      5  C4  UNL d   1      -4.375   0.996  -3.959  0.00  0.00     0.048 A 
ATOM      6  C5  UNL d   1      -4.887   1.217  -5.239  0.00  0.00     0.003 A 
ATOM      7  I   UNL d   1      -3.920   1.560  -1.022  0.00  0.00    -0.146 I 
ENDROOT
TORSDOF 0
ENDMDL
