MODEL 1
REMARK minimizedAffinity -0.972638726
REMARK minimizedRMSD -1
REMARK  0 active torsions:
REMARK  status: ('A' for Active; 'I' for Inactive)
ROOT
ATOM      1  C   UNL d   1       0.218   1.010  -1.037  0.00  0.00     0.023 A 
ATOM      2  C1  UNL d   1       0.641   0.056  -0.112  0.00  0.00     0.003 A 
ATOM      3  C2  UNL d   1       0.703  -1.291  -0.475  0.00  0.00     0.048 A 
ATOM      4  C3  UNL d   1       0.341  -1.677  -1.765  0.00  0.00     0.023 A 
ATOM      5  C4  UNL d   1      -0.082  -0.725  -2.695  0.00  0.00     0.048 A 
ATOM      6  C5  UNL d   1      -0.143   0.620  -2.327  0.00  0.00     0.003 A 
ATOM      7  I   UNL d   1       0.433  -3.681  -2.308  0.00  0.00    -0.146 I 
ENDROOT
TORSDOF 0
ENDMDL
