MODEL 1
REMARK minimizedAffinity -3.1137116
REMARK minimizedRMSD -1
REMARK  0 active torsions:
REMARK  status: ('A' for Active; 'I' for Inactive)
ROOT
ATOM      1  C   UNL d   1      -5.014   2.369  -1.476  0.00  0.00     0.023 A 
ATOM      2  C1  UNL d   1      -4.584   1.647  -2.589  0.00  0.00     0.003 A 
ATOM      3  C2  UNL d   1      -4.701   2.196  -3.867  0.00  0.00     0.048 A 
ATOM      4  C3  UNL d   1      -5.248   3.469  -4.025  0.00  0.00     0.023 A 
ATOM      5  C4  UNL d   1      -5.679   4.196  -2.915  0.00  0.00     0.048 A 
ATOM      6  C5  UNL d   1      -5.561   3.642  -1.638  0.00  0.00     0.003 A 
ATOM      7  I   UNL d   1      -5.423   4.288  -5.927  0.00  0.00    -0.146 I 
ENDROOT
TORSDOF 0
ENDMDL
