MODEL 1
REMARK minimizedAffinity 3.91164827
REMARK minimizedRMSD -1
REMARK  0 active torsions:
REMARK  status: ('A' for Active; 'I' for Inactive)
ROOT
ATOM      1  C   UNL d   1      -1.095   2.549  -2.163  0.00  0.00     0.023 A 
ATOM      2  C1  UNL d   1      -1.787   1.427  -1.707  0.00  0.00     0.003 A 
ATOM      3  C2  UNL d   1      -1.120   0.443  -0.975  0.00  0.00     0.048 A 
ATOM      4  C3  UNL d   1       0.240   0.587  -0.702  0.00  0.00     0.023 A 
ATOM      5  C4  UNL d   1       0.937   1.708  -1.156  0.00  0.00     0.048 A 
ATOM      6  C5  UNL d   1       0.266   2.689  -1.889  0.00  0.00     0.003 A 
ATOM      7  I   UNL d   1       1.236  -0.876   0.387  0.00  0.00    -0.146 I 
ENDROOT
TORSDOF 0
ENDMDL
