MODEL 1
REMARK minimizedAffinity 1.81325185
REMARK minimizedRMSD -1
REMARK  0 active torsions:
REMARK  status: ('A' for Active; 'I' for Inactive)
ROOT
ATOM      1  C   UNL d   1      -4.883   1.135  -3.019  0.00  0.00     0.023 A 
ATOM      2  C1  UNL d   1      -4.937   0.925  -4.397  0.00  0.00     0.003 A 
ATOM      3  C2  UNL d   1      -5.257   1.980  -5.254  0.00  0.00     0.048 A 
ATOM      4  C3  UNL d   1      -5.522   3.243  -4.726  0.00  0.00     0.023 A 
ATOM      5  C4  UNL d   1      -5.469   3.458  -3.348  0.00  0.00     0.048 A 
ATOM      6  C5  UNL d   1      -5.149   2.400  -2.496  0.00  0.00     0.003 A 
ATOM      7  I   UNL d   1      -6.000   4.815  -6.000  0.00  0.00    -0.146 I 
ENDROOT
TORSDOF 0
ENDMDL
