MODEL 1
REMARK minimizedAffinity 5.73822117
REMARK minimizedRMSD -1
REMARK  0 active torsions:
REMARK  status: ('A' for Active; 'I' for Inactive)
ROOT
ATOM      1  C   UNL d   1      -4.426   0.066  -4.004  0.00  0.00     0.023 A 
ATOM      2  C1  UNL d   1      -3.729   1.207  -3.605  0.00  0.00     0.003 A 
ATOM      3  C2  UNL d   1      -4.159   2.470  -4.018  0.00  0.00     0.048 A 
ATOM      4  C3  UNL d   1      -5.287   2.584  -4.830  0.00  0.00     0.023 A 
ATOM      5  C4  UNL d   1      -5.988   1.446  -5.231  0.00  0.00     0.048 A 
ATOM      6  C5  UNL d   1      -5.554   0.185  -4.816  0.00  0.00     0.003 A 
ATOM      7  I   UNL d   1      -5.930   4.463  -5.446  0.00  0.00    -0.146 I 
ENDROOT
TORSDOF 0
ENDMDL
