MODEL 1
REMARK minimizedAffinity 2.23185015
REMARK minimizedRMSD -1
REMARK  0 active torsions:
REMARK  status: ('A' for Active; 'I' for Inactive)
ROOT
ATOM      1  C   UNL d   1      -5.942   3.266  -6.000  0.00  0.00     0.023 A 
ATOM      2  C1  UNL d   1      -5.199   2.087  -5.931  0.00  0.00     0.003 A 
ATOM      3  C2  UNL d   1      -4.510   1.762  -4.761  0.00  0.00     0.048 A 
ATOM      4  C3  UNL d   1      -4.570   2.619  -3.662  0.00  0.00     0.023 A 
ATOM      5  C4  UNL d   1      -5.314   3.799  -3.726  0.00  0.00     0.048 A 
ATOM      6  C5  UNL d   1      -6.000   4.120  -4.899  0.00  0.00     0.003 A 
ATOM      7  I   UNL d   1      -3.547   2.137  -1.919  0.00  0.00    -0.146 I 
ENDROOT
TORSDOF 0
ENDMDL
