MODEL 1
REMARK minimizedAffinity 10.6733608
REMARK minimizedRMSD -1
REMARK  0 active torsions:
REMARK  status: ('A' for Active; 'I' for Inactive)
ROOT
ATOM      1  C   UNL d   1       1.089   3.034   4.698  0.00  0.00     0.023 A 
ATOM      2  C1  UNL d   1       0.978   1.727   4.223  0.00  0.00     0.003 A 
ATOM      3  C2  UNL d   1       0.485   1.490   2.938  0.00  0.00     0.048 A 
ATOM      4  C3  UNL d   1       0.107   2.564   2.134  0.00  0.00     0.023 A 
ATOM      5  C4  UNL d   1       0.218   3.873   2.604  0.00  0.00     0.048 A 
ATOM      6  C5  UNL d   1       0.710   4.106   3.890  0.00  0.00     0.003 A 
ATOM      7  I   UNL d   1      -0.626   2.213   0.221  0.00  0.00    -0.146 I 
ENDROOT
TORSDOF 0
ENDMDL
