MODEL 1
REMARK minimizedAffinity 2.66258669
REMARK minimizedRMSD -1
REMARK  0 active torsions:
REMARK  status: ('A' for Active; 'I' for Inactive)
ROOT
ATOM      1  C   UNL d   1       0.762  -3.933  -3.816  0.00  0.00     0.023 A 
ATOM      2  C1  UNL d   1       0.901  -4.100  -2.438  0.00  0.00     0.003 A 
ATOM      3  C2  UNL d   1       2.161  -4.001  -1.845  0.00  0.00     0.048 A 
ATOM      4  C3  UNL d   1       3.278  -3.735  -2.636  0.00  0.00     0.023 A 
ATOM      5  C4  UNL d   1       3.144  -3.567  -4.015  0.00  0.00     0.048 A 
ATOM      6  C5  UNL d   1       1.882  -3.667  -4.604  0.00  0.00     0.003 A 
ATOM      7  I   UNL d   1       5.155  -3.588  -1.756  0.00  0.00    -0.146 I 
ENDROOT
TORSDOF 0
ENDMDL
