MODEL 1
REMARK minimizedAffinity 0.796298862
REMARK minimizedRMSD -1
REMARK  0 active torsions:
REMARK  status: ('A' for Active; 'I' for Inactive)
ROOT
ATOM      1  C   UNL d   1      -5.007   0.242  -4.876  0.00  0.00     0.023 A 
ATOM      2  C1  UNL d   1      -4.165   1.099  -4.168  0.00  0.00     0.003 A 
ATOM      3  C2  UNL d   1      -4.237   2.479  -4.374  0.00  0.00     0.048 A 
ATOM      4  C3  UNL d   1      -5.154   2.994  -5.289  0.00  0.00     0.023 A 
ATOM      5  C4  UNL d   1      -6.000   2.140  -5.999  0.00  0.00     0.048 A 
ATOM      6  C5  UNL d   1      -5.923   0.762  -5.791  0.00  0.00     0.003 A 
ATOM      7  I   UNL d   1      -5.263   5.046  -5.598  0.00  0.00    -0.146 I 
ENDROOT
TORSDOF 0
ENDMDL
