MODEL 1
REMARK minimizedAffinity 5.48363209
REMARK minimizedRMSD -1
REMARK  0 active torsions:
REMARK  status: ('A' for Active; 'I' for Inactive)
ROOT
ATOM      1  C   UNL d   1      -0.717   0.371   3.007  0.00  0.00     0.023 A 
ATOM      2  C1  UNL d   1       0.510  -0.176   2.631  0.00  0.00     0.003 A 
ATOM      3  C2  UNL d   1       0.977  -0.013   1.326  0.00  0.00     0.048 A 
ATOM      4  C3  UNL d   1       0.214   0.699   0.401  0.00  0.00     0.023 A 
ATOM      5  C4  UNL d   1      -1.014   1.249   0.773  0.00  0.00     0.048 A 
ATOM      6  C5  UNL d   1      -1.478   1.083   2.080  0.00  0.00     0.003 A 
ATOM      7  I   UNL d   1       0.908   0.942  -1.542  0.00  0.00    -0.146 I 
ENDROOT
TORSDOF 0
ENDMDL
