MODEL 1
REMARK minimizedAffinity 6.14300919
REMARK minimizedRMSD -1
REMARK  0 active torsions:
REMARK  status: ('A' for Active; 'I' for Inactive)
ROOT
ATOM      1  C   UNL d   1       6.000   5.870  -4.786  0.00  0.00    -0.002 A 
ATOM      2  C1  UNL d   1       4.813   5.647  -5.469  0.00  0.00     0.010 A 
ATOM      3  C2  UNL d   1       3.604   5.547  -4.779  0.00  0.00     0.041 A 
ATOM      4  C3  UNL d   1       3.607   5.677  -3.376  0.00  0.00    -0.075 A 
ATOM      5  S   UNL d   1       2.247   5.590  -2.320  0.00  0.00     0.015 SA
ATOM      6  C4  UNL d   1       3.209   5.848  -0.938  0.00  0.00     0.022 A 
ATOM      7  C5  UNL d   1       4.538   5.999  -1.255  0.00  0.00     0.026 A 
ATOM      8  C6  UNL d   1       4.790   5.903  -2.665  0.00  0.00    -0.082 A 
ATOM      9  C7  UNL d   1       5.999   5.999  -3.394  0.00  0.00     0.045 A 
ENDROOT
TORSDOF 0
ENDMDL
