MODEL 1
REMARK minimizedAffinity 2.17517829
REMARK minimizedRMSD -1
REMARK  0 active torsions:
REMARK  status: ('A' for Active; 'I' for Inactive)
ROOT
ATOM      1  C   UNL d   1       0.707   2.070   0.558  0.00  0.00    -0.002 A 
ATOM      2  C1  UNL d   1       2.063   1.789   0.460  0.00  0.00     0.010 A 
ATOM      3  C2  UNL d   1       2.924   2.667  -0.201  0.00  0.00     0.041 A 
ATOM      4  C3  UNL d   1       2.396   3.845  -0.765  0.00  0.00    -0.075 A 
ATOM      5  S   UNL d   1       3.261   5.067  -1.619  0.00  0.00     0.015 SA
ATOM      6  C4  UNL d   1       1.852   5.992  -1.873  0.00  0.00     0.022 A 
ATOM      7  C5  UNL d   1       0.739   5.397  -1.326  0.00  0.00     0.026 A 
ATOM      8  C6  UNL d   1       1.035   4.150  -0.678  0.00  0.00    -0.082 A 
ATOM      9  C7  UNL d   1       0.187   3.239  -0.003  0.00  0.00     0.045 A 
ENDROOT
TORSDOF 0
ENDMDL
