MODEL 1
REMARK minimizedAffinity 5.31147003
REMARK minimizedRMSD -1
REMARK  0 active torsions:
REMARK  status: ('A' for Active; 'I' for Inactive)
ROOT
ATOM      1  C   UNL d   1       2.093  -4.257   4.383  0.00  0.00    -0.002 A 
ATOM      2  C1  UNL d   1       3.274  -3.530   4.446  0.00  0.00     0.010 A 
ATOM      3  C2  UNL d   1       3.391  -2.308   3.781  0.00  0.00     0.041 A 
ATOM      4  C3  UNL d   1       2.291  -1.823   3.047  0.00  0.00    -0.075 A 
ATOM      5  S   UNL d   1       2.204  -0.351   2.154  0.00  0.00     0.015 SA
ATOM      6  C4  UNL d   1       0.599  -0.652   1.669  0.00  0.00     0.022 A 
ATOM      7  C5  UNL d   1       0.124  -1.842   2.167  0.00  0.00     0.026 A 
ATOM      8  C6  UNL d   1       1.091  -2.537   2.970  0.00  0.00    -0.082 A 
ATOM      9  C7  UNL d   1       1.004  -3.773   3.654  0.00  0.00     0.045 A 
ENDROOT
TORSDOF 0
ENDMDL
