MODEL 1
REMARK minimizedAffinity 1.02232575
REMARK minimizedRMSD -1
REMARK  0 active torsions:
REMARK  status: ('A' for Active; 'I' for Inactive)
ROOT
ATOM      1  C   UNL d   1       0.149   3.571  -0.993  0.00  0.00     0.020 A 
ATOM      2  C1  UNL d   1      -0.835   2.772  -1.573  0.00  0.00     0.020 A 
ATOM      3  C2  UNL d   1      -1.455   1.771  -0.822  0.00  0.00     0.034 A 
ATOM      4  C3  UNL d   1      -1.093   1.567   0.514  0.00  0.00     0.017 A 
ATOM      5  C4  UNL d   1      -0.105   2.370   1.096  0.00  0.00     0.017 A 
ATOM      6  C5  UNL d   1       0.513   3.370   0.340  0.00  0.00     0.034 A 
ATOM      7 Cl   UNL d   1       0.396   2.178   2.739  0.00  0.00    -0.070 Cl
ATOM      8 Cl1  UNL d   1      -1.901   0.312   1.384  0.00  0.00    -0.070 Cl
ENDROOT
TORSDOF 0
ENDMDL
