MODEL 1
REMARK minimizedAffinity 9.13407421
REMARK minimizedRMSD -1
REMARK  0 active torsions:
REMARK  status: ('A' for Active; 'I' for Inactive)
ROOT
ATOM      1  C   UNL d   1       1.501   1.235   1.480  0.00  0.00     0.020 A 
ATOM      2  C1  UNL d   1       1.904   2.230   2.370  0.00  0.00     0.020 A 
ATOM      3  C2  UNL d   1       3.082   2.942   2.135  0.00  0.00     0.034 A 
ATOM      4  C3  UNL d   1       3.862   2.659   1.007  0.00  0.00     0.017 A 
ATOM      5  C4  UNL d   1       3.456   1.660   0.115  0.00  0.00     0.017 A 
ATOM      6  C5  UNL d   1       2.276   0.951   0.355  0.00  0.00     0.034 A 
ATOM      7 Cl   UNL d   1       4.365   1.255  -1.298  0.00  0.00    -0.070 Cl
ATOM      8 Cl1  UNL d   1       5.306   3.579   0.778  0.00  0.00    -0.070 Cl
ENDROOT
TORSDOF 0
ENDMDL
