MODEL 1
REMARK minimizedAffinity 7.95114899
REMARK minimizedRMSD -1
REMARK  0 active torsions:
REMARK  status: ('A' for Active; 'I' for Inactive)
ROOT
ATOM      1  C   UNL d   1       1.939   2.129   1.536  0.00  0.00     0.020 A 
ATOM      2  C1  UNL d   1       2.148   2.572   2.842  0.00  0.00     0.020 A 
ATOM      3  C2  UNL d   1       1.064   2.971   3.626  0.00  0.00     0.034 A 
ATOM      4  C3  UNL d   1      -0.235   2.928   3.105  0.00  0.00     0.017 A 
ATOM      5  C4  UNL d   1      -0.444   2.483   1.795  0.00  0.00     0.017 A 
ATOM      6  C5  UNL d   1       0.646   2.084   1.014  0.00  0.00     0.034 A 
ATOM      7 Cl   UNL d   1      -2.017   2.401   1.083  0.00  0.00    -0.070 Cl
ATOM      8 Cl1  UNL d   1      -1.529   3.436   4.131  0.00  0.00    -0.070 Cl
ENDROOT
TORSDOF 0
ENDMDL
