MODEL 1
REMARK minimizedAffinity 4.32778263
REMARK minimizedRMSD -1
REMARK  0 active torsions:
REMARK  status: ('A' for Active; 'I' for Inactive)
ROOT
ATOM      1  C   UNL d   1      -1.504   1.226  -0.374  0.00  0.00     0.020 A 
ATOM      2  C1  UNL d   1      -0.280   1.215  -1.042  0.00  0.00     0.020 A 
ATOM      3  C2  UNL d   1       0.895   1.517  -0.351  0.00  0.00     0.034 A 
ATOM      4  C3  UNL d   1       0.849   1.830   1.013  0.00  0.00     0.017 A 
ATOM      5  C4  UNL d   1      -0.379   1.840   1.682  0.00  0.00     0.017 A 
ATOM      6  C5  UNL d   1      -1.553   1.537   0.985  0.00  0.00     0.034 A 
ATOM      7 Cl   UNL d   1      -0.516   2.216   3.364  0.00  0.00    -0.070 Cl
ATOM      8 Cl1  UNL d   1       2.342   2.192   1.804  0.00  0.00    -0.070 Cl
ENDROOT
TORSDOF 0
ENDMDL
