MODEL 1
REMARK minimizedAffinity -1.16436815
REMARK minimizedRMSD -1
REMARK  0 active torsions:
REMARK  status: ('A' for Active; 'I' for Inactive)
ROOT
ATOM      1  C   UNL d   1       1.738   1.187   0.740  0.00  0.00     0.020 A 
ATOM      2  C1  UNL d   1       0.375   1.107   0.455  0.00  0.00     0.020 A 
ATOM      3  C2  UNL d   1      -0.549   1.759   1.275  0.00  0.00     0.034 A 
ATOM      4  C3  UNL d   1      -0.111   2.493   2.384  0.00  0.00     0.017 A 
ATOM      5  C4  UNL d   1       1.257   2.572   2.668  0.00  0.00     0.017 A 
ATOM      6  C5  UNL d   1       2.177   1.918   1.844  0.00  0.00     0.034 A 
ATOM      7 Cl   UNL d   1       1.873   3.459   4.018  0.00  0.00    -0.070 Cl
ATOM      8 Cl1  UNL d   1      -1.309   3.274   3.354  0.00  0.00    -0.070 Cl
ENDROOT
TORSDOF 0
ENDMDL
