MODEL 1
REMARK minimizedAffinity 5.06298685
REMARK minimizedRMSD -1
REMARK  0 active torsions:
REMARK  status: ('A' for Active; 'I' for Inactive)
ROOT
ATOM      1  C   UNL d   1       5.999   5.449   0.308  0.00  0.00     0.020 A 
ATOM      2  C1  UNL d   1       5.727   4.150  -0.119  0.00  0.00     0.020 A 
ATOM      3  C2  UNL d   1       4.733   3.401   0.514  0.00  0.00     0.034 A 
ATOM      4  C3  UNL d   1       4.008   3.950   1.578  0.00  0.00     0.017 A 
ATOM      5  C4  UNL d   1       4.282   5.254   2.006  0.00  0.00     0.017 A 
ATOM      6  C5  UNL d   1       5.278   6.000   1.368  0.00  0.00     0.034 A 
ATOM      7 Cl   UNL d   1       3.429   5.999   3.311  0.00  0.00    -0.070 Cl
ATOM      8 Cl1  UNL d   1       2.793   2.966   2.314  0.00  0.00    -0.070 Cl
ENDROOT
TORSDOF 0
ENDMDL
