MODEL 1
REMARK minimizedAffinity 5.1651392
REMARK minimizedRMSD -1
REMARK  0 active torsions:
REMARK  status: ('A' for Active; 'I' for Inactive)
ROOT
ATOM      1  C   UNL d   1       2.025   2.421   2.362  0.00  0.00     0.020 A 
ATOM      2  C1  UNL d   1       1.974   1.461   1.353  0.00  0.00     0.020 A 
ATOM      3  C2  UNL d   1       0.744   0.940   0.947  0.00  0.00     0.034 A 
ATOM      4  C3  UNL d   1      -0.440   1.379   1.549  0.00  0.00     0.017 A 
ATOM      5  C4  UNL d   1      -0.388   2.343   2.562  0.00  0.00     0.017 A 
ATOM      6  C5  UNL d   1       0.847   2.862   2.966  0.00  0.00     0.034 A 
ATOM      7 Cl   UNL d   1      -1.807   2.935   3.353  0.00  0.00    -0.070 Cl
ATOM      8 Cl1  UNL d   1      -1.926   0.692   0.997  0.00  0.00    -0.070 Cl
ENDROOT
TORSDOF 0
ENDMDL
