MODEL 1
REMARK minimizedAffinity 5.90481853
REMARK minimizedRMSD -1
REMARK  0 active torsions:
REMARK  status: ('A' for Active; 'I' for Inactive)
ROOT
ATOM      1  C   UNL d   1       3.837   5.999   0.988  0.00  0.00     0.020 A 
ATOM      2  C1  UNL d   1       3.836   5.554   2.309  0.00  0.00     0.020 A 
ATOM      3  C2  UNL d   1       4.510   4.379   2.650  0.00  0.00     0.034 A 
ATOM      4  C3  UNL d   1       5.187   3.645   1.669  0.00  0.00     0.017 A 
ATOM      5  C4  UNL d   1       5.187   4.093   0.343  0.00  0.00     0.017 A 
ATOM      6  C5  UNL d   1       4.511   5.270   0.007  0.00  0.00     0.034 A 
ATOM      7 Cl   UNL d   1       6.000   3.242  -0.922  0.00  0.00    -0.070 Cl
ATOM      8 Cl1  UNL d   1       5.999   2.202   2.162  0.00  0.00    -0.070 Cl
ENDROOT
TORSDOF 0
ENDMDL
