MODEL 1
REMARK minimizedAffinity 5.52190876
REMARK minimizedRMSD -1
REMARK  0 active torsions:
REMARK  status: ('A' for Active; 'I' for Inactive)
ROOT
ATOM      1  C   UNL d   1       2.194   2.025   1.644  0.00  0.00     0.020 A 
ATOM      2  C1  UNL d   1       1.942   1.025   0.706  0.00  0.00     0.020 A 
ATOM      3  C2  UNL d   1       0.636   0.575   0.499  0.00  0.00     0.034 A 
ATOM      4  C3  UNL d   1      -0.422   1.125   1.230  0.00  0.00     0.017 A 
ATOM      5  C4  UNL d   1      -0.169   2.129   2.172  0.00  0.00     0.017 A 
ATOM      6  C5  UNL d   1       1.141   2.576   2.376  0.00  0.00     0.034 A 
ATOM      7 Cl   UNL d   1      -1.423   2.856   3.113  0.00  0.00    -0.070 Cl
ATOM      8 Cl1  UNL d   1      -2.011   0.521   0.922  0.00  0.00    -0.070 Cl
ENDROOT
TORSDOF 0
ENDMDL
