MODEL 1
REMARK minimizedAffinity 7.89051867
REMARK minimizedRMSD -1
REMARK  0 active torsions:
REMARK  status: ('A' for Active; 'I' for Inactive)
ROOT
ATOM      1  C   UNL d   1       0.040   3.294   3.062  0.00  0.00     0.020 A 
ATOM      2  C1  UNL d   1      -0.903   2.731   2.203  0.00  0.00     0.020 A 
ATOM      3  C2  UNL d   1      -0.485   1.954   1.121  0.00  0.00     0.034 A 
ATOM      4  C3  UNL d   1       0.879   1.738   0.894  0.00  0.00     0.017 A 
ATOM      5  C4  UNL d   1       1.825   2.304   1.757  0.00  0.00     0.017 A 
ATOM      6  C5  UNL d   1       1.401   3.081   2.840  0.00  0.00     0.034 A 
ATOM      7 Cl   UNL d   1       3.525   2.082   1.543  0.00  0.00    -0.070 Cl
ATOM      8 Cl1  UNL d   1       1.324   0.766  -0.463  0.00  0.00    -0.070 Cl
ENDROOT
TORSDOF 0
ENDMDL
