MODEL 1
REMARK minimizedAffinity 5.09778357
REMARK minimizedRMSD -1
REMARK  0 active torsions:
REMARK  status: ('A' for Active; 'I' for Inactive)
ROOT
ATOM      1  C   UNL d   1       2.266   0.942   0.566  0.00  0.00     0.020 A 
ATOM      2  C1  UNL d   1       2.479   1.981   1.472  0.00  0.00     0.020 A 
ATOM      3  C2  UNL d   1       1.405   2.513   2.188  0.00  0.00     0.034 A 
ATOM      4  C3  UNL d   1       0.114   2.007   2.001  0.00  0.00     0.017 A 
ATOM      5  C4  UNL d   1      -0.099   0.965   1.092  0.00  0.00     0.017 A 
ATOM      6  C5  UNL d   1       0.980   0.435   0.377  0.00  0.00     0.034 A 
ATOM      7 Cl   UNL d   1      -1.664   0.288   0.807  0.00  0.00    -0.070 Cl
ATOM      8 Cl1  UNL d   1      -1.167   2.713   2.921  0.00  0.00    -0.070 Cl
ENDROOT
TORSDOF 0
ENDMDL
