MODEL 1
REMARK minimizedAffinity 3.06031156
REMARK minimizedRMSD -1
REMARK  0 active torsions:
REMARK  status: ('A' for Active; 'I' for Inactive)
ROOT
ATOM      1  C   UNL d   1      -4.590   0.791  -0.489  0.00  0.00     0.020 A 
ATOM      2  C1  UNL d   1      -3.618   0.079  -1.190  0.00  0.00     0.020 A 
ATOM      3  C2  UNL d   1      -3.341   0.399  -2.520  0.00  0.00     0.034 A 
ATOM      4  C3  UNL d   1      -4.037   1.435  -3.155  0.00  0.00     0.017 A 
ATOM      5  C4  UNL d   1      -5.013   2.149  -2.450  0.00  0.00     0.017 A 
ATOM      6  C5  UNL d   1      -5.286   1.824  -1.118  0.00  0.00     0.034 A 
ATOM      7 Cl   UNL d   1      -5.913   3.440  -3.165  0.00  0.00    -0.070 Cl
ATOM      8 Cl1  UNL d   1      -3.643   1.777  -4.802  0.00  0.00    -0.070 Cl
ENDROOT
TORSDOF 0
ENDMDL
