MODEL 1
REMARK minimizedAffinity -1.19876957
REMARK minimizedRMSD -1
REMARK  0 active torsions:
REMARK  status: ('A' for Active; 'I' for Inactive)
ROOT
ATOM      1  C   UNL d   1       2.135   1.324   0.765  0.00  0.00     0.020 A 
ATOM      2  C1  UNL d   1       2.320   2.165   1.862  0.00  0.00     0.020 A 
ATOM      3  C2  UNL d   1       1.217   2.615   2.590  0.00  0.00     0.034 A 
ATOM      4  C3  UNL d   1      -0.076   2.225   2.222  0.00  0.00     0.017 A 
ATOM      5  C4  UNL d   1      -0.261   1.381   1.121  0.00  0.00     0.017 A 
ATOM      6  C5  UNL d   1       0.848   0.933   0.396  0.00  0.00     0.034 A 
ATOM      7 Cl   UNL d   1      -1.825   0.857   0.607  0.00  0.00    -0.070 Cl
ATOM      8 Cl1  UNL d   1      -1.394   2.819   3.168  0.00  0.00    -0.070 Cl
ENDROOT
TORSDOF 0
ENDMDL
