MODEL 1
REMARK minimizedAffinity 4.40240097
REMARK minimizedRMSD -1
REMARK  0 active torsions:
REMARK  status: ('A' for Active; 'I' for Inactive)
ROOT
ATOM      1  C   UNL d   1      -0.565   2.988   3.550  0.00  0.00     0.020 A 
ATOM      2  C1  UNL d   1      -1.283   2.199   2.652  0.00  0.00     0.020 A 
ATOM      3  C2  UNL d   1      -0.632   1.612   1.564  0.00  0.00     0.034 A 
ATOM      4  C3  UNL d   1       0.740   1.813   1.373  0.00  0.00     0.017 A 
ATOM      5  C4  UNL d   1       1.459   2.605   2.275  0.00  0.00     0.017 A 
ATOM      6  C5  UNL d   1       0.802   3.190   3.362  0.00  0.00     0.034 A 
ATOM      7 Cl   UNL d   1       3.153   2.899   2.105  0.00  0.00    -0.070 Cl
ATOM      8 Cl1  UNL d   1       1.479   1.057   0.006  0.00  0.00    -0.070 Cl
ENDROOT
TORSDOF 0
ENDMDL
