MODEL 1
REMARK minimizedAffinity 2.60615253
REMARK minimizedRMSD -1
REMARK  0 active torsions:
REMARK  status: ('A' for Active; 'I' for Inactive)
ROOT
ATOM      1  C   UNL d   1       0.296   0.793   0.441  0.00  0.00     0.020 A 
ATOM      2  C1  UNL d   1       1.670   0.990   0.579  0.00  0.00     0.020 A 
ATOM      3  C2  UNL d   1       2.151   1.942   1.480  0.00  0.00     0.034 A 
ATOM      4  C3  UNL d   1       1.258   2.700   2.247  0.00  0.00     0.017 A 
ATOM      5  C4  UNL d   1      -0.120   2.501   2.108  0.00  0.00     0.017 A 
ATOM      6  C5  UNL d   1      -0.597   1.547   1.204  0.00  0.00     0.034 A 
ATOM      7 Cl   UNL d   1      -1.283   3.398   3.019  0.00  0.00    -0.070 Cl
ATOM      8 Cl1  UNL d   1       1.923   3.859   3.342  0.00  0.00    -0.070 Cl
ENDROOT
TORSDOF 0
ENDMDL
