MODEL 1
REMARK minimizedAffinity 3.96089482
REMARK minimizedRMSD -1
REMARK  0 active torsions:
REMARK  status: ('A' for Active; 'I' for Inactive)
ROOT
ATOM      1  C   UNL d   1       2.158   0.756   0.561  0.00  0.00     0.020 A 
ATOM      2  C1  UNL d   1       0.805   0.468   0.388  0.00  0.00     0.020 A 
ATOM      3  C2  UNL d   1      -0.161   1.216   1.066  0.00  0.00     0.034 A 
ATOM      4  C3  UNL d   1       0.226   2.256   1.919  0.00  0.00     0.017 A 
ATOM      5  C4  UNL d   1       1.584   2.545   2.091  0.00  0.00     0.017 A 
ATOM      6  C5  UNL d   1       2.547   1.793   1.410  0.00  0.00     0.034 A 
ATOM      7 Cl   UNL d   1       2.138   3.813   3.127  0.00  0.00    -0.070 Cl
ATOM      8 Cl1  UNL d   1      -1.021   3.140   2.724  0.00  0.00    -0.070 Cl
ENDROOT
TORSDOF 0
ENDMDL
