MODEL 1
REMARK minimizedAffinity 6.77702188
REMARK minimizedRMSD -1
REMARK  0 active torsions:
REMARK  status: ('A' for Active; 'I' for Inactive)
ROOT
ATOM      1  C   UNL d   1       2.171   2.265   2.369  0.00  0.00     0.020 A 
ATOM      2  C1  UNL d   1       2.185   1.317   1.347  0.00  0.00     0.020 A 
ATOM      3  C2  UNL d   1       0.985   0.895   0.769  0.00  0.00     0.034 A 
ATOM      4  C3  UNL d   1      -0.233   1.422   1.213  0.00  0.00     0.017 A 
ATOM      5  C4  UNL d   1      -0.246   2.374   2.239  0.00  0.00     0.017 A 
ATOM      6  C5  UNL d   1       0.958   2.792   2.814  0.00  0.00     0.034 A 
ATOM      7 Cl   UNL d   1      -1.710   3.069   2.839  0.00  0.00    -0.070 Cl
ATOM      8 Cl1  UNL d   1      -1.678   0.855   0.453  0.00  0.00    -0.070 Cl
ENDROOT
TORSDOF 0
ENDMDL
