MODEL 1
REMARK minimizedAffinity 16.3026657
REMARK minimizedRMSD -1
REMARK  3 active torsions:
REMARK  status: ('A' for Active; 'I' for Inactive)
REMARK    1  A    between atoms: C3'_2  and  C2'_3 
REMARK    2  A    between atoms: C2'_3  and  C1'_4 
REMARK    3  A    between atoms: C1'_4  and  C1_5 
ROOT
ATOM      1  C1  N4B d   1       4.551  -4.176  -2.227  0.00  0.00    -0.075 A 
ATOM      2  C2  N4B d   1       5.247  -3.782  -3.390  0.00  0.00     0.002 A 
ATOM      3  C3  N4B d   1       5.972  -2.615  -3.394  0.00  0.00     0.002 A 
ATOM      4  C4  N4B d   1       6.000  -1.821  -2.257  0.00  0.00    -0.004 A 
ATOM      5  C5  N4B d   1       5.345  -2.222  -1.130  0.00  0.00     0.002 A 
ATOM      6  C6  N4B d   1       4.616  -3.394  -1.110  0.00  0.00     0.002 A 
ENDROOT
BRANCH   1   7
ATOM      7  C1' N4B d   1       3.675  -5.399  -2.201  0.00  0.00     0.057 C 
BRANCH   7   8
ATOM      8  C2' N4B d   1       2.308  -5.048  -2.780  0.00  0.00     0.009 C 
BRANCH   8   9
ATOM      9  C3' N4B d   1       1.226  -5.034  -1.714  0.00  0.00     0.004 C 
ATOM     10  C4' N4B d   1      -0.073  -4.471  -2.211  0.00  0.00     0.003 C 
ENDBRANCH   8   9
ENDBRANCH   7   8
ENDBRANCH   1   7
TORSDOF 3
ENDMDL
