MODEL 1
REMARK minimizedAffinity 17.6965714
REMARK minimizedRMSD -1
REMARK  3 active torsions:
REMARK  status: ('A' for Active; 'I' for Inactive)
REMARK    1  A    between atoms: C3'_2  and  C2'_3 
REMARK    2  A    between atoms: C2'_3  and  C1'_4 
REMARK    3  A    between atoms: C1'_4  and  C1_5 
ROOT
ATOM      1  C1  N4B d   1       1.944   2.839   1.890  0.00  0.00    -0.075 A 
ATOM      2  C2  N4B d   1       2.559   4.049   1.498  0.00  0.00     0.002 A 
ATOM      3  C3  N4B d   1       2.033   4.784   0.465  0.00  0.00     0.002 A 
ATOM      4  C4  N4B d   1       0.908   4.322  -0.202  0.00  0.00    -0.004 A 
ATOM      5  C5  N4B d   1       0.304   3.166   0.199  0.00  0.00     0.002 A 
ATOM      6  C6  N4B d   1       0.820   2.419   1.239  0.00  0.00     0.002 A 
ENDROOT
BRANCH   1   7
ATOM      7  C1' N4B d   1       2.533   1.958   2.957  0.00  0.00     0.057 C 
BRANCH   7   8
ATOM      8  C2' N4B d   1       1.412   1.174   3.633  0.00  0.00     0.009 C 
BRANCH   8   9
ATOM      9  C3' N4B d   1       1.934   0.279   4.744  0.00  0.00     0.004 C 
ATOM     10  C4' N4B d   1       1.137  -0.982   4.897  0.00  0.00     0.003 C 
ENDBRANCH   8   9
ENDBRANCH   7   8
ENDBRANCH   1   7
TORSDOF 3
ENDMDL
