MODEL 1
REMARK minimizedAffinity 8.62443542
REMARK minimizedRMSD -1
REMARK  3 active torsions:
REMARK  status: ('A' for Active; 'I' for Inactive)
REMARK    1  A    between atoms: C3'_2  and  C2'_3 
REMARK    2  A    between atoms: C2'_3  and  C1'_4 
REMARK    3  A    between atoms: C1'_4  and  C1_5 
ROOT
ATOM      1  C1  N4B d   1       0.483   3.199   1.352  0.00  0.00    -0.075 A 
ATOM      2  C2  N4B d   1      -0.247   3.538   0.191  0.00  0.00     0.002 A 
ATOM      3  C3  N4B d   1       0.149   4.601  -0.583  0.00  0.00     0.002 A 
ATOM      4  C4  N4B d   1       1.256   5.348  -0.208  0.00  0.00    -0.004 A 
ATOM      5  C5  N4B d   1       1.970   4.999   0.901  0.00  0.00     0.002 A 
ATOM      6  C6  N4B d   1       1.586   3.931   1.686  0.00  0.00     0.002 A 
ENDROOT
BRANCH   1   7
ATOM      7  C1' N4B d   1       0.039   2.099   2.276  0.00  0.00     0.057 C 
BRANCH   7   8
ATOM      8  C2' N4B d   1       1.255   1.535   3.004  0.00  0.00     0.009 C 
BRANCH   8   9
ATOM      9  C3' N4B d   1       0.888   0.366   3.902  0.00  0.00     0.004 C 
ATOM     10  C4' N4B d   1       1.841  -0.785   3.776  0.00  0.00     0.003 C 
ENDBRANCH   8   9
ENDBRANCH   7   8
ENDBRANCH   1   7
TORSDOF 3
ENDMDL
