MODEL 1
REMARK minimizedAffinity 17.6984692
REMARK minimizedRMSD -1
REMARK  3 active torsions:
REMARK  status: ('A' for Active; 'I' for Inactive)
REMARK    1  A    between atoms: C3'_2  and  C2'_3 
REMARK    2  A    between atoms: C2'_3  and  C1'_4 
REMARK    3  A    between atoms: C1'_4  and  C1_5 
ROOT
ATOM      1  C1  N4B d   1      -2.722   1.152  -1.881  0.00  0.00    -0.075 A 
ATOM      2  C2  N4B d   1      -3.643   2.183  -2.171  0.00  0.00     0.002 A 
ATOM      3  C3  N4B d   1      -3.869   2.555  -3.473  0.00  0.00     0.002 A 
ATOM      4  C4  N4B d   1      -3.176   1.926  -4.496  0.00  0.00    -0.004 A 
ATOM      5  C5  N4B d   1      -2.307   0.914  -4.210  0.00  0.00     0.002 A 
ATOM      6  C6  N4B d   1      -2.073   0.527  -2.905  0.00  0.00     0.002 A 
ENDROOT
BRANCH   1   7
ATOM      7  C1' N4B d   1      -2.378   0.770  -0.467  0.00  0.00     0.057 C 
BRANCH   7   8
ATOM      8  C2' N4B d   1      -3.658   0.404   0.279  0.00  0.00     0.009 C 
BRANCH   8   9
ATOM      9  C3' N4B d   1      -3.370  -0.155   1.661  0.00  0.00     0.004 C 
ATOM     10  C4' N4B d   1      -4.485   0.094   2.632  0.00  0.00     0.003 C 
ENDBRANCH   8   9
ENDBRANCH   7   8
ENDBRANCH   1   7
TORSDOF 3
ENDMDL
