MODEL 1
REMARK minimizedAffinity 16.4469147
REMARK minimizedRMSD -1
REMARK  3 active torsions:
REMARK  status: ('A' for Active; 'I' for Inactive)
REMARK    1  A    between atoms: C3'_2  and  C2'_3 
REMARK    2  A    between atoms: C2'_3  and  C1'_4 
REMARK    3  A    between atoms: C1'_4  and  C1_5 
ROOT
ATOM      1  C1  N4B d   1      -2.832   1.673  -2.924  0.00  0.00    -0.075 A 
ATOM      2  C2  N4B d   1      -2.402   0.983  -4.079  0.00  0.00     0.002 A 
ATOM      3  C3  N4B d   1      -2.680   1.489  -5.325  0.00  0.00     0.002 A 
ATOM      4  C4  N4B d   1      -3.400   2.669  -5.441  0.00  0.00    -0.004 A 
ATOM      5  C5  N4B d   1      -3.789   3.343  -4.321  0.00  0.00     0.002 A 
ATOM      6  C6  N4B d   1      -3.513   2.848  -3.062  0.00  0.00     0.002 A 
ENDROOT
BRANCH   1   7
ATOM      7  C1' N4B d   1      -2.626   1.115  -1.543  0.00  0.00     0.057 C 
BRANCH   7   8
ATOM      8  C2' N4B d   1      -1.420   0.182  -1.554  0.00  0.00     0.009 C 
BRANCH   8   9
ATOM      9  C3' N4B d   1      -0.213   0.804  -0.873  0.00  0.00     0.004 C 
ATOM     10  C4' N4B d   1       1.063   0.075  -1.172  0.00  0.00     0.003 C 
ENDBRANCH   8   9
ENDBRANCH   7   8
ENDBRANCH   1   7
TORSDOF 3
ENDMDL
