MODEL 1
REMARK minimizedAffinity 8.40784359
REMARK minimizedRMSD -1
REMARK  3 active torsions:
REMARK  status: ('A' for Active; 'I' for Inactive)
REMARK    1  A    between atoms: C3'_2  and  C2'_3 
REMARK    2  A    between atoms: C2'_3  and  C1'_4 
REMARK    3  A    between atoms: C1'_4  and  C1_5 
ROOT
ATOM      1  C1  N4B d   1       0.272   3.393   0.388  0.00  0.00    -0.075 A 
ATOM      2  C2  N4B d   1       1.428   4.139   0.071  0.00  0.00     0.002 A 
ATOM      3  C3  N4B d   1       1.310   5.437  -0.364  0.00  0.00     0.002 A 
ATOM      4  C4  N4B d   1       0.051   6.000  -0.508  0.00  0.00    -0.004 A 
ATOM      5  C5  N4B d   1      -1.060   5.281  -0.175  0.00  0.00     0.002 A 
ATOM      6  C6  N4B d   1      -0.956   3.977   0.267  0.00  0.00     0.002 A 
ENDROOT
BRANCH   1   7
ATOM      7  C1' N4B d   1       0.346   1.944   0.786  0.00  0.00     0.057 C 
BRANCH   7   8
ATOM      8  C2' N4B d   1       0.806   1.119  -0.413  0.00  0.00     0.009 C 
BRANCH   8   9
ATOM      9  C3' N4B d   1      -0.148  -0.023  -0.717  0.00  0.00     0.004 C 
ATOM     10  C4' N4B d   1      -1.580   0.329  -0.443  0.00  0.00     0.003 C 
ENDBRANCH   8   9
ENDBRANCH   7   8
ENDBRANCH   1   7
TORSDOF 3
ENDMDL
