MODEL 1
REMARK minimizedAffinity -1.82969689
REMARK minimizedRMSD -1
REMARK  1 active torsions:
REMARK  status: ('A' for Active; 'I' for Inactive)
REMARK    1  A    between atoms: C1_2  and  C2_3 
ROOT
ATOM      1  C2  UNL d   1       0.382  -0.245  -1.460  0.00  0.00    -0.077 A 
ATOM      2  C3  UNL d   1      -0.756   0.551  -1.651  0.00  0.00     0.002 A 
ATOM      3  C4  UNL d   1      -1.684   0.716  -0.621  0.00  0.00     0.002 A 
ATOM      4  C5  UNL d   1      -1.482   0.092   0.608  0.00  0.00    -0.004 A 
ATOM      5  C6  UNL d   1      -0.354  -0.704   0.807  0.00  0.00     0.002 A 
ATOM      6  C7  UNL d   1       0.574  -0.871  -0.221  0.00  0.00     0.002 A 
ENDROOT
BRANCH   1   7
ATOM      7  C1  UNL d   1       1.409  -0.385  -2.553  0.00  0.00     0.055 C 
ATOM      8  C   UNL d   1       0.984   0.360  -3.810  0.00  0.00     0.019 C 
ENDBRANCH   1   7
TORSDOF 1
ENDMDL
