MODEL 1
REMARK minimizedAffinity -4.15840435
REMARK minimizedRMSD -1
REMARK  1 active torsions:
REMARK  status: ('A' for Active; 'I' for Inactive)
REMARK    1  A    between atoms: C1_2  and  C2_3 
ROOT
ATOM      1  C2  UNL d   1       0.407   0.798   1.321  0.00  0.00    -0.077 A 
ATOM      2  C3  UNL d   1       1.594   0.064   1.450  0.00  0.00     0.002 A 
ATOM      3  C4  UNL d   1       1.898  -0.951   0.541  0.00  0.00     0.002 A 
ATOM      4  C5  UNL d   1       1.024  -1.238  -0.505  0.00  0.00    -0.004 A 
ATOM      5  C6  UNL d   1      -0.160  -0.514  -0.640  0.00  0.00     0.002 A 
ATOM      6  C7  UNL d   1      -0.467   0.500   0.268  0.00  0.00     0.002 A 
ENDROOT
BRANCH   1   7
ATOM      7  C1  UNL d   1       0.100   1.926   2.272  0.00  0.00     0.055 C 
ATOM      8  C   UNL d   1      -1.017   1.550   3.235  0.00  0.00     0.019 C 
ENDBRANCH   1   7
TORSDOF 1
ENDMDL
