MODEL 1
REMARK minimizedAffinity -4.05605268
REMARK minimizedRMSD -1
REMARK  1 active torsions:
REMARK  status: ('A' for Active; 'I' for Inactive)
REMARK    1  A    between atoms: C1_2  and  C2_3 
ROOT
ATOM      1  C2  UNL d   1       0.059   0.043  -0.026  0.00  0.00    -0.077 A 
ATOM      2  C3  UNL d   1       0.875   0.902   0.722  0.00  0.00     0.002 A 
ATOM      3  C4  UNL d   1       0.359   1.581   1.828  0.00  0.00     0.002 A 
ATOM      4  C5  UNL d   1      -0.973   1.403   2.198  0.00  0.00    -0.004 A 
ATOM      5  C6  UNL d   1      -1.793   0.552   1.459  0.00  0.00     0.002 A 
ATOM      6  C7  UNL d   1      -1.279  -0.126   0.353  0.00  0.00     0.002 A 
ENDROOT
BRANCH   1   7
ATOM      7  C1  UNL d   1       0.626  -0.728  -1.190  0.00  0.00     0.055 C 
ATOM      8  C   UNL d   1       1.302   0.198  -2.190  0.00  0.00     0.019 C 
ENDBRANCH   1   7
TORSDOF 1
ENDMDL
