MODEL 1
REMARK minimizedAffinity -2.21682715
REMARK minimizedRMSD -1
REMARK  1 active torsions:
REMARK  status: ('A' for Active; 'I' for Inactive)
REMARK    1  A    between atoms: C1_2  and  C2_3 
ROOT
ATOM      1  C2  UNL d   1       0.183   0.673   1.050  0.00  0.00    -0.077 A 
ATOM      2  C3  UNL d   1      -1.055   0.360   0.473  0.00  0.00     0.002 A 
ATOM      3  C4  UNL d   1      -1.125  -0.494  -0.630  0.00  0.00     0.002 A 
ATOM      4  C5  UNL d   1       0.039  -1.044  -1.162  0.00  0.00    -0.004 A 
ATOM      5  C6  UNL d   1       1.276  -0.738  -0.595  0.00  0.00     0.002 A 
ATOM      6  C7  UNL d   1       1.348   0.116   0.506  0.00  0.00     0.002 A 
ENDROOT
BRANCH   1   7
ATOM      7  C1  UNL d   1       0.256   1.554   2.270  0.00  0.00     0.055 C 
ATOM      8  C   UNL d   1      -0.774   1.143   3.312  0.00  0.00     0.019 C 
ENDBRANCH   1   7
TORSDOF 1
ENDMDL
