MODEL 1
REMARK minimizedAffinity -4.82341814
REMARK minimizedRMSD -1
REMARK  1 active torsions:
REMARK  status: ('A' for Active; 'I' for Inactive)
REMARK    1  A    between atoms: C1_2  and  C2_3 
ROOT
ATOM      1  C2  UNL d   1      -0.079   0.259  -0.093  0.00  0.00    -0.077 A 
ATOM      2  C3  UNL d   1       0.639   0.597   1.062  0.00  0.00     0.002 A 
ATOM      3  C4  UNL d   1      -0.033   0.957   2.231  0.00  0.00     0.002 A 
ATOM      4  C5  UNL d   1      -1.426   0.979   2.258  0.00  0.00    -0.004 A 
ATOM      5  C6  UNL d   1      -2.149   0.646   1.114  0.00  0.00     0.002 A 
ATOM      6  C7  UNL d   1      -1.479   0.287  -0.056  0.00  0.00     0.002 A 
ENDROOT
BRANCH   1   7
ATOM      7  C1  UNL d   1       0.643  -0.178  -1.341  0.00  0.00     0.055 C 
ATOM      8  C   UNL d   1       1.011  -1.653  -1.281  0.00  0.00     0.019 C 
ENDBRANCH   1   7
TORSDOF 1
ENDMDL
