MODEL 1
REMARK minimizedAffinity -2.12733865
REMARK minimizedRMSD -1
REMARK  1 active torsions:
REMARK  status: ('A' for Active; 'I' for Inactive)
REMARK    1  A    between atoms: C1_2  and  C2_3 
ROOT
ATOM      1  C2  UNL d   1       0.743  -0.356   0.003  0.00  0.00    -0.077 A 
ATOM      2  C3  UNL d   1       1.808  -1.184   0.383  0.00  0.00     0.002 A 
ATOM      3  C4  UNL d   1       2.712  -0.768   1.362  0.00  0.00     0.002 A 
ATOM      4  C5  UNL d   1       2.558   0.475   1.972  0.00  0.00    -0.004 A 
ATOM      5  C6  UNL d   1       1.503   1.307   1.600  0.00  0.00     0.002 A 
ATOM      6  C7  UNL d   1       0.599   0.893   0.620  0.00  0.00     0.002 A 
ENDROOT
BRANCH   1   7
ATOM      7  C1  UNL d   1      -0.262  -0.823  -1.018  0.00  0.00     0.055 C 
ATOM      8  C   UNL d   1      -1.659  -0.908  -0.420  0.00  0.00     0.019 C 
ENDBRANCH   1   7
TORSDOF 1
ENDMDL
