MODEL 1
REMARK minimizedAffinity 1.73353088
REMARK minimizedRMSD -1
REMARK  1 active torsions:
REMARK  status: ('A' for Active; 'I' for Inactive)
REMARK    1  A    between atoms: C3_4  and  O_7 
ROOT
ATOM      1  C   UNL d   1      -0.496  -3.089  -0.658  0.00  0.00    -0.033 A 
ATOM      2  C1  UNL d   1      -0.779  -2.544  -1.911  0.00  0.00     0.039 A 
ATOM      3  C2  UNL d   1      -1.468  -1.334  -2.009  0.00  0.00    -0.080 A 
ATOM      4  C3  UNL d   1      -1.869  -0.680  -0.847  0.00  0.00     0.150 A 
ATOM      5  C4  UNL d   1      -1.588  -1.216   0.405  0.00  0.00    -0.007 A 
ATOM      6  C5  UNL d   1      -0.900  -2.425   0.501  0.00  0.00     0.039 A 
ENDROOT
BRANCH   4   7
ATOM      7  O   UNL d   1      -2.549   0.501  -0.892  0.00  0.00    -0.526 OA
ATOM      8  H5  UNL d   1      -2.697   0.735  -1.824  0.00  0.00     0.418 HD
ENDBRANCH   4   7
TORSDOF 1
ENDMDL
