MODEL 1
REMARK minimizedAffinity 2.27641439
REMARK minimizedRMSD -1
REMARK  1 active torsions:
REMARK  status: ('A' for Active; 'I' for Inactive)
REMARK    1  A    between atoms: C3_4  and  O_7 
ROOT
ATOM      1  C   UNL d   1      -0.711   0.868  -0.620  0.00  0.00    -0.033 A 
ATOM      2  C1  UNL d   1      -1.351   0.098   0.353  0.00  0.00     0.039 A 
ATOM      3  C2  UNL d   1      -1.233  -1.293   0.333  0.00  0.00    -0.080 A 
ATOM      4  C3  UNL d   1      -0.472  -1.901  -0.662  0.00  0.00     0.150 A 
ATOM      5  C4  UNL d   1       0.172  -1.139  -1.631  0.00  0.00    -0.007 A 
ATOM      6  C5  UNL d   1       0.052   0.250  -1.611  0.00  0.00     0.039 A 
ENDROOT
BRANCH   4   7
ATOM      7  O   UNL d   1      -0.331  -3.255  -0.724  0.00  0.00    -0.526 OA
ATOM      8  H5  UNL d   1      -0.854  -3.652  -0.008  0.00  0.00     0.418 HD
ENDBRANCH   4   7
TORSDOF 1
ENDMDL
