MODEL 1
REMARK minimizedAffinity -0.800676763
REMARK minimizedRMSD -1
REMARK  1 active torsions:
REMARK  status: ('A' for Active; 'I' for Inactive)
REMARK    1  A    between atoms: C3_4  and  O_7 
ROOT
ATOM      1  C   UNL d   1       1.890   0.214   2.267  0.00  0.00    -0.033 A 
ATOM      2  C1  UNL d   1       1.045   1.190   1.735  0.00  0.00     0.039 A 
ATOM      3  C2  UNL d   1      -0.340   1.046   1.834  0.00  0.00    -0.080 A 
ATOM      4  C3  UNL d   1      -0.867  -0.075   2.467  0.00  0.00     0.150 A 
ATOM      5  C4  UNL d   1      -0.031  -1.050   3.004  0.00  0.00    -0.007 A 
ATOM      6  C5  UNL d   1       1.352  -0.905   2.903  0.00  0.00     0.039 A 
ENDROOT
BRANCH   4   7
ATOM      7  O   UNL d   1      -2.212  -0.262   2.584  0.00  0.00    -0.526 OA
ATOM      8  H5  UNL d   1      -2.665   0.476   2.142  0.00  0.00     0.418 HD
ENDBRANCH   4   7
TORSDOF 1
ENDMDL
