MODEL 1
REMARK minimizedAffinity -0.37694183
REMARK minimizedRMSD -1
REMARK  1 active torsions:
REMARK  status: ('A' for Active; 'I' for Inactive)
REMARK    1  A    between atoms: C3_4  and  O_7 
ROOT
ATOM      1  C   UNL d   1      -0.686   0.973  -0.165  0.00  0.00    -0.033 A 
ATOM      2  C1  UNL d   1      -1.714   0.478   0.639  0.00  0.00     0.039 A 
ATOM      3  C2  UNL d   1      -1.430  -0.014   1.915  0.00  0.00    -0.080 A 
ATOM      4  C3  UNL d   1      -0.115  -0.003   2.373  0.00  0.00     0.150 A 
ATOM      5  C4  UNL d   1       0.913   0.492   1.579  0.00  0.00    -0.007 A 
ATOM      6  C5  UNL d   1       0.628   0.982   0.305  0.00  0.00     0.039 A 
ENDROOT
BRANCH   4   7
ATOM      7  O   UNL d   1       0.212  -0.477   3.609  0.00  0.00    -0.526 OA
ATOM      8  H5  UNL d   1      -0.595  -0.813   4.033  0.00  0.00     0.418 HD
ENDBRANCH   4   7
TORSDOF 1
ENDMDL
