MODEL 1
REMARK minimizedAffinity -4.95353699
REMARK minimizedRMSD -1
REMARK  1 active torsions:
REMARK  status: ('A' for Active; 'I' for Inactive)
REMARK    1  A    between atoms: C3_4  and  O_7 
ROOT
ATOM      1  C   UNL d   1      -1.874  -1.001   4.879  0.00  0.00    -0.033 A 
ATOM      2  C1  UNL d   1      -2.861  -0.736   3.928  0.00  0.00     0.039 A 
ATOM      3  C2  UNL d   1      -2.501  -0.368   2.630  0.00  0.00    -0.080 A 
ATOM      4  C3  UNL d   1      -1.153  -0.271   2.296  0.00  0.00     0.150 A 
ATOM      5  C4  UNL d   1      -0.164  -0.538   3.237  0.00  0.00    -0.007 A 
ATOM      6  C5  UNL d   1      -0.525  -0.904   4.533  0.00  0.00     0.039 A 
ENDROOT
BRANCH   4   7
ATOM      7  O   UNL d   1      -0.753   0.089   1.043  0.00  0.00    -0.526 OA
ATOM      8  H5  UNL d   1      -1.544   0.271   0.508  0.00  0.00     0.418 HD
ENDBRANCH   4   7
TORSDOF 1
ENDMDL
