MODEL 1
REMARK minimizedAffinity -3.50756693
REMARK minimizedRMSD -1
REMARK  1 active torsions:
REMARK  status: ('A' for Active; 'I' for Inactive)
REMARK    1  A    between atoms: C3_4  and  O_7 
ROOT
ATOM      1  C   UNL d   1      -3.646  -0.110   1.751  0.00  0.00    -0.033 A 
ATOM      2  C1  UNL d   1      -2.444   0.322   1.186  0.00  0.00     0.039 A 
ATOM      3  C2  UNL d   1      -1.239   0.109   1.859  0.00  0.00    -0.080 A 
ATOM      4  C3  UNL d   1      -1.250  -0.537   3.092  0.00  0.00     0.150 A 
ATOM      5  C4  UNL d   1      -2.443  -0.973   3.658  0.00  0.00    -0.007 A 
ATOM      6  C5  UNL d   1      -3.646  -0.759   2.986  0.00  0.00     0.039 A 
ENDROOT
BRANCH   4   7
ATOM      7  O   UNL d   1      -0.099  -0.763   3.788  0.00  0.00    -0.526 OA
ATOM      8  H5  UNL d   1       0.642  -0.382   3.288  0.00  0.00     0.418 HD
ENDBRANCH   4   7
TORSDOF 1
ENDMDL
