MODEL 1
REMARK minimizedAffinity -0.749985218
REMARK minimizedRMSD -1
REMARK  1 active torsions:
REMARK  status: ('A' for Active; 'I' for Inactive)
REMARK    1  A    between atoms: C3_4  and  O_7 
ROOT
ATOM      1  C   UNL d   1      -3.216   0.651   1.240  0.00  0.00    -0.033 A 
ATOM      2  C1  UNL d   1      -3.231   0.743   2.634  0.00  0.00     0.039 A 
ATOM      3  C2  UNL d   1      -2.118   0.340   3.374  0.00  0.00    -0.080 A 
ATOM      4  C3  UNL d   1      -0.998  -0.153   2.710  0.00  0.00     0.150 A 
ATOM      5  C4  UNL d   1      -0.975  -0.244   1.322  0.00  0.00    -0.007 A 
ATOM      6  C5  UNL d   1      -2.088   0.158   0.585  0.00  0.00     0.039 A 
ENDROOT
BRANCH   4   7
ATOM      7  O   UNL d   1       0.110  -0.564   3.389  0.00  0.00    -0.526 OA
ATOM      8  H5  UNL d   1      -0.060  -0.470   4.341  0.00  0.00     0.418 HD
ENDBRANCH   4   7
TORSDOF 1
ENDMDL
