MODEL 1
REMARK minimizedAffinity 4.44491482
REMARK minimizedRMSD -1
REMARK  1 active torsions:
REMARK  status: ('A' for Active; 'I' for Inactive)
REMARK    1  A    between atoms: C3_4  and  O_7 
ROOT
ATOM      1  C   UNL d   1      -0.346   0.415   2.961  0.00  0.00    -0.033 A 
ATOM      2  C1  UNL d   1      -0.053   1.674   3.490  0.00  0.00     0.039 A 
ATOM      3  C2  UNL d   1      -1.028   2.673   3.502  0.00  0.00    -0.080 A 
ATOM      4  C3  UNL d   1      -2.291   2.400   2.984  0.00  0.00     0.150 A 
ATOM      5  C4  UNL d   1      -2.592   1.148   2.459  0.00  0.00    -0.007 A 
ATOM      6  C5  UNL d   1      -1.616   0.152   2.447  0.00  0.00     0.039 A 
ENDROOT
BRANCH   4   7
ATOM      7  O   UNL d   1      -3.275   3.345   2.970  0.00  0.00    -0.526 OA
ATOM      8  H5  UNL d   1      -2.915   4.169   3.339  0.00  0.00     0.418 HD
ENDBRANCH   4   7
TORSDOF 1
ENDMDL
