MODEL 1
REMARK minimizedAffinity 3.47969961
REMARK minimizedRMSD -1
REMARK  1 active torsions:
REMARK  status: ('A' for Active; 'I' for Inactive)
REMARK    1  A    between atoms: C3_4  and  O_7 
ROOT
ATOM      1  C   UNL d   1      -3.500   0.579   0.793  0.00  0.00    -0.033 A 
ATOM      2  C1  UNL d   1      -3.543   1.039   2.111  0.00  0.00     0.039 A 
ATOM      3  C2  UNL d   1      -2.421   0.913   2.932  0.00  0.00    -0.080 A 
ATOM      4  C3  UNL d   1      -1.264   0.328   2.425  0.00  0.00     0.150 A 
ATOM      5  C4  UNL d   1      -1.213  -0.129   1.112  0.00  0.00    -0.007 A 
ATOM      6  C5  UNL d   1      -2.335  -0.004   0.293  0.00  0.00     0.039 A 
ENDROOT
BRANCH   4   7
ATOM      7  O   UNL d   1      -0.145   0.180   3.190  0.00  0.00    -0.526 OA
ATOM      8  H5  UNL d   1      -0.337   0.514   4.082  0.00  0.00     0.418 HD
ENDBRANCH   4   7
TORSDOF 1
ENDMDL
