MODEL 1
REMARK minimizedAffinity 1.76106119
REMARK minimizedRMSD -1
REMARK  1 active torsions:
REMARK  status: ('A' for Active; 'I' for Inactive)
REMARK    1  A    between atoms: C3_4  and  O_7 
ROOT
ATOM      1  C   UNL d   1      -0.957  -0.484  -1.585  0.00  0.00    -0.033 A 
ATOM      2  C1  UNL d   1      -1.819  -0.211  -0.520  0.00  0.00     0.039 A 
ATOM      3  C2  UNL d   1      -2.319  -1.255   0.260  0.00  0.00    -0.080 A 
ATOM      4  C3  UNL d   1      -1.950  -2.565  -0.032  0.00  0.00     0.150 A 
ATOM      5  C4  UNL d   1      -1.089  -2.844  -1.089  0.00  0.00    -0.007 A 
ATOM      6  C5  UNL d   1      -0.591  -1.800  -1.868  0.00  0.00     0.039 A 
ENDROOT
BRANCH   4   7
ATOM      7  O   UNL d   1      -2.417  -3.617   0.698  0.00  0.00    -0.526 OA
ATOM      8  H5  UNL d   1      -3.024  -3.275   1.376  0.00  0.00     0.418 HD
ENDBRANCH   4   7
TORSDOF 1
ENDMDL
