MODEL 1
REMARK minimizedAffinity 0.886202931
REMARK minimizedRMSD -1
REMARK  1 active torsions:
REMARK  status: ('A' for Active; 'I' for Inactive)
REMARK    1  A    between atoms: C3_4  and  O_7 
ROOT
ATOM      1  C   UNL d   1      -3.458   0.982   1.082  0.00  0.00    -0.033 A 
ATOM      2  C1  UNL d   1      -4.220   0.317   0.119  0.00  0.00     0.039 A 
ATOM      3  C2  UNL d   1      -3.590  -0.419  -0.885  0.00  0.00    -0.080 A 
ATOM      4  C3  UNL d   1      -2.200  -0.484  -0.915  0.00  0.00     0.150 A 
ATOM      5  C4  UNL d   1      -1.435   0.172   0.043  0.00  0.00    -0.007 A 
ATOM      6  C5  UNL d   1      -2.066   0.908   1.045  0.00  0.00     0.039 A 
ENDROOT
BRANCH   4   7
ATOM      7  O   UNL d   1      -1.540  -1.187  -1.879  0.00  0.00    -0.526 OA
ATOM      8  H5  UNL d   1      -2.196  -1.564  -2.489  0.00  0.00     0.418 HD
ENDBRANCH   4   7
TORSDOF 1
ENDMDL
