MODEL 1
REMARK minimizedAffinity 4.11935377
REMARK minimizedRMSD -1
REMARK  1 active torsions:
REMARK  status: ('A' for Active; 'I' for Inactive)
REMARK    1  A    between atoms: C3_4  and  O_7 
ROOT
ATOM      1  C   UNL d   1      -3.090   0.213  -0.484  0.00  0.00    -0.033 A 
ATOM      2  C1  UNL d   1      -2.139  -0.067   0.499  0.00  0.00     0.039 A 
ATOM      3  C2  UNL d   1      -1.206  -1.087   0.301  0.00  0.00    -0.080 A 
ATOM      4  C3  UNL d   1      -1.234  -1.818  -0.884  0.00  0.00     0.150 A 
ATOM      5  C4  UNL d   1      -2.176  -1.542  -1.869  0.00  0.00    -0.007 A 
ATOM      6  C5  UNL d   1      -3.107  -0.524  -1.669  0.00  0.00     0.039 A 
ENDROOT
BRANCH   4   7
ATOM      7  O   UNL d   1      -0.347  -2.826  -1.120  0.00  0.00    -0.526 OA
ATOM      8  H5  UNL d   1       0.225  -2.922  -0.340  0.00  0.00     0.418 HD
ENDBRANCH   4   7
TORSDOF 1
ENDMDL
