MODEL 1
REMARK minimizedAffinity 12.3047819
REMARK minimizedRMSD -1
REMARK  1 active torsions:
REMARK  status: ('A' for Active; 'I' for Inactive)
REMARK    1  A    between atoms: C3_4  and  O_7 
ROOT
ATOM      1  C   UNL d   1      -0.881   0.691   3.965  0.00  0.00    -0.033 A 
ATOM      2  C1  UNL d   1      -0.145  -0.149   3.127  0.00  0.00     0.039 A 
ATOM      3  C2  UNL d   1       0.441   0.360   1.966  0.00  0.00    -0.080 A 
ATOM      4  C3  UNL d   1       0.284   1.707   1.655  0.00  0.00     0.150 A 
ATOM      5  C4  UNL d   1      -0.445   2.551   2.487  0.00  0.00    -0.007 A 
ATOM      6  C5  UNL d   1      -1.030   2.041   3.645  0.00  0.00     0.039 A 
ENDROOT
BRANCH   4   7
ATOM      7  O   UNL d   1       0.833   2.248   0.530  0.00  0.00    -0.526 OA
ATOM      8  H5  UNL d   1       1.284   1.541   0.038  0.00  0.00     0.418 HD
ENDBRANCH   4   7
TORSDOF 1
ENDMDL
