MODEL 1
REMARK minimizedAffinity 2.04711866
REMARK minimizedRMSD -1
REMARK  1 active torsions:
REMARK  status: ('A' for Active; 'I' for Inactive)
REMARK    1  A    between atoms: C3_4  and  O_7 
ROOT
ATOM      1  C   UNL d   1      -1.039  -2.554  -2.003  0.00  0.00    -0.033 A 
ATOM      2  C1  UNL d   1      -1.882  -1.982  -2.959  0.00  0.00     0.039 A 
ATOM      3  C2  UNL d   1      -2.890  -1.100  -2.565  0.00  0.00    -0.080 A 
ATOM      4  C3  UNL d   1      -3.044  -0.798  -1.215  0.00  0.00     0.150 A 
ATOM      5  C4  UNL d   1      -2.206  -1.361  -0.258  0.00  0.00    -0.007 A 
ATOM      6  C5  UNL d   1      -1.201  -2.242  -0.653  0.00  0.00     0.039 A 
ENDROOT
BRANCH   4   7
ATOM      7  O   UNL d   1      -4.017   0.054  -0.782  0.00  0.00    -0.526 OA
ATOM      8  H5  UNL d   1      -4.537   0.343  -1.550  0.00  0.00     0.418 HD
ENDBRANCH   4   7
TORSDOF 1
ENDMDL
