MODEL 1
REMARK minimizedAffinity 3.47093368
REMARK minimizedRMSD -1
REMARK  1 active torsions:
REMARK  status: ('A' for Active; 'I' for Inactive)
REMARK    1  A    between atoms: C3_4  and  O_7 
ROOT
ATOM      1  C   UNL d   1      -0.808  -2.936  -1.842  0.00  0.00    -0.033 A 
ATOM      2  C1  UNL d   1      -0.909  -1.627  -2.317  0.00  0.00     0.039 A 
ATOM      3  C2  UNL d   1      -1.695  -0.695  -1.638  0.00  0.00    -0.080 A 
ATOM      4  C3  UNL d   1      -2.374  -1.083  -0.487  0.00  0.00     0.150 A 
ATOM      5  C4  UNL d   1      -2.276  -2.384  -0.005  0.00  0.00    -0.007 A 
ATOM      6  C5  UNL d   1      -1.490  -3.314  -0.685  0.00  0.00     0.039 A 
ENDROOT
BRANCH   4   7
ATOM      7  O   UNL d   1      -3.158  -0.209   0.207  0.00  0.00    -0.526 OA
ATOM      8  H5  UNL d   1      -3.154   0.644  -0.259  0.00  0.00     0.418 HD
ENDBRANCH   4   7
TORSDOF 1
ENDMDL
