MODEL 1
REMARK minimizedAffinity -0.180027798
REMARK minimizedRMSD -1
REMARK  1 active torsions:
REMARK  status: ('A' for Active; 'I' for Inactive)
REMARK    1  A    between atoms: C3_4  and  O_7 
ROOT
ATOM      1  C   UNL d   1       3.831   3.048  -5.490  0.00  0.00    -0.033 A 
ATOM      2  C1  UNL d   1       2.956   2.232  -4.769  0.00  0.00     0.039 A 
ATOM      3  C2  UNL d   1       1.862   2.792  -4.107  0.00  0.00    -0.080 A 
ATOM      4  C3  UNL d   1       1.653   4.166  -4.174  0.00  0.00     0.150 A 
ATOM      5  C4  UNL d   1       2.518   4.985  -4.893  0.00  0.00    -0.007 A 
ATOM      6  C5  UNL d   1       3.611   4.424  -5.553  0.00  0.00     0.039 A 
ENDROOT
BRANCH   4   7
ATOM      7  O   UNL d   1       0.601   4.759  -3.541  0.00  0.00    -0.526 OA
ATOM      8  H5  UNL d   1       0.106   4.075  -3.061  0.00  0.00     0.418 HD
ENDBRANCH   4   7
TORSDOF 1
ENDMDL
