MODEL 1
REMARK minimizedAffinity 4.38745499
REMARK minimizedRMSD -1
REMARK  1 active torsions:
REMARK  status: ('A' for Active; 'I' for Inactive)
REMARK    1  A    between atoms: C1_2  and  C2_3 
ROOT
ATOM      1  C2  UNL d   1      -3.999  -2.463   4.178  0.00  0.00    -0.081 A 
ATOM      2  C3  UNL d   1      -4.167  -3.596   3.373  0.00  0.00     0.006 A 
ATOM      3  C4  UNL d   1      -4.802  -4.734   3.876  0.00  0.00     0.002 A 
ATOM      4  C5  UNL d   1      -5.285  -4.756   5.189  0.00  0.00    -0.080 A 
ATOM      5  C6  UNL d   1      -5.995  -5.960   5.732  0.00  0.00     0.076 C 
ATOM      6  C7  UNL d   1      -5.101  -3.630   5.999  0.00  0.00     0.002 A 
ATOM      7  C8  UNL d   1      -4.466  -2.492   5.497  0.00  0.00     0.006 A 
ENDROOT
BRANCH   1   8
ATOM      8  C1  UNL d   1      -3.373  -1.211   3.619  0.00  0.00     0.054 C 
ATOM      9  C   UNL d   1      -2.248  -1.541   2.648  0.00  0.00     0.018 C 
ENDBRANCH   1   8
TORSDOF 1
ENDMDL
