MODEL 1
REMARK minimizedAffinity 12.1289015
REMARK minimizedRMSD -1
REMARK  1 active torsions:
REMARK  status: ('A' for Active; 'I' for Inactive)
REMARK    1  A    between atoms: C1_2  and  C2_3 
ROOT
ATOM      1  C2  UNL d   1       2.967   3.078  -3.313  0.00  0.00    -0.081 A 
ATOM      2  C3  UNL d   1       3.723   2.923  -4.482  0.00  0.00     0.006 A 
ATOM      3  C4  UNL d   1       4.684   3.873  -4.835  0.00  0.00     0.002 A 
ATOM      4  C5  UNL d   1       4.911   4.988  -4.023  0.00  0.00    -0.080 A 
ATOM      5  C6  UNL d   1       5.962   6.000  -4.374  0.00  0.00     0.076 C 
ATOM      6  C7  UNL d   1       4.145   5.153  -2.864  0.00  0.00     0.002 A 
ATOM      7  C8  UNL d   1       3.183   4.204  -2.511  0.00  0.00     0.006 A 
ENDROOT
BRANCH   1   8
ATOM      8  C1  UNL d   1       1.975   2.022  -2.896  0.00  0.00     0.054 C 
ATOM      9  C   UNL d   1       2.337   1.427  -1.543  0.00  0.00     0.018 C 
ENDBRANCH   1   8
TORSDOF 1
ENDMDL
