MODEL 1
REMARK minimizedAffinity 15.857049
REMARK minimizedRMSD -1
REMARK  1 active torsions:
REMARK  status: ('A' for Active; 'I' for Inactive)
REMARK    1  A    between atoms: C1_2  and  C2_3 
ROOT
ATOM      1  C2  UNL d   1       0.560  -1.164   3.276  0.00  0.00    -0.081 A 
ATOM      2  C3  UNL d   1      -0.366  -0.649   2.361  0.00  0.00     0.006 A 
ATOM      3  C4  UNL d   1      -1.326   0.280   2.770  0.00  0.00     0.002 A 
ATOM      4  C5  UNL d   1      -1.370   0.716   4.099  0.00  0.00    -0.080 A 
ATOM      5  C6  UNL d   1      -2.375   1.735   4.545  0.00  0.00     0.076 C 
ATOM      6  C7  UNL d   1      -0.455   0.189   5.017  0.00  0.00     0.002 A 
ATOM      7  C8  UNL d   1       0.504  -0.741   4.609  0.00  0.00     0.006 A 
ENDROOT
BRANCH   1   8
ATOM      8  C1  UNL d   1       1.637  -2.117   2.824  0.00  0.00     0.054 C 
ATOM      9  C   UNL d   1       2.983  -1.416   2.707  0.00  0.00     0.018 C 
ENDBRANCH   1   8
TORSDOF 1
ENDMDL
