MODEL 1
REMARK minimizedAffinity 12.9167366
REMARK minimizedRMSD -1
REMARK  1 active torsions:
REMARK  status: ('A' for Active; 'I' for Inactive)
REMARK    1  A    between atoms: C1_2  and  C2_3 
ROOT
ATOM      1  C2  UNL d   1       2.955   0.612   1.526  0.00  0.00    -0.081 A 
ATOM      2  C3  UNL d   1       2.949   1.539   0.477  0.00  0.00     0.006 A 
ATOM      3  C4  UNL d   1       3.867   2.592   0.457  0.00  0.00     0.002 A 
ATOM      4  C5  UNL d   1       4.810   2.731   1.481  0.00  0.00    -0.080 A 
ATOM      5  C6  UNL d   1       5.821   3.839   1.457  0.00  0.00     0.076 C 
ATOM      6  C7  UNL d   1       4.805   1.814   2.538  0.00  0.00     0.002 A 
ATOM      7  C8  UNL d   1       3.887   0.762   2.559  0.00  0.00     0.006 A 
ENDROOT
BRANCH   1   8
ATOM      8  C1  UNL d   1       2.009  -0.561   1.516  0.00  0.00     0.054 C 
ATOM      9  C   UNL d   1       2.329  -1.539   2.638  0.00  0.00     0.018 C 
ENDBRANCH   1   8
TORSDOF 1
ENDMDL
