MODEL 1
REMARK minimizedAffinity 16.8637447
REMARK minimizedRMSD -1
REMARK  1 active torsions:
REMARK  status: ('A' for Active; 'I' for Inactive)
REMARK    1  A    between atoms: C1_2  and  C2_3 
ROOT
ATOM      1  C2  UNL d   1      -4.419   1.589   3.747  0.00  0.00    -0.081 A 
ATOM      2  C3  UNL d   1      -4.985   0.879   2.682  0.00  0.00     0.006 A 
ATOM      3  C4  UNL d   1      -4.236  -0.075   1.989  0.00  0.00     0.002 A 
ATOM      4  C5  UNL d   1      -2.912  -0.341   2.355  0.00  0.00    -0.080 A 
ATOM      5  C6  UNL d   1      -2.107  -1.384   1.639  0.00  0.00     0.076 C 
ATOM      6  C7  UNL d   1      -2.341   0.381   3.408  0.00  0.00     0.002 A 
ATOM      7  C8  UNL d   1      -3.089   1.336   4.100  0.00  0.00     0.006 A 
ENDROOT
BRANCH   1   8
ATOM      8  C1  UNL d   1      -5.244   2.573   4.537  0.00  0.00     0.054 C 
ATOM      9  C   UNL d   1      -5.342   2.164   6.000  0.00  0.00     0.018 C 
ENDBRANCH   1   8
TORSDOF 1
ENDMDL
