MODEL 1
REMARK minimizedAffinity 12.9307499
REMARK minimizedRMSD -1
REMARK  1 active torsions:
REMARK  status: ('A' for Active; 'I' for Inactive)
REMARK    1  A    between atoms: C1_2  and  C2_3 
ROOT
ATOM      1  C2  UNL d   1      -3.717  -0.130   1.294  0.00  0.00    -0.081 A 
ATOM      2  C3  UNL d   1      -2.936   0.592   2.204  0.00  0.00     0.006 A 
ATOM      3  C4  UNL d   1      -1.639   0.175   2.511  0.00  0.00     0.002 A 
ATOM      4  C5  UNL d   1      -1.098  -0.965   1.907  0.00  0.00    -0.080 A 
ATOM      5  C6  UNL d   1       0.304  -1.407   2.205  0.00  0.00     0.076 C 
ATOM      6  C7  UNL d   1      -1.885  -1.697   1.011  0.00  0.00     0.002 A 
ATOM      7  C8  UNL d   1      -3.183  -1.281   0.705  0.00  0.00     0.006 A 
ENDROOT
BRANCH   1   8
ATOM      8  C1  UNL d   1      -5.093   0.353   0.912  0.00  0.00     0.054 C 
ATOM      9  C   UNL d   1      -5.657  -0.447  -0.254  0.00  0.00     0.018 C 
ENDBRANCH   1   8
TORSDOF 1
ENDMDL
