MODEL 1
REMARK minimizedAffinity 14.9003019
REMARK minimizedRMSD -1
REMARK  1 active torsions:
REMARK  status: ('A' for Active; 'I' for Inactive)
REMARK    1  A    between atoms: C1_2  and  C2_3 
ROOT
ATOM      1  C2  UNL d   1      -0.907   4.379  -3.546  0.00  0.00    -0.081 A 
ATOM      2  C3  UNL d   1      -0.385   3.213  -4.119  0.00  0.00     0.006 A 
ATOM      3  C4  UNL d   1       0.487   2.397  -3.394  0.00  0.00     0.002 A 
ATOM      4  C5  UNL d   1       0.845   2.729  -2.083  0.00  0.00    -0.080 A 
ATOM      5  C6  UNL d   1       1.757   1.846  -1.284  0.00  0.00     0.076 C 
ATOM      6  C7  UNL d   1       0.338   3.903  -1.517  0.00  0.00     0.002 A 
ATOM      7  C8  UNL d   1      -0.534   4.720  -2.241  0.00  0.00     0.006 A 
ENDROOT
BRANCH   1   8
ATOM      8  C1  UNL d   1      -1.899   5.227  -4.301  0.00  0.00     0.054 C 
ATOM      9  C   UNL d   1      -1.742   5.054  -5.805  0.00  0.00     0.018 C 
ENDBRANCH   1   8
TORSDOF 1
ENDMDL
