MODEL 1
REMARK minimizedAffinity 20.1451702
REMARK minimizedRMSD -1
REMARK  1 active torsions:
REMARK  status: ('A' for Active; 'I' for Inactive)
REMARK    1  A    between atoms: C1_2  and  C2_3 
ROOT
ATOM      1  C2  UNL d   1      -5.719   0.472  -3.369  0.00  0.00    -0.081 A 
ATOM      2  C3  UNL d   1      -5.968   1.593  -2.567  0.00  0.00     0.006 A 
ATOM      3  C4  UNL d   1      -5.682   1.562  -1.199  0.00  0.00     0.002 A 
ATOM      4  C5  UNL d   1      -5.136   0.415  -0.614  0.00  0.00    -0.080 A 
ATOM      5  C6  UNL d   1      -4.797   0.380   0.847  0.00  0.00     0.076 C 
ATOM      6  C7  UNL d   1      -4.904  -0.710  -1.412  0.00  0.00     0.002 A 
ATOM      7  C8  UNL d   1      -5.190  -0.681  -2.779  0.00  0.00     0.006 A 
ENDROOT
BRANCH   1   8
ATOM      8  C1  UNL d   1      -5.966   0.524  -4.855  0.00  0.00     0.054 C 
ATOM      9  C   UNL d   1      -5.976  -0.871  -5.463  0.00  0.00     0.018 C 
ENDBRANCH   1   8
TORSDOF 1
ENDMDL
