MODEL 1
REMARK minimizedAffinity 10.6593285
REMARK minimizedRMSD -1
REMARK  1 active torsions:
REMARK  status: ('A' for Active; 'I' for Inactive)
REMARK    1  A    between atoms: C1_2  and  C2_3 
ROOT
ATOM      1  C2  UNL d   1      -0.335   4.388  -3.453  0.00  0.00    -0.081 A 
ATOM      2  C3  UNL d   1      -0.330   3.001  -3.646  0.00  0.00     0.006 A 
ATOM      3  C4  UNL d   1       0.583   2.194  -2.963  0.00  0.00     0.002 A 
ATOM      4  C5  UNL d   1       1.500   2.759  -2.070  0.00  0.00    -0.080 A 
ATOM      5  C6  UNL d   1       2.465   1.901  -1.307  0.00  0.00     0.076 C 
ATOM      6  C7  UNL d   1       1.507   4.147  -1.890  0.00  0.00     0.002 A 
ATOM      7  C8  UNL d   1       0.594   4.954  -2.573  0.00  0.00     0.006 A 
ENDROOT
BRANCH   1   8
ATOM      8  C1  UNL d   1      -1.361   5.254  -4.139  0.00  0.00     0.054 C 
ATOM      9  C   UNL d   1      -1.565   4.828  -5.586  0.00  0.00     0.018 C 
ENDBRANCH   1   8
TORSDOF 1
ENDMDL
