MODEL 1
REMARK minimizedAffinity 16.2662926
REMARK minimizedRMSD -1
REMARK  1 active torsions:
REMARK  status: ('A' for Active; 'I' for Inactive)
REMARK    1  A    between atoms: C1_2  and  C2_3 
ROOT
ATOM      1  C2  UNL d   1      -1.368  -0.748   2.239  0.00  0.00    -0.081 A 
ATOM      2  C3  UNL d   1      -2.000  -1.818   1.592  0.00  0.00     0.006 A 
ATOM      3  C4  UNL d   1      -1.253  -2.898   1.116  0.00  0.00     0.002 A 
ATOM      4  C5  UNL d   1       0.135  -2.931   1.284  0.00  0.00    -0.080 A 
ATOM      5  C6  UNL d   1       0.945  -4.098   0.804  0.00  0.00     0.076 C 
ATOM      6  C7  UNL d   1       0.769  -1.854   1.914  0.00  0.00     0.002 A 
ATOM      7  C8  UNL d   1       0.023  -0.773   2.390  0.00  0.00     0.006 A 
ENDROOT
BRANCH   1   8
ATOM      8  C1  UNL d   1      -2.177   0.387   2.811  0.00  0.00     0.054 C 
ATOM      9  C   UNL d   1      -2.029   0.464   4.324  0.00  0.00     0.018 C 
ENDBRANCH   1   8
TORSDOF 1
ENDMDL
