MODEL 1
REMARK minimizedAffinity 13.5127621
REMARK minimizedRMSD -1
REMARK  1 active torsions:
REMARK  status: ('A' for Active; 'I' for Inactive)
REMARK    1  A    between atoms: C1_2  and  C2_3 
ROOT
ATOM      1  C2  UNL d   1      -0.601   4.337  -2.091  0.00  0.00    -0.081 A 
ATOM      2  C3  UNL d   1      -1.053   4.376  -0.766  0.00  0.00     0.006 A 
ATOM      3  C4  UNL d   1      -2.420   4.438  -0.486  0.00  0.00     0.002 A 
ATOM      4  C5  UNL d   1      -3.357   4.454  -1.525  0.00  0.00    -0.080 A 
ATOM      5  C6  UNL d   1      -4.829   4.490  -1.237  0.00  0.00     0.076 C 
ATOM      6  C7  UNL d   1      -2.905   4.432  -2.848  0.00  0.00     0.002 A 
ATOM      7  C8  UNL d   1      -1.538   4.371  -3.129  0.00  0.00     0.006 A 
ENDROOT
BRANCH   1   8
ATOM      8  C1  UNL d   1       0.870   4.204  -2.396  0.00  0.00     0.054 C 
ATOM      9  C   UNL d   1       1.349   2.774  -2.196  0.00  0.00     0.018 C 
ENDBRANCH   1   8
TORSDOF 1
ENDMDL
