MODEL 1
REMARK minimizedAffinity 21.0677834
REMARK minimizedRMSD -1
REMARK  1 active torsions:
REMARK  status: ('A' for Active; 'I' for Inactive)
REMARK    1  A    between atoms: C1_2  and  C2_3 
ROOT
ATOM      1  C2  UNL d   1       5.654   4.792  -2.531  0.00  0.00    -0.081 A 
ATOM      2  C3  UNL d   1       5.863   3.596  -1.832  0.00  0.00     0.006 A 
ATOM      3  C4  UNL d   1       5.988   3.601  -0.441  0.00  0.00     0.002 A 
ATOM      4  C5  UNL d   1       5.898   4.799   0.275  0.00  0.00    -0.080 A 
ATOM      5  C6  UNL d   1       6.000   4.814   1.772  0.00  0.00     0.076 C 
ATOM      6  C7  UNL d   1       5.707   5.996  -0.423  0.00  0.00     0.002 A 
ATOM      7  C8  UNL d   1       5.583   5.992  -1.814  0.00  0.00     0.006 A 
ENDROOT
BRANCH   1   8
ATOM      8  C1  UNL d   1       5.455   4.782  -4.025  0.00  0.00     0.054 C 
ATOM      9  C   UNL d   1       4.326   3.843  -4.426  0.00  0.00     0.018 C 
ENDBRANCH   1   8
TORSDOF 1
ENDMDL
