MODEL 1
REMARK minimizedAffinity 7.93111229
REMARK minimizedRMSD -1
REMARK  1 active torsions:
REMARK  status: ('A' for Active; 'I' for Inactive)
REMARK    1  A    between atoms: C1_2  and  C2_3 
ROOT
ATOM      1  C2  UNL d   1       5.168   4.514  -2.092  0.00  0.00    -0.081 A 
ATOM      2  C3  UNL d   1       3.970   3.813  -2.278  0.00  0.00     0.006 A 
ATOM      3  C4  UNL d   1       3.616   3.338  -3.543  0.00  0.00     0.002 A 
ATOM      4  C5  UNL d   1       4.457   3.549  -4.641  0.00  0.00    -0.080 A 
ATOM      5  C6  UNL d   1       4.104   3.018  -5.998  0.00  0.00     0.076 C 
ATOM      6  C7  UNL d   1       5.646   4.264  -4.459  0.00  0.00     0.002 A 
ATOM      7  C8  UNL d   1       6.000   4.740  -3.194  0.00  0.00     0.006 A 
ENDROOT
BRANCH   1   8
ATOM      8  C1  UNL d   1       5.583   4.971  -0.717  0.00  0.00     0.054 C 
ATOM      9  C   UNL d   1       5.999   3.795   0.155  0.00  0.00     0.018 C 
ENDBRANCH   1   8
TORSDOF 1
ENDMDL
