MODEL 1
REMARK minimizedAffinity 12.1098289
REMARK minimizedRMSD -1
REMARK  1 active torsions:
REMARK  status: ('A' for Active; 'I' for Inactive)
REMARK    1  A    between atoms: C1_2  and  C2_3 
ROOT
ATOM      1  C2  UNL d   1       0.984   3.466  -2.904  0.00  0.00    -0.081 A 
ATOM      2  C3  UNL d   1       1.085   4.731  -2.311  0.00  0.00     0.006 A 
ATOM      3  C4  UNL d   1       2.320   5.206  -1.862  0.00  0.00     0.002 A 
ATOM      4  C5  UNL d   1       3.474   4.428  -2.004  0.00  0.00    -0.080 A 
ATOM      5  C6  UNL d   1       4.810   4.938  -1.554  0.00  0.00     0.076 C 
ATOM      6  C7  UNL d   1       3.370   3.157  -2.581  0.00  0.00     0.002 A 
ATOM      7  C8  UNL d   1       2.136   2.682  -3.030  0.00  0.00     0.006 A 
ENDROOT
BRANCH   1   8
ATOM      8  C1  UNL d   1      -0.335   2.979  -3.448  0.00  0.00     0.054 C 
ATOM      9  C   UNL d   1      -0.981   4.021  -4.348  0.00  0.00     0.018 C 
ENDBRANCH   1   8
TORSDOF 1
ENDMDL
