MODEL 1
REMARK minimizedAffinity 8.38754654
REMARK minimizedRMSD -1
REMARK  1 active torsions:
REMARK  status: ('A' for Active; 'I' for Inactive)
REMARK    1  A    between atoms: C1_2  and  C2_3 
ROOT
ATOM      1  C2  UNL d   1       0.372   4.266  -2.781  0.00  0.00    -0.081 A 
ATOM      2  C3  UNL d   1       0.967   5.466  -2.373  0.00  0.00     0.006 A 
ATOM      3  C4  UNL d   1       2.354   5.558  -2.235  0.00  0.00     0.002 A 
ATOM      4  C5  UNL d   1       3.170   4.456  -2.511  0.00  0.00    -0.080 A 
ATOM      5  C6  UNL d   1       4.662   4.551  -2.396  0.00  0.00     0.076 C 
ATOM      6  C7  UNL d   1       2.575   3.252  -2.902  0.00  0.00     0.002 A 
ATOM      7  C8  UNL d   1       1.188   3.158  -3.039  0.00  0.00     0.006 A 
ENDROOT
BRANCH   1   8
ATOM      8  C1  UNL d   1      -1.118   4.181  -2.993  0.00  0.00     0.054 C 
ATOM      9  C   UNL d   1      -1.519   4.768  -4.339  0.00  0.00     0.018 C 
ENDBRANCH   1   8
TORSDOF 1
ENDMDL
