MODEL 1
REMARK minimizedAffinity 11.2309103
REMARK minimizedRMSD -1
REMARK  1 active torsions:
REMARK  status: ('A' for Active; 'I' for Inactive)
REMARK    1  A    between atoms: C1_2  and  C2_3 
ROOT
ATOM      1  C2  UNL d   1      -5.768  -0.212  -2.342  0.00  0.00    -0.081 A 
ATOM      2  C3  UNL d   1      -5.587  -1.126  -1.296  0.00  0.00     0.006 A 
ATOM      3  C4  UNL d   1      -5.433  -0.678   0.017  0.00  0.00     0.002 A 
ATOM      4  C5  UNL d   1      -5.465   0.690   0.309  0.00  0.00    -0.080 A 
ATOM      5  C6  UNL d   1      -5.330   1.183   1.719  0.00  0.00     0.076 C 
ATOM      6  C7  UNL d   1      -5.628   1.604  -0.738  0.00  0.00     0.002 A 
ATOM      7  C8  UNL d   1      -5.782   1.156  -2.052  0.00  0.00     0.006 A 
ENDROOT
BRANCH   1   8
ATOM      8  C1  UNL d   1      -6.000  -0.696  -3.751  0.00  0.00     0.054 C 
ATOM      9  C   UNL d   1      -6.000  -2.216  -3.821  0.00  0.00     0.018 C 
ENDBRANCH   1   8
TORSDOF 1
ENDMDL
