MODEL 1
REMARK minimizedAffinity 6.04618788
REMARK minimizedRMSD -1
REMARK  0 active torsions:
REMARK  status: ('A' for Active; 'I' for Inactive)
ROOT
ATOM      1  O1  BZF d   1       1.533   0.064   1.808  0.00  0.00    -0.204 OA
ATOM      2  C2  BZF d   1       2.038  -1.209   1.630  0.00  0.00     0.174 A 
ATOM      3  C3  BZF d   1       1.880  -1.612   0.353  0.00  0.00    -0.012 A 
ATOM      4  C3A BZF d   1       1.319  -0.487  -0.330  0.00  0.00    -0.107 A 
ATOM      5  C4  BZF d   1       0.951  -0.263  -1.626  0.00  0.00     0.055 A 
ATOM      6  C5  BZF d   1       0.367   0.920  -1.952  0.00  0.00    -0.016 A 
ATOM      7  C6  BZF d   1       0.133   1.898  -1.008  0.00  0.00     0.022 A 
ATOM      8  C7  BZF d   1       0.486   1.724   0.289  0.00  0.00     0.029 A 
ATOM      9  C7A BZF d   1       1.106   0.543   0.615  0.00  0.00     0.058 A 
ENDROOT
TORSDOF 0
ENDMDL
