MODEL 1
REMARK minimizedAffinity 0.876972616
REMARK minimizedRMSD -1
REMARK  0 active torsions:
REMARK  status: ('A' for Active; 'I' for Inactive)
ROOT
ATOM      1  O1  BZF d   1       0.696  -0.278  -2.641  0.00  0.00    -0.204 OA
ATOM      2  C2  BZF d   1      -0.336   0.206  -3.422  0.00  0.00     0.174 A 
ATOM      3  C3  BZF d   1      -1.006   1.183  -2.778  0.00  0.00    -0.012 A 
ATOM      4  C3A BZF d   1      -0.296   1.381  -1.552  0.00  0.00    -0.107 A 
ATOM      5  C4  BZF d   1      -0.467   2.228  -0.494  0.00  0.00     0.055 A 
ATOM      6  C5  BZF d   1       0.357   2.117   0.580  0.00  0.00    -0.016 A 
ATOM      7  C6  BZF d   1       1.358   1.169   0.633  0.00  0.00     0.022 A 
ATOM      8  C7  BZF d   1       1.569   0.310  -0.394  0.00  0.00     0.029 A 
ATOM      9  C7A BZF d   1       0.759   0.441  -1.495  0.00  0.00     0.058 A 
ENDROOT
TORSDOF 0
ENDMDL
