MODEL 1
REMARK minimizedAffinity 7.68363857
REMARK minimizedRMSD -1
REMARK  0 active torsions:
REMARK  status: ('A' for Active; 'I' for Inactive)
ROOT
ATOM      1  O1  BZF d   1      -2.365   3.714  -1.964  0.00  0.00    -0.204 OA
ATOM      2  C2  BZF d   1      -2.836   2.429  -1.775  0.00  0.00     0.174 A 
ATOM      3  C3  BZF d   1      -1.945   1.690  -1.082  0.00  0.00    -0.012 A 
ATOM      4  C3A BZF d   1      -0.889   2.594  -0.743  0.00  0.00    -0.107 A 
ATOM      5  C4  BZF d   1       0.276   2.457  -0.044  0.00  0.00     0.055 A 
ATOM      6  C5  BZF d   1       1.122   3.517   0.044  0.00  0.00    -0.016 A 
ATOM      7  C6  BZF d   1       0.837   4.725  -0.558  0.00  0.00     0.022 A 
ATOM      8  C7  BZF d   1      -0.309   4.911  -1.258  0.00  0.00     0.029 A 
ATOM      9  C7A BZF d   1      -1.181   3.852  -1.321  0.00  0.00     0.058 A 
ENDROOT
TORSDOF 0
ENDMDL
