MODEL 1
REMARK minimizedAffinity 15.0411673
REMARK minimizedRMSD -1
REMARK  0 active torsions:
REMARK  status: ('A' for Active; 'I' for Inactive)
ROOT
ATOM      1  O1  BZF d   1       4.037  -1.176   2.150  0.00  0.00    -0.204 OA
ATOM      2  C2  BZF d   1       2.702  -0.981   1.855  0.00  0.00     0.174 A 
ATOM      3  C3  BZF d   1       1.927  -1.298   2.912  0.00  0.00    -0.012 A 
ATOM      4  C3A BZF d   1       2.840  -1.630   3.962  0.00  0.00    -0.107 A 
ATOM      5  C4  BZF d   1       2.676  -2.013   5.263  0.00  0.00     0.055 A 
ATOM      6  C5  BZF d   1       3.772  -2.333   6.000  0.00  0.00    -0.016 A 
ATOM      7  C6  BZF d   1       5.044  -2.287   5.468  0.00  0.00     0.022 A 
ATOM      8  C7  BZF d   1       5.257  -1.908   4.184  0.00  0.00     0.029 A 
ATOM      9  C7A BZF d   1       4.154  -1.552   3.446  0.00  0.00     0.058 A 
ENDROOT
TORSDOF 0
ENDMDL
