MODEL 1
REMARK minimizedAffinity 7.25228405
REMARK minimizedRMSD -1
REMARK  0 active torsions:
REMARK  status: ('A' for Active; 'I' for Inactive)
ROOT
ATOM      1  O1  BZF d   1      -3.448   4.292  -5.997  0.00  0.00    -0.204 OA
ATOM      2  C2  BZF d   1      -4.412   4.787  -5.140  0.00  0.00     0.174 A 
ATOM      3  C3  BZF d   1      -4.624   3.935  -4.116  0.00  0.00    -0.012 A 
ATOM      4  C3A BZF d   1      -3.672   2.883  -4.298  0.00  0.00    -0.107 A 
ATOM      5  C4  BZF d   1      -3.380   1.749  -3.595  0.00  0.00     0.055 A 
ATOM      6  C5  BZF d   1      -2.442   0.894  -4.081  0.00  0.00    -0.016 A 
ATOM      7  C6  BZF d   1      -1.783   1.138  -5.268  0.00  0.00     0.022 A 
ATOM      8  C7  BZF d   1      -2.035   2.251  -5.998  0.00  0.00     0.029 A 
ATOM      9  C7A BZF d   1      -2.958   3.134  -5.493  0.00  0.00     0.058 A 
ENDROOT
TORSDOF 0
ENDMDL
