MODEL 1
REMARK minimizedAffinity 10.8448744
REMARK minimizedRMSD -1
REMARK  0 active torsions:
REMARK  status: ('A' for Active; 'I' for Inactive)
ROOT
ATOM      1  O1  BZF d   1       2.218   2.764   0.504  0.00  0.00    -0.204 OA
ATOM      2  C2  BZF d   1       1.137   1.939   0.748  0.00  0.00     0.174 A 
ATOM      3  C3  BZF d   1      -0.012   2.530   0.362  0.00  0.00    -0.012 A 
ATOM      4  C3A BZF d   1       0.383   3.766  -0.240  0.00  0.00    -0.107 A 
ATOM      5  C4  BZF d   1      -0.307   4.788  -0.828  0.00  0.00     0.055 A 
ATOM      6  C5  BZF d   1       0.372   5.887  -1.250  0.00  0.00    -0.016 A 
ATOM      7  C6  BZF d   1       1.738   6.000  -1.095  0.00  0.00     0.022 A 
ATOM      8  C7  BZF d   1       2.467   5.011  -0.522  0.00  0.00     0.029 A 
ATOM      9  C7A BZF d   1       1.788   3.885  -0.124  0.00  0.00     0.058 A 
ENDROOT
TORSDOF 0
ENDMDL
