MODEL 1
REMARK minimizedAffinity 11.9787655
REMARK minimizedRMSD -1
REMARK  0 active torsions:
REMARK  status: ('A' for Active; 'I' for Inactive)
ROOT
ATOM      1  O1  BZF d   1      -3.698   1.708  -6.000  0.00  0.00    -0.204 OA
ATOM      2  C2  BZF d   1      -2.425   1.206  -5.811  0.00  0.00     0.174 A 
ATOM      3  C3  BZF d   1      -1.587   2.174  -5.389  0.00  0.00    -0.012 A 
ATOM      4  C3A BZF d   1      -2.407   3.335  -5.221  0.00  0.00    -0.107 A 
ATOM      5  C4  BZF d   1      -2.153   4.612  -4.807  0.00  0.00     0.055 A 
ATOM      6  C5  BZF d   1      -3.160   5.524  -4.826  0.00  0.00    -0.016 A 
ATOM      7  C6  BZF d   1      -4.429   5.196  -5.257  0.00  0.00     0.022 A 
ATOM      8  C7  BZF d   1      -4.730   3.942  -5.672  0.00  0.00     0.029 A 
ATOM      9  C7A BZF d   1      -3.723   3.009  -5.623  0.00  0.00     0.058 A 
ENDROOT
TORSDOF 0
ENDMDL
