MODEL 1
REMARK minimizedAffinity 1.01868486
REMARK minimizedRMSD -1
REMARK  0 active torsions:
REMARK  status: ('A' for Active; 'I' for Inactive)
ROOT
ATOM      1  O1  BZF d   1      -2.394   2.941  -4.069  0.00  0.00    -0.204 OA
ATOM      2  C2  BZF d   1      -1.578   3.778  -4.806  0.00  0.00     0.174 A 
ATOM      3  C3  BZF d   1      -2.300   4.485  -5.699  0.00  0.00    -0.012 A 
ATOM      4  C3A BZF d   1      -3.663   4.132  -5.445  0.00  0.00    -0.107 A 
ATOM      5  C4  BZF d   1      -4.852   4.516  -5.998  0.00  0.00     0.055 A 
ATOM      6  C5  BZF d   1      -6.000   3.928  -5.571  0.00  0.00    -0.016 A 
ATOM      7  C6  BZF d   1      -5.996   2.949  -4.599  0.00  0.00     0.022 A 
ATOM      8  C7  BZF d   1      -4.843   2.538  -4.018  0.00  0.00     0.029 A 
ATOM      9  C7A BZF d   1      -3.684   3.154  -4.424  0.00  0.00     0.058 A 
ENDROOT
TORSDOF 0
ENDMDL
