MODEL 1
REMARK minimizedAffinity 10.1338339
REMARK minimizedRMSD -1
REMARK  0 active torsions:
REMARK  status: ('A' for Active; 'I' for Inactive)
ROOT
ATOM      1  O1  BZF d   1       3.750   5.398   0.622  0.00  0.00    -0.204 OA
ATOM      2  C2  BZF d   1       4.522   4.744   1.562  0.00  0.00     0.174 A 
ATOM      3  C3  BZF d   1       3.927   3.601   1.959  0.00  0.00    -0.012 A 
ATOM      4  C3A BZF d   1       2.750   3.491   1.153  0.00  0.00    -0.107 A 
ATOM      5  C4  BZF d   1       1.753   2.560   1.069  0.00  0.00     0.055 A 
ATOM      6  C5  BZF d   1       0.709   2.786   0.230  0.00  0.00    -0.016 A 
ATOM      7  C6  BZF d   1       0.625   3.931  -0.535  0.00  0.00     0.022 A 
ATOM      8  C7  BZF d   1       1.592   4.880  -0.489  0.00  0.00     0.029 A 
ATOM      9  C7A BZF d   1       2.665   4.640   0.333  0.00  0.00     0.058 A 
ENDROOT
TORSDOF 0
ENDMDL
