MODEL 1
REMARK minimizedAffinity -4.90641451
REMARK minimizedRMSD -1
REMARK  1 active torsions:
REMARK  status: ('A' for Active; 'I' for Inactive)
REMARK    1  A    between atoms: C1_2  and  C2_3 
ROOT
ATOM      1  C2  UNL d   1       0.541  -1.395   0.497  0.00  0.00    -0.077 A 
ATOM      2  C3  UNL d   1       0.967  -0.426  -0.422  0.00  0.00     0.002 A 
ATOM      3  C4  UNL d   1       0.324   0.811  -0.494  0.00  0.00     0.002 A 
ATOM      4  C5  UNL d   1      -0.746   1.091   0.354  0.00  0.00    -0.004 A 
ATOM      5  C6  UNL d   1      -1.179   0.133   1.270  0.00  0.00     0.002 A 
ATOM      6  C7  UNL d   1      -0.537  -1.104   1.342  0.00  0.00     0.002 A 
ENDROOT
BRANCH   1   7
ATOM      7  C1  UNL d   1       1.265  -2.712   0.609  0.00  0.00     0.055 C 
ATOM      8  C   UNL d   1       2.382  -2.642   1.641  0.00  0.00     0.019 C 
ENDBRANCH   1   7
TORSDOF 1
ENDMDL
