MODEL 1
REMARK minimizedAffinity -4.11440992
REMARK minimizedRMSD -1
REMARK  1 active torsions:
REMARK  status: ('A' for Active; 'I' for Inactive)
REMARK    1  A    between atoms: C1_2  and  C2_3 
ROOT
ATOM      1  C2  UNL d   1       1.116  -1.240   0.678  0.00  0.00    -0.077 A 
ATOM      2  C3  UNL d   1       1.263  -0.124  -0.157  0.00  0.00     0.002 A 
ATOM      3  C4  UNL d   1       0.178   0.718  -0.410  0.00  0.00     0.002 A 
ATOM      4  C5  UNL d   1      -1.060   0.455   0.172  0.00  0.00    -0.004 A 
ATOM      5  C6  UNL d   1      -1.217  -0.654   1.003  0.00  0.00     0.002 A 
ATOM      6  C7  UNL d   1      -0.134  -1.497   1.255  0.00  0.00     0.002 A 
ENDROOT
BRANCH   1   7
ATOM      7  C1  UNL d   1       2.297  -2.121   0.990  0.00  0.00     0.055 C 
ATOM      8  C   UNL d   1       1.852  -3.475   1.524  0.00  0.00     0.019 C 
ENDBRANCH   1   7
TORSDOF 1
ENDMDL
