MODEL 1
REMARK minimizedAffinity -4.80117083
REMARK minimizedRMSD -1
REMARK  1 active torsions:
REMARK  status: ('A' for Active; 'I' for Inactive)
REMARK    1  A    between atoms: C1_2  and  C2_3 
ROOT
ATOM      1  C2  UNL d   1       0.088  -0.465   0.653  0.00  0.00    -0.077 A 
ATOM      2  C3  UNL d   1       1.374  -0.516   0.097  0.00  0.00     0.002 A 
ATOM      3  C4  UNL d   1       2.133  -1.684   0.179  0.00  0.00     0.002 A 
ATOM      4  C5  UNL d   1       1.614  -2.812   0.811  0.00  0.00    -0.004 A 
ATOM      5  C6  UNL d   1       0.336  -2.771   1.369  0.00  0.00     0.002 A 
ATOM      6  C7  UNL d   1      -0.424  -1.603   1.289  0.00  0.00     0.002 A 
ENDROOT
BRANCH   1   7
ATOM      7  C1  UNL d   1      -0.752   0.779   0.522  0.00  0.00     0.055 C 
ATOM      8  C   UNL d   1      -0.707   1.331  -0.895  0.00  0.00     0.019 C 
ENDBRANCH   1   7
TORSDOF 1
ENDMDL
