MODEL 1
REMARK minimizedAffinity -3.23788714
REMARK minimizedRMSD -1
REMARK  1 active torsions:
REMARK  status: ('A' for Active; 'I' for Inactive)
REMARK    1  A    between atoms: C1_2  and  C2_3 
ROOT
ATOM      1  C2  UNL d   1      -0.212  -1.251   0.538  0.00  0.00    -0.077 A 
ATOM      2  C3  UNL d   1       0.330  -0.245  -0.274  0.00  0.00     0.002 A 
ATOM      3  C4  UNL d   1       0.005   1.094  -0.051  0.00  0.00     0.002 A 
ATOM      4  C5  UNL d   1      -0.859   1.440   0.986  0.00  0.00    -0.004 A 
ATOM      5  C6  UNL d   1      -1.405   0.446   1.798  0.00  0.00     0.002 A 
ATOM      6  C7  UNL d   1      -1.082  -0.893   1.575  0.00  0.00     0.002 A 
ENDROOT
BRANCH   1   7
ATOM      7  C1  UNL d   1       0.176  -2.692   0.330  0.00  0.00     0.055 C 
ATOM      8  C   UNL d   1       1.330  -3.091   1.238  0.00  0.00     0.019 C 
ENDBRANCH   1   7
TORSDOF 1
ENDMDL
