MODEL 1
REMARK minimizedAffinity -4.36558771
REMARK minimizedRMSD -1
REMARK  1 active torsions:
REMARK  status: ('A' for Active; 'I' for Inactive)
REMARK    1  A    between atoms: C1_2  and  C2_3 
ROOT
ATOM      1  C2  UNL d   1       0.840  -0.642   0.421  0.00  0.00    -0.077 A 
ATOM      2  C3  UNL d   1       1.145   0.377  -0.493  0.00  0.00     0.002 A 
ATOM      3  C4  UNL d   1       0.195   1.351  -0.808  0.00  0.00     0.002 A 
ATOM      4  C5  UNL d   1      -1.064   1.317  -0.211  0.00  0.00    -0.004 A 
ATOM      5  C6  UNL d   1      -1.377   0.307   0.697  0.00  0.00     0.002 A 
ATOM      6  C7  UNL d   1      -0.429  -0.668   1.012  0.00  0.00     0.002 A 
ENDROOT
BRANCH   1   7
ATOM      7  C1  UNL d   1       1.880  -1.664   0.799  0.00  0.00     0.055 C 
ATOM      8  C   UNL d   1       1.274  -3.056   0.906  0.00  0.00     0.019 C 
ENDBRANCH   1   7
TORSDOF 1
ENDMDL
