MODEL 1
REMARK minimizedAffinity -2.30115056
REMARK minimizedRMSD -1
REMARK  1 active torsions:
REMARK  status: ('A' for Active; 'I' for Inactive)
REMARK    1  A    between atoms: C1_2  and  C2_3 
ROOT
ATOM      1  C2  UNL d   1       0.922  -0.851   0.214  0.00  0.00    -0.077 A 
ATOM      2  C3  UNL d   1       1.527   0.323  -0.255  0.00  0.00     0.002 A 
ATOM      3  C4  UNL d   1       0.747   1.375  -0.739  0.00  0.00     0.002 A 
ATOM      4  C5  UNL d   1      -0.641   1.266  -0.754  0.00  0.00    -0.004 A 
ATOM      5  C6  UNL d   1      -1.253   0.101  -0.292  0.00  0.00     0.002 A 
ATOM      6  C7  UNL d   1      -0.475  -0.952   0.191  0.00  0.00     0.002 A 
ENDROOT
BRANCH   1   7
ATOM      7  C1  UNL d   1       1.758  -1.968   0.782  0.00  0.00     0.055 C 
ATOM      8  C   UNL d   1       2.894  -1.427   1.638  0.00  0.00     0.019 C 
ENDBRANCH   1   7
TORSDOF 1
ENDMDL
