MODEL 1
REMARK minimizedAffinity -5.08053112
REMARK minimizedRMSD -1
REMARK  1 active torsions:
REMARK  status: ('A' for Active; 'I' for Inactive)
REMARK    1  A    between atoms: C1_2  and  C2_3 
ROOT
ATOM      1  C2  UNL d   1       0.938  -0.511   0.259  0.00  0.00    -0.077 A 
ATOM      2  C3  UNL d   1      -0.125  -0.018   1.029  0.00  0.00     0.002 A 
ATOM      3  C4  UNL d   1      -1.068   0.842   0.463  0.00  0.00     0.002 A 
ATOM      4  C5  UNL d   1      -0.960   1.212  -0.876  0.00  0.00    -0.004 A 
ATOM      5  C6  UNL d   1       0.094   0.729  -1.650  0.00  0.00     0.002 A 
ATOM      6  C7  UNL d   1       1.039  -0.130  -1.085  0.00  0.00     0.002 A 
ENDROOT
BRANCH   1   7
ATOM      7  C1  UNL d   1       1.928  -1.478   0.855  0.00  0.00     0.055 C 
ATOM      8  C   UNL d   1       1.344  -2.879   0.951  0.00  0.00     0.019 C 
ENDBRANCH   1   7
TORSDOF 1
ENDMDL
