MODEL 1
REMARK minimizedAffinity -3.63366938
REMARK minimizedRMSD -1
REMARK  1 active torsions:
REMARK  status: ('A' for Active; 'I' for Inactive)
REMARK    1  A    between atoms: C1_2  and  C2_3 
ROOT
ATOM      1  C2  UNL d   1       0.778  -1.058   0.361  0.00  0.00    -0.077 A 
ATOM      2  C3  UNL d   1       1.375  -0.027  -0.378  0.00  0.00     0.002 A 
ATOM      3  C4  UNL d   1       0.644   1.113  -0.717  0.00  0.00     0.002 A 
ATOM      4  C5  UNL d   1      -0.685   1.234  -0.319  0.00  0.00    -0.004 A 
ATOM      5  C6  UNL d   1      -1.288   0.214   0.415  0.00  0.00     0.002 A 
ATOM      6  C7  UNL d   1      -0.560  -0.927   0.754  0.00  0.00     0.002 A 
ENDROOT
BRANCH   1   7
ATOM      7  C1  UNL d   1       1.580  -2.267   0.770  0.00  0.00     0.055 C 
ATOM      8  C   UNL d   1       2.845  -1.866   1.515  0.00  0.00     0.019 C 
ENDBRANCH   1   7
TORSDOF 1
ENDMDL
