MODEL 1
REMARK minimizedAffinity -4.68473148
REMARK minimizedRMSD -1
REMARK  1 active torsions:
REMARK  status: ('A' for Active; 'I' for Inactive)
REMARK    1  A    between atoms: C1_2  and  C2_3 
ROOT
ATOM      1  C2  UNL d   1       0.853  -0.780   0.450  0.00  0.00    -0.077 A 
ATOM      2  C3  UNL d   1       1.016   0.421  -0.254  0.00  0.00     0.002 A 
ATOM      3  C4  UNL d   1      -0.022   1.352  -0.312  0.00  0.00     0.002 A 
ATOM      4  C5  UNL d   1      -1.229   1.094   0.334  0.00  0.00    -0.004 A 
ATOM      5  C6  UNL d   1      -1.402  -0.099   1.035  0.00  0.00     0.002 A 
ATOM      6  C7  UNL d   1      -0.365  -1.031   1.094  0.00  0.00     0.002 A 
ENDROOT
BRANCH   1   7
ATOM      7  C1  UNL d   1       1.989  -1.764   0.555  0.00  0.00     0.055 C 
ATOM      8  C   UNL d   1       1.498  -3.131   1.008  0.00  0.00     0.019 C 
ENDBRANCH   1   7
TORSDOF 1
ENDMDL
