MODEL 1
REMARK minimizedAffinity 3.43571401
REMARK minimizedRMSD -1
REMARK  2 active torsions:
REMARK  status: ('A' for Active; 'I' for Inactive)
REMARK    1  A    between atoms: C1_2  and  C2_3 
REMARK    2  A    between atoms: C2_3  and  C3_4 
ROOT
ATOM      1  C3  UNL d   1       5.030  -4.155   3.647  0.00  0.00    -0.075 A 
ATOM      2  C4  UNL d   1       5.921  -3.844   4.684  0.00  0.00     0.002 A 
ATOM      3  C5  UNL d   1       5.946  -4.610   5.850  0.00  0.00     0.002 A 
ATOM      4  C6  UNL d   1       5.076  -5.688   5.998  0.00  0.00    -0.004 A 
ATOM      5  C7  UNL d   1       4.176  -5.996   4.981  0.00  0.00     0.002 A 
ATOM      6  C8  UNL d   1       4.151  -5.234   3.811  0.00  0.00     0.002 A 
ENDROOT
BRANCH   1   7
ATOM      7  C2  UNL d   1       5.018  -3.348   2.371  0.00  0.00     0.056 C 
BRANCH   7   8
ATOM      8  C1  UNL d   1       5.990  -3.858   1.301  0.00  0.00     0.007 C 
ATOM      9  C   UNL d   1       6.000  -3.001   0.042  0.00  0.00     0.009 C 
ENDBRANCH   7   8
ENDBRANCH   1   7
TORSDOF 2
ENDMDL
