MODEL 1
REMARK minimizedAffinity -2.56233668
REMARK minimizedRMSD -1
REMARK  2 active torsions:
REMARK  status: ('A' for Active; 'I' for Inactive)
REMARK    1  A    between atoms: C1_2  and  C2_3 
REMARK    2  A    between atoms: C2_3  and  C3_4 
ROOT
ATOM      1  C3  UNL d   1       5.884  -4.415   4.525  0.00  0.00    -0.075 A 
ATOM      2  C4  UNL d   1       5.745  -3.102   4.999  0.00  0.00     0.002 A 
ATOM      3  C5  UNL d   1       5.700  -2.029   4.109  0.00  0.00     0.002 A 
ATOM      4  C6  UNL d   1       5.803  -2.252   2.738  0.00  0.00    -0.004 A 
ATOM      5  C7  UNL d   1       5.959  -3.550   2.257  0.00  0.00     0.002 A 
ATOM      6  C8  UNL d   1       6.000  -4.627   3.145  0.00  0.00     0.002 A 
ENDROOT
BRANCH   1   7
ATOM      7  C2  UNL d   1       5.904  -5.583   5.481  0.00  0.00     0.056 C 
BRANCH   7   8
ATOM      8  C1  UNL d   1       4.520  -5.992   5.996  0.00  0.00     0.007 C 
ATOM      9  C   UNL d   1       3.441  -5.941   4.922  0.00  0.00     0.009 C 
ENDBRANCH   7   8
ENDBRANCH   1   7
TORSDOF 2
ENDMDL
