MODEL 1
REMARK minimizedAffinity -2.92637086
REMARK minimizedRMSD -1
REMARK  2 active torsions:
REMARK  status: ('A' for Active; 'I' for Inactive)
REMARK    1  A    between atoms: C1_2  and  C2_3 
REMARK    2  A    between atoms: C2_3  and  C3_4 
ROOT
ATOM      1  C3  UNL d   1       5.847  -3.973   3.880  0.00  0.00    -0.075 A 
ATOM      2  C4  UNL d   1       5.846  -2.744   3.206  0.00  0.00     0.002 A 
ATOM      3  C5  UNL d   1       5.908  -2.700   1.813  0.00  0.00     0.002 A 
ATOM      4  C6  UNL d   1       5.981  -3.881   1.078  0.00  0.00    -0.004 A 
ATOM      5  C7  UNL d   1       5.999  -5.108   1.739  0.00  0.00     0.002 A 
ATOM      6  C8  UNL d   1       5.933  -5.155   3.132  0.00  0.00     0.002 A 
ENDROOT
BRANCH   1   7
ATOM      7  C2  UNL d   1       5.750  -4.028   5.386  0.00  0.00     0.056 C 
BRANCH   7   8
ATOM      8  C1  UNL d   1       4.337  -4.302   5.911  0.00  0.00     0.007 C 
ATOM      9  C   UNL d   1       3.470  -3.051   5.980  0.00  0.00     0.009 C 
ENDBRANCH   7   8
ENDBRANCH   1   7
TORSDOF 2
ENDMDL
