MODEL 1
REMARK minimizedAffinity -0.180157349
REMARK minimizedRMSD -1
REMARK  2 active torsions:
REMARK  status: ('A' for Active; 'I' for Inactive)
REMARK    1  A    between atoms: C1_2  and  C2_3 
REMARK    2  A    between atoms: C2_3  and  C3_4 
ROOT
ATOM      1  C3  UNL d   1       5.240  -4.050   3.242  0.00  0.00    -0.075 A 
ATOM      2  C4  UNL d   1       4.912  -2.765   3.699  0.00  0.00     0.002 A 
ATOM      3  C5  UNL d   1       5.114  -1.651   2.884  0.00  0.00     0.002 A 
ATOM      4  C6  UNL d   1       5.654  -1.805   1.609  0.00  0.00    -0.004 A 
ATOM      5  C7  UNL d   1       5.999  -3.075   1.151  0.00  0.00     0.002 A 
ATOM      6  C8  UNL d   1       5.794  -4.192   1.963  0.00  0.00     0.002 A 
ENDROOT
BRANCH   1   7
ATOM      7  C2  UNL d   1       4.997  -5.263   4.108  0.00  0.00     0.056 C 
BRANCH   7   8
ATOM      8  C1  UNL d   1       3.804  -5.121   5.059  0.00  0.00     0.007 C 
ATOM      9  C   UNL d   1       2.554  -5.838   4.566  0.00  0.00     0.009 C 
ENDBRANCH   7   8
ENDBRANCH   1   7
TORSDOF 2
ENDMDL
