MODEL 1
REMARK minimizedAffinity -2.89525294
REMARK minimizedRMSD -1
REMARK  2 active torsions:
REMARK  status: ('A' for Active; 'I' for Inactive)
REMARK    1  A    between atoms: C1_2  and  C2_3 
REMARK    2  A    between atoms: C2_3  and  C3_4 
ROOT
ATOM      1  C3  UNL d   1       5.925  -3.575   2.684  0.00  0.00    -0.075 A 
ATOM      2  C4  UNL d   1       5.978  -4.830   3.307  0.00  0.00     0.002 A 
ATOM      3  C5  UNL d   1       5.936  -6.000   2.548  0.00  0.00     0.002 A 
ATOM      4  C6  UNL d   1       5.831  -5.930   1.160  0.00  0.00    -0.004 A 
ATOM      5  C7  UNL d   1       5.761  -4.688   0.532  0.00  0.00     0.002 A 
ATOM      6  C8  UNL d   1       5.807  -3.516   1.289  0.00  0.00     0.002 A 
ENDROOT
BRANCH   1   7
ATOM      7  C2  UNL d   1       6.000  -2.305   3.498  0.00  0.00     0.056 C 
BRANCH   7   8
ATOM      8  C1  UNL d   1       5.351  -2.412   4.882  0.00  0.00     0.007 C 
ATOM      9  C   UNL d   1       5.997  -1.503   5.920  0.00  0.00     0.009 C 
ENDBRANCH   7   8
ENDBRANCH   1   7
TORSDOF 2
ENDMDL
