MODEL 1
REMARK minimizedAffinity 1.24436998
REMARK minimizedRMSD -1
REMARK  2 active torsions:
REMARK  status: ('A' for Active; 'I' for Inactive)
REMARK    1  A    between atoms: C1_2  and  C2_3 
REMARK    2  A    between atoms: C2_3  and  C3_4 
ROOT
ATOM      1  C3  UNL d   1       5.256  -3.791   4.291  0.00  0.00    -0.075 A 
ATOM      2  C4  UNL d   1       3.992  -4.259   3.904  0.00  0.00     0.002 A 
ATOM      3  C5  UNL d   1       3.404  -5.339   4.563  0.00  0.00     0.002 A 
ATOM      4  C6  UNL d   1       4.075  -5.970   5.608  0.00  0.00    -0.004 A 
ATOM      5  C7  UNL d   1       5.338  -5.524   5.990  0.00  0.00     0.002 A 
ATOM      6  C8  UNL d   1       5.927  -4.441   5.335  0.00  0.00     0.002 A 
ENDROOT
BRANCH   1   7
ATOM      7  C2  UNL d   1       5.886  -2.605   3.601  0.00  0.00     0.056 C 
BRANCH   7   8
ATOM      8  C1  UNL d   1       5.997  -2.754   2.080  0.00  0.00     0.007 C 
ATOM      9  C   UNL d   1       5.999  -4.205   1.618  0.00  0.00     0.009 C 
ENDBRANCH   7   8
ENDBRANCH   1   7
TORSDOF 2
ENDMDL
