MODEL 1
REMARK minimizedAffinity 6.56268024
REMARK minimizedRMSD -1
REMARK  2 active torsions:
REMARK  status: ('A' for Active; 'I' for Inactive)
REMARK    1  A    between atoms: C1_2  and  C2_3 
REMARK    2  A    between atoms: C2_3  and  C3_4 
ROOT
ATOM      1  C3  UNL d   1      -1.500   4.136   0.014  0.00  0.00    -0.075 A 
ATOM      2  C4  UNL d   1      -1.142   5.398  -0.481  0.00  0.00     0.002 A 
ATOM      3  C5  UNL d   1      -1.886   5.998  -1.497  0.00  0.00     0.002 A 
ATOM      4  C6  UNL d   1      -2.990   5.341  -2.038  0.00  0.00    -0.004 A 
ATOM      5  C7  UNL d   1      -3.345   4.079  -1.565  0.00  0.00     0.002 A 
ATOM      6  C8  UNL d   1      -2.605   3.479  -0.545  0.00  0.00     0.002 A 
ENDROOT
BRANCH   1   7
ATOM      7  C2  UNL d   1      -0.717   3.494   1.134  0.00  0.00     0.056 C 
BRANCH   7   8
ATOM      8  C1  UNL d   1       0.460   4.338   1.635  0.00  0.00     0.007 C 
ATOM      9  C   UNL d   1       1.813   3.823   1.164  0.00  0.00     0.009 C 
ENDBRANCH   7   8
ENDBRANCH   1   7
TORSDOF 2
ENDMDL
