MODEL 1
REMARK minimizedAffinity -2.05038261
REMARK minimizedRMSD -1
REMARK  2 active torsions:
REMARK  status: ('A' for Active; 'I' for Inactive)
REMARK    1  A    between atoms: C1_2  and  C2_3 
REMARK    2  A    between atoms: C2_3  and  C3_4 
ROOT
ATOM      1  C3  UNL d   1       5.355  -3.412   3.956  0.00  0.00    -0.075 A 
ATOM      2  C4  UNL d   1       5.718  -4.529   3.190  0.00  0.00     0.002 A 
ATOM      3  C5  UNL d   1       5.997  -4.395   1.830  0.00  0.00     0.002 A 
ATOM      4  C6  UNL d   1       5.906  -3.148   1.217  0.00  0.00    -0.004 A 
ATOM      5  C7  UNL d   1       5.530  -2.034   1.964  0.00  0.00     0.002 A 
ATOM      6  C8  UNL d   1       5.255  -2.164   3.327  0.00  0.00     0.002 A 
ENDROOT
BRANCH   1   7
ATOM      7  C2  UNL d   1       5.081  -3.546   5.435  0.00  0.00     0.056 C 
BRANCH   7   8
ATOM      8  C1  UNL d   1       5.368  -4.941   5.999  0.00  0.00     0.007 C 
ATOM      9  C   UNL d   1       4.154  -5.860   5.975  0.00  0.00     0.009 C 
ENDBRANCH   7   8
ENDBRANCH   1   7
TORSDOF 2
ENDMDL
