MODEL 1
REMARK minimizedAffinity -2.44663119
REMARK minimizedRMSD -1
REMARK  2 active torsions:
REMARK  status: ('A' for Active; 'I' for Inactive)
REMARK    1  A    between atoms: C1_2  and  C2_3 
REMARK    2  A    between atoms: C2_3  and  C3_4 
ROOT
ATOM      1  C3  UNL d   1       5.933  -4.440   4.180  0.00  0.00    -0.075 A 
ATOM      2  C4  UNL d   1       5.966  -4.270   2.789  0.00  0.00     0.002 A 
ATOM      3  C5  UNL d   1       6.000  -2.991   2.232  0.00  0.00     0.002 A 
ATOM      4  C6  UNL d   1       5.991  -1.868   3.057  0.00  0.00    -0.004 A 
ATOM      5  C7  UNL d   1       5.942  -2.025   4.440  0.00  0.00     0.002 A 
ATOM      6  C8  UNL d   1       5.912  -3.304   5.000  0.00  0.00     0.002 A 
ENDROOT
BRANCH   1   7
ATOM      7  C2  UNL d   1       5.926  -5.821   4.790  0.00  0.00     0.056 C 
BRANCH   7   8
ATOM      8  C1  UNL d   1       4.994  -5.965   5.998  0.00  0.00     0.007 C 
ATOM      9  C   UNL d   1       3.518  -5.928   5.625  0.00  0.00     0.009 C 
ENDBRANCH   7   8
ENDBRANCH   1   7
TORSDOF 2
ENDMDL
