MODEL 1
REMARK minimizedAffinity 2.49502826
REMARK minimizedRMSD -1
REMARK  2 active torsions:
REMARK  status: ('A' for Active; 'I' for Inactive)
REMARK    1  A    between atoms: C1_2  and  C2_3 
REMARK    2  A    between atoms: C2_3  and  C3_4 
ROOT
ATOM      1  C3  UNL d   1       5.967  -3.385   3.562  0.00  0.00    -0.075 A 
ATOM      2  C4  UNL d   1       5.920  -2.691   4.780  0.00  0.00     0.002 A 
ATOM      3  C5  UNL d   1       5.925  -3.384   5.990  0.00  0.00     0.002 A 
ATOM      4  C6  UNL d   1       5.967  -4.777   5.999  0.00  0.00    -0.004 A 
ATOM      5  C7  UNL d   1       5.998  -5.477   4.795  0.00  0.00     0.002 A 
ATOM      6  C8  UNL d   1       5.997  -4.786   3.582  0.00  0.00     0.002 A 
ENDROOT
BRANCH   1   7
ATOM      7  C2  UNL d   1       5.992  -2.640   2.249  0.00  0.00     0.056 C 
BRANCH   7   8
ATOM      8  C1  UNL d   1       4.605  -2.390   1.647  0.00  0.00     0.007 C 
ATOM      9  C   UNL d   1       3.468  -2.873   2.538  0.00  0.00     0.009 C 
ENDBRANCH   7   8
ENDBRANCH   1   7
TORSDOF 2
ENDMDL
