MODEL 1
REMARK minimizedAffinity -3.42918634
REMARK minimizedRMSD -1
REMARK  2 active torsions:
REMARK  status: ('A' for Active; 'I' for Inactive)
REMARK    1  A    between atoms: C1_2  and  C2_3 
REMARK    2  A    between atoms: C2_3  and  C3_4 
ROOT
ATOM      1  C3  UNL d   1       5.935  -4.231   3.105  0.00  0.00    -0.075 A 
ATOM      2  C4  UNL d   1       5.942  -3.838   1.759  0.00  0.00     0.002 A 
ATOM      3  C5  UNL d   1       5.980  -2.486   1.416  0.00  0.00     0.002 A 
ATOM      4  C6  UNL d   1       6.000  -1.512   2.412  0.00  0.00    -0.004 A 
ATOM      5  C7  UNL d   1       5.976  -1.891   3.753  0.00  0.00     0.002 A 
ATOM      6  C8  UNL d   1       5.943  -3.243   4.098  0.00  0.00     0.002 A 
ENDROOT
BRANCH   1   7
ATOM      7  C2  UNL d   1       5.924  -5.693   3.482  0.00  0.00     0.056 C 
BRANCH   7   8
ATOM      8  C1  UNL d   1       5.884  -5.948   4.992  0.00  0.00     0.007 C 
ATOM      9  C   UNL d   1       4.475  -5.918   5.569  0.00  0.00     0.009 C 
ENDBRANCH   7   8
ENDBRANCH   1   7
TORSDOF 2
ENDMDL
