MODEL 1
REMARK minimizedAffinity -1.71446037
REMARK minimizedRMSD -1
REMARK  2 active torsions:
REMARK  status: ('A' for Active; 'I' for Inactive)
REMARK    1  A    between atoms: C1_2  and  C2_3 
REMARK    2  A    between atoms: C2_3  and  C3_4 
ROOT
ATOM      1  C3  UNL d   1       5.543  -4.328   4.828  0.00  0.00    -0.075 A 
ATOM      2  C4  UNL d   1       5.709  -2.950   5.030  0.00  0.00     0.002 A 
ATOM      3  C5  UNL d   1       5.931  -2.097   3.948  0.00  0.00     0.002 A 
ATOM      4  C6  UNL d   1       6.000  -2.611   2.655  0.00  0.00    -0.004 A 
ATOM      5  C7  UNL d   1       5.853  -3.980   2.444  0.00  0.00     0.002 A 
ATOM      6  C8  UNL d   1       5.626  -4.835   3.524  0.00  0.00     0.002 A 
ENDROOT
BRANCH   1   7
ATOM      7  C2  UNL d   1       5.273  -5.253   5.991  0.00  0.00     0.056 C 
BRANCH   7   8
ATOM      8  C1  UNL d   1       3.873  -5.874   5.981  0.00  0.00     0.007 C 
ATOM      9  C   UNL d   1       2.758  -4.841   5.895  0.00  0.00     0.009 C 
ENDBRANCH   7   8
ENDBRANCH   1   7
TORSDOF 2
ENDMDL
