MODEL 1
REMARK minimizedAffinity -2.69690609
REMARK minimizedRMSD -1
REMARK  2 active torsions:
REMARK  status: ('A' for Active; 'I' for Inactive)
REMARK    1  A    between atoms: C1_2  and  C2_3 
REMARK    2  A    between atoms: C2_3  and  C3_4 
ROOT
ATOM      1  C3  UNL d   1       5.728  -3.005   3.634  0.00  0.00    -0.075 A 
ATOM      2  C4  UNL d   1       5.404  -2.337   4.824  0.00  0.00     0.002 A 
ATOM      3  C5  UNL d   1       5.181  -3.053   6.000  0.00  0.00     0.002 A 
ATOM      4  C6  UNL d   1       5.269  -4.443   6.000  0.00  0.00    -0.004 A 
ATOM      5  C7  UNL d   1       5.574  -5.118   4.820  0.00  0.00     0.002 A 
ATOM      6  C8  UNL d   1       5.802  -4.404   3.642  0.00  0.00     0.002 A 
ENDROOT
BRANCH   1   7
ATOM      7  C2  UNL d   1       6.000  -2.234   2.364  0.00  0.00     0.056 C 
BRANCH   7   8
ATOM      8  C1  UNL d   1       5.086  -2.616   1.195  0.00  0.00     0.007 C 
ATOM      9  C   UNL d   1       3.624  -2.269   1.437  0.00  0.00     0.009 C 
ENDBRANCH   7   8
ENDBRANCH   1   7
TORSDOF 2
ENDMDL
