MODEL 1
REMARK minimizedAffinity -2.79344153
REMARK minimizedRMSD -1
REMARK  2 active torsions:
REMARK  status: ('A' for Active; 'I' for Inactive)
REMARK    1  A    between atoms: C1_2  and  C2_3 
REMARK    2  A    between atoms: C2_3  and  C3_4 
ROOT
ATOM      1  C3  UNL d   1       5.485  -4.353   4.126  0.00  0.00    -0.075 A 
ATOM      2  C4  UNL d   1       5.536  -4.547   2.738  0.00  0.00     0.002 A 
ATOM      3  C5  UNL d   1       5.271  -3.492   1.865  0.00  0.00     0.002 A 
ATOM      4  C6  UNL d   1       4.942  -2.235   2.367  0.00  0.00    -0.004 A 
ATOM      5  C7  UNL d   1       4.872  -2.034   3.744  0.00  0.00     0.002 A 
ATOM      6  C8  UNL d   1       5.142  -3.087   4.620  0.00  0.00     0.002 A 
ENDROOT
BRANCH   1   7
ATOM      7  C2  UNL d   1       5.800  -5.484   5.077  0.00  0.00     0.056 C 
BRANCH   7   8
ATOM      8  C1  UNL d   1       4.617  -5.910   5.952  0.00  0.00     0.007 C 
ATOM      9  C   UNL d   1       3.297  -5.961   5.195  0.00  0.00     0.009 C 
ENDBRANCH   7   8
ENDBRANCH   1   7
TORSDOF 2
ENDMDL
