MODEL 1
REMARK minimizedAffinity -2.17302036
REMARK minimizedRMSD -1
REMARK  2 active torsions:
REMARK  status: ('A' for Active; 'I' for Inactive)
REMARK    1  A    between atoms: C1_2  and  C2_3 
REMARK    2  A    between atoms: C2_3  and  C3_4 
ROOT
ATOM      1  C3  UNL d   1       5.886  -4.197   4.808  0.00  0.00    -0.075 A 
ATOM      2  C4  UNL d   1       5.865  -3.131   5.720  0.00  0.00     0.002 A 
ATOM      3  C5  UNL d   1       5.895  -1.812   5.268  0.00  0.00     0.002 A 
ATOM      4  C6  UNL d   1       5.957  -1.541   3.902  0.00  0.00    -0.004 A 
ATOM      5  C7  UNL d   1       5.995  -2.592   2.989  0.00  0.00     0.002 A 
ATOM      6  C8  UNL d   1       5.960  -3.914   3.438  0.00  0.00     0.002 A 
ENDROOT
BRANCH   1   7
ATOM      7  C2  UNL d   1       5.823  -5.627   5.290  0.00  0.00     0.056 C 
BRANCH   7   8
ATOM      8  C1  UNL d   1       4.511  -5.992   5.991  0.00  0.00     0.007 C 
ATOM      9  C   UNL d   1       3.310  -5.991   5.055  0.00  0.00     0.009 C 
ENDBRANCH   7   8
ENDBRANCH   1   7
TORSDOF 2
ENDMDL
