MODEL 1
REMARK minimizedAffinity -1.93289375
REMARK minimizedRMSD -1
REMARK  3 active torsions:
REMARK  status: ('A' for Active; 'I' for Inactive)
REMARK    1  A    between atoms: C3'_2  and  C2'_3 
REMARK    2  A    between atoms: C2'_3  and  C1'_4 
REMARK    3  A    between atoms: C1'_4  and  C1_5 
ROOT
ATOM      1  C1  N4B d   1      -0.487  -1.617  -3.719  0.00  0.00    -0.075 A 
ATOM      2  C2  N4B d   1      -0.820  -0.268  -3.464  0.00  0.00     0.002 A 
ATOM      3  C3  N4B d   1      -0.787   0.652  -4.483  0.00  0.00     0.002 A 
ATOM      4  C4  N4B d   1      -0.409   0.252  -5.756  0.00  0.00    -0.004 A 
ATOM      5  C5  N4B d   1      -0.115  -1.057  -6.000  0.00  0.00     0.002 A 
ATOM      6  C6  N4B d   1      -0.147  -1.994  -4.986  0.00  0.00     0.002 A 
ENDROOT
BRANCH   1   7
ATOM      7  C1' N4B d   1      -0.425  -2.641  -2.619  0.00  0.00     0.057 C 
BRANCH   7   8
ATOM      8  C2' N4B d   1      -1.152  -2.102  -1.391  0.00  0.00     0.009 C 
BRANCH   8   9
ATOM      9  C3' N4B d   1      -1.921  -3.191  -0.663  0.00  0.00     0.004 C 
ATOM     10  C4' N4B d   1      -3.185  -2.686  -0.031  0.00  0.00     0.003 C 
ENDBRANCH   8   9
ENDBRANCH   7   8
ENDBRANCH   1   7
TORSDOF 3
ENDMDL
