MODEL 1
REMARK minimizedAffinity 2.97679639
REMARK minimizedRMSD -1
REMARK  3 active torsions:
REMARK  status: ('A' for Active; 'I' for Inactive)
REMARK    1  A    between atoms: C3'_2  and  C2'_3 
REMARK    2  A    between atoms: C2'_3  and  C1'_4 
REMARK    3  A    between atoms: C1'_4  and  C1_5 
ROOT
ATOM      1  C1  N4B d   1      -1.652  -0.745   0.794  0.00  0.00    -0.075 A 
ATOM      2  C2  N4B d   1      -2.398   0.394   1.168  0.00  0.00     0.002 A 
ATOM      3  C3  N4B d   1      -2.186   0.982   2.391  0.00  0.00     0.002 A 
ATOM      4  C4  N4B d   1      -1.251   0.440   3.260  0.00  0.00    -0.004 A 
ATOM      5  C5  N4B d   1      -0.517  -0.646   2.881  0.00  0.00     0.002 A 
ATOM      6  C6  N4B d   1      -0.716  -1.244   1.653  0.00  0.00     0.002 A 
ENDROOT
BRANCH   1   7
ATOM      7  C1' N4B d   1      -1.908  -1.474  -0.497  0.00  0.00     0.057 C 
BRANCH   7   8
ATOM      8  C2' N4B d   1      -1.807  -2.976  -0.253  0.00  0.00     0.009 C 
BRANCH   8   9
ATOM      9  C3' N4B d   1      -0.970  -3.670  -1.314  0.00  0.00     0.004 C 
ATOM     10  C4' N4B d   1      -0.677  -2.787  -2.491  0.00  0.00     0.003 C 
ENDBRANCH   8   9
ENDBRANCH   7   8
ENDBRANCH   1   7
TORSDOF 3
ENDMDL
