MODEL 1
REMARK minimizedAffinity -0.24474889
REMARK minimizedRMSD -1
REMARK  3 active torsions:
REMARK  status: ('A' for Active; 'I' for Inactive)
REMARK    1  A    between atoms: C3'_2  and  C2'_3 
REMARK    2  A    between atoms: C2'_3  and  C1'_4 
REMARK    3  A    between atoms: C1'_4  and  C1_5 
ROOT
ATOM      1  C1  N4B d   1      -1.503  -0.715   0.138  0.00  0.00    -0.075 A 
ATOM      2  C2  N4B d   1      -1.086  -0.713   1.487  0.00  0.00     0.002 A 
ATOM      3  C3  N4B d   1      -1.772   0.031   2.416  0.00  0.00     0.002 A 
ATOM      4  C4  N4B d   1      -2.861   0.792   2.018  0.00  0.00    -0.004 A 
ATOM      5  C5  N4B d   1      -3.273   0.764   0.718  0.00  0.00     0.002 A 
ATOM      6  C6  N4B d   1      -2.596   0.018  -0.226  0.00  0.00     0.002 A 
ENDROOT
BRANCH   1   7
ATOM      7  C1' N4B d   1      -0.735  -1.445  -0.930  0.00  0.00     0.057 C 
BRANCH   7   8
ATOM      8  C2' N4B d   1      -0.655  -0.569  -2.177  0.00  0.00     0.009 C 
BRANCH   8   9
ATOM      9  C3' N4B d   1      -0.257  -1.366  -3.407  0.00  0.00     0.004 C 
ATOM     10  C4' N4B d   1      -0.250  -0.539  -4.658  0.00  0.00     0.003 C 
ENDBRANCH   8   9
ENDBRANCH   7   8
ENDBRANCH   1   7
TORSDOF 3
ENDMDL
