MODEL 1
REMARK minimizedAffinity 2.01254344
REMARK minimizedRMSD -1
REMARK  3 active torsions:
REMARK  status: ('A' for Active; 'I' for Inactive)
REMARK    1  A    between atoms: C3'_2  and  C2'_3 
REMARK    2  A    between atoms: C2'_3  and  C1'_4 
REMARK    3  A    between atoms: C1'_4  and  C1_5 
ROOT
ATOM      1  C1  N4B d   1      -0.477  -1.603  -3.425  0.00  0.00    -0.075 A 
ATOM      2  C2  N4B d   1      -0.266  -2.417  -4.560  0.00  0.00     0.002 A 
ATOM      3  C3  N4B d   1      -0.306  -1.866  -5.817  0.00  0.00     0.002 A 
ATOM      4  C4  N4B d   1      -0.571  -0.512  -5.964  0.00  0.00    -0.004 A 
ATOM      5  C5  N4B d   1      -0.748   0.271  -4.862  0.00  0.00     0.002 A 
ATOM      6  C6  N4B d   1      -0.707  -0.269  -3.592  0.00  0.00     0.002 A 
ENDROOT
BRANCH   1   7
ATOM      7  C1' N4B d   1      -0.529  -2.177  -2.035  0.00  0.00     0.057 C 
BRANCH   7   8
ATOM      8  C2' N4B d   1      -0.571  -1.035  -1.024  0.00  0.00     0.009 C 
BRANCH   8   9
ATOM      9  C3' N4B d   1      -1.313  -1.426   0.243  0.00  0.00     0.004 C 
ATOM     10  C4' N4B d   1      -0.965  -0.553   1.412  0.00  0.00     0.003 C 
ENDBRANCH   8   9
ENDBRANCH   7   8
ENDBRANCH   1   7
TORSDOF 3
ENDMDL
