MODEL 1
REMARK minimizedAffinity 1.90755939
REMARK minimizedRMSD -1
REMARK  3 active torsions:
REMARK  status: ('A' for Active; 'I' for Inactive)
REMARK    1  A    between atoms: C3'_2  and  C2'_3 
REMARK    2  A    between atoms: C2'_3  and  C1'_4 
REMARK    3  A    between atoms: C1'_4  and  C1_5 
ROOT
ATOM      1  C1  N4B d   1      -0.808  -0.003  -4.878  0.00  0.00    -0.075 A 
ATOM      2  C2  N4B d   1      -0.743   0.009  -3.468  0.00  0.00     0.002 A 
ATOM      3  C3  N4B d   1      -0.212  -1.066  -2.796  0.00  0.00     0.002 A 
ATOM      4  C4  N4B d   1       0.241  -2.165  -3.510  0.00  0.00    -0.004 A 
ATOM      5  C5  N4B d   1       0.197  -2.158  -4.874  0.00  0.00     0.002 A 
ATOM      6  C6  N4B d   1      -0.330  -1.083  -5.562  0.00  0.00     0.002 A 
ENDROOT
BRANCH   1   7
ATOM      7  C1' N4B d   1      -1.459   1.111  -5.652  0.00  0.00     0.057 C 
BRANCH   7   8
ATOM      8  C2' N4B d   1      -2.889   0.711  -6.000  0.00  0.00     0.009 C 
BRANCH   8   9
ATOM      9  C3' N4B d   1      -3.555  -0.055  -4.870  0.00  0.00     0.004 C 
ATOM     10  C4' N4B d   1      -4.970  -0.440  -5.185  0.00  0.00     0.003 C 
ENDBRANCH   8   9
ENDBRANCH   7   8
ENDBRANCH   1   7
TORSDOF 3
ENDMDL
