MODEL 1
REMARK minimizedAffinity 2.55178928
REMARK minimizedRMSD -1
REMARK  3 active torsions:
REMARK  status: ('A' for Active; 'I' for Inactive)
REMARK    1  A    between atoms: C3'_2  and  C2'_3 
REMARK    2  A    between atoms: C2'_3  and  C1'_4 
REMARK    3  A    between atoms: C1'_4  and  C1_5 
ROOT
ATOM      1  C1  N4B d   1      -0.384  -1.088  -3.619  0.00  0.00    -0.075 A 
ATOM      2  C2  N4B d   1      -0.020   0.276  -3.621  0.00  0.00     0.002 A 
ATOM      3  C3  N4B d   1       0.239   0.916  -4.808  0.00  0.00     0.002 A 
ATOM      4  C4  N4B d   1       0.161   0.210  -5.999  0.00  0.00    -0.004 A 
ATOM      5  C5  N4B d   1      -0.216  -1.101  -5.991  0.00  0.00     0.002 A 
ATOM      6  C6  N4B d   1      -0.483  -1.756  -4.805  0.00  0.00     0.002 A 
ENDROOT
BRANCH   1   7
ATOM      7  C1' N4B d   1      -0.594  -1.852  -2.340  0.00  0.00     0.057 C 
BRANCH   7   8
ATOM      8  C2' N4B d   1      -1.635  -1.130  -1.491  0.00  0.00     0.009 C 
BRANCH   8   9
ATOM      9  C3' N4B d   1      -1.455  -1.414  -0.009  0.00  0.00     0.004 C 
ATOM     10  C4' N4B d   1      -1.770  -0.227   0.852  0.00  0.00     0.003 C 
ENDBRANCH   8   9
ENDBRANCH   7   8
ENDBRANCH   1   7
TORSDOF 3
ENDMDL
