MODEL 1
REMARK minimizedAffinity 5.12310314
REMARK minimizedRMSD -1
REMARK  3 active torsions:
REMARK  status: ('A' for Active; 'I' for Inactive)
REMARK    1  A    between atoms: C3'_2  and  C2'_3 
REMARK    2  A    between atoms: C2'_3  and  C1'_4 
REMARK    3  A    between atoms: C1'_4  and  C1_5 
ROOT
ATOM      1  C1  N4B d   1      -3.463  -0.658  -4.488  0.00  0.00    -0.075 A 
ATOM      2  C2  N4B d   1      -2.324  -0.666  -3.652  0.00  0.00     0.002 A 
ATOM      3  C3  N4B d   1      -1.202   0.039  -4.013  0.00  0.00     0.002 A 
ATOM      4  C4  N4B d   1      -1.188   0.740  -5.210  0.00  0.00    -0.004 A 
ATOM      5  C5  N4B d   1      -2.301   0.763  -5.999  0.00  0.00     0.002 A 
ATOM      6  C6  N4B d   1      -3.437   0.063  -5.646  0.00  0.00     0.002 A 
ENDROOT
BRANCH   1   7
ATOM      7  C1' N4B d   1      -4.682  -1.482  -4.177  0.00  0.00     0.057 C 
BRANCH   7   8
ATOM      8  C2' N4B d   1      -4.818  -1.624  -2.664  0.00  0.00     0.009 C 
BRANCH   8   9
ATOM      9  C3' N4B d   1      -5.215  -3.033  -2.259  0.00  0.00     0.004 C 
ATOM     10  C4' N4B d   1      -4.824  -3.365  -0.850  0.00  0.00     0.003 C 
ENDBRANCH   8   9
ENDBRANCH   7   8
ENDBRANCH   1   7
TORSDOF 3
ENDMDL
