MODEL 1
REMARK minimizedAffinity 4.43710947
REMARK minimizedRMSD -1
REMARK  3 active torsions:
REMARK  status: ('A' for Active; 'I' for Inactive)
REMARK    1  A    between atoms: C3'_2  and  C2'_3 
REMARK    2  A    between atoms: C2'_3  and  C1'_4 
REMARK    3  A    between atoms: C1'_4  and  C1_5 
ROOT
ATOM      1  C1  N4B d   1      -0.518  -0.860  -3.529  0.00  0.00    -0.075 A 
ATOM      2  C2  N4B d   1       0.007  -1.422  -4.713  0.00  0.00     0.002 A 
ATOM      3  C3  N4B d   1      -0.243  -0.826  -5.925  0.00  0.00     0.002 A 
ATOM      4  C4  N4B d   1      -1.028   0.316  -5.979  0.00  0.00    -0.004 A 
ATOM      5  C5  N4B d   1      -1.510   0.867  -4.828  0.00  0.00     0.002 A 
ATOM      6  C6  N4B d   1      -1.263   0.282  -3.603  0.00  0.00     0.002 A 
ENDROOT
BRANCH   1   7
ATOM      7  C1' N4B d   1      -0.343  -1.522  -2.190  0.00  0.00     0.057 C 
BRANCH   7   8
ATOM      8  C2' N4B d   1      -1.369  -0.956  -1.213  0.00  0.00     0.009 C 
BRANCH   8   9
ATOM      9  C3' N4B d   1      -1.558  -1.855  -0.003  0.00  0.00     0.004 C 
ATOM     10  C4' N4B d   1      -2.931  -2.456   0.064  0.00  0.00     0.003 C 
ENDBRANCH   8   9
ENDBRANCH   7   8
ENDBRANCH   1   7
TORSDOF 3
ENDMDL
