MODEL 1
REMARK minimizedAffinity 0.854378879
REMARK minimizedRMSD -1
REMARK  3 active torsions:
REMARK  status: ('A' for Active; 'I' for Inactive)
REMARK    1  A    between atoms: C3'_2  and  C2'_3 
REMARK    2  A    between atoms: C2'_3  and  C1'_4 
REMARK    3  A    between atoms: C1'_4  and  C1_5 
ROOT
ATOM      1  C1  N4B d   1      -1.399  -0.211  -5.160  0.00  0.00    -0.075 A 
ATOM      2  C2  N4B d   1      -1.142  -0.296  -3.774  0.00  0.00     0.002 A 
ATOM      3  C3  N4B d   1      -0.359  -1.312  -3.282  0.00  0.00     0.002 A 
ATOM      4  C4  N4B d   1       0.158  -2.261  -4.151  0.00  0.00    -0.004 A 
ATOM      5  C5  N4B d   1      -0.074  -2.157  -5.492  0.00  0.00     0.002 A 
ATOM      6  C6  N4B d   1      -0.856  -1.139  -6.000  0.00  0.00     0.002 A 
ENDROOT
BRANCH   1   7
ATOM      7  C1' N4B d   1      -2.319   0.832  -5.734  0.00  0.00     0.057 C 
BRANCH   7   8
ATOM      8  C2' N4B d   1      -3.687   0.207  -5.990  0.00  0.00     0.009 C 
BRANCH   8   9
ATOM      9  C3' N4B d   1      -4.271  -0.417  -4.735  0.00  0.00     0.004 C 
ATOM     10  C4' N4B d   1      -5.647   0.090  -4.420  0.00  0.00     0.003 C 
ENDBRANCH   8   9
ENDBRANCH   7   8
ENDBRANCH   1   7
TORSDOF 3
ENDMDL
