MODEL 1
REMARK minimizedAffinity -0.388916939
REMARK minimizedRMSD -1
REMARK  3 active torsions:
REMARK  status: ('A' for Active; 'I' for Inactive)
REMARK    1  A    between atoms: C3'_2  and  C2'_3 
REMARK    2  A    between atoms: C2'_3  and  C1'_4 
REMARK    3  A    between atoms: C1'_4  and  C1_5 
ROOT
ATOM      1  C1  N4B d   1      -1.853  -1.333   0.131  0.00  0.00    -0.075 A 
ATOM      2  C2  N4B d   1      -0.946  -1.048   1.175  0.00  0.00     0.002 A 
ATOM      3  C3  N4B d   1      -1.229  -0.050   2.076  0.00  0.00     0.002 A 
ATOM      4  C4  N4B d   1      -2.397   0.685   1.942  0.00  0.00    -0.004 A 
ATOM      5  C5  N4B d   1      -3.279   0.386   0.945  0.00  0.00     0.002 A 
ATOM      6  C6  N4B d   1      -3.011  -0.616   0.035  0.00  0.00     0.002 A 
ENDROOT
BRANCH   1   7
ATOM      7  C1' N4B d   1      -1.548  -2.356  -0.929  0.00  0.00     0.057 C 
BRANCH   7   8
ATOM      8  C2' N4B d   1      -0.766  -1.691  -2.058  0.00  0.00     0.009 C 
BRANCH   8   9
ATOM      9  C3' N4B d   1      -0.810  -2.508  -3.338  0.00  0.00     0.004 C 
ATOM     10  C4' N4B d   1      -0.340  -1.737  -4.535  0.00  0.00     0.003 C 
ENDBRANCH   8   9
ENDBRANCH   7   8
ENDBRANCH   1   7
TORSDOF 3
ENDMDL
