MODEL 1
REMARK minimizedAffinity -3.81697011
REMARK minimizedRMSD -1
REMARK  3 active torsions:
REMARK  status: ('A' for Active; 'I' for Inactive)
REMARK    1  A    between atoms: C3'_2  and  C2'_3 
REMARK    2  A    between atoms: C2'_3  and  C1'_4 
REMARK    3  A    between atoms: C1'_4  and  C1_5 
ROOT
ATOM      1  C1  N4B d   1       0.473  -0.482  -0.003  0.00  0.00    -0.075 A 
ATOM      2  C2  N4B d   1       1.337  -1.460   0.538  0.00  0.00     0.002 A 
ATOM      3  C3  N4B d   1       1.230  -1.815   1.860  0.00  0.00     0.002 A 
ATOM      4  C4  N4B d   1       0.284  -1.195   2.663  0.00  0.00    -0.004 A 
ATOM      5  C5  N4B d   1      -0.564  -0.270   2.126  0.00  0.00     0.002 A 
ATOM      6  C6  N4B d   1      -0.470   0.094   0.798  0.00  0.00     0.002 A 
ENDROOT
BRANCH   1   7
ATOM      7  C1' N4B d   1       0.609   0.000  -1.421  0.00  0.00     0.057 C 
BRANCH   7   8
ATOM      8  C2' N4B d   1      -0.548   0.941  -1.743  0.00  0.00     0.009 C 
BRANCH   8   9
ATOM      9  C3' N4B d   1      -0.062   2.276  -2.280  0.00  0.00     0.004 C 
ATOM     10  C4' N4B d   1      -0.998   3.405  -1.963  0.00  0.00     0.003 C 
ENDBRANCH   8   9
ENDBRANCH   7   8
ENDBRANCH   1   7
TORSDOF 3
ENDMDL
