MODEL 1
REMARK minimizedAffinity 10.6206903
REMARK minimizedRMSD -1
REMARK  3 active torsions:
REMARK  status: ('A' for Active; 'I' for Inactive)
REMARK    1  A    between atoms: C3'_2  and  C2'_3 
REMARK    2  A    between atoms: C2'_3  and  C1'_4 
REMARK    3  A    between atoms: C1'_4  and  C1_5 
ROOT
ATOM      1  C1  N4B d   1      -5.032   1.931  -4.414  0.00  0.00    -0.075 A 
ATOM      2  C2  N4B d   1      -3.938   2.384  -3.645  0.00  0.00     0.002 A 
ATOM      3  C3  N4B d   1      -3.826   3.716  -3.329  0.00  0.00     0.002 A 
ATOM      4  C4  N4B d   1      -4.782   4.612  -3.785  0.00  0.00    -0.004 A 
ATOM      5  C5  N4B d   1      -5.849   4.162  -4.506  0.00  0.00     0.002 A 
ATOM      6  C6  N4B d   1      -5.976   2.826  -4.828  0.00  0.00     0.002 A 
ENDROOT
BRANCH   1   7
ATOM      7  C1' N4B d   1      -5.152   0.498  -4.857  0.00  0.00     0.057 C 
BRANCH   7   8
ATOM      8  C2' N4B d   1      -3.863   0.082  -5.560  0.00  0.00     0.009 C 
BRANCH   8   9
ATOM      9  C3' N4B d   1      -3.899  -1.372  -5.998  0.00  0.00     0.004 C 
ATOM     10  C4' N4B d   1      -4.283  -2.304  -4.887  0.00  0.00     0.003 C 
ENDBRANCH   8   9
ENDBRANCH   7   8
ENDBRANCH   1   7
TORSDOF 3
ENDMDL
