MODEL 1
REMARK minimizedAffinity -4.94780254
REMARK minimizedRMSD -1
REMARK  3 active torsions:
REMARK  status: ('A' for Active; 'I' for Inactive)
REMARK    1  A    between atoms: C3'_2  and  C2'_3 
REMARK    2  A    between atoms: C2'_3  and  C1'_4 
REMARK    3  A    between atoms: C1'_4  and  C1_5 
ROOT
ATOM      1  C1  N4B d   1      -0.715   1.109  -1.306  0.00  0.00    -0.075 A 
ATOM      2  C2  N4B d   1       0.157   2.219  -1.264  0.00  0.00     0.002 A 
ATOM      3  C3  N4B d   1       0.015   3.239  -2.173  0.00  0.00     0.002 A 
ATOM      4  C4  N4B d   1      -0.975   3.162  -3.141  0.00  0.00    -0.004 A 
ATOM      5  C5  N4B d   1      -1.830   2.099  -3.159  0.00  0.00     0.002 A 
ATOM      6  C6  N4B d   1      -1.701   1.068  -2.249  0.00  0.00     0.002 A 
ENDROOT
BRANCH   1   7
ATOM      7  C1' N4B d   1      -0.544  -0.070  -0.388  0.00  0.00     0.057 C 
BRANCH   7   8
ATOM      8  C2' N4B d   1      -1.179   0.251   0.962  0.00  0.00     0.009 C 
BRANCH   8   9
ATOM      9  C3' N4B d   1      -0.158   0.235   2.088  0.00  0.00     0.004 C 
ATOM     10  C4' N4B d   1       0.374  -1.138   2.370  0.00  0.00     0.003 C 
ENDBRANCH   8   9
ENDBRANCH   7   8
ENDBRANCH   1   7
TORSDOF 3
ENDMDL
