MODEL 1
REMARK minimizedAffinity -2.6436348
REMARK minimizedRMSD -1
REMARK  3 active torsions:
REMARK  status: ('A' for Active; 'I' for Inactive)
REMARK    1  A    between atoms: C3'_2  and  C2'_3 
REMARK    2  A    between atoms: C2'_3  and  C1'_4 
REMARK    3  A    between atoms: C1'_4  and  C1_5 
ROOT
ATOM      1  C1  N4B d   1       0.188  -0.714   0.638  0.00  0.00    -0.075 A 
ATOM      2  C2  N4B d   1       0.041  -1.095   1.990  0.00  0.00     0.002 A 
ATOM      3  C3  N4B d   1       0.924  -1.984   2.553  0.00  0.00     0.002 A 
ATOM      4  C4  N4B d   1       1.944  -2.519   1.781  0.00  0.00    -0.004 A 
ATOM      5  C5  N4B d   1       2.094  -2.127   0.483  0.00  0.00     0.002 A 
ATOM      6  C6  N4B d   1       1.217  -1.230  -0.094  0.00  0.00     0.002 A 
ENDROOT
BRANCH   1   7
ATOM      7  C1' N4B d   1      -0.802   0.190  -0.044  0.00  0.00     0.057 C 
BRANCH   7   8
ATOM      8  C2' N4B d   1      -0.334   0.458  -1.471  0.00  0.00     0.009 C 
BRANCH   8   9
ATOM      9  C3' N4B d   1      -1.268   1.404  -2.207  0.00  0.00     0.004 C 
ATOM     10  C4' N4B d   1      -0.604   2.692  -2.592  0.00  0.00     0.003 C 
ENDBRANCH   8   9
ENDBRANCH   7   8
ENDBRANCH   1   7
TORSDOF 3
ENDMDL
