MODEL 1
REMARK minimizedAffinity -4.18322897
REMARK minimizedRMSD -1
REMARK  3 active torsions:
REMARK  status: ('A' for Active; 'I' for Inactive)
REMARK    1  A    between atoms: C3'_2  and  C2'_3 
REMARK    2  A    between atoms: C2'_3  and  C1'_4 
REMARK    3  A    between atoms: C1'_4  and  C1_5 
ROOT
ATOM      1  C1  N4B d   1      -0.000  -0.076   0.082  0.00  0.00    -0.075 A 
ATOM      2  C2  N4B d   1       1.029  -0.916  -0.398  0.00  0.00     0.002 A 
ATOM      3  C3  N4B d   1       1.564  -1.881   0.419  0.00  0.00     0.002 A 
ATOM      4  C4  N4B d   1       1.102  -2.013   1.720  0.00  0.00    -0.004 A 
ATOM      5  C5  N4B d   1       0.091  -1.214   2.168  0.00  0.00     0.002 A 
ATOM      6  C6  N4B d   1      -0.460  -0.242   1.357  0.00  0.00     0.002 A 
ENDROOT
BRANCH   1   7
ATOM      7  C1' N4B d   1      -0.557   1.050  -0.745  0.00  0.00     0.057 C 
BRANCH   7   8
ATOM      8  C2' N4B d   1      -1.148   0.482  -2.031  0.00  0.00     0.009 C 
BRANCH   8   9
ATOM      9  C3' N4B d   1      -1.466   1.571  -3.041  0.00  0.00     0.004 C 
ATOM     10  C4' N4B d   1      -1.055   2.935  -2.572  0.00  0.00     0.003 C 
ENDBRANCH   8   9
ENDBRANCH   7   8
ENDBRANCH   1   7
TORSDOF 3
ENDMDL
