MODEL 1
REMARK minimizedAffinity -2.86789608
REMARK minimizedRMSD -1
REMARK  3 active torsions:
REMARK  status: ('A' for Active; 'I' for Inactive)
REMARK    1  A    between atoms: C3'_2  and  C2'_3 
REMARK    2  A    between atoms: C2'_3  and  C1'_4 
REMARK    3  A    between atoms: C1'_4  and  C1_5 
ROOT
ATOM      1  C1  N4B d   1      -0.969   1.212  -1.868  0.00  0.00    -0.075 A 
ATOM      2  C2  N4B d   1      -2.183   1.929  -1.791  0.00  0.00     0.002 A 
ATOM      3  C3  N4B d   1      -2.290   3.164  -2.382  0.00  0.00     0.002 A 
ATOM      4  C4  N4B d   1      -1.196   3.708  -3.037  0.00  0.00    -0.004 A 
ATOM      5  C5  N4B d   1      -0.034   2.999  -3.128  0.00  0.00     0.002 A 
ATOM      6  C6  N4B d   1       0.087   1.755  -2.542  0.00  0.00     0.002 A 
ENDROOT
BRANCH   1   7
ATOM      7  C1' N4B d   1      -0.777  -0.103  -1.164  0.00  0.00     0.057 C 
BRANCH   7   8
ATOM      8  C2' N4B d   1       0.090   0.112   0.073  0.00  0.00     0.009 C 
BRANCH   8   9
ATOM      9  C3' N4B d   1      -0.722   0.048   1.355  0.00  0.00     0.004 C 
ATOM     10  C4' N4B d   1      -0.010  -0.677   2.457  0.00  0.00     0.003 C 
ENDBRANCH   8   9
ENDBRANCH   7   8
ENDBRANCH   1   7
TORSDOF 3
ENDMDL
