MODEL 1
REMARK minimizedAffinity 10.2300777
REMARK minimizedRMSD -1
REMARK  0 active torsions:
REMARK  status: ('A' for Active; 'I' for Inactive)
ROOT
ATOM      1  O1  BZF d   1      -1.242   2.461  -0.644  0.00  0.00    -0.204 OA
ATOM      2  C2  BZF d   1      -2.332   2.836  -1.406  0.00  0.00     0.174 A 
ATOM      3  C3  BZF d   1      -3.077   1.762  -1.737  0.00  0.00    -0.012 A 
ATOM      4  C3A BZF d   1      -2.462   0.657  -1.068  0.00  0.00    -0.107 A 
ATOM      5  C4  BZF d   1      -2.752  -0.676  -0.995  0.00  0.00     0.055 A 
ATOM      6  C5  BZF d   1      -1.910  -1.499  -0.316  0.00  0.00    -0.016 A 
ATOM      7  C6  BZF d   1      -0.769  -1.024   0.298  0.00  0.00     0.022 A 
ATOM      8  C7  BZF d   1      -0.443   0.291   0.258  0.00  0.00     0.029 A 
ATOM      9  C7A BZF d   1      -1.309   1.130  -0.400  0.00  0.00     0.058 A 
ENDROOT
TORSDOF 0
ENDMDL
