MODEL 1
REMARK minimizedAffinity 8.6376133
REMARK minimizedRMSD -1
REMARK  0 active torsions:
REMARK  status: ('A' for Active; 'I' for Inactive)
ROOT
ATOM      1  O1  BZF d   1       0.825  -1.281   1.448  0.00  0.00    -0.204 OA
ATOM      2  C2  BZF d   1      -0.389  -0.923   0.895  0.00  0.00     0.174 A 
ATOM      3  C3  BZF d   1      -1.411  -1.395   1.638  0.00  0.00    -0.012 A 
ATOM      4  C3A BZF d   1      -0.797  -2.012   2.774  0.00  0.00    -0.107 A 
ATOM      5  C4  BZF d   1      -1.289  -2.647   3.878  0.00  0.00     0.055 A 
ATOM      6  C5  BZF d   1      -0.420  -3.201   4.764  0.00  0.00    -0.016 A 
ATOM      7  C6  BZF d   1       0.945  -3.144   4.574  0.00  0.00     0.022 A 
ATOM      8  C7  BZF d   1       1.481  -2.520   3.496  0.00  0.00     0.029 A 
ATOM      9  C7A BZF d   1       0.606  -1.931   2.617  0.00  0.00     0.058 A 
ENDROOT
TORSDOF 0
ENDMDL
