MODEL 1
REMARK minimizedAffinity 3.05470967
REMARK minimizedRMSD -1
REMARK  0 active torsions:
REMARK  status: ('A' for Active; 'I' for Inactive)
ROOT
ATOM      1  O1  BZF d   1      -3.609   4.758  -2.833  0.00  0.00    -0.204 OA
ATOM      2  C2  BZF d   1      -3.985   4.479  -1.533  0.00  0.00     0.174 A 
ATOM      3  C3  BZF d   1      -3.049   3.729  -0.916  0.00  0.00    -0.012 A 
ATOM      4  C3A BZF d   1      -1.982   3.605  -1.860  0.00  0.00    -0.107 A 
ATOM      5  C4  BZF d   1      -0.764   2.988  -1.825  0.00  0.00     0.055 A 
ATOM      6  C5  BZF d   1       0.011   2.992  -2.942  0.00  0.00    -0.016 A 
ATOM      7  C6  BZF d   1      -0.402   3.599  -4.110  0.00  0.00     0.022 A 
ATOM      8  C7  BZF d   1      -1.600   4.228  -4.191  0.00  0.00     0.029 A 
ATOM      9  C7A BZF d   1      -2.371   4.254  -3.055  0.00  0.00     0.058 A 
ENDROOT
TORSDOF 0
ENDMDL
