MODEL 1
REMARK minimizedAffinity 0.0326203741
REMARK minimizedRMSD -1
REMARK  0 active torsions:
REMARK  status: ('A' for Active; 'I' for Inactive)
ROOT
ATOM      1  O1  BZF d   1       1.451  -3.071   2.999  0.00  0.00    -0.204 OA
ATOM      2  C2  BZF d   1       0.568  -3.406   4.008  0.00  0.00     0.174 A 
ATOM      3  C3  BZF d   1      -0.594  -2.736   3.868  0.00  0.00    -0.012 A 
ATOM      4  C3A BZF d   1      -0.461  -2.003   2.647  0.00  0.00    -0.107 A 
ATOM      5  C4  BZF d   1      -1.291  -1.161   1.962  0.00  0.00     0.055 A 
ATOM      6  C5  BZF d   1      -0.831  -0.550   0.838  0.00  0.00    -0.016 A 
ATOM      7  C6  BZF d   1       0.452  -0.754   0.374  0.00  0.00     0.022 A 
ATOM      8  C7  BZF d   1       1.309  -1.584   1.017  0.00  0.00     0.029 A 
ATOM      9  C7A BZF d   1       0.837  -2.228   2.134  0.00  0.00     0.058 A 
ENDROOT
TORSDOF 0
ENDMDL
