MODEL 1
REMARK minimizedAffinity 4.94473791
REMARK minimizedRMSD -1
REMARK  0 active torsions:
REMARK  status: ('A' for Active; 'I' for Inactive)
ROOT
ATOM      1  O1  BZF d   1      -1.320  -3.590  -5.866  0.00  0.00    -0.204 OA
ATOM      2  C2  BZF d   1      -0.633  -4.787  -5.812  0.00  0.00     0.174 A 
ATOM      3  C3  BZF d   1      -1.489  -5.827  -5.742  0.00  0.00    -0.012 A 
ATOM      4  C3A BZF d   1      -2.794  -5.249  -5.846  0.00  0.00    -0.107 A 
ATOM      5  C4  BZF d   1      -4.055  -5.773  -5.856  0.00  0.00     0.055 A 
ATOM      6  C5  BZF d   1      -5.120  -4.929  -5.897  0.00  0.00    -0.016 A 
ATOM      7  C6  BZF d   1      -4.961  -3.559  -5.923  0.00  0.00     0.022 A 
ATOM      8  C7  BZF d   1      -3.729  -2.993  -5.920  0.00  0.00     0.029 A 
ATOM      9  C7A BZF d   1      -2.650  -3.844  -5.912  0.00  0.00     0.058 A 
ENDROOT
TORSDOF 0
ENDMDL
