MODEL 1
REMARK minimizedAffinity 14.2272568
REMARK minimizedRMSD -1
REMARK  0 active torsions:
REMARK  status: ('A' for Active; 'I' for Inactive)
ROOT
ATOM      1  O1  BZF d   1      -4.782  -5.853  -5.946  0.00  0.00    -0.204 OA
ATOM      2  C2  BZF d   1      -5.677  -4.802  -5.977  0.00  0.00     0.174 A 
ATOM      3  C3  BZF d   1      -5.029  -3.620  -5.943  0.00  0.00    -0.012 A 
ATOM      4  C3A BZF d   1      -3.638  -3.952  -5.982  0.00  0.00    -0.107 A 
ATOM      5  C4  BZF d   1      -2.494  -3.207  -5.989  0.00  0.00     0.055 A 
ATOM      6  C5  BZF d   1      -1.292  -3.840  -5.956  0.00  0.00    -0.016 A 
ATOM      7  C6  BZF d   1      -1.197  -5.216  -5.910  0.00  0.00     0.022 A 
ATOM      8  C7  BZF d   1      -2.304  -5.998  -5.906  0.00  0.00     0.029 A 
ATOM      9  C7A BZF d   1      -3.519  -5.362  -5.973  0.00  0.00     0.058 A 
ENDROOT
TORSDOF 0
ENDMDL
