MODEL 1
REMARK minimizedAffinity 6.44018936
REMARK minimizedRMSD -1
REMARK  0 active torsions:
REMARK  status: ('A' for Active; 'I' for Inactive)
ROOT
ATOM      1  O1  BZF d   1      -1.475  -5.884  -6.000  0.00  0.00    -0.204 OA
ATOM      2  C2  BZF d   1      -2.856  -5.844  -6.000  0.00  0.00     0.174 A 
ATOM      3  C3  BZF d   1      -3.335  -5.855  -4.739  0.00  0.00    -0.012 A 
ATOM      4  C3A BZF d   1      -2.179  -5.813  -3.897  0.00  0.00    -0.107 A 
ATOM      5  C4  BZF d   1      -2.004  -5.787  -2.543  0.00  0.00     0.055 A 
ATOM      6  C5  BZF d   1      -0.743  -5.822  -2.039  0.00  0.00    -0.016 A 
ATOM      7  C6  BZF d   1       0.365  -5.888  -2.858  0.00  0.00     0.022 A 
ATOM      8  C7  BZF d   1       0.242  -5.911  -4.208  0.00  0.00     0.029 A 
ATOM      9  C7A BZF d   1      -1.030  -5.842  -4.721  0.00  0.00     0.058 A 
ENDROOT
TORSDOF 0
ENDMDL
