MODEL 1
REMARK minimizedAffinity 2.9040463
REMARK minimizedRMSD -1
REMARK  0 active torsions:
REMARK  status: ('A' for Active; 'I' for Inactive)
ROOT
ATOM      1  O1  BZF d   1      -3.022  -5.932  -4.711  0.00  0.00    -0.204 OA
ATOM      2  C2  BZF d   1      -2.561  -5.745  -6.000  0.00  0.00     0.174 A 
ATOM      3  C3  BZF d   1      -1.257  -5.402  -5.997  0.00  0.00    -0.012 A 
ATOM      4  C3A BZF d   1      -0.855  -5.462  -4.625  0.00  0.00    -0.107 A 
ATOM      5  C4  BZF d   1       0.330  -5.243  -3.983  0.00  0.00     0.055 A 
ATOM      6  C5  BZF d   1       0.369  -5.314  -2.626  0.00  0.00    -0.016 A 
ATOM      7  C6  BZF d   1      -0.757  -5.596  -1.881  0.00  0.00     0.022 A 
ATOM      8  C7  BZF d   1      -1.954  -5.826  -2.473  0.00  0.00     0.029 A 
ATOM      9  C7A BZF d   1      -1.990  -5.787  -3.846  0.00  0.00     0.058 A 
ENDROOT
TORSDOF 0
ENDMDL
