MODEL 1
REMARK minimizedAffinity 14.4372005
REMARK minimizedRMSD -1
REMARK  0 active torsions:
REMARK  status: ('A' for Active; 'I' for Inactive)
ROOT
ATOM      1  O1  BZF d   1       0.620   0.802   0.321  0.00  0.00    -0.204 OA
ATOM      2  C2  BZF d   1      -0.241  -0.228  -0.005  0.00  0.00     0.174 A 
ATOM      3  C3  BZF d   1       0.370  -1.423   0.128  0.00  0.00    -0.012 A 
ATOM      4  C3A BZF d   1       1.667  -1.126   0.653  0.00  0.00    -0.107 A 
ATOM      5  C4  BZF d   1       2.733  -1.899   1.014  0.00  0.00     0.055 A 
ATOM      6  C5  BZF d   1       3.880  -1.294   1.423  0.00  0.00    -0.016 A 
ATOM      7  C6  BZF d   1       3.996   0.080   1.478  0.00  0.00     0.022 A 
ATOM      8  C7  BZF d   1       2.964   0.888   1.135  0.00  0.00     0.029 A 
ATOM      9  C7A BZF d   1       1.793   0.279   0.753  0.00  0.00     0.058 A 
ENDROOT
TORSDOF 0
ENDMDL
