MODEL 1
REMARK minimizedAffinity 6.39090824
REMARK minimizedRMSD -1
REMARK  0 active torsions:
REMARK  status: ('A' for Active; 'I' for Inactive)
ROOT
ATOM      1  O1  BZF d   1      -0.188  -5.618  -4.473  0.00  0.00    -0.204 OA
ATOM      2  C2  BZF d   1      -0.058  -5.517  -3.102  0.00  0.00     0.174 A 
ATOM      3  C3  BZF d   1      -1.267  -5.534  -2.504  0.00  0.00    -0.012 A 
ATOM      4  C3A BZF d   1      -2.206  -5.746  -3.562  0.00  0.00    -0.107 A 
ATOM      5  C4  BZF d   1      -3.566  -5.873  -3.599  0.00  0.00     0.055 A 
ATOM      6  C5  BZF d   1      -4.185  -5.999  -4.802  0.00  0.00    -0.016 A 
ATOM      7  C6  BZF d   1      -3.477  -5.997  -5.986  0.00  0.00     0.022 A 
ATOM      8  C7  BZF d   1      -2.127  -5.878  -6.000  0.00  0.00     0.029 A 
ATOM      9  C7A BZF d   1      -1.496  -5.784  -4.784  0.00  0.00     0.058 A 
ENDROOT
TORSDOF 0
ENDMDL
