MODEL 1
REMARK minimizedAffinity 0.880297899
REMARK minimizedRMSD -1
REMARK  0 active torsions:
REMARK  status: ('A' for Active; 'I' for Inactive)
ROOT
ATOM      1  O1  BZF d   1      -5.998  -3.042  -5.943  0.00  0.00    -0.204 OA
ATOM      2  C2  BZF d   1      -5.437  -1.780  -5.965  0.00  0.00     0.174 A 
ATOM      3  C3  BZF d   1      -4.091  -1.853  -5.933  0.00  0.00    -0.012 A 
ATOM      4  C3A BZF d   1      -3.789  -3.251  -5.983  0.00  0.00    -0.107 A 
ATOM      5  C4  BZF d   1      -2.622  -3.959  -5.996  0.00  0.00     0.055 A 
ATOM      6  C5  BZF d   1      -2.673  -5.317  -5.974  0.00  0.00    -0.016 A 
ATOM      7  C6  BZF d   1      -3.871  -5.998  -5.931  0.00  0.00     0.022 A 
ATOM      8  C7  BZF d   1      -5.056  -5.339  -5.921  0.00  0.00     0.029 A 
ATOM      9  C7A BZF d   1      -5.008  -3.967  -5.978  0.00  0.00     0.058 A 
ENDROOT
TORSDOF 0
ENDMDL
