MODEL 1
REMARK minimizedAffinity 3.28151822
REMARK minimizedRMSD -1
REMARK  0 active torsions:
REMARK  status: ('A' for Active; 'I' for Inactive)
ROOT
ATOM      1  O1  BZF d   1      -1.953  -0.487   3.217  0.00  0.00    -0.204 OA
ATOM      2  C2  BZF d   1      -2.202  -1.434   4.190  0.00  0.00     0.174 A 
ATOM      3  C3  BZF d   1      -1.569  -2.590   3.907  0.00  0.00    -0.012 A 
ATOM      4  C3A BZF d   1      -0.805  -2.321   2.727  0.00  0.00    -0.107 A 
ATOM      5  C4  BZF d   1       0.046  -3.072   1.968  0.00  0.00     0.055 A 
ATOM      6  C5  BZF d   1       0.572  -2.534   0.837  0.00  0.00    -0.016 A 
ATOM      7  C6  BZF d   1       0.265  -1.251   0.432  0.00  0.00     0.022 A 
ATOM      8  C7  BZF d   1      -0.571  -0.466   1.155  0.00  0.00     0.029 A 
ATOM      9  C7A BZF d   1      -1.078  -0.996   2.316  0.00  0.00     0.058 A 
ENDROOT
TORSDOF 0
ENDMDL
