MODEL 1
REMARK minimizedAffinity 18.1039677
REMARK minimizedRMSD -1
REMARK  0 active torsions:
REMARK  status: ('A' for Active; 'I' for Inactive)
ROOT
ATOM      1  O1  BZF d   1       1.331  -2.009   0.693  0.00  0.00    -0.204 OA
ATOM      2  C2  BZF d   1       0.147  -1.404   0.318  0.00  0.00     0.174 A 
ATOM      3  C3  BZF d   1      -0.810  -1.611   1.245  0.00  0.00    -0.012 A 
ATOM      4  C3A BZF d   1      -0.160  -2.315   2.307  0.00  0.00    -0.107 A 
ATOM      5  C4  BZF d   1      -0.583  -2.789   3.516  0.00  0.00     0.055 A 
ATOM      6  C5  BZF d   1       0.284  -3.497   4.287  0.00  0.00    -0.016 A 
ATOM      7  C6  BZF d   1       1.576  -3.754   3.879  0.00  0.00     0.022 A 
ATOM      8  C7  BZF d   1       2.042  -3.301   2.690  0.00  0.00     0.029 A 
ATOM      9  C7A BZF d   1       1.179  -2.557   1.923  0.00  0.00     0.058 A 
ENDROOT
TORSDOF 0
ENDMDL
