MODEL 1
REMARK minimizedAffinity -0.980772614
REMARK minimizedRMSD -1
REMARK  0 active torsions:
REMARK  status: ('A' for Active; 'I' for Inactive)
ROOT
ATOM      1  O1  BZF d   1      -2.377  -5.957  -5.672  0.00  0.00    -0.204 OA
ATOM      2  C2  BZF d   1      -1.432  -4.952  -5.732  0.00  0.00     0.174 A 
ATOM      3  C3  BZF d   1      -2.020  -3.752  -5.918  0.00  0.00    -0.012 A 
ATOM      4  C3A BZF d   1      -3.427  -4.014  -5.886  0.00  0.00    -0.107 A 
ATOM      5  C4  BZF d   1      -4.532  -3.220  -5.998  0.00  0.00     0.055 A 
ATOM      6  C5  BZF d   1      -5.762  -3.797  -5.997  0.00  0.00    -0.016 A 
ATOM      7  C6  BZF d   1      -5.924  -5.163  -5.891  0.00  0.00     0.022 A 
ATOM      8  C7  BZF d   1      -4.857  -5.991  -5.773  0.00  0.00     0.029 A 
ATOM      9  C7A BZF d   1      -3.614  -5.408  -5.740  0.00  0.00     0.058 A 
ENDROOT
TORSDOF 0
ENDMDL
