MODEL 1
REMARK minimizedAffinity 1.84524012
REMARK minimizedRMSD -1
REMARK  0 active torsions:
REMARK  status: ('A' for Active; 'I' for Inactive)
ROOT
ATOM      1  O1  BZF d   1       3.476  -1.983   0.646  0.00  0.00    -0.204 OA
ATOM      2  C2  BZF d   1       4.559  -1.423   1.296  0.00  0.00     0.174 A 
ATOM      3  C3  BZF d   1       4.349  -0.111   1.532  0.00  0.00    -0.012 A 
ATOM      4  C3A BZF d   1       3.016   0.144   1.078  0.00  0.00    -0.107 A 
ATOM      5  C4  BZF d   1       2.228   1.259   1.059  0.00  0.00     0.055 A 
ATOM      6  C5  BZF d   1       1.001   1.191   0.481  0.00  0.00    -0.016 A 
ATOM      7  C6  BZF d   1       0.532   0.028  -0.093  0.00  0.00     0.022 A 
ATOM      8  C7  BZF d   1       1.275  -1.106  -0.094  0.00  0.00     0.029 A 
ATOM      9  C7A BZF d   1       2.503  -1.049   0.519  0.00  0.00     0.058 A 
ENDROOT
TORSDOF 0
ENDMDL
