MODEL 1
REMARK minimizedAffinity -0.87686342
REMARK minimizedRMSD -1
REMARK  0 active torsions:
REMARK  status: ('A' for Active; 'I' for Inactive)
ROOT
ATOM      1  O1  BZF d   1      -5.467  -1.881  -1.384  0.00  0.00    -0.204 OA
ATOM      2  C2  BZF d   1      -5.792  -0.734  -0.687  0.00  0.00     0.174 A 
ATOM      3  C3  BZF d   1      -6.000   0.297  -1.533  0.00  0.00    -0.012 A 
ATOM      4  C3A BZF d   1      -5.882  -0.263  -2.844  0.00  0.00    -0.107 A 
ATOM      5  C4  BZF d   1      -5.999   0.258  -4.101  0.00  0.00     0.055 A 
ATOM      6  C5  BZF d   1      -5.752  -0.541  -5.173  0.00  0.00    -0.016 A 
ATOM      7  C6  BZF d   1      -5.380  -1.861  -5.024  0.00  0.00     0.022 A 
ATOM      8  C7  BZF d   1      -5.256  -2.424  -3.797  0.00  0.00     0.029 A 
ATOM      9  C7A BZF d   1      -5.537  -1.628  -2.713  0.00  0.00     0.058 A 
ENDROOT
TORSDOF 0
ENDMDL
