MODEL 1
REMARK minimizedAffinity -0.775778353
REMARK minimizedRMSD -1
REMARK  0 active torsions:
REMARK  status: ('A' for Active; 'I' for Inactive)
ROOT
ATOM      1  O1  BZF d   1      -5.098  -1.635  -4.902  0.00  0.00    -0.204 OA
ATOM      2  C2  BZF d   1      -5.443  -1.226  -3.628  0.00  0.00     0.174 A 
ATOM      3  C3  BZF d   1      -4.717  -1.883  -2.701  0.00  0.00    -0.012 A 
ATOM      4  C3A BZF d   1      -3.799  -2.690  -3.445  0.00  0.00    -0.107 A 
ATOM      5  C4  BZF d   1      -2.807  -3.557  -3.085  0.00  0.00     0.055 A 
ATOM      6  C5  BZF d   1      -2.144  -4.241  -4.055  0.00  0.00    -0.016 A 
ATOM      7  C6  BZF d   1      -2.451  -4.087  -5.391  0.00  0.00     0.022 A 
ATOM      8  C7  BZF d   1      -3.424  -3.235  -5.796  0.00  0.00     0.029 A 
ATOM      9  C7A BZF d   1      -4.073  -2.518  -4.821  0.00  0.00     0.058 A 
ENDROOT
TORSDOF 0
ENDMDL
