MODEL 1
REMARK minimizedAffinity 11.4838371
REMARK minimizedRMSD -1
REMARK  0 active torsions:
REMARK  status: ('A' for Active; 'I' for Inactive)
ROOT
ATOM      1  O1  BZF d   1      -3.336  -1.424  -1.294  0.00  0.00    -0.204 OA
ATOM      2  C2  BZF d   1      -4.256  -0.483  -1.713  0.00  0.00     0.174 A 
ATOM      3  C3  BZF d   1      -3.861   0.760  -1.368  0.00  0.00    -0.012 A 
ATOM      4  C3A BZF d   1      -2.572   0.592  -0.771  0.00  0.00    -0.107 A 
ATOM      5  C4  BZF d   1      -1.662   1.462  -0.242  0.00  0.00     0.055 A 
ATOM      6  C5  BZF d   1      -0.530   0.970   0.326  0.00  0.00    -0.016 A 
ATOM      7  C6  BZF d   1      -0.279  -0.385   0.388  0.00  0.00     0.022 A 
ATOM      8  C7  BZF d   1      -1.149  -1.287  -0.128  0.00  0.00     0.029 A 
ATOM      9  C7A BZF d   1      -2.278  -0.791  -0.732  0.00  0.00     0.058 A 
ENDROOT
TORSDOF 0
ENDMDL
