MODEL 1
REMARK minimizedAffinity 8.65264988
REMARK minimizedRMSD -1
REMARK  0 active torsions:
REMARK  status: ('A' for Active; 'I' for Inactive)
ROOT
ATOM      1  O1  BZF d   1      -5.999  -0.359  -4.191  0.00  0.00    -0.204 OA
ATOM      2  C2  BZF d   1      -5.022  -0.665  -5.118  0.00  0.00     0.174 A 
ATOM      3  C3  BZF d   1      -3.820  -0.797  -4.521  0.00  0.00    -0.012 A 
ATOM      4  C3A BZF d   1      -4.078  -0.651  -3.121  0.00  0.00    -0.107 A 
ATOM      5  C4  BZF d   1      -3.284  -0.698  -2.011  0.00  0.00     0.055 A 
ATOM      6  C5  BZF d   1      -3.834  -0.441  -0.795  0.00  0.00    -0.016 A 
ATOM      7  C6  BZF d   1      -5.170  -0.130  -0.653  0.00  0.00     0.022 A 
ATOM      8  C7  BZF d   1      -5.998  -0.076  -1.725  0.00  0.00     0.029 A 
ATOM      9  C7A BZF d   1      -5.453  -0.367  -2.951  0.00  0.00     0.058 A 
ENDROOT
TORSDOF 0
ENDMDL
