MODEL 1
REMARK minimizedAffinity -5.12026739
REMARK minimizedRMSD -1
REMARK  1 active torsions:
REMARK  status: ('A' for Active; 'I' for Inactive)
REMARK    1  A    between atoms: C1_2  and  C2_3 
ROOT
ATOM      1  C2  UNL d   1       0.476  -1.864  -1.499  0.00  0.00    -0.073 A 
ATOM      2  C3  UNL d   1       0.526  -0.883  -0.502  0.00  0.00    -0.002 A 
ATOM      3  C4  UNL d   1       1.751  -0.352  -0.097  0.00  0.00     0.004 A 
ATOM      4  C5  UNL d   1       2.936  -0.789  -0.689  0.00  0.00    -0.004 A 
ATOM      5  C6  UNL d   1       2.906  -1.760  -1.695  0.00  0.00    -0.075 A 
ATOM      6  C7  UNL d   1       4.172  -2.242  -2.340  0.00  0.00     0.076 C 
ATOM      7  C8  UNL d   1       1.672  -2.291  -2.094  0.00  0.00     0.001 A 
ENDROOT
BRANCH   1   8
ATOM      8  C1  UNL d   1      -0.845  -2.437  -1.944  0.00  0.00     0.053 C 
ATOM      9  C   UNL d   1      -1.088  -2.223  -3.430  0.00  0.00     0.018 C 
ENDBRANCH   1   8
TORSDOF 1
ENDMDL
