MODEL 1
REMARK minimizedAffinity -0.567852795
REMARK minimizedRMSD -1
REMARK  1 active torsions:
REMARK  status: ('A' for Active; 'I' for Inactive)
REMARK    1  A    between atoms: C1_2  and  C2_3 
ROOT
ATOM      1  C2  UNL d   1      -2.904   0.143   0.684  0.00  0.00    -0.073 A 
ATOM      2  C3  UNL d   1      -2.568  -0.217   1.994  0.00  0.00    -0.002 A 
ATOM      3  C4  UNL d   1      -1.482  -1.059   2.237  0.00  0.00     0.004 A 
ATOM      4  C5  UNL d   1      -0.718  -1.543   1.175  0.00  0.00    -0.004 A 
ATOM      5  C6  UNL d   1      -1.031  -1.185  -0.140  0.00  0.00    -0.075 A 
ATOM      6  C7  UNL d   1      -0.220  -1.699  -1.293  0.00  0.00     0.076 C 
ATOM      7  C8  UNL d   1      -2.125  -0.341  -0.376  0.00  0.00     0.001 A 
ENDROOT
BRANCH   1   8
ATOM      8  C1  UNL d   1      -4.072   1.057   0.417  0.00  0.00     0.053 C 
ATOM      9  C   UNL d   1      -4.877   1.336   1.677  0.00  0.00     0.018 C 
ENDBRANCH   1   8
TORSDOF 1
ENDMDL
