MODEL 1
REMARK minimizedAffinity -4.07608414
REMARK minimizedRMSD -1
REMARK  1 active torsions:
REMARK  status: ('A' for Active; 'I' for Inactive)
REMARK    1  A    between atoms: C1_2  and  C2_3 
ROOT
ATOM      1  C2  UNL d   1      -2.322   0.360   1.315  0.00  0.00    -0.073 A 
ATOM      2  C3  UNL d   1      -2.573   0.702   2.649  0.00  0.00    -0.002 A 
ATOM      3  C4  UNL d   1      -1.610   0.464   3.630  0.00  0.00     0.004 A 
ATOM      4  C5  UNL d   1      -0.386  -0.111   3.288  0.00  0.00    -0.004 A 
ATOM      5  C6  UNL d   1      -0.112  -0.449   1.959  0.00  0.00    -0.075 A 
ATOM      6  C7  UNL d   1       1.198  -1.071   1.575  0.00  0.00     0.076 C 
ATOM      7  C8  UNL d   1      -1.086  -0.210   0.979  0.00  0.00     0.001 A 
ENDROOT
BRANCH   1   8
ATOM      8  C1  UNL d   1      -3.357   0.621   0.251  0.00  0.00     0.053 C 
ATOM      9  C   UNL d   1      -4.017  -0.662  -0.229  0.00  0.00     0.018 C 
ENDBRANCH   1   8
TORSDOF 1
ENDMDL
