MODEL 1
REMARK minimizedAffinity 1.25532722
REMARK minimizedRMSD -1
REMARK  1 active torsions:
REMARK  status: ('A' for Active; 'I' for Inactive)
REMARK    1  A    between atoms: C1_2  and  C2_3 
ROOT
ATOM      1  C2  UNL d   1      -3.044  -1.382   0.754  0.00  0.00    -0.073 A 
ATOM      2  C3  UNL d   1      -2.412  -0.759   1.837  0.00  0.00    -0.002 A 
ATOM      3  C4  UNL d   1      -1.056  -0.437   1.771  0.00  0.00     0.004 A 
ATOM      4  C5  UNL d   1      -0.320  -0.728   0.622  0.00  0.00    -0.004 A 
ATOM      5  C6  UNL d   1      -0.936  -1.339  -0.474  0.00  0.00    -0.075 A 
ATOM      6  C7  UNL d   1      -0.158  -1.661  -1.716  0.00  0.00     0.076 C 
ATOM      7  C8  UNL d   1      -2.298  -1.662  -0.400  0.00  0.00     0.001 A 
ENDROOT
BRANCH   1   8
ATOM      8  C1  UNL d   1      -4.509  -1.726   0.818  0.00  0.00     0.053 C 
ATOM      9  C   UNL d   1      -4.771  -3.177   0.447  0.00  0.00     0.018 C 
ENDBRANCH   1   8
TORSDOF 1
ENDMDL
