MODEL 1
REMARK minimizedAffinity -0.66867429
REMARK minimizedRMSD -1
REMARK  1 active torsions:
REMARK  status: ('A' for Active; 'I' for Inactive)
REMARK    1  A    between atoms: C1_2  and  C2_3 
ROOT
ATOM      1  C2  UNL d   1      -0.959  -1.371   0.356  0.00  0.00    -0.073 A 
ATOM      2  C3  UNL d   1      -0.689  -1.206   1.719  0.00  0.00    -0.002 A 
ATOM      3  C4  UNL d   1      -1.485  -0.365   2.498  0.00  0.00     0.004 A 
ATOM      4  C5  UNL d   1      -2.561   0.313   1.926  0.00  0.00    -0.004 A 
ATOM      5  C6  UNL d   1      -2.854   0.151   0.568  0.00  0.00    -0.075 A 
ATOM      6  C7  UNL d   1      -4.007   0.874  -0.064  0.00  0.00     0.076 C 
ATOM      7  C8  UNL d   1      -2.049  -0.693  -0.209  0.00  0.00     0.001 A 
ENDROOT
BRANCH   1   8
ATOM      8  C1  UNL d   1      -0.107  -2.283  -0.488  0.00  0.00     0.053 C 
ATOM      9  C   UNL d   1       1.136  -2.749   0.253  0.00  0.00     0.018 C 
ENDBRANCH   1   8
TORSDOF 1
ENDMDL
