MODEL 1
REMARK minimizedAffinity -4.11257267
REMARK minimizedRMSD -1
REMARK  0 active torsions:
REMARK  status: ('A' for Active; 'I' for Inactive)
ROOT
ATOM      1  N1  IND d   1      -0.711  -0.505  -0.035  0.00  0.00    -0.196 N 
ATOM      2  C2  IND d   1      -0.217  -0.584  -1.307  0.00  0.00     0.054 A 
ATOM      3  C3  IND d   1       1.111  -0.836  -1.280  0.00  0.00    -0.031 A 
ATOM      4  C4  IND d   1       2.656  -1.256   0.736  0.00  0.00     0.051 A 
ATOM      5  C5  IND d   1       2.669  -1.252   2.103  0.00  0.00    -0.031 A 
ATOM      6  C6  IND d   1       1.532  -0.996   2.842  0.00  0.00     0.015 A 
ATOM      7  C7  IND d   1       0.332  -0.745   2.238  0.00  0.00    -0.016 A 
ATOM      8  C8  IND d   1       0.317  -0.741   0.851  0.00  0.00    -0.047 A 
ATOM      9  C9  IND d   1       1.476  -0.958   0.096  0.00  0.00    -0.096 A 
ATOM     10  HN1 IND d   1      -1.528  -0.336   0.176  0.00  0.00     0.298 HD
ENDROOT
TORSDOF 0
ENDMDL
