MODEL 1
REMARK minimizedAffinity -2.12772632
REMARK minimizedRMSD -1
REMARK  0 active torsions:
REMARK  status: ('A' for Active; 'I' for Inactive)
ROOT
ATOM      1  N1  IND d   1       0.278   0.358  -0.192  0.00  0.00    -0.196 N 
ATOM      2  C2  IND d   1      -0.966  -0.188  -0.344  0.00  0.00     0.054 A 
ATOM      3  C3  IND d   1      -1.231  -1.044   0.669  0.00  0.00    -0.031 A 
ATOM      4  C4  IND d   1       0.191  -1.622   2.736  0.00  0.00     0.051 A 
ATOM      5  C5  IND d   1       1.419  -1.401   3.295  0.00  0.00    -0.031 A 
ATOM      6  C6  IND d   1       2.347  -0.564   2.710  0.00  0.00     0.015 A 
ATOM      7  C7  IND d   1       2.076   0.096   1.544  0.00  0.00    -0.016 A 
ATOM      8  C8  IND d   1       0.833  -0.131   0.970  0.00  0.00    -0.047 A 
ATOM      9  C9  IND d   1      -0.097  -1.013   1.537  0.00  0.00    -0.096 A 
ATOM     10  HN1 IND d   1       0.652   0.914  -0.732  0.00  0.00     0.298 HD
ENDROOT
TORSDOF 0
ENDMDL
