MODEL 1
REMARK minimizedAffinity -1.46373045
REMARK minimizedRMSD -1
REMARK  0 active torsions:
REMARK  status: ('A' for Active; 'I' for Inactive)
ROOT
ATOM      1  N1  IND d   1      -0.236  -1.481   2.609  0.00  0.00    -0.196 N 
ATOM      2  C2  IND d   1      -0.793  -0.281   2.266  0.00  0.00     0.054 A 
ATOM      3  C3  IND d   1      -0.289   0.153   1.089  0.00  0.00    -0.031 A 
ATOM      4  C4  IND d   1       1.385  -0.996  -0.495  0.00  0.00     0.051 A 
ATOM      5  C5  IND d   1       2.198  -2.089  -0.593  0.00  0.00    -0.031 A 
ATOM      6  C6  IND d   1       2.241  -3.057   0.389  0.00  0.00     0.015 A 
ATOM      7  C7  IND d   1       1.460  -2.972   1.507  0.00  0.00    -0.016 A 
ATOM      8  C8  IND d   1       0.637  -1.859   1.614  0.00  0.00    -0.047 A 
ATOM      9  C9  IND d   1       0.621  -0.853   0.640  0.00  0.00    -0.096 A 
ATOM     10  HN1 IND d   1      -0.403  -1.924   3.327  0.00  0.00     0.298 HD
ENDROOT
TORSDOF 0
ENDMDL
