MODEL 1
REMARK minimizedAffinity -0.645046532
REMARK minimizedRMSD -1
REMARK  0 active torsions:
REMARK  status: ('A' for Active; 'I' for Inactive)
ROOT
ATOM      1  N1  IND d   1       0.198  -0.933  -2.177  0.00  0.00    -0.196 N 
ATOM      2  C2  IND d   1       1.471  -1.158  -1.733  0.00  0.00     0.054 A 
ATOM      3  C3  IND d   1       1.528  -1.036  -0.388  0.00  0.00    -0.031 A 
ATOM      4  C4  IND d   1      -0.365  -0.574   1.294  0.00  0.00     0.051 A 
ATOM      5  C5  IND d   1      -1.694  -0.263   1.362  0.00  0.00    -0.031 A 
ATOM      6  C6  IND d   1      -2.477  -0.161   0.230  0.00  0.00     0.015 A 
ATOM      7  C7  IND d   1      -1.960  -0.377  -1.016  0.00  0.00    -0.016 A 
ATOM      8  C8  IND d   1      -0.609  -0.686  -1.089  0.00  0.00    -0.047 A 
ATOM      9  C9  IND d   1       0.200  -0.749   0.053  0.00  0.00    -0.096 A 
ATOM     10  HN1 IND d   1      -0.056  -0.944  -2.999  0.00  0.00     0.298 HD
ENDROOT
TORSDOF 0
ENDMDL
