MODEL 1
REMARK minimizedAffinity 7.00590372
REMARK minimizedRMSD -1
REMARK  0 active torsions:
REMARK  status: ('A' for Active; 'I' for Inactive)
ROOT
ATOM      1  N1  IND d   1       5.010   2.245   2.192  0.00  0.00    -0.196 N 
ATOM      2  C2  IND d   1       4.153   3.122   1.589  0.00  0.00     0.054 A 
ATOM      3  C3  IND d   1       3.803   2.669   0.364  0.00  0.00    -0.031 A 
ATOM      4  C4  IND d   1       4.437   0.467  -0.809  0.00  0.00     0.051 A 
ATOM      5  C5  IND d   1       5.227  -0.640  -0.669  0.00  0.00    -0.031 A 
ATOM      6  C6  IND d   1       5.998  -0.847   0.456  0.00  0.00     0.015 A 
ATOM      7  C7  IND d   1       5.999   0.043   1.493  0.00  0.00    -0.016 A 
ATOM      8  C8  IND d   1       5.204   1.172   1.351  0.00  0.00    -0.047 A 
ATOM      9  C9  IND d   1       4.452   1.408   0.193  0.00  0.00    -0.096 A 
ATOM     10  HN1 IND d   1       5.368   2.346   2.968  0.00  0.00     0.298 HD
ENDROOT
TORSDOF 0
ENDMDL
