MODEL 1
REMARK minimizedAffinity -0.527507067
REMARK minimizedRMSD -1
REMARK  0 active torsions:
REMARK  status: ('A' for Active; 'I' for Inactive)
ROOT
ATOM      1  N1  IND d   1       1.712  -3.168   0.744  0.00  0.00    -0.196 N 
ATOM      2  C2  IND d   1       1.990  -4.500   0.882  0.00  0.00     0.054 A 
ATOM      3  C3  IND d   1       1.120  -5.075   1.742  0.00  0.00    -0.031 A 
ATOM      4  C4  IND d   1      -0.901  -4.044   2.959  0.00  0.00     0.051 A 
ATOM      5  C5  IND d   1      -1.535  -2.853   3.176  0.00  0.00    -0.031 A 
ATOM      6  C6  IND d   1      -1.112  -1.683   2.579  0.00  0.00     0.015 A 
ATOM      7  C7  IND d   1      -0.041  -1.662   1.730  0.00  0.00    -0.016 A 
ATOM      8  C8  IND d   1       0.609  -2.869   1.513  0.00  0.00    -0.047 A 
ATOM      9  C9  IND d   1       0.211  -4.052   2.150  0.00  0.00    -0.096 A 
ATOM     10  HN1 IND d   1       2.152  -2.612   0.259  0.00  0.00     0.298 HD
ENDROOT
TORSDOF 0
ENDMDL
