MODEL 1
REMARK minimizedAffinity 3.68367124
REMARK minimizedRMSD -1
REMARK  0 active torsions:
REMARK  status: ('A' for Active; 'I' for Inactive)
ROOT
ATOM      1  N1  IND d   1      -1.340  -0.753   2.784  0.00  0.00    -0.196 N 
ATOM      2  C2  IND d   1      -1.655   0.413   2.144  0.00  0.00     0.054 A 
ATOM      3  C3  IND d   1      -0.857   0.588   1.067  0.00  0.00    -0.031 A 
ATOM      4  C4  IND d   1       0.964  -0.961   0.111  0.00  0.00     0.051 A 
ATOM      5  C5  IND d   1       1.636  -2.122   0.372  0.00  0.00    -0.031 A 
ATOM      6  C6  IND d   1       1.343  -2.904   1.471  0.00  0.00     0.015 A 
ATOM      7  C7  IND d   1       0.354  -2.557   2.348  0.00  0.00    -0.016 A 
ATOM      8  C8  IND d   1      -0.326  -1.375   2.090  0.00  0.00    -0.047 A 
ATOM      9  C9  IND d   1      -0.004  -0.556   1.000  0.00  0.00    -0.096 A 
ATOM     10  HN1 IND d   1      -1.713  -1.049   3.501  0.00  0.00     0.298 HD
ENDROOT
TORSDOF 0
ENDMDL
