MODEL 1
REMARK minimizedAffinity 1.98704934
REMARK minimizedRMSD -1
REMARK  0 active torsions:
REMARK  status: ('A' for Active; 'I' for Inactive)
ROOT
ATOM      1  N1  IND d   1      -0.724  -4.917   2.451  0.00  0.00    -0.196 N 
ATOM      2  C2  IND d   1      -1.590  -3.919   2.805  0.00  0.00     0.054 A 
ATOM      3  C3  IND d   1      -0.994  -2.713   2.678  0.00  0.00    -0.031 A 
ATOM      4  C4  IND d   1       1.359  -2.134   1.809  0.00  0.00     0.051 A 
ATOM      5  C5  IND d   1       2.529  -2.711   1.402  0.00  0.00    -0.031 A 
ATOM      6  C6  IND d   1       2.676  -4.081   1.319  0.00  0.00     0.015 A 
ATOM      7  C7  IND d   1       1.651  -4.928   1.631  0.00  0.00    -0.016 A 
ATOM      8  C8  IND d   1       0.464  -4.345   2.052  0.00  0.00    -0.047 A 
ATOM      9  C9  IND d   1       0.322  -2.957   2.179  0.00  0.00    -0.096 A 
ATOM     10  HN1 IND d   1      -0.894  -5.760   2.474  0.00  0.00     0.298 HD
ENDROOT
TORSDOF 0
ENDMDL
