MODEL 1
REMARK minimizedAffinity -3.2957387
REMARK minimizedRMSD -1
REMARK  0 active torsions:
REMARK  status: ('A' for Active; 'I' for Inactive)
ROOT
ATOM      1  N1  IND d   1       0.903  -2.039  -0.249  0.00  0.00    -0.196 N 
ATOM      2  C2  IND d   1       1.694  -2.641   0.690  0.00  0.00     0.054 A 
ATOM      3  C3  IND d   1       1.187  -2.443   1.927  0.00  0.00    -0.031 A 
ATOM      4  C4  IND d   1      -0.980  -1.249   2.636  0.00  0.00     0.051 A 
ATOM      5  C5  IND d   1      -2.015  -0.509   2.137  0.00  0.00    -0.031 A 
ATOM      6  C6  IND d   1      -2.134  -0.238   0.789  0.00  0.00     0.015 A 
ATOM      7  C7  IND d   1      -1.224  -0.708  -0.115  0.00  0.00    -0.016 A 
ATOM      8  C8  IND d   1      -0.168  -1.454   0.389  0.00  0.00    -0.047 A 
ATOM      9  C9  IND d   1      -0.019  -1.697   1.761  0.00  0.00    -0.096 A 
ATOM     10  HN1 IND d   1       1.051  -2.027  -1.096  0.00  0.00     0.298 HD
ENDROOT
TORSDOF 0
ENDMDL
