MODEL 1
REMARK minimizedAffinity 6.8210535
REMARK minimizedRMSD -1
REMARK  0 active torsions:
REMARK  status: ('A' for Active; 'I' for Inactive)
ROOT
ATOM      1  N1  IND d   1      -0.750  -0.739  -0.888  0.00  0.00    -0.196 N 
ATOM      2  C2  IND d   1       0.525  -1.219  -0.774  0.00  0.00     0.054 A 
ATOM      3  C3  IND d   1       0.889  -1.281   0.527  0.00  0.00    -0.031 A 
ATOM      4  C4  IND d   1      -0.484  -0.741   2.637  0.00  0.00     0.051 A 
ATOM      5  C5  IND d   1      -1.688  -0.233   3.038  0.00  0.00    -0.031 A 
ATOM      6  C6  IND d   1      -2.661   0.137   2.133  0.00  0.00     0.015 A 
ATOM      7  C7  IND d   1      -2.470   0.002   0.787  0.00  0.00    -0.016 A 
ATOM      8  C8  IND d   1      -1.247  -0.507   0.375  0.00  0.00    -0.047 A 
ATOM      9  C9  IND d   1      -0.239  -0.844   1.288  0.00  0.00    -0.096 A 
ATOM     10  HN1 IND d   1      -1.171  -0.604  -1.626  0.00  0.00     0.298 HD
ENDROOT
TORSDOF 0
ENDMDL
