MODEL 1
REMARK minimizedAffinity -1.0152452
REMARK minimizedRMSD -1
REMARK  0 active torsions:
REMARK  status: ('A' for Active; 'I' for Inactive)
ROOT
ATOM      1  N1  IND d   1       2.230  -3.543   0.333  0.00  0.00    -0.196 N 
ATOM      2  C2  IND d   1       2.780  -4.109   1.449  0.00  0.00     0.054 A 
ATOM      3  C3  IND d   1       2.322  -3.495   2.563  0.00  0.00    -0.031 A 
ATOM      4  C4  IND d   1       0.587  -1.606   2.792  0.00  0.00     0.051 A 
ATOM      5  C5  IND d   1      -0.167  -0.741   2.051  0.00  0.00    -0.031 A 
ATOM      6  C6  IND d   1      -0.163  -0.768   0.671  0.00  0.00     0.015 A 
ATOM      7  C7  IND d   1       0.590  -1.672  -0.021  0.00  0.00    -0.016 A 
ATOM      8  C8  IND d   1       1.363  -2.548   0.728  0.00  0.00    -0.047 A 
ATOM      9  C9  IND d   1       1.396  -2.498   2.127  0.00  0.00    -0.096 A 
ATOM     10  HN1 IND d   1       2.398  -3.770  -0.479  0.00  0.00     0.298 HD
ENDROOT
TORSDOF 0
ENDMDL
