MODEL 1
REMARK minimizedAffinity 0.26111564
REMARK minimizedRMSD -1
REMARK  0 active torsions:
REMARK  status: ('A' for Active; 'I' for Inactive)
ROOT
ATOM      1  C4' PXY d   1      -0.535   1.380  -0.220  0.00  0.00     0.077 C 
ATOM      2  C1' PXY d   1       5.232   1.508   0.163  0.00  0.00     0.077 C 
ATOM      3  C1  PXY d   1       3.720   1.463   0.056  0.00  0.00    -0.082 A 
ATOM      4  C2  PXY d   1       3.025   2.585   0.149  0.00  0.00     0.003 A 
ATOM      5  C3  PXY d   1       1.655   2.559   0.086  0.00  0.00     0.003 A 
ATOM      6  C4  PXY d   1       0.994   1.379  -0.127  0.00  0.00    -0.082 A 
ATOM      7  C5  PXY d   1       1.697   0.232  -0.233  0.00  0.00     0.003 A 
ATOM      8  C6  PXY d   1       3.084   0.274  -0.126  0.00  0.00     0.003 A 
ENDROOT
TORSDOF 0
ENDMDL
