MODEL 1
REMARK minimizedAffinity -0.46098721
REMARK minimizedRMSD -1
REMARK  0 active torsions:
REMARK  status: ('A' for Active; 'I' for Inactive)
ROOT
ATOM      1  C4' PXY d   1       3.008   1.464   1.506  0.00  0.00     0.077 C 
ATOM      2  C1' PXY d   1       3.962  -2.398  -2.687  0.00  0.00     0.077 C 
ATOM      3  C1  PXY d   1       3.701  -1.392  -1.584  0.00  0.00    -0.082 A 
ATOM      4  C2  PXY d   1       4.194  -0.168  -1.685  0.00  0.00     0.003 A 
ATOM      5  C3  PXY d   1       3.994   0.745  -0.682  0.00  0.00     0.003 A 
ATOM      6  C4  PXY d   1       3.238   0.418   0.412  0.00  0.00    -0.082 A 
ATOM      7  C5  PXY d   1       2.723  -0.825   0.518  0.00  0.00     0.003 A 
ATOM      8  C6  PXY d   1       2.971  -1.750  -0.493  0.00  0.00     0.003 A 
ENDROOT
TORSDOF 0
ENDMDL
