MODEL 1
REMARK minimizedAffinity 3.4857986
REMARK minimizedRMSD -1
REMARK  0 active torsions:
REMARK  status: ('A' for Active; 'I' for Inactive)
ROOT
ATOM      1  C4' PXY d   1      -0.143   1.067  -0.878  0.00  0.00     0.077 C 
ATOM      2  C1' PXY d   1       5.158  -0.248   1.014  0.00  0.00     0.077 C 
ATOM      3  C1  PXY d   1       3.768   0.108   0.525  0.00  0.00    -0.082 A 
ATOM      4  C2  PXY d   1       2.965  -0.848   0.086  0.00  0.00     0.003 A 
ATOM      5  C3  PXY d   1       1.716  -0.540  -0.389  0.00  0.00     0.003 A 
ATOM      6  C4  PXY d   1       1.265   0.753  -0.366  0.00  0.00    -0.082 A 
ATOM      7  C5  PXY d   1       2.075   1.732   0.090  0.00  0.00     0.003 A 
ATOM      8  C6  PXY d   1       3.354   1.404   0.530  0.00  0.00     0.003 A 
ENDROOT
TORSDOF 0
ENDMDL
