MODEL 1
REMARK minimizedAffinity 6.0958972
REMARK minimizedRMSD -1
REMARK  0 active torsions:
REMARK  status: ('A' for Active; 'I' for Inactive)
ROOT
ATOM      1  C4' PXY d   1       3.376   3.177   0.280  0.00  0.00     0.077 C 
ATOM      2  C1' PXY d   1       2.153  -2.464  -0.029  0.00  0.00     0.077 C 
ATOM      3  C1  PXY d   1       2.463  -0.982   0.046  0.00  0.00    -0.082 A 
ATOM      4  C2  PXY d   1       3.719  -0.581   0.157  0.00  0.00     0.003 A 
ATOM      5  C3  PXY d   1       4.014   0.754   0.258  0.00  0.00     0.003 A 
ATOM      6  C4  PXY d   1       3.017   1.691   0.192  0.00  0.00    -0.082 A 
ATOM      7  C5  PXY d   1       1.734   1.290   0.068  0.00  0.00     0.003 A 
ATOM      8  C6  PXY d   1       1.452  -0.071   0.008  0.00  0.00     0.003 A 
ENDROOT
TORSDOF 0
ENDMDL
