MODEL 1
REMARK minimizedAffinity 0.428160936
REMARK minimizedRMSD -1
REMARK  0 active torsions:
REMARK  status: ('A' for Active; 'I' for Inactive)
ROOT
ATOM      1  C4' PXY d   1      -0.227  -4.291  -1.244  0.00  0.00     0.077 C 
ATOM      2  C1' PXY d   1       3.370  -0.032   0.286  0.00  0.00     0.077 C 
ATOM      3  C1  PXY d   1       2.418  -1.140  -0.121  0.00  0.00    -0.082 A 
ATOM      4  C2  PXY d   1       2.443  -2.294   0.527  0.00  0.00     0.003 A 
ATOM      5  C3  PXY d   1       1.612  -3.318   0.151  0.00  0.00     0.003 A 
ATOM      6  C4  PXY d   1       0.709  -3.141  -0.862  0.00  0.00    -0.082 A 
ATOM      7  C5  PXY d   1       0.670  -1.963  -1.520  0.00  0.00     0.003 A 
ATOM      8  C6  PXY d   1       1.550  -0.950  -1.151  0.00  0.00     0.003 A 
ENDROOT
TORSDOF 0
ENDMDL
