MODEL 1
REMARK minimizedAffinity 2.48666644
REMARK minimizedRMSD -1
REMARK  0 active torsions:
REMARK  status: ('A' for Active; 'I' for Inactive)
ROOT
ATOM      1  C4' PXY d   1      -1.491   1.516  -1.983  0.00  0.00     0.077 C 
ATOM      2  C1' PXY d   1       1.777  -2.822  -0.005  0.00  0.00     0.077 C 
ATOM      3  C1  PXY d   1       0.916  -1.692  -0.533  0.00  0.00    -0.082 A 
ATOM      4  C2  PXY d   1       1.230  -0.440  -0.244  0.00  0.00     0.003 A 
ATOM      5  C3  PXY d   1       0.444   0.593  -0.687  0.00  0.00     0.003 A 
ATOM      6  C4  PXY d   1      -0.645   0.344  -1.479  0.00  0.00    -0.082 A 
ATOM      7  C5  PXY d   1      -0.966  -0.930  -1.787  0.00  0.00     0.003 A 
ATOM      8  C6  PXY d   1      -0.179  -1.967  -1.293  0.00  0.00     0.003 A 
ENDROOT
TORSDOF 0
ENDMDL
