MODEL 1
REMARK minimizedAffinity 4.22063351
REMARK minimizedRMSD -1
REMARK  0 active torsions:
REMARK  status: ('A' for Active; 'I' for Inactive)
ROOT
ATOM      1  C4' PXY d   1      -1.858   0.679  -1.413  0.00  0.00     0.077 C 
ATOM      2  C1' PXY d   1       2.587  -2.795  -0.151  0.00  0.00     0.077 C 
ATOM      3  C1  PXY d   1       1.427  -1.875  -0.475  0.00  0.00    -0.082 A 
ATOM      4  C2  PXY d   1       0.274  -2.390  -0.870  0.00  0.00     0.003 A 
ATOM      5  C3  PXY d   1      -0.776  -1.571  -1.198  0.00  0.00     0.003 A 
ATOM      6  C4  PXY d   1      -0.662  -0.213  -1.067  0.00  0.00    -0.082 A 
ATOM      7  C5  PXY d   1       0.508   0.320  -0.654  0.00  0.00     0.003 A 
ATOM      8  C6  PXY d   1       1.574  -0.526  -0.366  0.00  0.00     0.003 A 
ENDROOT
TORSDOF 0
ENDMDL
