MODEL 1
REMARK minimizedAffinity 4.20970917
REMARK minimizedRMSD -1
REMARK  0 active torsions:
REMARK  status: ('A' for Active; 'I' for Inactive)
ROOT
ATOM      1  C4' PXY d   1       3.890   0.798  -1.300  0.00  0.00     0.077 C 
ATOM      2  C1' PXY d   1      -0.344  -3.052  -0.483  0.00  0.00     0.077 C 
ATOM      3  C1  PXY d   1       0.757  -2.033  -0.699  0.00  0.00    -0.082 A 
ATOM      4  C2  PXY d   1       1.953  -2.436  -1.098  0.00  0.00     0.003 A 
ATOM      5  C3  PXY d   1       2.969  -1.532  -1.268  0.00  0.00     0.003 A 
ATOM      6  C4  PXY d   1       2.745  -0.195  -1.078  0.00  0.00    -0.082 A 
ATOM      7  C5  PXY d   1       1.526   0.226  -0.681  0.00  0.00     0.003 A 
ATOM      8  C6  PXY d   1       0.519  -0.712  -0.474  0.00  0.00     0.003 A 
ENDROOT
TORSDOF 0
ENDMDL
