MODEL 1
REMARK minimizedAffinity -6.50848484
REMARK minimizedRMSD -1
REMARK  0 active torsions:
REMARK  status: ('A' for Active; 'I' for Inactive)
ROOT
ATOM      1  C1  DEN d   1       3.702  -1.030  -1.785  0.00  0.00     0.130 A 
ATOM      2  C2  DEN d   1       4.400   0.072  -2.442  0.00  0.00    -0.031 A 
ATOM      3  C3  DEN d   1       3.776   1.336  -2.002  0.00  0.00     0.027 A 
ATOM      4  C4  DEN d   1       1.809   1.692  -0.371  0.00  0.00     0.027 A 
ATOM      5  C5  DEN d   1       0.886   1.057   0.430  0.00  0.00    -0.003 A 
ATOM      6  C6  DEN d   1       0.815  -0.308   0.522  0.00  0.00     0.001 A 
ATOM      7  C7  DEN d   1       1.713  -1.082  -0.165  0.00  0.00     0.017 A 
ATOM      8  C8  DEN d   1       2.642  -0.449  -0.980  0.00  0.00    -0.094 A 
ATOM      9  C9  DEN d   1       2.705   0.932  -1.050  0.00  0.00    -0.072 A 
ENDROOT
TORSDOF 0
ENDMDL
