MODEL 1
REMARK minimizedAffinity -1.91435277
REMARK minimizedRMSD -1
REMARK  0 active torsions:
REMARK  status: ('A' for Active; 'I' for Inactive)
ROOT
ATOM      1  C1  DEN d   1       3.795  -1.509  -1.729  0.00  0.00     0.130 A 
ATOM      2  C2  DEN d   1       4.502  -0.298  -2.134  0.00  0.00    -0.031 A 
ATOM      3  C3  DEN d   1       3.810   0.859  -1.529  0.00  0.00     0.027 A 
ATOM      4  C4  DEN d   1       1.726   0.889  -0.011  0.00  0.00     0.027 A 
ATOM      5  C5  DEN d   1       0.769   0.108   0.599  0.00  0.00    -0.003 A 
ATOM      6  C6  DEN d   1       0.734  -1.253   0.448  0.00  0.00     0.001 A 
ATOM      7  C7  DEN d   1       1.701  -1.879  -0.293  0.00  0.00     0.017 A 
ATOM      8  C8  DEN d   1       2.664  -1.097  -0.917  0.00  0.00    -0.094 A 
ATOM      9  C9  DEN d   1       2.690   0.276  -0.743  0.00  0.00    -0.072 A 
ENDROOT
TORSDOF 0
ENDMDL
