MODEL 1
REMARK minimizedAffinity -1.99380958
REMARK minimizedRMSD -1
REMARK  0 active torsions:
REMARK  status: ('A' for Active; 'I' for Inactive)
ROOT
ATOM      1  C1  DEN d   1       1.887   1.436  -1.159  0.00  0.00     0.130 A 
ATOM      2  C2  DEN d   1       3.106   1.060  -1.870  0.00  0.00    -0.031 A 
ATOM      3  C3  DEN d   1       3.587  -0.218  -1.308  0.00  0.00     0.027 A 
ATOM      4  C4  DEN d   1       2.565  -1.647   0.580  0.00  0.00     0.027 A 
ATOM      5  C5  DEN d   1       1.538  -1.730   1.494  0.00  0.00    -0.003 A 
ATOM      6  C6  DEN d   1       0.583  -0.756   1.610  0.00  0.00     0.001 A 
ATOM      7  C7  DEN d   1       0.608   0.323   0.767  0.00  0.00     0.017 A 
ATOM      8  C8  DEN d   1       1.645   0.419  -0.152  0.00  0.00    -0.094 A 
ATOM      9  C9  DEN d   1       2.595  -0.583  -0.262  0.00  0.00    -0.072 A 
ENDROOT
TORSDOF 0
ENDMDL
