MODEL 1
REMARK minimizedAffinity 1.30824685
REMARK minimizedRMSD -1
REMARK  0 active torsions:
REMARK  status: ('A' for Active; 'I' for Inactive)
ROOT
ATOM      1  C1  DEN d   1       1.432  -1.195   0.285  0.00  0.00     0.130 A 
ATOM      2  C2  DEN d   1       0.728   0.001   0.738  0.00  0.00    -0.031 A 
ATOM      3  C3  DEN d   1       1.288   1.162   0.017  0.00  0.00     0.027 A 
ATOM      4  C4  DEN d   1       3.164   1.221  -1.752  0.00  0.00     0.027 A 
ATOM      5  C5  DEN d   1       4.070   0.457  -2.454  0.00  0.00    -0.003 A 
ATOM      6  C6  DEN d   1       4.183  -0.895  -2.268  0.00  0.00     0.001 A 
ATOM      7  C7  DEN d   1       3.345  -1.532  -1.392  0.00  0.00     0.017 A 
ATOM      8  C8  DEN d   1       2.433  -0.767  -0.676  0.00  0.00    -0.094 A 
ATOM      9  C9  DEN d   1       2.326   0.597  -0.886  0.00  0.00    -0.072 A 
ENDROOT
TORSDOF 0
ENDMDL
