MODEL 1
REMARK minimizedAffinity 1.06698275
REMARK minimizedRMSD -1
REMARK  0 active torsions:
REMARK  status: ('A' for Active; 'I' for Inactive)
ROOT
ATOM      1  C1  DEN d   1       1.552  -1.363   0.625  0.00  0.00     0.130 A 
ATOM      2  C2  DEN d   1       1.238  -0.065   1.215  0.00  0.00    -0.031 A 
ATOM      3  C3  DEN d   1       1.942   0.973   0.435  0.00  0.00     0.027 A 
ATOM      4  C4  DEN d   1       3.476   0.698  -1.620  0.00  0.00     0.027 A 
ATOM      5  C5  DEN d   1       4.050  -0.214  -2.478  0.00  0.00    -0.003 A 
ATOM      6  C6  DEN d   1       3.860  -1.563  -2.343  0.00  0.00     0.001 A 
ATOM      7  C7  DEN d   1       3.040  -2.038  -1.353  0.00  0.00     0.017 A 
ATOM      8  C8  DEN d   1       2.464  -1.125  -0.479  0.00  0.00    -0.094 A 
ATOM      9  C9  DEN d   1       2.658   0.236  -0.640  0.00  0.00    -0.072 A 
ENDROOT
TORSDOF 0
ENDMDL
