MODEL 1
REMARK minimizedAffinity -4.65293646
REMARK minimizedRMSD -1
REMARK  0 active torsions:
REMARK  status: ('A' for Active; 'I' for Inactive)
ROOT
ATOM      1  C1  DEN d   1       3.718  -1.325  -1.911  0.00  0.00     0.130 A 
ATOM      2  C2  DEN d   1       3.984  -0.034  -2.539  0.00  0.00    -0.031 A 
ATOM      3  C3  DEN d   1       3.151   0.982  -1.865  0.00  0.00     0.027 A 
ATOM      4  C4  DEN d   1       1.488   0.684   0.083  0.00  0.00     0.027 A 
ATOM      5  C5  DEN d   1       0.916  -0.229   0.941  0.00  0.00    -0.003 A 
ATOM      6  C6  DEN d   1       1.210  -1.566   0.887  0.00  0.00     0.001 A 
ATOM      7  C7  DEN d   1       2.134  -2.021  -0.016  0.00  0.00     0.017 A 
ATOM      8  C8  DEN d   1       2.709  -1.108  -0.889  0.00  0.00    -0.094 A 
ATOM      9  C9  DEN d   1       2.408   0.241  -0.810  0.00  0.00    -0.072 A 
ENDROOT
TORSDOF 0
ENDMDL
