MODEL 1
REMARK minimizedAffinity -4.51074314
REMARK minimizedRMSD -1
REMARK  0 active torsions:
REMARK  status: ('A' for Active; 'I' for Inactive)
ROOT
ATOM      1  C1  DEN d   1       3.357   1.137  -1.605  0.00  0.00     0.130 A 
ATOM      2  C2  DEN d   1       4.398   0.307  -2.203  0.00  0.00    -0.031 A 
ATOM      3  C3  DEN d   1       4.185  -1.085  -1.758  0.00  0.00     0.027 A 
ATOM      4  C4  DEN d   1       2.350  -2.031  -0.211  0.00  0.00     0.027 A 
ATOM      5  C5  DEN d   1       1.249  -1.709   0.551  0.00  0.00    -0.003 A 
ATOM      6  C6  DEN d   1       0.797  -0.422   0.674  0.00  0.00     0.001 A 
ATOM      7  C7  DEN d   1       1.422   0.585  -0.011  0.00  0.00     0.017 A 
ATOM      8  C8  DEN d   1       2.538   0.270  -0.776  0.00  0.00    -0.094 A 
ATOM      9  C9  DEN d   1       2.972  -1.039  -0.898  0.00  0.00    -0.072 A 
ENDROOT
TORSDOF 0
ENDMDL
