MODEL 1
REMARK minimizedAffinity -0.821106553
REMARK minimizedRMSD -1
REMARK  0 active torsions:
REMARK  status: ('A' for Active; 'I' for Inactive)
ROOT
ATOM      1  C1  DEN d   1       2.038   1.331  -1.650  0.00  0.00     0.130 A 
ATOM      2  C2  DEN d   1       3.054   0.748  -2.523  0.00  0.00    -0.031 A 
ATOM      3  C3  DEN d   1       3.370  -0.603  -2.016  0.00  0.00     0.027 A 
ATOM      4  C4  DEN d   1       2.388  -1.843   0.021  0.00  0.00     0.027 A 
ATOM      5  C5  DEN d   1       1.505  -1.748   1.074  0.00  0.00    -0.003 A 
ATOM      6  C6  DEN d   1       0.768  -0.618   1.310  0.00  0.00     0.001 A 
ATOM      7  C7  DEN d   1       0.869   0.449   0.456  0.00  0.00     0.017 A 
ATOM      8  C8  DEN d   1       1.763   0.364  -0.603  0.00  0.00    -0.094 A 
ATOM      9  C9  DEN d   1       2.489  -0.793  -0.833  0.00  0.00    -0.072 A 
ENDROOT
TORSDOF 0
ENDMDL
