MODEL 1
REMARK minimizedAffinity -1.18418431
REMARK minimizedRMSD -1
REMARK  0 active torsions:
REMARK  status: ('A' for Active; 'I' for Inactive)
ROOT
ATOM      1  C1  DEN d   1       4.514  -1.169  -1.538  0.00  0.00     0.130 A 
ATOM      2  C2  DEN d   1       5.067   0.097  -2.009  0.00  0.00    -0.031 A 
ATOM      3  C3  DEN d   1       4.184   1.184  -1.539  0.00  0.00     0.027 A 
ATOM      4  C4  DEN d   1       2.028   1.028  -0.133  0.00  0.00     0.027 A 
ATOM      5  C5  DEN d   1       1.156   0.165   0.493  0.00  0.00    -0.003 A 
ATOM      6  C6  DEN d   1       1.322  -1.194   0.458  0.00  0.00     0.001 A 
ATOM      7  C7  DEN d   1       2.410  -1.728  -0.180  0.00  0.00     0.017 A 
ATOM      8  C8  DEN d   1       3.290  -0.865  -0.820  0.00  0.00    -0.094 A 
ATOM      9  C9  DEN d   1       3.111   0.507  -0.762  0.00  0.00    -0.072 A 
ENDROOT
TORSDOF 0
ENDMDL
