MODEL 1
REMARK minimizedAffinity -2.59866118
REMARK minimizedRMSD -1
REMARK  0 active torsions:
REMARK  status: ('A' for Active; 'I' for Inactive)
ROOT
ATOM      1  C1  DEN d   1       3.744  -0.688  -1.552  0.00  0.00     0.130 A 
ATOM      2  C2  DEN d   1       3.788   0.625  -2.190  0.00  0.00    -0.031 A 
ATOM      3  C3  DEN d   1       2.592   1.379  -1.765  0.00  0.00     0.027 A 
ATOM      4  C4  DEN d   1       0.689   0.648  -0.184  0.00  0.00     0.027 A 
ATOM      5  C5  DEN d   1       0.209  -0.383   0.593  0.00  0.00    -0.003 A 
ATOM      6  C6  DEN d   1       0.850  -1.590   0.682  0.00  0.00     0.001 A 
ATOM      7  C7  DEN d   1       2.033  -1.781   0.017  0.00  0.00     0.017 A 
ATOM      8  C8  DEN d   1       2.520  -0.749  -0.774  0.00  0.00    -0.094 A 
ATOM      9  C9  DEN d   1       1.863   0.469  -0.841  0.00  0.00    -0.072 A 
ENDROOT
TORSDOF 0
ENDMDL
