MODEL 1
REMARK minimizedAffinity 1.74121916
REMARK minimizedRMSD -1
REMARK  0 active torsions:
REMARK  status: ('A' for Active; 'I' for Inactive)
ROOT
ATOM      1  C   UNL d   1      -3.474  -3.009   5.498  0.00  0.00     0.077 C 
ATOM      2  C1  UNL d   1      -2.755  -2.657   4.230  0.00  0.00    -0.074 A 
ATOM      3  C2  UNL d   1      -2.212  -3.652   3.412  0.00  0.00    -0.005 A 
ATOM      4  C3  UNL d   1      -1.554  -3.310   2.230  0.00  0.00     0.006 A 
ATOM      5  C4  UNL d   1      -1.434  -1.972   1.855  0.00  0.00    -0.005 A 
ATOM      6  C5  UNL d   1      -1.972  -0.963   2.660  0.00  0.00    -0.074 A 
ATOM      7  C6  UNL d   1      -1.860   0.480   2.266  0.00  0.00     0.077 C 
ATOM      8  C7  UNL d   1      -2.637  -1.315   3.842  0.00  0.00    -0.001 A 
ENDROOT
TORSDOF 0
ENDMDL
