MODEL 1
REMARK minimizedAffinity 4.43676186
REMARK minimizedRMSD -1
REMARK  0 active torsions:
REMARK  status: ('A' for Active; 'I' for Inactive)
ROOT
ATOM      1  C   UNL d   1       1.557   2.556  -3.539  0.00  0.00     0.077 C 
ATOM      2  C1  UNL d   1       1.826   3.752  -4.403  0.00  0.00    -0.074 A 
ATOM      3  C2  UNL d   1       0.803   4.343  -5.152  0.00  0.00    -0.005 A 
ATOM      4  C3  UNL d   1       1.067   5.461  -5.944  0.00  0.00     0.006 A 
ATOM      5  C4  UNL d   1       2.353   5.998  -5.995  0.00  0.00    -0.005 A 
ATOM      6  C5  UNL d   1       3.389   5.422  -5.253  0.00  0.00    -0.074 A 
ATOM      7  C6  UNL d   1       4.775   5.993  -5.289  0.00  0.00     0.077 C 
ATOM      8  C7  UNL d   1       3.115   4.303  -4.454  0.00  0.00    -0.001 A 
ENDROOT
TORSDOF 0
ENDMDL
