MODEL 1
REMARK minimizedAffinity 3.2209816
REMARK minimizedRMSD -1
REMARK  0 active torsions:
REMARK  status: ('A' for Active; 'I' for Inactive)
ROOT
ATOM      1  C   UNL d   1       3.041   5.690  -5.547  0.00  0.00     0.077 C 
ATOM      2  C1  UNL d   1       1.620   5.805  -5.082  0.00  0.00    -0.074 A 
ATOM      3  C2  UNL d   1       0.568   5.895  -6.000  0.00  0.00    -0.005 A 
ATOM      4  C3  UNL d   1      -0.750   5.992  -5.552  0.00  0.00     0.006 A 
ATOM      5  C4  UNL d   1      -1.028   6.000  -4.185  0.00  0.00    -0.005 A 
ATOM      6  C5  UNL d   1       0.010   5.910  -3.252  0.00  0.00    -0.074 A 
ATOM      7  C6  UNL d   1      -0.273   5.908  -1.780  0.00  0.00     0.077 C 
ATOM      8  C7  UNL d   1       1.331   5.806  -3.710  0.00  0.00    -0.001 A 
ENDROOT
TORSDOF 0
ENDMDL
