MODEL 1
REMARK minimizedAffinity -0.991681933
REMARK minimizedRMSD -1
REMARK  0 active torsions:
REMARK  status: ('A' for Active; 'I' for Inactive)
ROOT
ATOM      1  C   UNL d   1       0.611   5.994  -4.886  0.00  0.00     0.077 C 
ATOM      2  C1  UNL d   1      -0.564   5.988  -3.954  0.00  0.00    -0.074 A 
ATOM      3  C2  UNL d   1      -0.383   5.994  -2.567  0.00  0.00    -0.005 A 
ATOM      4  C3  UNL d   1      -1.485   5.997  -1.713  0.00  0.00     0.006 A 
ATOM      5  C4  UNL d   1      -2.779   5.996  -2.237  0.00  0.00    -0.005 A 
ATOM      6  C5  UNL d   1      -2.980   5.991  -3.620  0.00  0.00    -0.074 A 
ATOM      7  C6  UNL d   1      -4.364   6.000  -4.199  0.00  0.00     0.077 C 
ATOM      8  C7  UNL d   1      -1.867   5.995  -4.472  0.00  0.00    -0.001 A 
ENDROOT
TORSDOF 0
ENDMDL
