MODEL 1
REMARK minimizedAffinity -0.630671918
REMARK minimizedRMSD -1
REMARK  0 active torsions:
REMARK  status: ('A' for Active; 'I' for Inactive)
ROOT
ATOM      1  C   UNL d   1      -5.265   5.978  -3.905  0.00  0.00     0.077 C 
ATOM      2  C1  UNL d   1      -3.774   5.992  -3.742  0.00  0.00    -0.074 A 
ATOM      3  C2  UNL d   1      -3.190   5.996  -2.471  0.00  0.00    -0.005 A 
ATOM      4  C3  UNL d   1      -1.802   5.999  -2.335  0.00  0.00     0.006 A 
ATOM      5  C4  UNL d   1      -0.985   6.000  -3.466  0.00  0.00    -0.005 A 
ATOM      6  C5  UNL d   1      -1.551   5.996  -4.745  0.00  0.00    -0.074 A 
ATOM      7  C6  UNL d   1      -0.687   5.986  -5.971  0.00  0.00     0.077 C 
ATOM      8  C7  UNL d   1      -2.947   5.985  -4.874  0.00  0.00    -0.001 A 
ENDROOT
TORSDOF 0
ENDMDL
