MODEL 1
REMARK minimizedAffinity 0.491405725
REMARK minimizedRMSD -1
REMARK  0 active torsions:
REMARK  status: ('A' for Active; 'I' for Inactive)
ROOT
ATOM      1  C   UNL d   1      -1.440   6.000  -0.017  0.00  0.00     0.077 C 
ATOM      2  C1  UNL d   1      -1.810   5.992  -1.471  0.00  0.00    -0.074 A 
ATOM      3  C2  UNL d   1      -3.150   5.996  -1.871  0.00  0.00    -0.005 A 
ATOM      4  C3  UNL d   1      -3.479   5.998  -3.227  0.00  0.00     0.006 A 
ATOM      5  C4  UNL d   1      -2.473   5.996  -4.194  0.00  0.00    -0.005 A 
ATOM      6  C5  UNL d   1      -1.128   5.992  -3.812  0.00  0.00    -0.074 A 
ATOM      7  C6  UNL d   1      -0.034   6.000  -4.838  0.00  0.00     0.077 C 
ATOM      8  C7  UNL d   1      -0.805   5.997  -2.448  0.00  0.00    -0.001 A 
ENDROOT
TORSDOF 0
ENDMDL
