MODEL 1
REMARK minimizedAffinity 0.984671831
REMARK minimizedRMSD -1
REMARK  0 active torsions:
REMARK  status: ('A' for Active; 'I' for Inactive)
ROOT
ATOM      1  C   UNL d   1      -0.996   5.976  -1.879  0.00  0.00     0.077 C 
ATOM      2  C1  UNL d   1      -0.521   5.976  -3.301  0.00  0.00    -0.074 A 
ATOM      3  C2  UNL d   1      -1.431   5.986  -4.363  0.00  0.00    -0.005 A 
ATOM      4  C3  UNL d   1      -0.974   5.996  -5.681  0.00  0.00     0.006 A 
ATOM      5  C4  UNL d   1       0.395   5.996  -5.950  0.00  0.00    -0.005 A 
ATOM      6  C5  UNL d   1       1.320   5.987  -4.901  0.00  0.00    -0.074 A 
ATOM      7  C6  UNL d   1       2.795   5.996  -5.172  0.00  0.00     0.077 C 
ATOM      8  C7  UNL d   1       0.853   5.984  -3.579  0.00  0.00    -0.001 A 
ENDROOT
TORSDOF 0
ENDMDL
