MODEL 1
REMARK minimizedAffinity -0.562455118
REMARK minimizedRMSD -1
REMARK  0 active torsions:
REMARK  status: ('A' for Active; 'I' for Inactive)
ROOT
ATOM      1  C   UNL d   1       0.280   5.998  -5.280  0.00  0.00     0.077 C 
ATOM      2  C1  UNL d   1      -0.771   5.988  -4.210  0.00  0.00    -0.074 A 
ATOM      3  C2  UNL d   1      -0.419   5.997  -2.856  0.00  0.00    -0.005 A 
ATOM      4  C3  UNL d   1      -1.407   5.997  -1.872  0.00  0.00     0.006 A 
ATOM      5  C4  UNL d   1      -2.756   5.987  -2.231  0.00  0.00    -0.005 A 
ATOM      6  C5  UNL d   1      -3.127   5.979  -3.579  0.00  0.00    -0.074 A 
ATOM      7  C6  UNL d   1      -4.572   5.979  -3.982  0.00  0.00     0.077 C 
ATOM      8  C7  UNL d   1      -2.128   5.986  -4.562  0.00  0.00    -0.001 A 
ENDROOT
TORSDOF 0
ENDMDL
