MODEL 1
REMARK minimizedAffinity 4.10159779
REMARK minimizedRMSD -1
REMARK  0 active torsions:
REMARK  status: ('A' for Active; 'I' for Inactive)
ROOT
ATOM      1  C   UNL d   1       0.750   5.998  -5.528  0.00  0.00     0.077 C 
ATOM      2  C1  UNL d   1      -0.004   5.991  -4.232  0.00  0.00    -0.074 A 
ATOM      3  C2  UNL d   1       0.672   5.997  -3.007  0.00  0.00    -0.005 A 
ATOM      4  C3  UNL d   1      -0.042   6.000  -1.810  0.00  0.00     0.006 A 
ATOM      5  C4  UNL d   1      -1.438   5.997  -1.824  0.00  0.00    -0.005 A 
ATOM      6  C5  UNL d   1      -2.131   5.992  -3.038  0.00  0.00    -0.074 A 
ATOM      7  C6  UNL d   1      -3.630   6.000  -3.072  0.00  0.00     0.077 C 
ATOM      8  C7  UNL d   1      -1.406   5.997  -4.238  0.00  0.00    -0.001 A 
ENDROOT
TORSDOF 0
ENDMDL
