MODEL 1
REMARK minimizedAffinity -4.17375135
REMARK minimizedRMSD -1
REMARK  0 active torsions:
REMARK  status: ('A' for Active; 'I' for Inactive)
ROOT
ATOM      1  C   UNL d   1      -1.463   1.044   3.063  0.00  0.00     0.077 C 
ATOM      2  C1  UNL d   1      -0.262   1.099   2.166  0.00  0.00    -0.074 A 
ATOM      3  C2  UNL d   1      -0.394   1.394   0.806  0.00  0.00    -0.005 A 
ATOM      4  C3  UNL d   1       0.733   1.450  -0.014  0.00  0.00     0.006 A 
ATOM      5  C4  UNL d   1       2.001   1.213   0.517  0.00  0.00    -0.005 A 
ATOM      6  C5  UNL d   1       2.153   0.918   1.876  0.00  0.00    -0.074 A 
ATOM      7  C6  UNL d   1       3.509   0.670   2.465  0.00  0.00     0.077 C 
ATOM      8  C7  UNL d   1       1.016   0.870   2.695  0.00  0.00    -0.001 A 
ENDROOT
TORSDOF 0
ENDMDL
