MODEL 1
REMARK minimizedAffinity -1.99684715
REMARK minimizedRMSD -1
REMARK  0 active torsions:
REMARK  status: ('A' for Active; 'I' for Inactive)
ROOT
ATOM      1  C   UNL d   1       0.460   5.972  -5.913  0.00  0.00     0.077 C 
ATOM      2  C1  UNL d   1      -0.486   5.975  -4.749  0.00  0.00    -0.074 A 
ATOM      3  C2  UNL d   1      -0.009   5.987  -3.435  0.00  0.00    -0.005 A 
ATOM      4  C3  UNL d   1      -0.902   5.999  -2.363  0.00  0.00     0.006 A 
ATOM      5  C4  UNL d   1      -2.278   6.000  -2.594  0.00  0.00    -0.005 A 
ATOM      6  C5  UNL d   1      -2.773   5.989  -3.902  0.00  0.00    -0.074 A 
ATOM      7  C6  UNL d   1      -4.249   5.999  -4.168  0.00  0.00     0.077 C 
ATOM      8  C7  UNL d   1      -1.870   5.984  -4.974  0.00  0.00    -0.001 A 
ENDROOT
TORSDOF 0
ENDMDL
