MODEL 1
REMARK minimizedAffinity -2.32641411
REMARK minimizedRMSD -1
REMARK  0 active torsions:
REMARK  status: ('A' for Active; 'I' for Inactive)
ROOT
ATOM      1  C   UNL d   1      -1.566   6.000  -2.309  0.00  0.00     0.077 C 
ATOM      2  C1  UNL d   1      -0.809   5.873  -3.598  0.00  0.00    -0.074 A 
ATOM      3  C2  UNL d   1      -1.478   5.660  -4.807  0.00  0.00    -0.005 A 
ATOM      4  C3  UNL d   1      -0.762   5.554  -5.999  0.00  0.00     0.006 A 
ATOM      5  C4  UNL d   1       0.630   5.660  -5.993  0.00  0.00    -0.005 A 
ATOM      6  C5  UNL d   1       1.317   5.873  -4.794  0.00  0.00    -0.074 A 
ATOM      7  C6  UNL d   1       2.811   5.999  -4.772  0.00  0.00     0.077 C 
ATOM      8  C7  UNL d   1       0.589   5.986  -3.602  0.00  0.00    -0.001 A 
ENDROOT
TORSDOF 0
ENDMDL
