MODEL 1
REMARK minimizedAffinity 8.50647545
REMARK minimizedRMSD -1
REMARK  0 active torsions:
REMARK  status: ('A' for Active; 'I' for Inactive)
ROOT
ATOM      1  C   UNL d   1      -2.186  -1.748  -4.601  0.00  0.00     0.077 C 
ATOM      2  C1  UNL d   1      -2.668  -1.506  -3.201  0.00  0.00    -0.074 A 
ATOM      3  C2  UNL d   1      -2.177  -0.436  -2.447  0.00  0.00    -0.005 A 
ATOM      4  C3  UNL d   1      -2.642  -0.218  -1.150  0.00  0.00     0.006 A 
ATOM      5  C4  UNL d   1      -3.602  -1.066  -0.596  0.00  0.00    -0.005 A 
ATOM      6  C5  UNL d   1      -4.106  -2.140  -1.336  0.00  0.00    -0.074 A 
ATOM      7  C6  UNL d   1      -5.144  -3.055  -0.759  0.00  0.00     0.077 C 
ATOM      8  C7  UNL d   1      -3.638  -2.349  -2.641  0.00  0.00    -0.001 A 
ENDROOT
TORSDOF 0
ENDMDL
