MODEL 1
REMARK minimizedAffinity 2.66212201
REMARK minimizedRMSD -1
REMARK  0 active torsions:
REMARK  status: ('A' for Active; 'I' for Inactive)
ROOT
ATOM      1  C   UNL d   1       0.614   5.979  -4.746  0.00  0.00     0.077 C 
ATOM      2  C1  UNL d   1      -0.450   5.979  -3.689  0.00  0.00    -0.074 A 
ATOM      3  C2  UNL d   1      -0.115   5.989  -2.332  0.00  0.00    -0.005 A 
ATOM      4  C3  UNL d   1      -1.116   5.999  -1.360  0.00  0.00     0.006 A 
ATOM      5  C4  UNL d   1      -2.460   5.999  -1.736  0.00  0.00    -0.005 A 
ATOM      6  C5  UNL d   1      -2.814   5.990  -3.089  0.00  0.00    -0.074 A 
ATOM      7  C6  UNL d   1      -4.254   5.999  -3.510  0.00  0.00     0.077 C 
ATOM      8  C7  UNL d   1      -1.803   5.987  -4.059  0.00  0.00    -0.001 A 
ENDROOT
TORSDOF 0
ENDMDL
