MODEL 1
REMARK minimizedAffinity 0.0832981467
REMARK minimizedRMSD -1
REMARK  0 active torsions:
REMARK  status: ('A' for Active; 'I' for Inactive)
ROOT
ATOM      1  C   UNL d   1       5.633   3.214  -3.084  0.00  0.00     0.077 C 
ATOM      2  C1  UNL d   1       4.931   4.190  -3.980  0.00  0.00    -0.074 A 
ATOM      3  C2  UNL d   1       5.539   4.658  -5.150  0.00  0.00    -0.005 A 
ATOM      4  C3  UNL d   1       4.869   5.558  -5.979  0.00  0.00     0.006 A 
ATOM      5  C4  UNL d   1       3.588   6.000  -5.647  0.00  0.00    -0.005 A 
ATOM      6  C5  UNL d   1       2.964   5.543  -4.482  0.00  0.00    -0.074 A 
ATOM      7  C6  UNL d   1       1.583   6.000  -4.116  0.00  0.00     0.077 C 
ATOM      8  C7  UNL d   1       3.640   4.633  -3.658  0.00  0.00    -0.001 A 
ENDROOT
TORSDOF 0
ENDMDL
