MODEL 1
REMARK minimizedAffinity 4.89618254
REMARK minimizedRMSD -1
REMARK  0 active torsions:
REMARK  status: ('A' for Active; 'I' for Inactive)
ROOT
ATOM      1  C   UNL d   1      -2.422  -1.388  -4.736  0.00  0.00     0.077 C 
ATOM      2  C1  UNL d   1      -2.803  -1.422  -3.286  0.00  0.00    -0.074 A 
ATOM      3  C2  UNL d   1      -2.305  -0.472  -2.389  0.00  0.00    -0.005 A 
ATOM      4  C3  UNL d   1      -2.676  -0.511  -1.045  0.00  0.00     0.006 A 
ATOM      5  C4  UNL d   1      -3.547  -1.499  -0.585  0.00  0.00    -0.005 A 
ATOM      6  C5  UNL d   1      -4.055  -2.458  -1.467  0.00  0.00    -0.074 A 
ATOM      7  C6  UNL d   1      -5.000  -3.521  -0.991  0.00  0.00     0.077 C 
ATOM      8  C7  UNL d   1      -3.684  -2.407  -2.817  0.00  0.00    -0.001 A 
ENDROOT
TORSDOF 0
ENDMDL
