MODEL 1
REMARK minimizedAffinity -3.9520328
REMARK minimizedRMSD -1
REMARK  0 active torsions:
REMARK  status: ('A' for Active; 'I' for Inactive)
ROOT
ATOM      1  C   UNL d   1       2.241   5.946  -4.950  0.00  0.00     0.077 C 
ATOM      2  C1  UNL d   1       0.746   5.971  -4.842  0.00  0.00    -0.074 A 
ATOM      3  C2  UNL d   1      -0.058   5.974  -5.987  0.00  0.00    -0.005 A 
ATOM      4  C3  UNL d   1      -1.447   5.988  -5.871  0.00  0.00     0.006 A 
ATOM      5  C4  UNL d   1      -2.047   6.000  -4.611  0.00  0.00    -0.005 A 
ATOM      6  C5  UNL d   1      -1.260   5.996  -3.455  0.00  0.00    -0.074 A 
ATOM      7  C6  UNL d   1      -1.889   5.999  -2.093  0.00  0.00     0.077 C 
ATOM      8  C7  UNL d   1       0.136   5.975  -3.580  0.00  0.00    -0.001 A 
ENDROOT
TORSDOF 0
ENDMDL
