MODEL 1
REMARK minimizedAffinity 0.713609934
REMARK minimizedRMSD -1
REMARK  0 active torsions:
REMARK  status: ('A' for Active; 'I' for Inactive)
ROOT
ATOM      1  C   UNL d   1       1.194   5.855  -5.994  0.00  0.00     0.077 C 
ATOM      2  C1  UNL d   1      -0.120   5.912  -5.273  0.00  0.00    -0.074 A 
ATOM      3  C2  UNL d   1      -1.327   5.935  -5.980  0.00  0.00    -0.005 A 
ATOM      4  C3  UNL d   1      -2.542   5.978  -5.295  0.00  0.00     0.006 A 
ATOM      5  C4  UNL d   1      -2.562   5.999  -3.900  0.00  0.00    -0.005 A 
ATOM      6  C5  UNL d   1      -1.365   5.976  -3.177  0.00  0.00    -0.074 A 
ATOM      7  C6  UNL d   1      -1.369   5.989  -1.677  0.00  0.00     0.077 C 
ATOM      8  C7  UNL d   1      -0.149   5.926  -3.872  0.00  0.00    -0.001 A 
ENDROOT
TORSDOF 0
ENDMDL
