MODEL 1
REMARK minimizedAffinity -3.17653394
REMARK minimizedRMSD -1
REMARK  0 active torsions:
REMARK  status: ('A' for Active; 'I' for Inactive)
ROOT
ATOM      1  C   UNL d   1       0.644  -1.433  -1.467  0.00  0.00     0.078 C 
ATOM      2  C1  UNL d   1       0.251  -0.301  -0.567  0.00  0.00    -0.077 A 
ATOM      3  C2  UNL d   1      -0.576  -0.515   0.543  0.00  0.00    -0.001 A 
ATOM      4  C3  UNL d   1      -0.942   0.550   1.367  0.00  0.00     0.003 A 
ATOM      5  C4  UNL d   1      -0.487   1.838   1.089  0.00  0.00    -0.005 A 
ATOM      6  C5  UNL d   1       0.334   2.061  -0.014  0.00  0.00     0.003 A 
ATOM      7  C6  UNL d   1       0.701   0.997  -0.839  0.00  0.00    -0.001 A 
ENDROOT
TORSDOF 0
ENDMDL
