MODEL 1
REMARK minimizedAffinity -4.1185236
REMARK minimizedRMSD -1
REMARK  0 active torsions:
REMARK  status: ('A' for Active; 'I' for Inactive)
ROOT
ATOM      1  C   UNL d   1       0.806  -3.766  -0.128  0.00  0.00     0.078 C 
ATOM      2  C1  UNL d   1       0.159  -2.471   0.262  0.00  0.00    -0.077 A 
ATOM      3  C2  UNL d   1       0.426  -1.291  -0.442  0.00  0.00    -0.001 A 
ATOM      4  C3  UNL d   1      -0.176  -0.090  -0.061  0.00  0.00     0.003 A 
ATOM      5  C4  UNL d   1      -1.049  -0.059   1.025  0.00  0.00    -0.005 A 
ATOM      6  C5  UNL d   1      -1.319  -1.228   1.733  0.00  0.00     0.003 A 
ATOM      7  C6  UNL d   1      -0.718  -2.430   1.354  0.00  0.00    -0.001 A 
ENDROOT
TORSDOF 0
ENDMDL
