MODEL 1
REMARK minimizedAffinity -4.88557768
REMARK minimizedRMSD -1
REMARK  0 active torsions:
REMARK  status: ('A' for Active; 'I' for Inactive)
ROOT
ATOM      1  C   UNL d   1       0.319  -3.331   0.751  0.00  0.00     0.078 C 
ATOM      2  C1  UNL d   1       0.199  -1.921   0.255  0.00  0.00    -0.077 A 
ATOM      3  C2  UNL d   1      -0.146  -0.878   1.123  0.00  0.00    -0.001 A 
ATOM      4  C3  UNL d   1      -0.264   0.428   0.645  0.00  0.00     0.003 A 
ATOM      5  C4  UNL d   1      -0.039   0.703  -0.702  0.00  0.00    -0.005 A 
ATOM      6  C5  UNL d   1       0.303  -0.329  -1.574  0.00  0.00     0.003 A 
ATOM      7  C6  UNL d   1       0.421  -1.635  -1.098  0.00  0.00    -0.001 A 
ENDROOT
TORSDOF 0
ENDMDL
