MODEL 1
REMARK minimizedAffinity -2.38591647
REMARK minimizedRMSD -1
REMARK  0 active torsions:
REMARK  status: ('A' for Active; 'I' for Inactive)
ROOT
ATOM      1  C   UNL d   1       0.014   1.173   0.554  0.00  0.00     0.078 C 
ATOM      2  C1  UNL d   1      -0.016  -0.311   0.344  0.00  0.00    -0.077 A 
ATOM      3  C2  UNL d   1       1.030  -0.968  -0.315  0.00  0.00    -0.001 A 
ATOM      4  C3  UNL d   1       0.983  -2.349  -0.512  0.00  0.00     0.003 A 
ATOM      5  C4  UNL d   1      -0.108  -3.085  -0.054  0.00  0.00    -0.005 A 
ATOM      6  C5  UNL d   1      -1.154  -2.440   0.602  0.00  0.00     0.003 A 
ATOM      7  C6  UNL d   1      -1.110  -1.059   0.800  0.00  0.00    -0.001 A 
ENDROOT
TORSDOF 0
ENDMDL
