MODEL 1
REMARK minimizedAffinity -4.47381973
REMARK minimizedRMSD -1
REMARK  0 active torsions:
REMARK  status: ('A' for Active; 'I' for Inactive)
ROOT
ATOM      1  C   UNL d   1      -0.055   0.898  -0.236  0.00  0.00     0.078 C 
ATOM      2  C1  UNL d   1      -0.068  -0.549   0.158  0.00  0.00    -0.077 A 
ATOM      3  C2  UNL d   1       0.942  -1.421  -0.266  0.00  0.00    -0.001 A 
ATOM      4  C3  UNL d   1       0.912  -2.768   0.100  0.00  0.00     0.003 A 
ATOM      5  C4  UNL d   1      -0.127  -3.255   0.891  0.00  0.00    -0.005 A 
ATOM      6  C5  UNL d   1      -1.138  -2.395   1.315  0.00  0.00     0.003 A 
ATOM      7  C6  UNL d   1      -1.110  -1.048   0.950  0.00  0.00    -0.001 A 
ENDROOT
TORSDOF 0
ENDMDL
