MODEL 1
REMARK minimizedAffinity -4.93585396
REMARK minimizedRMSD -1
REMARK  0 active torsions:
REMARK  status: ('A' for Active; 'I' for Inactive)
ROOT
ATOM      1  C   UNL d   1      -1.106   0.149   1.773  0.00  0.00     0.078 C 
ATOM      2  C1  UNL d   1      -0.505  -0.828   0.807  0.00  0.00    -0.077 A 
ATOM      3  C2  UNL d   1       0.212  -0.388  -0.312  0.00  0.00    -0.001 A 
ATOM      4  C3  UNL d   1       0.758  -1.309  -1.208  0.00  0.00     0.003 A 
ATOM      5  C4  UNL d   1       0.591  -2.676  -0.995  0.00  0.00    -0.005 A 
ATOM      6  C5  UNL d   1      -0.124  -3.123   0.114  0.00  0.00     0.003 A 
ATOM      7  C6  UNL d   1      -0.670  -2.204   1.011  0.00  0.00    -0.001 A 
ENDROOT
TORSDOF 0
ENDMDL
