MODEL 1
REMARK minimizedAffinity -5.67709732
REMARK minimizedRMSD -1
REMARK  0 active torsions:
REMARK  status: ('A' for Active; 'I' for Inactive)
ROOT
ATOM      1  C   UNL d   1       0.096   1.423  -0.430  0.00  0.00     0.078 C 
ATOM      2  C1  UNL d   1       0.003  -0.019  -0.030  0.00  0.00    -0.077 A 
ATOM      3  C2  UNL d   1      -1.017  -0.467   0.817  0.00  0.00    -0.001 A 
ATOM      4  C3  UNL d   1      -1.086  -1.811   1.189  0.00  0.00     0.003 A 
ATOM      5  C4  UNL d   1      -0.137  -2.716   0.721  0.00  0.00    -0.005 A 
ATOM      6  C5  UNL d   1       0.884  -2.279  -0.121  0.00  0.00     0.003 A 
ATOM      7  C6  UNL d   1       0.955  -0.936  -0.494  0.00  0.00    -0.001 A 
ENDROOT
TORSDOF 0
ENDMDL
