MODEL 1
REMARK minimizedAffinity -1.11800289
REMARK minimizedRMSD -1
REMARK  0 active torsions:
REMARK  status: ('A' for Active; 'I' for Inactive)
ROOT
ATOM      1  C   UNL d   1       0.454   2.984   0.709  0.00  0.00     0.078 C 
ATOM      2  C1  UNL d   1       0.379   1.677  -0.023  0.00  0.00    -0.077 A 
ATOM      3  C2  UNL d   1       0.408   0.461   0.669  0.00  0.00    -0.001 A 
ATOM      4  C3  UNL d   1       0.347  -0.748  -0.025  0.00  0.00     0.003 A 
ATOM      5  C4  UNL d   1       0.258  -0.752  -1.416  0.00  0.00    -0.005 A 
ATOM      6  C5  UNL d   1       0.231   0.453  -2.114  0.00  0.00     0.003 A 
ATOM      7  C6  UNL d   1       0.292   1.663  -1.420  0.00  0.00    -0.001 A 
ENDROOT
TORSDOF 0
ENDMDL
