MODEL 1
REMARK minimizedAffinity -5.80206251
REMARK minimizedRMSD -1
REMARK  0 active torsions:
REMARK  status: ('A' for Active; 'I' for Inactive)
ROOT
ATOM      1  C   UNL d   1       0.038  -3.649   0.344  0.00  0.00     0.078 C 
ATOM      2  C1  UNL d   1      -0.168  -2.176   0.152  0.00  0.00    -0.077 A 
ATOM      3  C2  UNL d   1       0.437  -1.497  -0.914  0.00  0.00    -0.001 A 
ATOM      4  C3  UNL d   1       0.245  -0.124  -1.075  0.00  0.00     0.003 A 
ATOM      5  C4  UNL d   1      -0.550   0.582  -0.175  0.00  0.00    -0.005 A 
ATOM      6  C5  UNL d   1      -1.154  -0.085   0.890  0.00  0.00     0.003 A 
ATOM      7  C6  UNL d   1      -0.963  -1.458   1.053  0.00  0.00    -0.001 A 
ENDROOT
TORSDOF 0
ENDMDL
