MODEL 1
REMARK minimizedAffinity -4.99684
REMARK minimizedRMSD -1
REMARK  0 active torsions:
REMARK  status: ('A' for Active; 'I' for Inactive)
ROOT
ATOM      1  C   UNL d   1      -0.030  -3.089   0.653  0.00  0.00     0.078 C 
ATOM      2  C1  UNL d   1      -0.279  -1.624   0.451  0.00  0.00    -0.077 A 
ATOM      3  C2  UNL d   1       0.428  -0.899  -0.516  0.00  0.00    -0.001 A 
ATOM      4  C3  UNL d   1       0.193   0.466  -0.686  0.00  0.00     0.003 A 
ATOM      5  C4  UNL d   1      -0.749   1.118   0.107  0.00  0.00    -0.005 A 
ATOM      6  C5  UNL d   1      -1.456   0.405   1.073  0.00  0.00     0.003 A 
ATOM      7  C6  UNL d   1      -1.222  -0.960   1.245  0.00  0.00    -0.001 A 
ENDROOT
TORSDOF 0
ENDMDL
