MODEL 1
REMARK minimizedAffinity -5.44336557
REMARK minimizedRMSD -1
REMARK  0 active torsions:
REMARK  status: ('A' for Active; 'I' for Inactive)
ROOT
ATOM      1  C   UNL d   1      -0.175   1.218  -0.337  0.00  0.00     0.078 C 
ATOM      2  C1  UNL d   1      -0.015  -0.273  -0.296  0.00  0.00    -0.077 A 
ATOM      3  C2  UNL d   1      -0.471  -1.017   0.799  0.00  0.00    -0.001 A 
ATOM      4  C3  UNL d   1      -0.307  -2.403   0.828  0.00  0.00     0.003 A 
ATOM      5  C4  UNL d   1       0.315  -3.056  -0.234  0.00  0.00    -0.005 A 
ATOM      6  C5  UNL d   1       0.774  -2.324  -1.327  0.00  0.00     0.003 A 
ATOM      7  C6  UNL d   1       0.611  -0.938  -1.358  0.00  0.00    -0.001 A 
ENDROOT
TORSDOF 0
ENDMDL
