MODEL 1
REMARK minimizedAffinity -4.74782944
REMARK minimizedRMSD -1
REMARK  0 active torsions:
REMARK  status: ('A' for Active; 'I' for Inactive)
ROOT
ATOM      1  C   UNL d   1       0.840  -3.042   0.837  0.00  0.00     0.078 C 
ATOM      2  C1  UNL d   1       0.367  -1.672   0.451  0.00  0.00    -0.077 A 
ATOM      3  C2  UNL d   1      -0.730  -1.081   1.091  0.00  0.00    -0.001 A 
ATOM      4  C3  UNL d   1      -1.165   0.191   0.715  0.00  0.00     0.003 A 
ATOM      5  C4  UNL d   1      -0.510   0.882  -0.303  0.00  0.00    -0.005 A 
ATOM      6  C5  UNL d   1       0.580   0.301  -0.947  0.00  0.00     0.003 A 
ATOM      7  C6  UNL d   1       1.017  -0.971  -0.572  0.00  0.00    -0.001 A 
ENDROOT
TORSDOF 0
ENDMDL
