MODEL 1
REMARK minimizedAffinity -4.66500092
REMARK minimizedRMSD -1
REMARK  0 active torsions:
REMARK  status: ('A' for Active; 'I' for Inactive)
ROOT
ATOM      1  C   UNL d   1       0.465   1.592  -0.254  0.00  0.00     0.078 C 
ATOM      2  C1  UNL d   1       0.201   0.121  -0.127  0.00  0.00    -0.077 A 
ATOM      3  C2  UNL d   1      -0.541  -0.388   0.946  0.00  0.00    -0.001 A 
ATOM      4  C3  UNL d   1      -0.771  -1.760   1.057  0.00  0.00     0.003 A 
ATOM      5  C4  UNL d   1      -0.260  -2.635   0.100  0.00  0.00    -0.005 A 
ATOM      6  C5  UNL d   1       0.482  -2.137  -0.970  0.00  0.00     0.003 A 
ATOM      7  C6  UNL d   1       0.712  -0.765  -1.082  0.00  0.00    -0.001 A 
ENDROOT
TORSDOF 0
ENDMDL
