MODEL 1
REMARK minimizedAffinity -4.07825327
REMARK minimizedRMSD -1
REMARK  0 active torsions:
REMARK  status: ('A' for Active; 'I' for Inactive)
ROOT
ATOM      1  N1  IND d   1       0.194  -0.663  -0.683  0.00  0.00    -0.196 N 
ATOM      2  C2  IND d   1      -0.980  -0.109  -0.255  0.00  0.00     0.054 A 
ATOM      3  C3  IND d   1      -1.010  -0.055   1.095  0.00  0.00    -0.031 A 
ATOM      4  C4  IND d   1       0.798  -0.726   2.800  0.00  0.00     0.051 A 
ATOM      5  C5  IND d   1       2.028  -1.315   2.890  0.00  0.00    -0.031 A 
ATOM      6  C6  IND d   1       2.725  -1.723   1.770  0.00  0.00     0.015 A 
ATOM      7  C7  IND d   1       2.220  -1.546   0.513  0.00  0.00    -0.016 A 
ATOM      8  C8  IND d   1       0.968  -0.954   0.419  0.00  0.00    -0.047 A 
ATOM      9  C9  IND d   1       0.238  -0.577   1.553  0.00  0.00    -0.096 A 
ATOM     10  HN1 IND d   1       0.412  -0.807  -1.502  0.00  0.00     0.298 HD
ENDROOT
TORSDOF 0
ENDMDL
