MODEL 1
REMARK minimizedAffinity -3.44002199
REMARK minimizedRMSD -1
REMARK  0 active torsions:
REMARK  status: ('A' for Active; 'I' for Inactive)
ROOT
ATOM      1  N1  IND d   1       1.671  -0.627   1.984  0.00  0.00    -0.196 N 
ATOM      2  C2  IND d   1       0.753  -0.673   2.996  0.00  0.00     0.054 A 
ATOM      3  C3  IND d   1      -0.497  -0.516   2.506  0.00  0.00    -0.031 A 
ATOM      4  C4  IND d   1      -1.277  -0.271   0.064  0.00  0.00     0.051 A 
ATOM      5  C5  IND d   1      -0.801  -0.137  -1.210  0.00  0.00    -0.031 A 
ATOM      6  C6  IND d   1       0.550  -0.162  -1.491  0.00  0.00     0.015 A 
ATOM      7  C7  IND d   1       1.479  -0.335  -0.504  0.00  0.00    -0.016 A 
ATOM      8  C8  IND d   1       1.000  -0.465   0.792  0.00  0.00    -0.047 A 
ATOM      9  C9  IND d   1      -0.367  -0.397   1.088  0.00  0.00    -0.096 A 
ATOM     10  HN1 IND d   1       2.523  -0.689   2.077  0.00  0.00     0.298 HD
ENDROOT
TORSDOF 0
ENDMDL
