MODEL 1
REMARK minimizedAffinity -3.80232763
REMARK minimizedRMSD -1
REMARK  0 active torsions:
REMARK  status: ('A' for Active; 'I' for Inactive)
ROOT
ATOM      1  N1  IND d   1       1.147  -1.492  -1.586  0.00  0.00    -0.196 N 
ATOM      2  C2  IND d   1       2.427  -1.672  -1.142  0.00  0.00     0.054 A 
ATOM      3  C3  IND d   1       2.502  -1.433   0.187  0.00  0.00    -0.031 A 
ATOM      4  C4  IND d   1       0.630  -0.833   1.849  0.00  0.00     0.051 A 
ATOM      5  C5  IND d   1      -0.700  -0.523   1.907  0.00  0.00    -0.031 A 
ATOM      6  C6  IND d   1      -1.499  -0.523   0.782  0.00  0.00     0.015 A 
ATOM      7  C7  IND d   1      -0.998  -0.846  -0.447  0.00  0.00    -0.016 A 
ATOM      8  C8  IND d   1       0.354  -1.154  -0.512  0.00  0.00    -0.047 A 
ATOM      9  C9  IND d   1       1.179  -1.114   0.620  0.00  0.00    -0.096 A 
ATOM     10  HN1 IND d   1       0.882  -1.576  -2.400  0.00  0.00     0.298 HD
ENDROOT
TORSDOF 0
ENDMDL
