MODEL 1
REMARK minimizedAffinity -4.42900133
REMARK minimizedRMSD -1
REMARK  0 active torsions:
REMARK  status: ('A' for Active; 'I' for Inactive)
ROOT
ATOM      1  N1  IND d   1       1.130  -0.173  -1.207  0.00  0.00    -0.196 N 
ATOM      2  C2  IND d   1       0.000   0.202  -1.880  0.00  0.00     0.054 A 
ATOM      3  C3  IND d   1      -1.045   0.298  -1.028  0.00  0.00    -0.031 A 
ATOM      4  C4  IND d   1      -1.106  -0.016   1.527  0.00  0.00     0.051 A 
ATOM      5  C5  IND d   1      -0.329  -0.398   2.584  0.00  0.00    -0.031 A 
ATOM      6  C6  IND d   1       1.002  -0.728   2.429  0.00  0.00     0.015 A 
ATOM      7  C7  IND d   1       1.611  -0.678   1.207  0.00  0.00    -0.016 A 
ATOM      8  C8  IND d   1       0.823  -0.297   0.130  0.00  0.00    -0.047 A 
ATOM      9  C9  IND d   1      -0.539  -0.002   0.274  0.00  0.00    -0.096 A 
ATOM     10  HN1 IND d   1       1.902  -0.308  -1.560  0.00  0.00     0.298 HD
ENDROOT
TORSDOF 0
ENDMDL
