MODEL 1
REMARK minimizedAffinity -5.04829645
REMARK minimizedRMSD -1
REMARK  0 active torsions:
REMARK  status: ('A' for Active; 'I' for Inactive)
ROOT
ATOM      1  N1  IND d   1       1.864  -0.752   2.024  0.00  0.00    -0.196 N 
ATOM      2  C2  IND d   1       1.130  -0.610   3.169  0.00  0.00     0.054 A 
ATOM      3  C3  IND d   1      -0.162  -0.351   2.870  0.00  0.00    -0.031 A 
ATOM      4  C4  IND d   1      -1.314  -0.216   0.571  0.00  0.00     0.051 A 
ATOM      5  C5  IND d   1      -1.049  -0.241  -0.769  0.00  0.00    -0.031 A 
ATOM      6  C6  IND d   1       0.226  -0.444  -1.257  0.00  0.00     0.015 A 
ATOM      7  C7  IND d   1       1.286  -0.642  -0.419  0.00  0.00    -0.016 A 
ATOM      8  C8  IND d   1       1.022  -0.611   0.943  0.00  0.00    -0.047 A 
ATOM      9  C9  IND d   1      -0.262  -0.362   1.445  0.00  0.00    -0.096 A 
ATOM     10  HN1 IND d   1       2.710  -0.904   1.986  0.00  0.00     0.298 HD
ENDROOT
TORSDOF 0
ENDMDL
