MODEL 1
REMARK minimizedAffinity -3.49939108
REMARK minimizedRMSD -1
REMARK  0 active torsions:
REMARK  status: ('A' for Active; 'I' for Inactive)
ROOT
ATOM      1  N1  IND d   1      -1.316  -0.334   0.089  0.00  0.00    -0.196 N 
ATOM      2  C2  IND d   1      -0.800   0.113  -1.096  0.00  0.00     0.054 A 
ATOM      3  C3  IND d   1       0.503   0.442  -0.948  0.00  0.00    -0.031 A 
ATOM      4  C4  IND d   1       2.018   0.230   1.123  0.00  0.00     0.051 A 
ATOM      5  C5  IND d   1       1.989  -0.094   2.450  0.00  0.00    -0.031 A 
ATOM      6  C6  IND d   1       0.834  -0.525   3.071  0.00  0.00     0.015 A 
ATOM      7  C7  IND d   1      -0.337  -0.660   2.381  0.00  0.00    -0.016 A 
ATOM      8  C8  IND d   1      -0.313  -0.326   1.034  0.00  0.00    -0.047 A 
ATOM      9  C9  IND d   1       0.845   0.153   0.409  0.00  0.00    -0.096 A 
ATOM     10  HN1 IND d   1      -2.129  -0.579   0.222  0.00  0.00     0.298 HD
ENDROOT
TORSDOF 0
ENDMDL
