MODEL 1
REMARK minimizedAffinity -2.1502502
REMARK minimizedRMSD -1
REMARK  0 active torsions:
REMARK  status: ('A' for Active; 'I' for Inactive)
ROOT
ATOM      1  N1  IND d   1       2.074  -0.571   1.446  0.00  0.00    -0.196 N 
ATOM      2  C2  IND d   1       1.577  -0.708   2.712  0.00  0.00     0.054 A 
ATOM      3  C3  IND d   1       0.255  -0.425   2.732  0.00  0.00    -0.031 A 
ATOM      4  C4  IND d   1      -1.316   0.185   0.786  0.00  0.00     0.051 A 
ATOM      5  C5  IND d   1      -1.316   0.466  -0.551  0.00  0.00    -0.031 A 
ATOM      6  C6  IND d   1      -0.162   0.412  -1.307  0.00  0.00     0.015 A 
ATOM      7  C7  IND d   1       1.037   0.063  -0.753  0.00  0.00    -0.016 A 
ATOM      8  C8  IND d   1       1.041  -0.217   0.606  0.00  0.00    -0.047 A 
ATOM      9  C9  IND d   1      -0.118  -0.123   1.387  0.00  0.00    -0.096 A 
ATOM     10  HN1 IND d   1       2.893  -0.686   1.214  0.00  0.00     0.298 HD
ENDROOT
TORSDOF 0
ENDMDL
