MODEL 1
REMARK minimizedAffinity -2.19563937
REMARK minimizedRMSD -1
REMARK  0 active torsions:
REMARK  status: ('A' for Active; 'I' for Inactive)
ROOT
ATOM      1  N1  IND d   1       1.014   0.538  -0.097  0.00  0.00    -0.196 N 
ATOM      2  C2  IND d   1       0.078  -0.336   0.381  0.00  0.00     0.054 A 
ATOM      3  C3  IND d   1      -1.128  -0.085  -0.176  0.00  0.00    -0.031 A 
ATOM      4  C4  IND d   1      -1.772   1.646  -1.969  0.00  0.00     0.051 A 
ATOM      5  C5  IND d   1      -1.266   2.694  -2.686  0.00  0.00    -0.031 A 
ATOM      6  C6  IND d   1       0.053   3.083  -2.576  0.00  0.00     0.015 A 
ATOM      7  C7  IND d   1       0.922   2.428  -1.750  0.00  0.00    -0.016 A 
ATOM      8  C8  IND d   1       0.410   1.368  -1.015  0.00  0.00    -0.047 A 
ATOM      9  C9  IND d   1      -0.938   0.996  -1.091  0.00  0.00    -0.096 A 
ATOM     10  HN1 IND d   1       1.841   0.565   0.138  0.00  0.00     0.298 HD
ENDROOT
TORSDOF 0
ENDMDL
