MODEL 1
REMARK minimizedAffinity -1.73007369
REMARK minimizedRMSD -1
REMARK  1 active torsions:
REMARK  status: ('A' for Active; 'I' for Inactive)
REMARK    1  A    between atoms: C1_2  and  C2_3 
ROOT
ATOM      1  C2  UNL d   1       0.098   3.273   0.549  0.00  0.00    -0.073 A 
ATOM      2  C3  UNL d   1       1.051   3.607   1.517  0.00  0.00    -0.002 A 
ATOM      3  C4  UNL d   1       0.877   3.212   2.844  0.00  0.00     0.004 A 
ATOM      4  C5  UNL d   1      -0.248   2.474   3.215  0.00  0.00    -0.004 A 
ATOM      5  C6  UNL d   1      -1.206   2.120   2.259  0.00  0.00    -0.075 A 
ATOM      6  C7  UNL d   1      -2.422   1.329   2.642  0.00  0.00     0.076 C 
ATOM      7  C8  UNL d   1      -1.025   2.523   0.929  0.00  0.00     0.001 A 
ENDROOT
BRANCH   1   8
ATOM      8  C1  UNL d   1       0.285   3.692  -0.886  0.00  0.00     0.053 C 
ATOM      9  C   UNL d   1      -0.828   3.172  -1.782  0.00  0.00     0.018 C 
ENDBRANCH   1   8
TORSDOF 1
ENDMDL
