MODEL 1
REMARK minimizedAffinity 9.1657486
REMARK minimizedRMSD -1
REMARK  1 active torsions:
REMARK  status: ('A' for Active; 'I' for Inactive)
REMARK    1  A    between atoms: C1_2  and  C2_3 
ROOT
ATOM      1  C2  UNL d   1       0.083   2.233   0.196  0.00  0.00    -0.073 A 
ATOM      2  C3  UNL d   1       0.750   3.432   0.471  0.00  0.00    -0.002 A 
ATOM      3  C4  UNL d   1       0.804   4.444  -0.489  0.00  0.00     0.004 A 
ATOM      4  C5  UNL d   1       0.188   4.269  -1.729  0.00  0.00    -0.004 A 
ATOM      5  C6  UNL d   1      -0.493   3.082  -2.017  0.00  0.00    -0.075 A 
ATOM      6  C7  UNL d   1      -1.158   2.878  -3.346  0.00  0.00     0.076 C 
ATOM      7  C8  UNL d   1      -0.541   2.070  -1.049  0.00  0.00     0.001 A 
ENDROOT
BRANCH   1   8
ATOM      8  C1  UNL d   1       0.016   1.140   1.232  0.00  0.00     0.053 C 
ATOM      9  C   UNL d   1      -1.283   1.182   2.021  0.00  0.00     0.018 C 
ENDBRANCH   1   8
TORSDOF 1
ENDMDL
