MODEL 1
REMARK minimizedAffinity 5.00789309
REMARK minimizedRMSD -1
REMARK  1 active torsions:
REMARK  status: ('A' for Active; 'I' for Inactive)
REMARK    1  A    between atoms: C1_2  and  C2_3 
ROOT
ATOM      1  C2  UNL d   1      -5.451  -3.998   3.253  0.00  0.00    -0.073 A 
ATOM      2  C3  UNL d   1      -5.980  -5.082   3.962  0.00  0.00    -0.002 A 
ATOM      3  C4  UNL d   1      -5.703  -5.238   5.321  0.00  0.00     0.004 A 
ATOM      4  C5  UNL d   1      -4.902  -4.309   5.985  0.00  0.00    -0.004 A 
ATOM      5  C6  UNL d   1      -4.374  -3.212   5.296  0.00  0.00    -0.075 A 
ATOM      6  C7  UNL d   1      -3.509  -2.205   5.995  0.00  0.00     0.076 C 
ATOM      7  C8  UNL d   1      -4.655  -3.064   3.931  0.00  0.00     0.001 A 
ENDROOT
BRANCH   1   8
ATOM      8  C1  UNL d   1      -5.753  -3.822   1.787  0.00  0.00     0.053 C 
ATOM      9  C   UNL d   1      -5.499  -2.398   1.319  0.00  0.00     0.018 C 
ENDBRANCH   1   8
TORSDOF 1
ENDMDL
