MODEL 1
REMARK minimizedAffinity 3.10060763
REMARK minimizedRMSD -1
REMARK  1 active torsions:
REMARK  status: ('A' for Active; 'I' for Inactive)
REMARK    1  A    between atoms: C1_2  and  C2_3 
ROOT
ATOM      1  C2  UNL d   1      -4.335  -2.924   5.289  0.00  0.00    -0.073 A 
ATOM      2  C3  UNL d   1      -4.912  -3.983   6.000  0.00  0.00    -0.002 A 
ATOM      3  C4  UNL d   1      -5.676  -4.944   5.337  0.00  0.00     0.004 A 
ATOM      4  C5  UNL d   1      -5.864  -4.861   3.957  0.00  0.00    -0.004 A 
ATOM      5  C6  UNL d   1      -5.285  -3.818   3.227  0.00  0.00    -0.075 A 
ATOM      6  C7  UNL d   1      -5.480  -3.714   1.743  0.00  0.00     0.076 C 
ATOM      7  C8  UNL d   1      -4.522  -2.855   3.901  0.00  0.00     0.001 A 
ENDROOT
BRANCH   1   8
ATOM      8  C1  UNL d   1      -3.504  -1.888   6.000  0.00  0.00     0.053 C 
ATOM      9  C   UNL d   1      -2.647  -1.084   5.035  0.00  0.00     0.018 C 
ENDBRANCH   1   8
TORSDOF 1
ENDMDL
