MODEL 1
REMARK minimizedAffinity 15.3541069
REMARK minimizedRMSD -1
REMARK  1 active torsions:
REMARK  status: ('A' for Active; 'I' for Inactive)
REMARK    1  A    between atoms: C1_2  and  C2_3 
ROOT
ATOM      1  C2  UNL d   1      -1.893   4.797   0.535  0.00  0.00    -0.073 A 
ATOM      2  C3  UNL d   1      -2.070   3.438   0.821  0.00  0.00    -0.002 A 
ATOM      3  C4  UNL d   1      -1.112   2.504   0.426  0.00  0.00     0.004 A 
ATOM      4  C5  UNL d   1       0.034   2.917  -0.252  0.00  0.00    -0.004 A 
ATOM      5  C6  UNL d   1       0.235   4.272  -0.537  0.00  0.00    -0.075 A 
ATOM      6  C7  UNL d   1       1.462   4.733  -1.267  0.00  0.00     0.076 C 
ATOM      7  C8  UNL d   1      -0.733   5.204  -0.139  0.00  0.00     0.001 A 
ENDROOT
BRANCH   1   8
ATOM      8  C1  UNL d   1      -2.922   5.810   0.965  0.00  0.00     0.053 C 
ATOM      9  C   UNL d   1      -4.194   5.151   1.473  0.00  0.00     0.018 C 
ENDBRANCH   1   8
TORSDOF 1
ENDMDL
