MODEL 1
REMARK minimizedAffinity 3.93662715
REMARK minimizedRMSD -1
REMARK  1 active torsions:
REMARK  status: ('A' for Active; 'I' for Inactive)
REMARK    1  A    between atoms: C3_4  and  O_7 
ROOT
ATOM      1  C   UNL d   1       1.068   0.697  -2.726  0.00  0.00    -0.033 A 
ATOM      2  C1  UNL d   1       1.238   0.336  -1.388  0.00  0.00     0.039 A 
ATOM      3  C2  UNL d   1       2.025   1.123  -0.545  0.00  0.00    -0.080 A 
ATOM      4  C3  UNL d   1       2.635   2.268  -1.051  0.00  0.00     0.150 A 
ATOM      5  C4  UNL d   1       2.466   2.636  -2.382  0.00  0.00    -0.007 A 
ATOM      6  C5  UNL d   1       1.680   1.848  -3.222  0.00  0.00     0.039 A 
ENDROOT
BRANCH   4   7
ATOM      7  O   UNL d   1       3.416   3.064  -0.268  0.00  0.00    -0.526 OA
ATOM      8  H5  UNL d   1       3.465   2.671   0.619  0.00  0.00     0.418 HD
ENDBRANCH   4   7
TORSDOF 1
ENDMDL
