MODEL 1
REMARK minimizedAffinity -0.462785721
REMARK minimizedRMSD -1
REMARK  1 active torsions:
REMARK  status: ('A' for Active; 'I' for Inactive)
REMARK    1  A    between atoms: C3_4  and  O_7 
ROOT
ATOM      1  C   UNL d   1       1.389  -1.250   3.132  0.00  0.00    -0.033 A 
ATOM      2  C1  UNL d   1       0.220  -1.551   2.431  0.00  0.00     0.039 A 
ATOM      3  C2  UNL d   1       0.260  -1.734   1.048  0.00  0.00    -0.080 A 
ATOM      4  C3  UNL d   1       1.475  -1.614   0.378  0.00  0.00     0.150 A 
ATOM      5  C4  UNL d   1       2.644  -1.318   1.070  0.00  0.00    -0.007 A 
ATOM      6  C5  UNL d   1       2.601  -1.134   2.452  0.00  0.00     0.039 A 
ENDROOT
BRANCH   4   7
ATOM      7  O   UNL d   1       1.563  -1.780  -0.972  0.00  0.00    -0.526 OA
ATOM      8  H5  UNL d   1       0.672  -1.952  -1.320  0.00  0.00     0.418 HD
ENDBRANCH   4   7
TORSDOF 1
ENDMDL
