MODEL 1
REMARK minimizedAffinity 5.57316446
REMARK minimizedRMSD -1
REMARK  1 active torsions:
REMARK  status: ('A' for Active; 'I' for Inactive)
REMARK    1  A    between atoms: C3_4  and  O_7 
ROOT
ATOM      1  C   UNL d   1       2.461   0.163  -0.822  0.00  0.00    -0.033 A 
ATOM      2  C1  UNL d   1       2.485   1.477  -0.351  0.00  0.00     0.039 A 
ATOM      3  C2  UNL d   1       2.026   2.519  -1.160  0.00  0.00    -0.080 A 
ATOM      4  C3  UNL d   1       1.546   2.233  -2.435  0.00  0.00     0.150 A 
ATOM      5  C4  UNL d   1       1.515   0.926  -2.909  0.00  0.00    -0.007 A 
ATOM      6  C5  UNL d   1       1.975  -0.113  -2.100  0.00  0.00     0.039 A 
ENDROOT
BRANCH   4   7
ATOM      7  O   UNL d   1       1.092   3.217  -3.262  0.00  0.00    -0.526 OA
ATOM      8  H5  UNL d   1       1.200   4.072  -2.812  0.00  0.00     0.418 HD
ENDBRANCH   4   7
TORSDOF 1
ENDMDL
