MODEL 1
REMARK minimizedAffinity 1.32662404
REMARK minimizedRMSD -1
REMARK  1 active torsions:
REMARK  status: ('A' for Active; 'I' for Inactive)
REMARK    1  A    between atoms: C3_4  and  O_7 
ROOT
ATOM      1  C   UNL d   1       2.196   0.227  -0.604  0.00  0.00    -0.033 A 
ATOM      2  C1  UNL d   1       2.531   1.557  -0.346  0.00  0.00     0.039 A 
ATOM      3  C2  UNL d   1       1.924   2.585  -1.072  0.00  0.00    -0.080 A 
ATOM      4  C3  UNL d   1       0.985   2.268  -2.049  0.00  0.00     0.150 A 
ATOM      5  C4  UNL d   1       0.643   0.945  -2.308  0.00  0.00    -0.007 A 
ATOM      6  C5  UNL d   1       1.251  -0.080  -1.583  0.00  0.00     0.039 A 
ENDROOT
BRANCH   4   7
ATOM      7  O   UNL d   1       0.369   3.236  -2.786  0.00  0.00    -0.526 OA
ATOM      8  H5  UNL d   1       0.725   4.100  -2.518  0.00  0.00     0.418 HD
ENDBRANCH   4   7
TORSDOF 1
ENDMDL
