MODEL 1
REMARK minimizedAffinity -1.82228637
REMARK minimizedRMSD -1
REMARK  1 active torsions:
REMARK  status: ('A' for Active; 'I' for Inactive)
REMARK    1  A    between atoms: C3_4  and  O_7 
ROOT
ATOM      1  C   UNL d   1       1.932   2.175  -2.485  0.00  0.00    -0.033 A 
ATOM      2  C1  UNL d   1       2.321   1.031  -3.185  0.00  0.00     0.039 A 
ATOM      3  C2  UNL d   1       2.409  -0.197  -2.527  0.00  0.00    -0.080 A 
ATOM      4  C3  UNL d   1       2.107  -0.268  -1.170  0.00  0.00     0.150 A 
ATOM      5  C4  UNL d   1       1.716   0.867  -0.466  0.00  0.00    -0.007 A 
ATOM      6  C5  UNL d   1       1.629   2.092  -1.125  0.00  0.00     0.039 A 
ENDROOT
BRANCH   4   7
ATOM      7  O   UNL d   1       2.184  -1.443  -0.483  0.00  0.00    -0.526 OA
ATOM      8  H5  UNL d   1       2.494  -2.135  -1.091  0.00  0.00     0.418 HD
ENDBRANCH   4   7
TORSDOF 1
ENDMDL
