MODEL 1
REMARK minimizedAffinity 3.18369579
REMARK minimizedRMSD -1
REMARK  1 active torsions:
REMARK  status: ('A' for Active; 'I' for Inactive)
REMARK    1  A    between atoms: C3_4  and  O_7 
ROOT
ATOM      1  C   UNL d   1       1.897  -1.023  -1.953  0.00  0.00    -0.033 A 
ATOM      2  C1  UNL d   1       2.926  -1.406  -1.089  0.00  0.00     0.039 A 
ATOM      3  C2  UNL d   1       2.664  -1.597   0.269  0.00  0.00    -0.080 A 
ATOM      4  C3  UNL d   1       1.371  -1.405   0.750  0.00  0.00     0.150 A 
ATOM      5  C4  UNL d   1       0.342  -1.028  -0.106  0.00  0.00    -0.007 A 
ATOM      6  C5  UNL d   1       0.605  -0.836  -1.461  0.00  0.00     0.039 A 
ENDROOT
BRANCH   4   7
ATOM      7  O   UNL d   1       1.069  -1.575   2.068  0.00  0.00    -0.526 OA
ATOM      8  H5  UNL d   1       1.884  -1.807   2.544  0.00  0.00     0.418 HD
ENDBRANCH   4   7
TORSDOF 1
ENDMDL
