MODEL 1
REMARK minimizedAffinity 14.2332706
REMARK minimizedRMSD -1
REMARK  0 active torsions:
REMARK  status: ('A' for Active; 'I' for Inactive)
ROOT
ATOM      1  N1  IND d   1       1.003   0.875   1.602  0.00  0.00    -0.196 N 
ATOM      2  C2  IND d   1       1.044   0.690   0.249  0.00  0.00     0.054 A 
ATOM      3  C3  IND d   1      -0.061   1.209  -0.331  0.00  0.00    -0.031 A 
ATOM      4  C4  IND d   1      -2.017   2.497   0.737  0.00  0.00     0.051 A 
ATOM      5  C5  IND d   1      -2.518   2.884   1.949  0.00  0.00    -0.031 A 
ATOM      6  C6  IND d   1      -1.856   2.618   3.130  0.00  0.00     0.015 A 
ATOM      7  C7  IND d   1      -0.658   1.962   3.143  0.00  0.00    -0.016 A 
ATOM      8  C8  IND d   1      -0.150   1.561   1.916  0.00  0.00    -0.047 A 
ATOM      9  C9  IND d   1      -0.838   1.791   0.717  0.00  0.00    -0.096 A 
ATOM     10  HN1 IND d   1       1.596   0.607   2.164  0.00  0.00     0.298 HD
ENDROOT
TORSDOF 0
ENDMDL
