MODEL 1
REMARK minimizedAffinity 14.5287237
REMARK minimizedRMSD -1
REMARK  0 active torsions:
REMARK  status: ('A' for Active; 'I' for Inactive)
ROOT
ATOM      1  N1  IND d   1      -3.524   2.576  -3.232  0.00  0.00    -0.196 N 
ATOM      2  C2  IND d   1      -3.432   3.590  -4.143  0.00  0.00     0.054 A 
ATOM      3  C3  IND d   1      -2.221   4.186  -4.064  0.00  0.00    -0.031 A 
ATOM      4  C4  IND d   1      -0.200   3.592  -2.583  0.00  0.00     0.051 A 
ATOM      5  C5  IND d   1       0.183   2.765  -1.565  0.00  0.00    -0.031 A 
ATOM      6  C6  IND d   1      -0.666   1.812  -1.042  0.00  0.00     0.015 A 
ATOM      7  C7  IND d   1      -1.932   1.641  -1.527  0.00  0.00    -0.016 A 
ATOM      8  C8  IND d   1      -2.327   2.484  -2.556  0.00  0.00    -0.047 A 
ATOM      9  C9  IND d   1      -1.484   3.482  -3.063  0.00  0.00    -0.096 A 
ATOM     10  HN1 IND d   1      -4.213   2.078  -3.102  0.00  0.00     0.298 HD
ENDROOT
TORSDOF 0
ENDMDL
