MODEL 1
REMARK minimizedAffinity 8.51832676
REMARK minimizedRMSD -1
REMARK  0 active torsions:
REMARK  status: ('A' for Active; 'I' for Inactive)
ROOT
ATOM      1  N1  IND d   1      -0.215   1.131   1.963  0.00  0.00    -0.196 N 
ATOM      2  C2  IND d   1       0.290   1.889   2.983  0.00  0.00     0.054 A 
ATOM      3  C3  IND d   1       0.563   3.139   2.549  0.00  0.00    -0.031 A 
ATOM      4  C4  IND d   1       0.165   4.190   0.232  0.00  0.00     0.051 A 
ATOM      5  C5  IND d   1      -0.243   3.881  -1.035  0.00  0.00    -0.031 A 
ATOM      6  C6  IND d   1      -0.673   2.614  -1.374  0.00  0.00     0.015 A 
ATOM      7  C7  IND d   1      -0.723   1.608  -0.451  0.00  0.00    -0.016 A 
ATOM      8  C8  IND d   1      -0.303   1.916   0.835  0.00  0.00    -0.047 A 
ATOM      9  C9  IND d   1       0.175   3.189   1.175  0.00  0.00    -0.096 A 
ATOM     10  HN1 IND d   1      -0.439   0.303   2.018  0.00  0.00     0.298 HD
ENDROOT
TORSDOF 0
ENDMDL
