MODEL 1
REMARK minimizedAffinity 8.58473969
REMARK minimizedRMSD -1
REMARK  0 active torsions:
REMARK  status: ('A' for Active; 'I' for Inactive)
ROOT
ATOM      1  N1  IND d   1      -5.990  -5.999  -4.018  0.00  0.00    -0.196 N 
ATOM      2  C2  IND d   1      -5.957  -6.000  -2.651  0.00  0.00     0.054 A 
ATOM      3  C3  IND d   1      -4.688  -5.842  -2.211  0.00  0.00    -0.031 A 
ATOM      4  C4  IND d   1      -2.526  -5.461  -3.556  0.00  0.00     0.051 A 
ATOM      5  C5  IND d   1      -2.046  -5.418  -4.835  0.00  0.00    -0.031 A 
ATOM      6  C6  IND d   1      -2.874  -5.567  -5.929  0.00  0.00     0.015 A 
ATOM      7  C7  IND d   1      -4.219  -5.754  -5.785  0.00  0.00    -0.016 A 
ATOM      8  C8  IND d   1      -4.709  -5.805  -4.487  0.00  0.00    -0.047 A 
ATOM      9  C9  IND d   1      -3.868  -5.697  -3.372  0.00  0.00    -0.096 A 
ATOM     10  HN1 IND d   1      -6.692  -6.102  -4.503  0.00  0.00     0.298 HD
ENDROOT
TORSDOF 0
ENDMDL
