MODEL 1
REMARK minimizedAffinity 5.46146536
REMARK minimizedRMSD -1
REMARK  0 active torsions:
REMARK  status: ('A' for Active; 'I' for Inactive)
ROOT
ATOM      1  N1  IND d   1       0.256   3.711  -0.686  0.00  0.00    -0.196 N 
ATOM      2  C2  IND d   1      -0.806   2.899  -0.972  0.00  0.00     0.054 A 
ATOM      3  C3  IND d   1      -1.265   2.311   0.156  0.00  0.00    -0.031 A 
ATOM      4  C4  IND d   1      -0.489   2.615   2.592  0.00  0.00     0.051 A 
ATOM      5  C5  IND d   1       0.472   3.225   3.348  0.00  0.00    -0.031 A 
ATOM      6  C6  IND d   1       1.427   4.048   2.787  0.00  0.00     0.015 A 
ATOM      7  C7  IND d   1       1.451   4.300   1.445  0.00  0.00    -0.016 A 
ATOM      8  C8  IND d   1       0.481   3.676   0.673  0.00  0.00    -0.047 A 
ATOM      9  C9  IND d   1      -0.465   2.807   1.230  0.00  0.00    -0.096 A 
ATOM     10  HN1 IND d   1       0.708   4.166  -1.259  0.00  0.00     0.298 HD
ENDROOT
TORSDOF 0
ENDMDL
