MODEL 1
REMARK minimizedAffinity 3.77068353
REMARK minimizedRMSD -1
REMARK  0 active torsions:
REMARK  status: ('A' for Active; 'I' for Inactive)
ROOT
ATOM      1  N1  IND d   1       0.450   4.057  -0.385  0.00  0.00    -0.196 N 
ATOM      2  C2  IND d   1      -0.515   3.230  -0.890  0.00  0.00     0.054 A 
ATOM      3  C3  IND d   1      -0.872   2.307   0.031  0.00  0.00    -0.031 A 
ATOM      4  C4  IND d   1      -0.077   2.032   2.465  0.00  0.00     0.051 A 
ATOM      5  C5  IND d   1       0.822   2.527   3.366  0.00  0.00    -0.031 A 
ATOM      6  C6  IND d   1       1.659   3.581   3.059  0.00  0.00     0.015 A 
ATOM      7  C7  IND d   1       1.619   4.188   1.836  0.00  0.00    -0.016 A 
ATOM      8  C8  IND d   1       0.711   3.683   0.915  0.00  0.00    -0.047 A 
ATOM      9  C9  IND d   1      -0.110   2.587   1.207  0.00  0.00    -0.096 A 
ATOM     10  HN1 IND d   1       0.830   4.702  -0.809  0.00  0.00     0.298 HD
ENDROOT
TORSDOF 0
ENDMDL
