MODEL 1
REMARK minimizedAffinity -3.0504899
REMARK minimizedRMSD -1
REMARK  0 active torsions:
REMARK  status: ('A' for Active; 'I' for Inactive)
ROOT
ATOM      1  C1  BNZ d   1       1.452  -0.465  -0.023  0.00  0.00     0.000 A 
ATOM      2  C2  BNZ d   1       0.651  -1.292  -0.764  0.00  0.00     0.000 A 
ATOM      3  C3  BNZ d   1      -0.668  -0.993  -0.963  0.00  0.00     0.000 A 
ATOM      4  C4  BNZ d   1      -1.193   0.109  -0.390  0.00  0.00     0.000 A 
ATOM      5  C5  BNZ d   1      -0.400   0.948   0.368  0.00  0.00     0.000 A 
ATOM      6  C6  BNZ d   1       0.936   0.665   0.534  0.00  0.00     0.000 A 
ENDROOT
TORSDOF 0
ENDMDL
