MODEL 1
REMARK minimizedAffinity -5.19529247
REMARK minimizedRMSD -1
REMARK  0 active torsions:
REMARK  status: ('A' for Active; 'I' for Inactive)
ROOT
ATOM      1  C1  BNZ d   1       0.692   0.816   0.286  0.00  0.00     0.000 A 
ATOM      2  C2  BNZ d   1      -0.121  -0.103  -0.323  0.00  0.00     0.000 A 
ATOM      3  C3  BNZ d   1       0.215  -1.427  -0.347  0.00  0.00     0.000 A 
ATOM      4  C4  BNZ d   1       1.380  -1.826   0.202  0.00  0.00     0.000 A 
ATOM      5  C5  BNZ d   1       2.215  -0.911   0.812  0.00  0.00     0.000 A 
ATOM      6  C6  BNZ d   1       1.856   0.416   0.868  0.00  0.00     0.000 A 
ENDROOT
TORSDOF 0
ENDMDL
