MODEL 1
REMARK minimizedAffinity -4.66324282
REMARK minimizedRMSD -1
REMARK  0 active torsions:
REMARK  status: ('A' for Active; 'I' for Inactive)
ROOT
ATOM      1  C1  BNZ d   1       2.462  -1.019   0.855  0.00  0.00     0.000 A 
ATOM      2  C2  BNZ d   1       1.966   0.241   1.054  0.00  0.00     0.000 A 
ATOM      3  C3  BNZ d   1       0.708   0.572   0.633  0.00  0.00     0.000 A 
ATOM      4  C4  BNZ d   1      -0.035  -0.344  -0.020  0.00  0.00     0.000 A 
ATOM      5  C5  BNZ d   1       0.455  -1.616  -0.237  0.00  0.00     0.000 A 
ATOM      6  C6  BNZ d   1       1.706  -1.958   0.222  0.00  0.00     0.000 A 
ENDROOT
TORSDOF 0
ENDMDL
