MODEL 1
REMARK minimizedAffinity -4.9579792
REMARK minimizedRMSD -1
REMARK  0 active torsions:
REMARK  status: ('A' for Active; 'I' for Inactive)
ROOT
ATOM      1  C1  BNZ d   1       1.716  -1.847  -0.117  0.00  0.00     0.000 A 
ATOM      2  C2  BNZ d   1       0.398  -1.653  -0.433  0.00  0.00     0.000 A 
ATOM      3  C3  BNZ d   1      -0.132  -0.393  -0.482  0.00  0.00     0.000 A 
ATOM      4  C4  BNZ d   1       0.646   0.665  -0.176  0.00  0.00     0.000 A 
ATOM      5  C5  BNZ d   1       1.974   0.485   0.153  0.00  0.00     0.000 A 
ATOM      6  C6  BNZ d   1       2.514  -0.781   0.164  0.00  0.00     0.000 A 
ENDROOT
TORSDOF 0
ENDMDL
