MODEL 1
REMARK minimizedAffinity -4.68383408
REMARK minimizedRMSD -1
REMARK  0 active torsions:
REMARK  status: ('A' for Active; 'I' for Inactive)
ROOT
ATOM      1  C1  BNZ d   1       2.405  -1.250   0.269  0.00  0.00     0.000 A 
ATOM      2  C2  BNZ d   1       1.485  -1.833  -0.562  0.00  0.00     0.000 A 
ATOM      3  C3  BNZ d   1       0.239  -1.293  -0.716  0.00  0.00     0.000 A 
ATOM      4  C4  BNZ d   1      -0.099  -0.195  -0.010  0.00  0.00     0.000 A 
ATOM      5  C5  BNZ d   1       0.814   0.400   0.838  0.00  0.00     0.000 A 
ATOM      6  C6  BNZ d   1       2.080  -0.125   0.961  0.00  0.00     0.000 A 
ENDROOT
TORSDOF 0
ENDMDL
