MODEL 1
REMARK minimizedAffinity 8.51936054
REMARK minimizedRMSD -1
REMARK  0 active torsions:
REMARK  status: ('A' for Active; 'I' for Inactive)
ROOT
ATOM      1  C   UNL d   1       5.921  -1.696  -3.560  0.00  0.00     0.020 A 
ATOM      2  C1  UNL d   1       5.968  -2.009  -4.918  0.00  0.00     0.020 A 
ATOM      3  C2  UNL d   1       5.992  -3.344  -5.327  0.00  0.00     0.034 A 
ATOM      4  C3  UNL d   1       5.968  -4.371  -4.377  0.00  0.00     0.017 A 
ATOM      5  C4  UNL d   1       5.920  -4.057  -3.014  0.00  0.00     0.017 A 
ATOM      6  C5  UNL d   1       5.896  -2.718  -2.610  0.00  0.00     0.034 A 
ATOM      7 Cl   UNL d   1       5.888  -5.269  -1.783  0.00  0.00    -0.070 Cl
ATOM      8 Cl1  UNL d   1       6.000  -6.000  -4.953  0.00  0.00    -0.070 Cl
ENDROOT
TORSDOF 0
ENDMDL
