MODEL 1
REMARK minimizedAffinity -0.298365444
REMARK minimizedRMSD -1
REMARK  0 active torsions:
REMARK  status: ('A' for Active; 'I' for Inactive)
ROOT
ATOM      1  C   UNL d   1       1.805   4.393   1.365  0.00  0.00     0.020 A 
ATOM      2  C1  UNL d   1       1.515   3.201   2.027  0.00  0.00     0.020 A 
ATOM      3  C2  UNL d   1       0.777   2.206   1.382  0.00  0.00     0.034 A 
ATOM      4  C3  UNL d   1       0.326   2.401   0.072  0.00  0.00     0.017 A 
ATOM      5  C4  UNL d   1       0.617   3.598  -0.592  0.00  0.00     0.017 A 
ATOM      6  C5  UNL d   1       1.357   4.591   0.058  0.00  0.00     0.034 A 
ATOM      7 Cl   UNL d   1       0.095   3.912  -2.209  0.00  0.00    -0.070 Cl
ATOM      8 Cl1  UNL d   1      -0.581   1.128  -0.664  0.00  0.00    -0.070 Cl
ENDROOT
TORSDOF 0
ENDMDL
