MODEL 1
REMARK minimizedAffinity 7.3802824
REMARK minimizedRMSD -1
REMARK  0 active torsions:
REMARK  status: ('A' for Active; 'I' for Inactive)
ROOT
ATOM      1  C   UNL d   1       4.502  -1.372  -2.763  0.00  0.00     0.020 A 
ATOM      2  C1  UNL d   1       5.653  -1.954  -2.233  0.00  0.00     0.020 A 
ATOM      3  C2  UNL d   1       6.000  -3.260  -2.585  0.00  0.00     0.034 A 
ATOM      4  C3  UNL d   1       5.196  -3.989  -3.469  0.00  0.00     0.017 A 
ATOM      5  C4  UNL d   1       4.041  -3.404  -4.000  0.00  0.00     0.017 A 
ATOM      6  C5  UNL d   1       3.698  -2.095  -3.645  0.00  0.00     0.034 A 
ATOM      7 Cl   UNL d   1       2.999  -4.239  -5.097  0.00  0.00    -0.070 Cl
ATOM      8 Cl1  UNL d   1       5.686  -5.599  -3.860  0.00  0.00    -0.070 Cl
ENDROOT
TORSDOF 0
ENDMDL
