MODEL 1
REMARK minimizedAffinity 2.81120515
REMARK minimizedRMSD -1
REMARK  0 active torsions:
REMARK  status: ('A' for Active; 'I' for Inactive)
ROOT
ATOM      1  C   UNL d   1       0.383   3.503  -1.951  0.00  0.00     0.020 A 
ATOM      2  C1  UNL d   1       1.404   4.352  -1.527  0.00  0.00     0.020 A 
ATOM      3  C2  UNL d   1       1.989   4.168  -0.273  0.00  0.00     0.034 A 
ATOM      4  C3  UNL d   1       1.555   3.132   0.561  0.00  0.00     0.017 A 
ATOM      5  C4  UNL d   1       0.530   2.279   0.135  0.00  0.00     0.017 A 
ATOM      6  C5  UNL d   1      -0.053   2.468  -1.122  0.00  0.00     0.034 A 
ATOM      7 Cl   UNL d   1      -0.059   0.978   1.108  0.00  0.00    -0.070 Cl
ATOM      8 Cl1  UNL d   1       2.324   2.962   2.099  0.00  0.00    -0.070 Cl
ENDROOT
TORSDOF 0
ENDMDL
