MODEL 1
REMARK minimizedAffinity -2.72266603
REMARK minimizedRMSD -1
REMARK  0 active torsions:
REMARK  status: ('A' for Active; 'I' for Inactive)
ROOT
ATOM      1  C   UNL d   1       1.462   2.604   1.699  0.00  0.00     0.020 A 
ATOM      2  C1  UNL d   1       2.337   3.584   1.233  0.00  0.00     0.020 A 
ATOM      3  C2  UNL d   1       2.148   4.145  -0.032  0.00  0.00     0.034 A 
ATOM      4  C3  UNL d   1       1.081   3.727  -0.835  0.00  0.00     0.017 A 
ATOM      5  C4  UNL d   1       0.203   2.743  -0.366  0.00  0.00     0.017 A 
ATOM      6  C5  UNL d   1       0.397   2.184   0.901  0.00  0.00     0.034 A 
ATOM      7 Cl   UNL d   1      -1.137   2.175  -1.300  0.00  0.00    -0.070 Cl
ATOM      8 Cl1  UNL d   1       0.907   4.464  -2.388  0.00  0.00    -0.070 Cl
ENDROOT
TORSDOF 0
ENDMDL
