MODEL 1
REMARK minimizedAffinity 0.160518736
REMARK minimizedRMSD -1
REMARK  0 active torsions:
REMARK  status: ('A' for Active; 'I' for Inactive)
ROOT
ATOM      1  C   UNL d   1      -4.567   1.836  -3.195  0.00  0.00     0.020 A 
ATOM      2  C1  UNL d   1      -3.839   3.013  -3.364  0.00  0.00     0.020 A 
ATOM      3  C2  UNL d   1      -2.657   3.213  -2.648  0.00  0.00     0.034 A 
ATOM      4  C3  UNL d   1      -2.199   2.233  -1.758  0.00  0.00     0.017 A 
ATOM      5  C4  UNL d   1      -2.930   1.052  -1.589  0.00  0.00     0.017 A 
ATOM      6  C5  UNL d   1      -4.113   0.857  -2.309  0.00  0.00     0.034 A 
ATOM      7 Cl   UNL d   1      -2.429  -0.202  -0.510  0.00  0.00    -0.070 Cl
ATOM      8 Cl1  UNL d   1      -0.729   2.547  -0.906  0.00  0.00    -0.070 Cl
ENDROOT
TORSDOF 0
ENDMDL
