MODEL 1
REMARK minimizedAffinity 4.26611185
REMARK minimizedRMSD -1
REMARK  0 active torsions:
REMARK  status: ('A' for Active; 'I' for Inactive)
ROOT
ATOM      1  C   UNL d   1       4.503  -2.908  -0.173  0.00  0.00     0.020 A 
ATOM      2  C1  UNL d   1       5.416  -3.351  -1.129  0.00  0.00     0.020 A 
ATOM      3  C2  UNL d   1       5.031  -4.306  -2.072  0.00  0.00     0.034 A 
ATOM      4  C3  UNL d   1       3.729  -4.822  -2.061  0.00  0.00     0.017 A 
ATOM      5  C4  UNL d   1       2.814  -4.376  -1.101  0.00  0.00     0.017 A 
ATOM      6  C5  UNL d   1       3.204  -3.420  -0.159  0.00  0.00     0.034 A 
ATOM      7 Cl   UNL d   1       1.191  -4.966  -1.024  0.00  0.00    -0.070 Cl
ATOM      8 Cl1  UNL d   1       3.322  -6.000  -3.258  0.00  0.00    -0.070 Cl
ENDROOT
TORSDOF 0
ENDMDL
