MODEL 1
REMARK minimizedAffinity 4.74747086
REMARK minimizedRMSD -1
REMARK  0 active torsions:
REMARK  status: ('A' for Active; 'I' for Inactive)
ROOT
ATOM      1  C   UNL d   1      -0.162   3.115  -0.407  0.00  0.00     0.020 A 
ATOM      2  C1  UNL d   1       1.099   3.693  -0.269  0.00  0.00     0.020 A 
ATOM      3  C2  UNL d   1       1.841   3.479   0.895  0.00  0.00     0.034 A 
ATOM      4  C3  UNL d   1       1.323   2.685   1.924  0.00  0.00     0.017 A 
ATOM      5  C4  UNL d   1       0.057   2.105   1.784  0.00  0.00     0.017 A 
ATOM      6  C5  UNL d   1      -0.682   2.322   0.617  0.00  0.00     0.034 A 
ATOM      7 Cl   UNL d   1      -0.649   1.112   3.010  0.00  0.00    -0.070 Cl
ATOM      8 Cl1  UNL d   1       2.295   2.462   3.335  0.00  0.00    -0.070 Cl
ENDROOT
TORSDOF 0
ENDMDL
