MODEL 1
REMARK minimizedAffinity 5.19292593
REMARK minimizedRMSD -1
REMARK  0 active torsions:
REMARK  status: ('A' for Active; 'I' for Inactive)
ROOT
ATOM      1  C   UNL d   1       4.600  -5.585  -1.263  0.00  0.00     0.020 A 
ATOM      2  C1  UNL d   1       4.666  -5.728  -2.648  0.00  0.00     0.020 A 
ATOM      3  C2  UNL d   1       4.431  -4.627  -3.475  0.00  0.00     0.034 A 
ATOM      4  C3  UNL d   1       4.130  -3.379  -2.918  0.00  0.00     0.017 A 
ATOM      5  C4  UNL d   1       4.064  -3.237  -1.527  0.00  0.00     0.017 A 
ATOM      6  C5  UNL d   1       4.300  -4.342  -0.703  0.00  0.00     0.034 A 
ATOM      7 Cl   UNL d   1       3.698  -1.729  -0.765  0.00  0.00    -0.070 Cl
ATOM      8 Cl1  UNL d   1       3.852  -2.061  -4.000  0.00  0.00    -0.070 Cl
ENDROOT
TORSDOF 0
ENDMDL
