MODEL 1
REMARK minimizedAffinity 0.485969424
REMARK minimizedRMSD -1
REMARK  0 active torsions:
REMARK  status: ('A' for Active; 'I' for Inactive)
ROOT
ATOM      1  O1  BZF d   1       3.979   1.454  -2.169  0.00  0.00    -0.204 OA
ATOM      2  C2  BZF d   1       4.892   0.606  -2.765  0.00  0.00     0.174 A 
ATOM      3  C3  BZF d   1       4.605  -0.681  -2.480  0.00  0.00    -0.012 A 
ATOM      4  C3A BZF d   1       3.387  -0.639  -1.732  0.00  0.00    -0.107 A 
ATOM      5  C4  BZF d   1       2.591  -1.601  -1.178  0.00  0.00     0.055 A 
ATOM      6  C5  BZF d   1       1.509  -1.223  -0.448  0.00  0.00    -0.016 A 
ATOM      7  C6  BZF d   1       1.196   0.105  -0.248  0.00  0.00     0.022 A 
ATOM      8  C7  BZF d   1       1.952   1.095  -0.781  0.00  0.00     0.029 A 
ATOM      9  C7A BZF d   1       3.028   0.716  -1.547  0.00  0.00     0.058 A 
ENDROOT
TORSDOF 0
ENDMDL
