MODEL 1
REMARK minimizedAffinity 0.0690001994
REMARK minimizedRMSD -1
REMARK  0 active torsions:
REMARK  status: ('A' for Active; 'I' for Inactive)
ROOT
ATOM      1  O1  BZF d   1       4.053   1.160  -1.813  0.00  0.00    -0.204 OA
ATOM      2  C2  BZF d   1       4.992   0.301  -2.351  0.00  0.00     0.174 A 
ATOM      3  C3  BZF d   1       4.740  -0.972  -1.987  0.00  0.00    -0.012 A 
ATOM      4  C3A BZF d   1       3.518  -0.917  -1.245  0.00  0.00    -0.107 A 
ATOM      5  C4  BZF d   1       2.747  -1.864  -0.634  0.00  0.00     0.055 A 
ATOM      6  C5  BZF d   1       1.652  -1.471   0.068  0.00  0.00    -0.016 A 
ATOM      7  C6  BZF d   1       1.301  -0.142   0.184  0.00  0.00     0.022 A 
ATOM      8  C7  BZF d   1       2.032   0.833  -0.410  0.00  0.00     0.029 A 
ATOM      9  C7A BZF d   1       3.121   0.437  -1.147  0.00  0.00     0.058 A 
ENDROOT
TORSDOF 0
ENDMDL
