MODEL 1
REMARK minimizedAffinity 2.05208087
REMARK minimizedRMSD -1
REMARK  0 active torsions:
REMARK  status: ('A' for Active; 'I' for Inactive)
ROOT
ATOM      1  O1  BZF d   1       2.664  -2.305  -0.930  0.00  0.00    -0.204 OA
ATOM      2  C2  BZF d   1       3.889  -1.832  -1.360  0.00  0.00     0.174 A 
ATOM      3  C3  BZF d   1       4.025  -0.522  -1.071  0.00  0.00    -0.012 A 
ATOM      4  C3A BZF d   1       2.847  -0.175  -0.336  0.00  0.00    -0.107 A 
ATOM      5  C4  BZF d   1       2.407   0.982   0.240  0.00  0.00     0.055 A 
ATOM      6  C5  BZF d   1       1.178   1.005   0.820  0.00  0.00    -0.016 A 
ATOM      7  C6  BZF d   1       0.362  -0.106   0.836  0.00  0.00     0.022 A 
ATOM      8  C7  BZF d   1       0.757  -1.278   0.281  0.00  0.00     0.029 A 
ATOM      9  C7A BZF d   1       2.012  -1.314  -0.276  0.00  0.00     0.058 A 
ENDROOT
TORSDOF 0
ENDMDL
