MODEL 1
REMARK minimizedAffinity 0.0154384272
REMARK minimizedRMSD -1
REMARK  0 active torsions:
REMARK  status: ('A' for Active; 'I' for Inactive)
ROOT
ATOM      1  O1  BZF d   1       3.494  -1.909  -0.441  0.00  0.00    -0.204 OA
ATOM      2  C2  BZF d   1       3.904  -1.204  -1.557  0.00  0.00     0.174 A 
ATOM      3  C3  BZF d   1       3.092  -0.151  -1.783  0.00  0.00    -0.012 A 
ATOM      4  C3A BZF d   1       2.168  -0.147  -0.690  0.00  0.00    -0.107 A 
ATOM      5  C4  BZF d   1       1.127   0.666  -0.344  0.00  0.00     0.055 A 
ATOM      6  C5  BZF d   1       0.378   0.352   0.745  0.00  0.00    -0.016 A 
ATOM      7  C6  BZF d   1       0.638  -0.767   1.508  0.00  0.00     0.022 A 
ATOM      8  C7  BZF d   1       1.664  -1.601   1.207  0.00  0.00     0.029 A 
ATOM      9  C7A BZF d   1       2.443  -1.269   0.126  0.00  0.00     0.058 A 
ENDROOT
TORSDOF 0
ENDMDL
