MODEL 1
REMARK minimizedAffinity 0.626881957
REMARK minimizedRMSD -1
REMARK  0 active torsions:
REMARK  status: ('A' for Active; 'I' for Inactive)
ROOT
ATOM      1  O1  BZF d   1       0.813  -1.402   0.775  0.00  0.00    -0.204 OA
ATOM      2  C2  BZF d   1       0.302  -0.239   1.319  0.00  0.00     0.174 A 
ATOM      3  C3  BZF d   1       0.990   0.836   0.881  0.00  0.00    -0.012 A 
ATOM      4  C3A BZF d   1       1.934   0.320  -0.062  0.00  0.00    -0.107 A 
ATOM      5  C4  BZF d   1       2.890   0.899  -0.847  0.00  0.00     0.055 A 
ATOM      6  C5  BZF d   1       3.694   0.106  -1.603  0.00  0.00    -0.016 A 
ATOM      7  C6  BZF d   1       3.574  -1.268  -1.594  0.00  0.00     0.022 A 
ATOM      8  C7  BZF d   1       2.637  -1.889  -0.835  0.00  0.00     0.029 A 
ATOM      9  C7A BZF d   1       1.802  -1.088  -0.096  0.00  0.00     0.058 A 
ENDROOT
TORSDOF 0
ENDMDL
