MODEL 1
REMARK minimizedAffinity -0.594492137
REMARK minimizedRMSD -1
REMARK  0 active torsions:
REMARK  status: ('A' for Active; 'I' for Inactive)
ROOT
ATOM      1  O1  BZF d   1       1.323  -1.989   0.873  0.00  0.00    -0.204 OA
ATOM      2  C2  BZF d   1       0.463  -1.070   1.444  0.00  0.00     0.174 A 
ATOM      3  C3  BZF d   1       0.656   0.157   0.919  0.00  0.00    -0.012 A 
ATOM      4  C3A BZF d   1       1.638  -0.023  -0.107  0.00  0.00    -0.107 A 
ATOM      5  C4  BZF d   1       2.232   0.826  -0.996  0.00  0.00     0.055 A 
ATOM      6  C5  BZF d   1       3.205   0.348  -1.816  0.00  0.00    -0.016 A 
ATOM      7  C6  BZF d   1       3.611  -0.970  -1.770  0.00  0.00     0.022 A 
ATOM      8  C7  BZF d   1       3.047  -1.850  -0.908  0.00  0.00     0.029 A 
ATOM      9  C7A BZF d   1       2.041  -1.378  -0.101  0.00  0.00     0.058 A 
ENDROOT
TORSDOF 0
ENDMDL
