MODEL 1
REMARK minimizedAffinity -1.34660757
REMARK minimizedRMSD -1
REMARK  0 active torsions:
REMARK  status: ('A' for Active; 'I' for Inactive)
ROOT
ATOM      1  O1  BZF d   1       3.410   1.318  -1.611  0.00  0.00    -0.204 OA
ATOM      2  C2  BZF d   1       4.149   0.490  -2.434  0.00  0.00     0.174 A 
ATOM      3  C3  BZF d   1       3.916  -0.806  -2.143  0.00  0.00    -0.012 A 
ATOM      4  C3A BZF d   1       2.903  -0.789  -1.133  0.00  0.00    -0.107 A 
ATOM      5  C4  BZF d   1       2.242  -1.769  -0.450  0.00  0.00     0.055 A 
ATOM      6  C5  BZF d   1       1.362  -1.416   0.524  0.00  0.00    -0.016 A 
ATOM      7  C6  BZF d   1       1.124  -0.096   0.844  0.00  0.00     0.022 A 
ATOM      8  C7  BZF d   1       1.752   0.912   0.191  0.00  0.00     0.029 A 
ATOM      9  C7A BZF d   1       2.617   0.559  -0.817  0.00  0.00     0.058 A 
ENDROOT
TORSDOF 0
ENDMDL
