MODEL 1
REMARK minimizedAffinity 0.589720607
REMARK minimizedRMSD -1
REMARK  0 active torsions:
REMARK  status: ('A' for Active; 'I' for Inactive)
ROOT
ATOM      1  O1  BZF d   1      -0.699   0.239   2.201  0.00  0.00    -0.204 OA
ATOM      2  C2  BZF d   1      -1.609  -0.800   2.192  0.00  0.00     0.174 A 
ATOM      3  C3  BZF d   1      -1.155  -1.827   1.444  0.00  0.00    -0.012 A 
ATOM      4  C3A BZF d   1       0.159  -1.439   1.031  0.00  0.00    -0.107 A 
ATOM      5  C4  BZF d   1       1.124  -2.047   0.280  0.00  0.00     0.055 A 
ATOM      6  C5  BZF d   1       2.268  -1.369   0.000  0.00  0.00    -0.016 A 
ATOM      7  C6  BZF d   1       2.477  -0.081   0.450  0.00  0.00     0.022 A 
ATOM      8  C7  BZF d   1       1.550   0.561   1.202  0.00  0.00     0.029 A 
ATOM      9  C7A BZF d   1       0.408  -0.134   1.514  0.00  0.00     0.058 A 
ENDROOT
TORSDOF 0
ENDMDL
