MODEL 1
REMARK minimizedAffinity 2.78482676
REMARK minimizedRMSD -1
REMARK  0 active torsions:
REMARK  status: ('A' for Active; 'I' for Inactive)
ROOT
ATOM      1  O1  BZF d   1       3.708   1.045  -1.847  0.00  0.00    -0.204 OA
ATOM      2  C2  BZF d   1       3.203   2.278  -1.484  0.00  0.00     0.174 A 
ATOM      3  C3  BZF d   1       2.120   2.138  -0.693  0.00  0.00    -0.012 A 
ATOM      4  C3A BZF d   1       1.992   0.729  -0.477  0.00  0.00    -0.107 A 
ATOM      5  C4  BZF d   1       1.115  -0.035   0.239  0.00  0.00     0.055 A 
ATOM      6  C5  BZF d   1       1.221  -1.389   0.183  0.00  0.00    -0.016 A 
ATOM      7  C6  BZF d   1       2.187  -2.011  -0.581  0.00  0.00     0.022 A 
ATOM      8  C7  BZF d   1       3.082  -1.295  -1.304  0.00  0.00     0.029 A 
ATOM      9  C7A BZF d   1       2.998   0.074  -1.224  0.00  0.00     0.058 A 
ENDROOT
TORSDOF 0
ENDMDL
