MODEL 1
REMARK minimizedAffinity 3.09595203
REMARK minimizedRMSD -1
REMARK  0 active torsions:
REMARK  status: ('A' for Active; 'I' for Inactive)
ROOT
ATOM      1  O1  BZF d   1      -1.110   0.214   2.507  0.00  0.00    -0.204 OA
ATOM      2  C2  BZF d   1      -1.954  -0.872   2.374  0.00  0.00     0.174 A 
ATOM      3  C3  BZF d   1      -1.426  -1.787   1.535  0.00  0.00    -0.012 A 
ATOM      4  C3A BZF d   1      -0.133  -1.281   1.191  0.00  0.00    -0.107 A 
ATOM      5  C4  BZF d   1       0.879  -1.750   0.403  0.00  0.00     0.055 A 
ATOM      6  C5  BZF d   1       1.983  -0.979   0.218  0.00  0.00    -0.016 A 
ATOM      7  C6  BZF d   1       2.106   0.265   0.800  0.00  0.00     0.022 A 
ATOM      8  C7  BZF d   1       1.130   0.771   1.594  0.00  0.00     0.029 A 
ATOM      9  C7A BZF d   1       0.028  -0.020   1.810  0.00  0.00     0.058 A 
ENDROOT
TORSDOF 0
ENDMDL
