MODEL 1
REMARK minimizedAffinity 6.84238625
REMARK minimizedRMSD -1
REMARK  0 active torsions:
REMARK  status: ('A' for Active; 'I' for Inactive)
ROOT
ATOM      1  O1  BZF d   1      -1.259   2.150  -3.725  0.00  0.00    -0.204 OA
ATOM      2  C2  BZF d   1       0.061   1.861  -4.013  0.00  0.00     0.174 A 
ATOM      3  C3  BZF d   1       0.867   2.872  -3.630  0.00  0.00    -0.012 A 
ATOM      4  C3A BZF d   1       0.007   3.815  -2.983  0.00  0.00    -0.107 A 
ATOM      5  C4  BZF d   1       0.221   5.019  -2.376  0.00  0.00     0.055 A 
ATOM      6  C5  BZF d   1      -0.844   5.722  -1.908  0.00  0.00    -0.016 A 
ATOM      7  C6  BZF d   1      -2.135   5.254  -2.036  0.00  0.00     0.022 A 
ATOM      8  C7  BZF d   1      -2.397   4.062  -2.626  0.00  0.00     0.029 A 
ATOM      9  C7A BZF d   1      -1.320   3.334  -3.070  0.00  0.00     0.058 A 
ENDROOT
TORSDOF 0
ENDMDL
