MODEL 1
REMARK minimizedAffinity 2.50285864
REMARK minimizedRMSD -1
REMARK  0 active torsions:
REMARK  status: ('A' for Active; 'I' for Inactive)
ROOT
ATOM      1  O1  BZF d   1      -0.901   0.569   1.905  0.00  0.00    -0.204 OA
ATOM      2  C2  BZF d   1      -1.495  -0.602   2.336  0.00  0.00     0.174 A 
ATOM      3  C3  BZF d   1      -0.764  -1.673   1.967  0.00  0.00    -0.012 A 
ATOM      4  C3A BZF d   1       0.404  -1.134   1.341  0.00  0.00    -0.107 A 
ATOM      5  C4  BZF d   1       1.514  -1.699   0.780  0.00  0.00     0.055 A 
ATOM      6  C5  BZF d   1       2.437  -0.895   0.190  0.00  0.00    -0.016 A 
ATOM      7  C6  BZF d   1       2.280   0.475   0.138  0.00  0.00     0.022 A 
ATOM      8  C7  BZF d   1       1.198   1.081   0.684  0.00  0.00     0.029 A 
ATOM      9  C7A BZF d   1       0.280   0.274   1.311  0.00  0.00     0.058 A 
ENDROOT
TORSDOF 0
ENDMDL
