MODEL 1
REMARK minimizedAffinity -0.434239298
REMARK minimizedRMSD -1
REMARK  0 active torsions:
REMARK  status: ('A' for Active; 'I' for Inactive)
ROOT
ATOM      1  O1  BZF d   1       3.320   0.383  -1.948  0.00  0.00    -0.204 OA
ATOM      2  C2  BZF d   1       3.678  -0.931  -2.183  0.00  0.00     0.174 A 
ATOM      3  C3  BZF d   1       3.075  -1.756  -1.303  0.00  0.00    -0.012 A 
ATOM      4  C3A BZF d   1       2.220  -0.914  -0.523  0.00  0.00    -0.107 A 
ATOM      5  C4  BZF d   1       1.351  -1.152   0.503  0.00  0.00     0.055 A 
ATOM      6  C5  BZF d   1       0.724  -0.101   1.094  0.00  0.00    -0.016 A 
ATOM      7  C6  BZF d   1       0.947   1.199   0.690  0.00  0.00     0.022 A 
ATOM      8  C7  BZF d   1       1.797   1.484  -0.327  0.00  0.00     0.029 A 
ATOM      9  C7A BZF d   1       2.407   0.421  -0.948  0.00  0.00     0.058 A 
ENDROOT
TORSDOF 0
ENDMDL
