MODEL 1
REMARK minimizedAffinity 1.63900959
REMARK minimizedRMSD -1
REMARK  0 active torsions:
REMARK  status: ('A' for Active; 'I' for Inactive)
ROOT
ATOM      1  O1  BZF d   1      -0.109   0.500   1.414  0.00  0.00    -0.204 OA
ATOM      2  C2  BZF d   1      -0.744  -0.589   1.981  0.00  0.00     0.174 A 
ATOM      3  C3  BZF d   1      -0.108  -1.734   1.661  0.00  0.00    -0.012 A 
ATOM      4  C3A BZF d   1       1.047  -1.328   0.920  0.00  0.00    -0.107 A 
ATOM      5  C4  BZF d   1       2.079  -2.011   0.342  0.00  0.00     0.055 A 
ATOM      6  C5  BZF d   1       3.009  -1.323  -0.372  0.00  0.00    -0.016 A 
ATOM      7  C6  BZF d   1       2.934   0.045  -0.532  0.00  0.00     0.022 A 
ATOM      8  C7  BZF d   1       1.932   0.766   0.026  0.00  0.00     0.029 A 
ATOM      9  C7A BZF d   1       1.009   0.078   0.776  0.00  0.00     0.058 A 
ENDROOT
TORSDOF 0
ENDMDL
