MODEL 1
REMARK minimizedAffinity -0.0971347541
REMARK minimizedRMSD -1
REMARK  0 active torsions:
REMARK  status: ('A' for Active; 'I' for Inactive)
ROOT
ATOM      1  O1  BZF d   1       2.085   1.764   0.340  0.00  0.00    -0.204 OA
ATOM      2  C2  BZF d   1       1.314   0.917   1.114  0.00  0.00     0.174 A 
ATOM      3  C3  BZF d   1       1.521  -0.370   0.767  0.00  0.00    -0.012 A 
ATOM      4  C3A BZF d   1       2.550  -0.330  -0.227  0.00  0.00    -0.107 A 
ATOM      5  C4  BZF d   1       3.199  -1.293  -0.946  0.00  0.00     0.055 A 
ATOM      6  C5  BZF d   1       4.101  -0.918  -1.890  0.00  0.00    -0.016 A 
ATOM      7  C6  BZF d   1       4.374   0.410  -2.146  0.00  0.00     0.022 A 
ATOM      8  C7  BZF d   1       3.760   1.401  -1.455  0.00  0.00     0.029 A 
ATOM      9  C7A BZF d   1       2.872   1.024  -0.477  0.00  0.00     0.058 A 
ENDROOT
TORSDOF 0
ENDMDL
