MODEL 1
REMARK minimizedAffinity -4.13235855
REMARK minimizedRMSD -1
REMARK  0 active torsions:
REMARK  status: ('A' for Active; 'I' for Inactive)
ROOT
ATOM      1  O1  BZF d   1       1.459   1.331   0.041  0.00  0.00    -0.204 OA
ATOM      2  C2  BZF d   1       0.725   0.439   0.798  0.00  0.00     0.174 A 
ATOM      3  C3  BZF d   1       1.072  -0.832   0.510  0.00  0.00    -0.012 A 
ATOM      4  C3A BZF d   1       2.151  -0.725  -0.423  0.00  0.00    -0.107 A 
ATOM      5  C4  BZF d   1       2.929  -1.644  -1.068  0.00  0.00     0.055 A 
ATOM      6  C5  BZF d   1       3.849  -1.213  -1.971  0.00  0.00    -0.016 A 
ATOM      7  C6  BZF d   1       4.013   0.127  -2.257  0.00  0.00     0.022 A 
ATOM      8  C7  BZF d   1       3.267   1.075  -1.640  0.00  0.00     0.029 A 
ATOM      9  C7A BZF d   1       2.360   0.645  -0.702  0.00  0.00     0.058 A 
ENDROOT
TORSDOF 0
ENDMDL
