MODEL 1
REMARK minimizedAffinity -1.26856041
REMARK minimizedRMSD -1
REMARK  0 active torsions:
REMARK  status: ('A' for Active; 'I' for Inactive)
ROOT
ATOM      1  O1  BZF d   1       0.559  -0.498   2.168  0.00  0.00    -0.204 OA
ATOM      2  C2  BZF d   1       1.247  -1.661   1.879  0.00  0.00     0.174 A 
ATOM      3  C3  BZF d   1       0.394  -2.649   1.540  0.00  0.00    -0.012 A 
ATOM      4  C3A BZF d   1      -0.902  -2.043   1.534  0.00  0.00    -0.107 A 
ATOM      5  C4  BZF d   1      -2.155  -2.509   1.258  0.00  0.00     0.055 A 
ATOM      6  C5  BZF d   1      -3.219  -1.677   1.416  0.00  0.00    -0.016 A 
ATOM      7  C6  BZF d   1      -3.065  -0.377   1.851  0.00  0.00     0.022 A 
ATOM      8  C7  BZF d   1      -1.841   0.132   2.131  0.00  0.00     0.029 A 
ATOM      9  C7A BZF d   1      -0.762  -0.696   1.942  0.00  0.00     0.058 A 
ENDROOT
TORSDOF 0
ENDMDL
