MODEL 1
REMARK minimizedAffinity -3.65350938
REMARK minimizedRMSD -1
REMARK  0 active torsions:
REMARK  status: ('A' for Active; 'I' for Inactive)
ROOT
ATOM      1  C1  DEN d   1       3.637  -2.384  -5.577  0.00  0.00     0.130 A 
ATOM      2  C2  DEN d   1       4.857  -1.696  -5.992  0.00  0.00    -0.031 A 
ATOM      3  C3  DEN d   1       6.000  -2.591  -5.723  0.00  0.00     0.027 A 
ATOM      4  C4  DEN d   1       6.000  -4.965  -4.714  0.00  0.00     0.027 A 
ATOM      5  C5  DEN d   1       5.206  -5.965  -4.196  0.00  0.00    -0.003 A 
ATOM      6  C6  DEN d   1       3.849  -5.829  -4.072  0.00  0.00     0.001 A 
ATOM      7  C7  DEN d   1       3.238  -4.684  -4.512  0.00  0.00     0.017 A 
ATOM      8  C8  DEN d   1       4.033  -3.669  -5.029  0.00  0.00    -0.094 A 
ATOM      9  C9  DEN d   1       5.402  -3.831  -5.158  0.00  0.00    -0.072 A 
ENDROOT
TORSDOF 0
ENDMDL
