MODEL 1
REMARK minimizedAffinity -3.19915152
REMARK minimizedRMSD -1
REMARK  0 active torsions:
REMARK  status: ('A' for Active; 'I' for Inactive)
ROOT
ATOM      1  C1  DEN d   1       4.429  -2.305  -5.997  0.00  0.00     0.130 A 
ATOM      2  C2  DEN d   1       5.242  -1.393  -5.197  0.00  0.00    -0.031 A 
ATOM      3  C3  DEN d   1       5.991  -2.196  -4.210  0.00  0.00     0.027 A 
ATOM      4  C4  DEN d   1       5.976  -4.749  -3.848  0.00  0.00     0.027 A 
ATOM      5  C5  DEN d   1       5.433  -5.941  -4.276  0.00  0.00    -0.003 A 
ATOM      6  C6  DEN d   1       4.501  -6.000  -5.278  0.00  0.00     0.001 A 
ATOM      7  C7  DEN d   1       4.115  -4.850  -5.915  0.00  0.00     0.017 A 
ATOM      8  C8  DEN d   1       4.652  -3.644  -5.483  0.00  0.00    -0.094 A 
ATOM      9  C9  DEN d   1       5.603  -3.607  -4.478  0.00  0.00    -0.072 A 
ENDROOT
TORSDOF 0
ENDMDL
