MODEL 1
REMARK minimizedAffinity -4.42413139
REMARK minimizedRMSD -1
REMARK  0 active torsions:
REMARK  status: ('A' for Active; 'I' for Inactive)
ROOT
ATOM      1  C1  DEN d   1       3.623  -1.260  -5.647  0.00  0.00     0.130 A 
ATOM      2  C2  DEN d   1       4.848  -0.471  -5.754  0.00  0.00    -0.031 A 
ATOM      3  C3  DEN d   1       5.991  -1.363  -5.475  0.00  0.00     0.027 A 
ATOM      4  C4  DEN d   1       5.985  -3.877  -4.897  0.00  0.00     0.027 A 
ATOM      5  C5  DEN d   1       5.185  -4.977  -4.681  0.00  0.00    -0.003 A 
ATOM      6  C6  DEN d   1       3.818  -4.908  -4.737  0.00  0.00     0.001 A 
ATOM      7  C7  DEN d   1       3.211  -3.724  -5.061  0.00  0.00     0.017 A 
ATOM      8  C8  DEN d   1       4.011  -2.609  -5.274  0.00  0.00    -0.094 A 
ATOM      9  C9  DEN d   1       5.391  -2.701  -5.224  0.00  0.00    -0.072 A 
ENDROOT
TORSDOF 0
ENDMDL
