MODEL 1
REMARK minimizedAffinity -1.73534477
REMARK minimizedRMSD -1
REMARK  0 active torsions:
REMARK  status: ('A' for Active; 'I' for Inactive)
ROOT
ATOM      1  C1  DEN d   1       4.646  -4.950  -3.420  0.00  0.00     0.130 A 
ATOM      2  C2  DEN d   1       5.296  -5.983  -4.221  0.00  0.00    -0.031 A 
ATOM      3  C3  DEN d   1       5.938  -5.326  -5.378  0.00  0.00     0.027 A 
ATOM      4  C4  DEN d   1       5.990  -2.823  -6.000  0.00  0.00     0.027 A 
ATOM      5  C5  DEN d   1       5.568  -1.565  -5.629  0.00  0.00    -0.003 A 
ATOM      6  C6  DEN d   1       4.787  -1.353  -4.524  0.00  0.00     0.001 A 
ATOM      7  C7  DEN d   1       4.441  -2.411  -3.724  0.00  0.00     0.017 A 
ATOM      8  C8  DEN d   1       4.857  -3.683  -4.096  0.00  0.00    -0.094 A 
ATOM      9  C9  DEN d   1       5.656  -3.875  -5.210  0.00  0.00    -0.072 A 
ENDROOT
TORSDOF 0
ENDMDL
