MODEL 1
REMARK minimizedAffinity -1.1057992
REMARK minimizedRMSD -1
REMARK  0 active torsions:
REMARK  status: ('A' for Active; 'I' for Inactive)
ROOT
ATOM      1  C   UNL d   1       0.240   0.090   0.886  0.00  0.00    -0.002 A 
ATOM      2  C1  UNL d   1       1.115  -0.157  -0.163  0.00  0.00     0.010 A 
ATOM      3  C2  UNL d   1       0.666  -0.120  -1.485  0.00  0.00     0.041 A 
ATOM      4  C3  UNL d   1      -0.688   0.174  -1.737  0.00  0.00    -0.075 A 
ATOM      5  S   UNL d   1      -1.461   0.275  -3.275  0.00  0.00     0.015 SA
ATOM      6  C4  UNL d   1      -2.970   0.649  -2.575  0.00  0.00     0.022 A 
ATOM      7  C5  UNL d   1      -2.904   0.699  -1.203  0.00  0.00     0.026 A 
ATOM      8  C6  UNL d   1      -1.588   0.427  -0.697  0.00  0.00    -0.082 A 
ATOM      9  C7  UNL d   1      -1.103   0.381   0.632  0.00  0.00     0.045 A 
ENDROOT
TORSDOF 0
ENDMDL
