MODEL 1
REMARK minimizedAffinity -4.89448261
REMARK minimizedRMSD -1
REMARK  0 active torsions:
REMARK  status: ('A' for Active; 'I' for Inactive)
ROOT
ATOM      1  C   UNL d   1       3.684  -0.971   1.121  0.00  0.00    -0.002 A 
ATOM      2  C1  UNL d   1       3.013  -1.784   2.023  0.00  0.00     0.010 A 
ATOM      3  C2  UNL d   1       1.618  -1.781   2.081  0.00  0.00     0.041 A 
ATOM      4  C3  UNL d   1       0.901  -0.940   1.206  0.00  0.00    -0.075 A 
ATOM      5  S   UNL d   1      -0.811  -0.771   1.097  0.00  0.00     0.015 SA
ATOM      6  C4  UNL d   1      -0.692   0.384  -0.150  0.00  0.00     0.022 A 
ATOM      7  C5  UNL d   1       0.614   0.646  -0.488  0.00  0.00     0.026 A 
ATOM      8  C6  UNL d   1       1.554  -0.113   0.288  0.00  0.00    -0.082 A 
ATOM      9  C7  UNL d   1       2.970  -0.138   0.255  0.00  0.00     0.045 A 
ENDROOT
TORSDOF 0
ENDMDL
