MODEL 1
REMARK minimizedAffinity 0.974820435
REMARK minimizedRMSD -1
REMARK  0 active torsions:
REMARK  status: ('A' for Active; 'I' for Inactive)
ROOT
ATOM      1  C   UNL d   1       3.036   0.817  -0.227  0.00  0.00    -0.002 A 
ATOM      2  C1  UNL d   1       1.922   1.638  -0.339  0.00  0.00     0.010 A 
ATOM      3  C2  UNL d   1       0.664   1.188   0.066  0.00  0.00     0.041 A 
ATOM      4  C3  UNL d   1       0.543  -0.113   0.592  0.00  0.00    -0.075 A 
ATOM      5  S   UNL d   1      -0.897  -0.877   1.153  0.00  0.00     0.015 SA
ATOM      6  C4  UNL d   1      -0.069  -2.311   1.555  0.00  0.00     0.022 A 
ATOM      7  C5  UNL d   1       1.275  -2.226   1.275  0.00  0.00     0.026 A 
ATOM      8  C6  UNL d   1       1.649  -0.958   0.716  0.00  0.00    -0.082 A 
ATOM      9  C7  UNL d   1       2.911  -0.473   0.296  0.00  0.00     0.045 A 
ENDROOT
TORSDOF 0
ENDMDL
