MODEL 1
REMARK minimizedAffinity -1.82777047
REMARK minimizedRMSD -1
REMARK  0 active torsions:
REMARK  status: ('A' for Active; 'I' for Inactive)
ROOT
ATOM      1  C   UNL d   1      -2.001  -5.442  -5.814  0.00  0.00     0.020 A 
ATOM      2  C1  UNL d   1      -1.854  -4.063  -5.961  0.00  0.00     0.020 A 
ATOM      3  C2  UNL d   1      -2.982  -3.241  -5.999  0.00  0.00     0.034 A 
ATOM      4  C3  UNL d   1      -4.262  -3.796  -5.891  0.00  0.00     0.017 A 
ATOM      5  C4  UNL d   1      -4.409  -5.180  -5.743  0.00  0.00     0.017 A 
ATOM      6  C5  UNL d   1      -3.276  -5.999  -5.705  0.00  0.00     0.034 A 
ATOM      7 Cl   UNL d   1      -5.956  -5.938  -5.603  0.00  0.00    -0.070 Cl
ATOM      8 Cl1  UNL d   1      -5.612  -2.719  -5.945  0.00  0.00    -0.070 Cl
ENDROOT
TORSDOF 0
ENDMDL
