MODEL 1
REMARK minimizedAffinity -3.33343005
REMARK minimizedRMSD -1
REMARK  0 active torsions:
REMARK  status: ('A' for Active; 'I' for Inactive)
ROOT
ATOM      1  C   UNL d   1      -1.728  -4.734  -3.675  0.00  0.00     0.020 A 
ATOM      2  C1  UNL d   1      -2.468  -5.857  -3.308  0.00  0.00     0.020 A 
ATOM      3  C2  UNL d   1      -3.785  -6.000  -3.749  0.00  0.00     0.034 A 
ATOM      4  C3  UNL d   1      -4.367  -5.018  -4.559  0.00  0.00     0.017 A 
ATOM      5  C4  UNL d   1      -3.623  -3.891  -4.927  0.00  0.00     0.017 A 
ATOM      6  C5  UNL d   1      -2.304  -3.753  -4.483  0.00  0.00     0.034 A 
ATOM      7 Cl   UNL d   1      -4.271  -2.638  -5.925  0.00  0.00    -0.070 Cl
ATOM      8 Cl1  UNL d   1      -6.000  -5.260  -5.068  0.00  0.00    -0.070 Cl
ENDROOT
TORSDOF 0
ENDMDL
