MODEL 1
REMARK minimizedAffinity -0.83036691
REMARK minimizedRMSD -1
REMARK  0 active torsions:
REMARK  status: ('A' for Active; 'I' for Inactive)
ROOT
ATOM      1  C   UNL d   1      -4.215  -3.004  -5.478  0.00  0.00     0.020 A 
ATOM      2  C1  UNL d   1      -4.521  -3.027  -4.118  0.00  0.00     0.020 A 
ATOM      3  C2  UNL d   1      -3.903  -3.956  -3.279  0.00  0.00     0.034 A 
ATOM      4  C3  UNL d   1      -2.975  -4.866  -3.799  0.00  0.00     0.017 A 
ATOM      5  C4  UNL d   1      -2.668  -4.842  -5.164  0.00  0.00     0.017 A 
ATOM      6  C5  UNL d   1      -3.290  -3.909  -6.000  0.00  0.00     0.034 A 
ATOM      7 Cl   UNL d   1      -1.534  -5.933  -5.878  0.00  0.00    -0.070 Cl
ATOM      8 Cl1  UNL d   1      -2.249  -5.987  -2.703  0.00  0.00    -0.070 Cl
ENDROOT
TORSDOF 0
ENDMDL
