MODEL 1
REMARK minimizedAffinity -3.07617378
REMARK minimizedRMSD -1
REMARK  0 active torsions:
REMARK  status: ('A' for Active; 'I' for Inactive)
ROOT
ATOM      1  C   UNL d   1      -2.075  -4.921  -4.074  0.00  0.00     0.020 A 
ATOM      2  C1  UNL d   1      -2.394  -5.347  -5.362  0.00  0.00     0.020 A 
ATOM      3  C2  UNL d   1      -3.611  -4.977  -5.938  0.00  0.00     0.034 A 
ATOM      4  C3  UNL d   1      -4.513  -4.179  -5.226  0.00  0.00     0.017 A 
ATOM      5  C4  UNL d   1      -4.192  -3.752  -3.932  0.00  0.00     0.017 A 
ATOM      6  C5  UNL d   1      -2.972  -4.125  -3.360  0.00  0.00     0.034 A 
ATOM      7 Cl   UNL d   1      -5.254  -2.765  -2.991  0.00  0.00    -0.070 Cl
ATOM      8 Cl1  UNL d   1      -6.000  -3.759  -6.000  0.00  0.00    -0.070 Cl
ENDROOT
TORSDOF 0
ENDMDL
