MODEL 1
REMARK minimizedAffinity 2.87955976
REMARK minimizedRMSD -1
REMARK  0 active torsions:
REMARK  status: ('A' for Active; 'I' for Inactive)
ROOT
ATOM      1  C   UNL d   1      -2.150  -5.999  -4.922  0.00  0.00     0.020 A 
ATOM      2  C1  UNL d   1      -3.034  -5.997  -6.000  0.00  0.00     0.020 A 
ATOM      3  C2  UNL d   1      -4.168  -5.181  -5.972  0.00  0.00     0.034 A 
ATOM      4  C3  UNL d   1      -4.419  -4.364  -4.864  0.00  0.00     0.017 A 
ATOM      5  C4  UNL d   1      -3.531  -4.367  -3.782  0.00  0.00     0.017 A 
ATOM      6  C5  UNL d   1      -2.397  -5.185  -3.816  0.00  0.00     0.034 A 
ATOM      7 Cl   UNL d   1      -3.774  -3.385  -2.381  0.00  0.00    -0.070 Cl
ATOM      8 Cl1  UNL d   1      -5.840  -3.381  -4.897  0.00  0.00    -0.070 Cl
ENDROOT
TORSDOF 0
ENDMDL
