MODEL 1
REMARK minimizedAffinity 1.14640892
REMARK minimizedRMSD -1
REMARK  0 active torsions:
REMARK  status: ('A' for Active; 'I' for Inactive)
ROOT
ATOM      1  C   UNL d   1      -1.860  -5.819  -4.061  0.00  0.00     0.020 A 
ATOM      2  C1  UNL d   1      -2.136  -6.000  -5.415  0.00  0.00     0.020 A 
ATOM      3  C2  UNL d   1      -3.238  -5.366  -5.994  0.00  0.00     0.034 A 
ATOM      4  C3  UNL d   1      -4.067  -4.549  -5.217  0.00  0.00     0.017 A 
ATOM      5  C4  UNL d   1      -3.789  -4.368  -3.857  0.00  0.00     0.017 A 
ATOM      6  C5  UNL d   1      -2.684  -5.005  -3.284  0.00  0.00     0.034 A 
ATOM      7 Cl   UNL d   1      -4.767  -3.375  -2.835  0.00  0.00    -0.070 Cl
ATOM      8 Cl1  UNL d   1      -5.412  -3.796  -5.998  0.00  0.00    -0.070 Cl
ENDROOT
TORSDOF 0
ENDMDL
