MODEL 1
REMARK minimizedAffinity -2.34010959
REMARK minimizedRMSD -1
REMARK  0 active torsions:
REMARK  status: ('A' for Active; 'I' for Inactive)
ROOT
ATOM      1  C   UNL d   1      -2.034  -5.526  -5.666  0.00  0.00     0.020 A 
ATOM      2  C1  UNL d   1      -1.898  -4.381  -4.882  0.00  0.00     0.020 A 
ATOM      3  C2  UNL d   1      -3.034  -3.706  -4.430  0.00  0.00     0.034 A 
ATOM      4  C3  UNL d   1      -4.311  -4.175  -4.762  0.00  0.00     0.017 A 
ATOM      5  C4  UNL d   1      -4.445  -5.325  -5.548  0.00  0.00     0.017 A 
ATOM      6  C5  UNL d   1      -3.305  -5.997  -5.998  0.00  0.00     0.034 A 
ATOM      7 Cl   UNL d   1      -5.987  -5.965  -5.998  0.00  0.00    -0.070 Cl
ATOM      8 Cl1  UNL d   1      -5.671  -3.291  -4.168  0.00  0.00    -0.070 Cl
ENDROOT
TORSDOF 0
ENDMDL
