MODEL 1
REMARK minimizedAffinity 0.930696011
REMARK minimizedRMSD -1
REMARK  0 active torsions:
REMARK  status: ('A' for Active; 'I' for Inactive)
ROOT
ATOM      1  C   UNL d   1      -1.910  -4.032  -5.999  0.00  0.00     0.020 A 
ATOM      2  C1  UNL d   1      -2.037  -5.420  -5.943  0.00  0.00     0.020 A 
ATOM      3  C2  UNL d   1      -3.300  -6.000  -5.804  0.00  0.00     0.034 A 
ATOM      4  C3  UNL d   1      -4.440  -5.192  -5.722  0.00  0.00     0.017 A 
ATOM      5  C4  UNL d   1      -4.312  -3.800  -5.779  0.00  0.00     0.017 A 
ATOM      6  C5  UNL d   1      -3.045  -3.224  -5.918  0.00  0.00     0.034 A 
ATOM      7 Cl   UNL d   1      -5.672  -2.738  -5.685  0.00  0.00    -0.070 Cl
ATOM      8 Cl1  UNL d   1      -5.970  -5.977  -5.552  0.00  0.00    -0.070 Cl
ENDROOT
TORSDOF 0
ENDMDL
