MODEL 1
REMARK minimizedAffinity -1.06940281
REMARK minimizedRMSD -1
REMARK  0 active torsions:
REMARK  status: ('A' for Active; 'I' for Inactive)
ROOT
ATOM      1  C   UNL d   1      -1.835  -4.008  -5.955  0.00  0.00     0.020 A 
ATOM      2  C1  UNL d   1      -1.952  -5.397  -5.983  0.00  0.00     0.020 A 
ATOM      3  C2  UNL d   1      -3.215  -5.992  -5.995  0.00  0.00     0.034 A 
ATOM      4  C3  UNL d   1      -4.367  -5.197  -5.978  0.00  0.00     0.017 A 
ATOM      5  C4  UNL d   1      -4.249  -3.803  -5.949  0.00  0.00     0.017 A 
ATOM      6  C5  UNL d   1      -2.981  -3.213  -5.937  0.00  0.00     0.034 A 
ATOM      7 Cl   UNL d   1      -5.624  -2.756  -5.926  0.00  0.00    -0.070 Cl
ATOM      8 Cl1  UNL d   1      -5.897  -5.999  -5.994  0.00  0.00    -0.070 Cl
ENDROOT
TORSDOF 0
ENDMDL
