MODEL 1
REMARK minimizedAffinity -2.92713332
REMARK minimizedRMSD -1
REMARK  0 active torsions:
REMARK  status: ('A' for Active; 'I' for Inactive)
ROOT
ATOM      1  C   UNL d   1      -6.000  -3.148  -4.484  0.00  0.00     0.020 A 
ATOM      2  C1  UNL d   1      -5.385  -2.611  -5.615  0.00  0.00     0.020 A 
ATOM      3  C2  UNL d   1      -4.119  -3.059  -6.000  0.00  0.00     0.034 A 
ATOM      4  C3  UNL d   1      -3.465  -4.046  -5.254  0.00  0.00     0.017 A 
ATOM      5  C4  UNL d   1      -4.083  -4.584  -4.120  0.00  0.00     0.017 A 
ATOM      6  C5  UNL d   1      -5.350  -4.132  -3.739  0.00  0.00     0.034 A 
ATOM      7 Cl   UNL d   1      -3.338  -5.805  -3.149  0.00  0.00    -0.070 Cl
ATOM      8 Cl1  UNL d   1      -1.902  -4.552  -5.789  0.00  0.00    -0.070 Cl
ENDROOT
TORSDOF 0
ENDMDL
