MODEL 1
REMARK minimizedAffinity -2.34476399
REMARK minimizedRMSD -1
REMARK  0 active torsions:
REMARK  status: ('A' for Active; 'I' for Inactive)
ROOT
ATOM      1  C   UNL d   1      -1.600  -5.011  -4.926  0.00  0.00     0.020 A 
ATOM      2  C1  UNL d   1      -2.214  -5.999  -5.694  0.00  0.00     0.020 A 
ATOM      3  C2  UNL d   1      -3.574  -5.903  -5.998  0.00  0.00     0.034 A 
ATOM      4  C3  UNL d   1      -4.323  -4.816  -5.534  0.00  0.00     0.017 A 
ATOM      5  C4  UNL d   1      -3.706  -3.825  -4.763  0.00  0.00     0.017 A 
ATOM      6  C5  UNL d   1      -2.344  -3.926  -4.462  0.00  0.00     0.034 A 
ATOM      7 Cl   UNL d   1      -4.565  -2.454  -4.155  0.00  0.00    -0.070 Cl
ATOM      8 Cl1  UNL d   1      -6.000  -4.761  -5.949  0.00  0.00    -0.070 Cl
ENDROOT
TORSDOF 0
ENDMDL
