MODEL 1
REMARK minimizedAffinity -3.28550839
REMARK minimizedRMSD -1
REMARK  0 active torsions:
REMARK  status: ('A' for Active; 'I' for Inactive)
ROOT
ATOM      1  C   UNL d   1      -3.750  -2.665  -3.904  0.00  0.00     0.020 A 
ATOM      2  C1  UNL d   1      -5.144  -2.691  -3.914  0.00  0.00     0.020 A 
ATOM      3  C2  UNL d   1      -5.819  -3.729  -4.559  0.00  0.00     0.034 A 
ATOM      4  C3  UNL d   1      -5.099  -4.746  -5.197  0.00  0.00     0.017 A 
ATOM      5  C4  UNL d   1      -3.700  -4.720  -5.187  0.00  0.00     0.017 A 
ATOM      6  C5  UNL d   1      -3.030  -3.677  -4.539  0.00  0.00     0.034 A 
ATOM      7 Cl   UNL d   1      -2.744  -5.939  -5.952  0.00  0.00    -0.070 Cl
ATOM      8 Cl1  UNL d   1      -5.998  -6.000  -5.976  0.00  0.00    -0.070 Cl
ENDROOT
TORSDOF 0
ENDMDL
