MODEL 1
REMARK minimizedAffinity -2.10890889
REMARK minimizedRMSD -1
REMARK  0 active torsions:
REMARK  status: ('A' for Active; 'I' for Inactive)
ROOT
ATOM      1  C   UNL d   1      -1.883  -4.226  -5.196  0.00  0.00     0.020 A 
ATOM      2  C1  UNL d   1      -2.036  -5.483  -5.780  0.00  0.00     0.020 A 
ATOM      3  C2  UNL d   1      -3.314  -6.000  -6.000  0.00  0.00     0.034 A 
ATOM      4  C3  UNL d   1      -4.445  -5.259  -5.636  0.00  0.00     0.017 A 
ATOM      5  C4  UNL d   1      -4.291  -3.998  -5.051  0.00  0.00     0.017 A 
ATOM      6  C5  UNL d   1      -3.008  -3.485  -4.833  0.00  0.00     0.034 A 
ATOM      7 Cl   UNL d   1      -5.638  -3.025  -4.576  0.00  0.00    -0.070 Cl
ATOM      8 Cl1  UNL d   1      -5.995  -5.960  -5.938  0.00  0.00    -0.070 Cl
ENDROOT
TORSDOF 0
ENDMDL
