MODEL 1
REMARK minimizedAffinity -0.0590230227
REMARK minimizedRMSD -1
REMARK  0 active torsions:
REMARK  status: ('A' for Active; 'I' for Inactive)
ROOT
ATOM      1  C   UNL d   1      -5.444  -5.457  -6.000  0.00  0.00     0.020 A 
ATOM      2  C1  UNL d   1      -6.000  -4.623  -5.031  0.00  0.00     0.020 A 
ATOM      3  C2  UNL d   1      -5.205  -4.131  -3.994  0.00  0.00     0.034 A 
ATOM      4  C3  UNL d   1      -3.849  -4.472  -3.923  0.00  0.00     0.017 A 
ATOM      5  C4  UNL d   1      -3.292  -5.308  -4.897  0.00  0.00     0.017 A 
ATOM      6  C5  UNL d   1      -4.092  -5.799  -5.933  0.00  0.00     0.034 A 
ATOM      7 Cl   UNL d   1      -1.627  -5.773  -4.877  0.00  0.00    -0.070 Cl
ATOM      8 Cl1  UNL d   1      -2.925  -3.826  -2.614  0.00  0.00    -0.070 Cl
ENDROOT
TORSDOF 0
ENDMDL
