MODEL 1
REMARK minimizedAffinity -2.65227675
REMARK minimizedRMSD -1
REMARK  0 active torsions:
REMARK  status: ('A' for Active; 'I' for Inactive)
ROOT
ATOM      1  C   UNL d   1      -2.647  -4.165  -5.999  0.00  0.00     0.020 A 
ATOM      2  C1  UNL d   1      -2.949  -5.170  -5.081  0.00  0.00     0.020 A 
ATOM      3  C2  UNL d   1      -3.986  -4.988  -4.163  0.00  0.00     0.034 A 
ATOM      4  C3  UNL d   1      -4.724  -3.799  -4.161  0.00  0.00     0.017 A 
ATOM      5  C4  UNL d   1      -4.420  -2.791  -5.083  0.00  0.00     0.017 A 
ATOM      6  C5  UNL d   1      -3.381  -2.978  -6.000  0.00  0.00     0.034 A 
ATOM      7 Cl   UNL d   1      -5.286  -1.296  -5.141  0.00  0.00    -0.070 Cl
ATOM      8 Cl1  UNL d   1      -5.992  -3.642  -2.997  0.00  0.00    -0.070 Cl
ENDROOT
TORSDOF 0
ENDMDL
