MODEL 1
REMARK minimizedAffinity -1.36362159
REMARK minimizedRMSD -1
REMARK  0 active torsions:
REMARK  status: ('A' for Active; 'I' for Inactive)
ROOT
ATOM      1  C   UNL d   1      -1.885  -4.701  -4.467  0.00  0.00     0.020 A 
ATOM      2  C1  UNL d   1      -2.035  -5.661  -5.467  0.00  0.00     0.020 A 
ATOM      3  C2  UNL d   1      -3.310  -5.998  -5.926  0.00  0.00     0.034 A 
ATOM      4  C3  UNL d   1      -4.440  -5.374  -5.384  0.00  0.00     0.017 A 
ATOM      5  C4  UNL d   1      -4.289  -4.411  -4.381  0.00  0.00     0.017 A 
ATOM      6  C5  UNL d   1      -3.010  -4.077  -3.925  0.00  0.00     0.034 A 
ATOM      7 Cl   UNL d   1      -5.636  -3.598  -3.665  0.00  0.00    -0.070 Cl
ATOM      8 Cl1  UNL d   1      -5.987  -5.839  -6.000  0.00  0.00    -0.070 Cl
ENDROOT
TORSDOF 0
ENDMDL
