MODEL 1
REMARK minimizedAffinity -0.917609155
REMARK minimizedRMSD -1
REMARK  0 active torsions:
REMARK  status: ('A' for Active; 'I' for Inactive)
ROOT
ATOM      1  C   UNL d   1      -6.000  -2.640  -4.829  0.00  0.00     0.020 A 
ATOM      2  C1  UNL d   1      -5.624  -3.303  -5.997  0.00  0.00     0.020 A 
ATOM      3  C2  UNL d   1      -4.499  -4.129  -6.000  0.00  0.00     0.034 A 
ATOM      4  C3  UNL d   1      -3.744  -4.295  -4.833  0.00  0.00     0.017 A 
ATOM      5  C4  UNL d   1      -4.122  -3.629  -3.661  0.00  0.00     0.017 A 
ATOM      6  C5  UNL d   1      -5.250  -2.803  -3.664  0.00  0.00     0.034 A 
ATOM      7 Cl   UNL d   1      -3.241  -3.785  -2.182  0.00  0.00    -0.070 Cl
ATOM      8 Cl1  UNL d   1      -2.364  -5.332  -4.908  0.00  0.00    -0.070 Cl
ENDROOT
TORSDOF 0
ENDMDL
