MODEL 1
REMARK minimizedAffinity 7.22443628
REMARK minimizedRMSD -1
REMARK  0 active torsions:
REMARK  status: ('A' for Active; 'I' for Inactive)
ROOT
ATOM      1  C   UNL d   1      -5.268  -5.973  -5.999  0.00  0.00     0.078 C 
ATOM      2  C1  UNL d   1      -4.985  -4.570  -5.551  0.00  0.00    -0.077 A 
ATOM      3  C2  UNL d   1      -5.998  -3.765  -5.016  0.00  0.00    -0.001 A 
ATOM      4  C3  UNL d   1      -5.721  -2.458  -4.611  0.00  0.00     0.003 A 
ATOM      5  C4  UNL d   1      -4.433  -1.944  -4.739  0.00  0.00    -0.005 A 
ATOM      6  C5  UNL d   1      -3.419  -2.737  -5.273  0.00  0.00     0.003 A 
ATOM      7  C6  UNL d   1      -3.693  -4.044  -5.677  0.00  0.00    -0.001 A 
ENDROOT
TORSDOF 0
ENDMDL
