MODEL 1
REMARK minimizedAffinity -0.453048199
REMARK minimizedRMSD -1
REMARK  0 active torsions:
REMARK  status: ('A' for Active; 'I' for Inactive)
ROOT
ATOM      1  C   UNL d   1       4.072  -2.321  -2.567  0.00  0.00     0.078 C 
ATOM      2  C1  UNL d   1       4.484  -1.507  -3.758  0.00  0.00    -0.077 A 
ATOM      3  C2  UNL d   1       3.749  -0.382  -4.152  0.00  0.00    -0.001 A 
ATOM      4  C3  UNL d   1       4.139   0.360  -5.268  0.00  0.00     0.003 A 
ATOM      5  C4  UNL d   1       5.263  -0.015  -6.000  0.00  0.00    -0.005 A 
ATOM      6  C5  UNL d   1       5.999  -1.134  -5.617  0.00  0.00     0.003 A 
ATOM      7  C6  UNL d   1       5.611  -1.878  -4.501  0.00  0.00    -0.001 A 
ENDROOT
TORSDOF 0
ENDMDL
