MODEL 1
REMARK minimizedAffinity 1.39410603
REMARK minimizedRMSD -1
REMARK  0 active torsions:
REMARK  status: ('A' for Active; 'I' for Inactive)
ROOT
ATOM      1  C   UNL d   1      -4.874  -1.906  -4.417  0.00  0.00     0.078 C 
ATOM      2  C1  UNL d   1      -4.881  -3.336  -4.869  0.00  0.00    -0.077 A 
ATOM      3  C2  UNL d   1      -3.790  -4.177  -4.617  0.00  0.00    -0.001 A 
ATOM      4  C3  UNL d   1      -3.807  -5.503  -5.052  0.00  0.00     0.003 A 
ATOM      5  C4  UNL d   1      -4.911  -6.000  -5.743  0.00  0.00    -0.005 A 
ATOM      6  C5  UNL d   1      -6.000  -5.169  -6.000  0.00  0.00     0.003 A 
ATOM      7  C6  UNL d   1      -5.985  -3.843  -5.566  0.00  0.00    -0.001 A 
ENDROOT
TORSDOF 0
ENDMDL
