MODEL 1
REMARK minimizedAffinity 2.49841022
REMARK minimizedRMSD -1
REMARK  0 active torsions:
REMARK  status: ('A' for Active; 'I' for Inactive)
ROOT
ATOM      1  C   UNL d   1       4.138  -0.994  -1.916  0.00  0.00     0.078 C 
ATOM      2  C1  UNL d   1       4.530  -0.723  -3.337  0.00  0.00    -0.077 A 
ATOM      3  C2  UNL d   1       5.640  -1.355  -3.912  0.00  0.00    -0.001 A 
ATOM      4  C3  UNL d   1       5.999  -1.086  -5.234  0.00  0.00     0.003 A 
ATOM      5  C4  UNL d   1       5.255  -0.184  -5.992  0.00  0.00    -0.005 A 
ATOM      6  C5  UNL d   1       4.150   0.451  -5.428  0.00  0.00     0.003 A 
ATOM      7  C6  UNL d   1       3.789   0.183  -4.106  0.00  0.00    -0.001 A 
ENDROOT
TORSDOF 0
ENDMDL
