MODEL 1
REMARK minimizedAffinity 0.535674751
REMARK minimizedRMSD -1
REMARK  0 active torsions:
REMARK  status: ('A' for Active; 'I' for Inactive)
ROOT
ATOM      1  C   UNL d   1      -4.058  -1.891  -4.986  0.00  0.00     0.078 C 
ATOM      2  C1  UNL d   1      -4.390  -3.308  -5.348  0.00  0.00    -0.077 A 
ATOM      3  C2  UNL d   1      -5.702  -3.683  -5.662  0.00  0.00    -0.001 A 
ATOM      4  C3  UNL d   1      -5.999  -5.008  -5.988  0.00  0.00     0.003 A 
ATOM      5  C4  UNL d   1      -4.989  -5.968  -6.000  0.00  0.00    -0.005 A 
ATOM      6  C5  UNL d   1      -3.681  -5.605  -5.686  0.00  0.00     0.003 A 
ATOM      7  C6  UNL d   1      -3.383  -4.281  -5.360  0.00  0.00    -0.001 A 
ENDROOT
TORSDOF 0
ENDMDL
