MODEL 1
REMARK minimizedAffinity 13.3179598
REMARK minimizedRMSD -1
REMARK  1 active torsions:
REMARK  status: ('A' for Active; 'I' for Inactive)
REMARK    1  A    between atoms: C1_2  and  C2_3 
ROOT
ATOM      1  C2  UNL d   1       4.626  -2.418   5.335  0.00  0.00    -0.073 A 
ATOM      2  C3  UNL d   1       4.534  -1.115   4.833  0.00  0.00    -0.002 A 
ATOM      3  C4  UNL d   1       3.358  -0.675   4.226  0.00  0.00     0.004 A 
ATOM      4  C5  UNL d   1       2.261  -1.529   4.119  0.00  0.00    -0.004 A 
ATOM      5  C6  UNL d   1       2.329  -2.832   4.625  0.00  0.00    -0.075 A 
ATOM      6  C7  UNL d   1       1.158  -3.764   4.516  0.00  0.00     0.076 C 
ATOM      7  C8  UNL d   1       3.515  -3.267   5.231  0.00  0.00     0.001 A 
ENDROOT
BRANCH   1   8
ATOM      8  C1  UNL d   1       5.893  -2.896   5.997  0.00  0.00     0.053 C 
ATOM      9  C   UNL d   1       5.999  -4.413   5.998  0.00  0.00     0.018 C 
ENDBRANCH   1   8
TORSDOF 1
ENDMDL
