MODEL 1
REMARK minimizedAffinity 12.8986034
REMARK minimizedRMSD -1
REMARK  1 active torsions:
REMARK  status: ('A' for Active; 'I' for Inactive)
REMARK    1  A    between atoms: C1_2  and  C2_3 
ROOT
ATOM      1  C2  UNL d   1       2.518  -1.583   3.514  0.00  0.00    -0.073 A 
ATOM      2  C3  UNL d   1       1.707  -2.009   4.572  0.00  0.00    -0.002 A 
ATOM      3  C4  UNL d   1       2.280  -2.521   5.737  0.00  0.00     0.004 A 
ATOM      4  C5  UNL d   1       3.666  -2.605   5.859  0.00  0.00    -0.004 A 
ATOM      5  C6  UNL d   1       4.494  -2.173   4.818  0.00  0.00    -0.075 A 
ATOM      6  C7  UNL d   1       5.988  -2.259   4.933  0.00  0.00     0.076 C 
ATOM      7  C8  UNL d   1       3.911  -1.663   3.650  0.00  0.00     0.001 A 
ENDROOT
BRANCH   1   8
ATOM      8  C1  UNL d   1       1.904  -1.024   2.256  0.00  0.00     0.053 C 
ATOM      9  C   UNL d   1       2.480   0.337   1.897  0.00  0.00     0.018 C 
ENDBRANCH   1   8
TORSDOF 1
ENDMDL
