MODEL 1
REMARK minimizedAffinity 11.2641859
REMARK minimizedRMSD -1
REMARK  1 active torsions:
REMARK  status: ('A' for Active; 'I' for Inactive)
REMARK    1  A    between atoms: C1_2  and  C2_3 
ROOT
ATOM      1  C2  UNL d   1       1.060  -1.789  -0.842  0.00  0.00    -0.073 A 
ATOM      2  C3  UNL d   1       1.083  -0.903   0.241  0.00  0.00    -0.002 A 
ATOM      3  C4  UNL d   1      -0.108  -0.488   0.837  0.00  0.00     0.004 A 
ATOM      4  C5  UNL d   1      -1.332  -0.959   0.362  0.00  0.00    -0.004 A 
ATOM      5  C6  UNL d   1      -1.375  -1.855  -0.711  0.00  0.00    -0.075 A 
ATOM      6  C7  UNL d   1      -2.684  -2.369  -1.235  0.00  0.00     0.076 C 
ATOM      7  C8  UNL d   1      -0.174  -2.265  -1.306  0.00  0.00     0.001 A 
ENDROOT
BRANCH   1   8
ATOM      8  C1  UNL d   1       2.345  -2.245  -1.485  0.00  0.00     0.053 C 
ATOM      9  C   UNL d   1       2.981  -1.150  -2.327  0.00  0.00     0.018 C 
ENDBRANCH   1   8
TORSDOF 1
ENDMDL
