MODEL 1
REMARK minimizedAffinity 0.538434565
REMARK minimizedRMSD -1
REMARK  1 active torsions:
REMARK  status: ('A' for Active; 'I' for Inactive)
REMARK    1  A    between atoms: C1_2  and  C2_3 
ROOT
ATOM      1  C2  UNL d   1       4.342  -1.874   4.009  0.00  0.00    -0.073 A 
ATOM      2  C3  UNL d   1       3.075  -2.225   4.489  0.00  0.00    -0.002 A 
ATOM      3  C4  UNL d   1       1.936  -1.571   4.016  0.00  0.00     0.004 A 
ATOM      4  C5  UNL d   1       2.052  -0.567   3.054  0.00  0.00    -0.004 A 
ATOM      5  C6  UNL d   1       3.308  -0.211   2.554  0.00  0.00    -0.075 A 
ATOM      6  C7  UNL d   1       3.450   0.868   1.521  0.00  0.00     0.076 C 
ATOM      7  C8  UNL d   1       4.447  -0.870   3.036  0.00  0.00     0.001 A 
ENDROOT
BRANCH   1   8
ATOM      8  C1  UNL d   1       5.574  -2.582   4.512  0.00  0.00     0.053 C 
ATOM      9  C   UNL d   1       5.820  -2.316   5.989  0.00  0.00     0.018 C 
ENDBRANCH   1   8
TORSDOF 1
ENDMDL
