MODEL 1
REMARK minimizedAffinity 6.74536991
REMARK minimizedRMSD -1
REMARK  1 active torsions:
REMARK  status: ('A' for Active; 'I' for Inactive)
REMARK    1  A    between atoms: C1_2  and  C2_3 
ROOT
ATOM      1  C2  UNL d   1       4.517  -1.796   4.039  0.00  0.00    -0.073 A 
ATOM      2  C3  UNL d   1       4.217  -0.726   3.188  0.00  0.00    -0.002 A 
ATOM      3  C4  UNL d   1       2.905  -0.509   2.765  0.00  0.00     0.004 A 
ATOM      4  C5  UNL d   1       1.881  -1.353   3.192  0.00  0.00    -0.004 A 
ATOM      5  C6  UNL d   1       2.159  -2.421   4.051  0.00  0.00    -0.075 A 
ATOM      6  C7  UNL d   1       1.068  -3.340   4.518  0.00  0.00     0.076 C 
ATOM      7  C8  UNL d   1       3.479  -2.634   4.470  0.00  0.00     0.001 A 
ENDROOT
BRANCH   1   8
ATOM      8  C1  UNL d   1       5.931  -2.030   4.504  0.00  0.00     0.053 C 
ATOM      9  C   UNL d   1       6.000  -2.317   5.996  0.00  0.00     0.018 C 
ENDBRANCH   1   8
TORSDOF 1
ENDMDL
