MODEL 1
REMARK minimizedAffinity 4.7008605
REMARK minimizedRMSD -1
REMARK  1 active torsions:
REMARK  status: ('A' for Active; 'I' for Inactive)
REMARK    1  A    between atoms: C1_2  and  C2_3 
ROOT
ATOM      1  C2  UNL d   1       4.213  -2.196   4.907  0.00  0.00    -0.073 A 
ATOM      2  C3  UNL d   1       3.217  -2.943   5.547  0.00  0.00    -0.002 A 
ATOM      3  C4  UNL d   1       1.903  -2.914   5.077  0.00  0.00     0.004 A 
ATOM      4  C5  UNL d   1       1.573  -2.147   3.961  0.00  0.00    -0.004 A 
ATOM      5  C6  UNL d   1       2.557  -1.403   3.300  0.00  0.00    -0.075 A 
ATOM      6  C7  UNL d   1       2.218  -0.571   2.099  0.00  0.00     0.076 C 
ATOM      7  C8  UNL d   1       3.874  -1.435   3.780  0.00  0.00     0.001 A 
ENDROOT
BRANCH   1   8
ATOM      8  C1  UNL d   1       5.634  -2.229   5.407  0.00  0.00     0.053 C 
ATOM      9  C   UNL d   1       6.000  -3.581   5.998  0.00  0.00     0.018 C 
ENDBRANCH   1   8
TORSDOF 1
ENDMDL
