MODEL 1
REMARK minimizedAffinity 12.5122976
REMARK minimizedRMSD -1
REMARK  1 active torsions:
REMARK  status: ('A' for Active; 'I' for Inactive)
REMARK    1  A    between atoms: C1_2  and  C2_3 
ROOT
ATOM      1  C2  UNL d   1       2.715  -2.534   4.167  0.00  0.00    -0.073 A 
ATOM      2  C3  UNL d   1       3.983  -2.576   3.578  0.00  0.00    -0.002 A 
ATOM      3  C4  UNL d   1       4.301  -1.718   2.524  0.00  0.00     0.004 A 
ATOM      4  C5  UNL d   1       3.357  -0.805   2.054  0.00  0.00    -0.004 A 
ATOM      5  C6  UNL d   1       2.088  -0.739   2.637  0.00  0.00    -0.075 A 
ATOM      6  C7  UNL d   1       1.061   0.236   2.142  0.00  0.00     0.076 C 
ATOM      7  C8  UNL d   1       1.776  -1.606   3.693  0.00  0.00     0.001 A 
ENDROOT
BRANCH   1   8
ATOM      8  C1  UNL d   1       2.370  -3.454   5.309  0.00  0.00     0.053 C 
ATOM      9  C   UNL d   1       2.780  -4.890   5.028  0.00  0.00     0.018 C 
ENDBRANCH   1   8
TORSDOF 1
ENDMDL
