MODEL 1
REMARK minimizedAffinity 7.96536446
REMARK minimizedRMSD -1
REMARK  1 active torsions:
REMARK  status: ('A' for Active; 'I' for Inactive)
REMARK    1  A    between atoms: C1_2  and  C2_3 
ROOT
ATOM      1  C2  UNL d   1      -3.776   1.362  -5.231  0.00  0.00    -0.076 A 
ATOM      2  C3  UNL d   1      -2.445   1.148  -5.628  0.00  0.00     0.004 A 
ATOM      3  C4  UNL d   1      -1.889  -0.130  -5.615  0.00  0.00    -0.003 A 
ATOM      4  C5  UNL d   1      -2.656  -1.215  -5.205  0.00  0.00     0.000 A 
ATOM      5  C6  UNL d   1      -3.984  -1.023  -4.825  0.00  0.00     0.000 A 
ATOM      6  C7  UNL d   1      -4.565   0.256  -4.848  0.00  0.00    -0.073 A 
ATOM      7  C8  UNL d   1      -5.999   0.406  -4.422  0.00  0.00     0.078 C 
ENDROOT
BRANCH   1   8
ATOM      8  C1  UNL d   1      -4.316   2.775  -5.240  0.00  0.00     0.053 C 
ATOM      9  C   UNL d   1      -3.712   3.637  -4.143  0.00  0.00     0.018 C 
ENDBRANCH   1   8
TORSDOF 1
ENDMDL
