MODEL 1
REMARK minimizedAffinity 4.84490252
REMARK minimizedRMSD -1
REMARK  1 active torsions:
REMARK  status: ('A' for Active; 'I' for Inactive)
REMARK    1  A    between atoms: C1_2  and  C2_3 
ROOT
ATOM      1  C2  UNL d   1      -3.998  -0.092  -3.493  0.00  0.00    -0.076 A 
ATOM      2  C3  UNL d   1      -4.344  -1.451  -3.395  0.00  0.00     0.004 A 
ATOM      3  C4  UNL d   1      -4.261  -2.294  -4.502  0.00  0.00    -0.003 A 
ATOM      4  C5  UNL d   1      -3.831  -1.792  -5.725  0.00  0.00     0.000 A 
ATOM      5  C6  UNL d   1      -3.468  -0.450  -5.837  0.00  0.00     0.000 A 
ATOM      6  C7  UNL d   1      -3.530   0.410  -4.727  0.00  0.00    -0.073 A 
ATOM      7  C8  UNL d   1      -3.131   1.849  -4.905  0.00  0.00     0.078 C 
ENDROOT
BRANCH   1   8
ATOM      8  C1  UNL d   1      -4.134   0.781  -2.266  0.00  0.00     0.053 C 
ATOM      9  C   UNL d   1      -3.128   0.423  -1.183  0.00  0.00     0.018 C 
ENDBRANCH   1   8
TORSDOF 1
ENDMDL
