MODEL 1
REMARK minimizedAffinity 4.64529848
REMARK minimizedRMSD -1
REMARK  1 active torsions:
REMARK  status: ('A' for Active; 'I' for Inactive)
REMARK    1  A    between atoms: C1_2  and  C2_3 
ROOT
ATOM      1  C2  UNL d   1      -3.638  -0.377  -5.568  0.00  0.00    -0.076 A 
ATOM      2  C3  UNL d   1      -3.442   0.992  -5.819  0.00  0.00     0.004 A 
ATOM      3  C4  UNL d   1      -4.410   1.932  -5.468  0.00  0.00    -0.003 A 
ATOM      4  C5  UNL d   1      -5.590   1.517  -4.860  0.00  0.00     0.000 A 
ATOM      5  C6  UNL d   1      -5.793   0.165  -4.587  0.00  0.00     0.000 A 
ATOM      6  C7  UNL d   1      -4.820  -0.793  -4.920  0.00  0.00    -0.073 A 
ATOM      7  C8  UNL d   1      -5.095  -2.239  -4.608  0.00  0.00     0.078 C 
ENDROOT
BRANCH   1   8
ATOM      8  C1  UNL d   1      -2.565  -1.352  -5.996  0.00  0.00     0.053 C 
ATOM      9  C   UNL d   1      -1.519  -1.578  -4.915  0.00  0.00     0.018 C 
ENDBRANCH   1   8
TORSDOF 1
ENDMDL
