MODEL 1
REMARK minimizedAffinity 6.59649897
REMARK minimizedRMSD -1
REMARK  1 active torsions:
REMARK  status: ('A' for Active; 'I' for Inactive)
REMARK    1  A    between atoms: C1_2  and  C2_3 
ROOT
ATOM      1  C2  UNL d   1       4.911   2.230  -4.750  0.00  0.00    -0.076 A 
ATOM      2  C3  UNL d   1       5.423   1.704  -5.949  0.00  0.00     0.004 A 
ATOM      3  C4  UNL d   1       5.953   0.416  -5.999  0.00  0.00    -0.003 A 
ATOM      4  C5  UNL d   1       5.981  -0.367  -4.850  0.00  0.00     0.000 A 
ATOM      5  C6  UNL d   1       5.461   0.133  -3.656  0.00  0.00     0.000 A 
ATOM      6  C7  UNL d   1       4.908   1.423  -3.593  0.00  0.00    -0.073 A 
ATOM      7  C8  UNL d   1       4.368   1.913  -2.277  0.00  0.00     0.078 C 
ENDROOT
BRANCH   1   8
ATOM      8  C1  UNL d   1       4.373   3.643  -4.751  0.00  0.00     0.053 C 
ATOM      9  C   UNL d   1       3.548   3.952  -5.990  0.00  0.00     0.018 C 
ENDBRANCH   1   8
TORSDOF 1
ENDMDL
