MODEL 1
REMARK minimizedAffinity 1.92465663
REMARK minimizedRMSD -1
REMARK  1 active torsions:
REMARK  status: ('A' for Active; 'I' for Inactive)
REMARK    1  A    between atoms: C1_2  and  C2_3 
ROOT
ATOM      1  C2  UNL d   1      -3.718  -0.416  -3.884  0.00  0.00    -0.076 A 
ATOM      2  C3  UNL d   1      -5.070  -0.279  -3.524  0.00  0.00     0.004 A 
ATOM      3  C4  UNL d   1      -5.983   0.329  -4.384  0.00  0.00    -0.003 A 
ATOM      4  C5  UNL d   1      -5.559   0.810  -5.618  0.00  0.00     0.000 A 
ATOM      5  C6  UNL d   1      -4.225   0.666  -5.998  0.00  0.00     0.000 A 
ATOM      6  C7  UNL d   1      -3.295   0.041  -5.150  0.00  0.00    -0.073 A 
ATOM      7  C8  UNL d   1      -1.868  -0.081  -5.609  0.00  0.00     0.078 C 
ENDROOT
BRANCH   1   8
ATOM      8  C1  UNL d   1      -2.769  -1.059  -2.899  0.00  0.00     0.053 C 
ATOM      9  C   UNL d   1      -2.789  -0.378  -1.539  0.00  0.00     0.018 C 
ENDBRANCH   1   8
TORSDOF 1
ENDMDL
