MODEL 1
REMARK minimizedAffinity 10.6451406
REMARK minimizedRMSD -1
REMARK  1 active torsions:
REMARK  status: ('A' for Active; 'I' for Inactive)
REMARK    1  A    between atoms: C1_2  and  C2_3 
ROOT
ATOM      1  C2  UNL d   1      -3.776   0.245  -5.522  0.00  0.00    -0.076 A 
ATOM      2  C3  UNL d   1      -5.105  -0.037  -5.160  0.00  0.00     0.004 A 
ATOM      3  C4  UNL d   1      -5.998   0.989  -4.854  0.00  0.00    -0.003 A 
ATOM      4  C5  UNL d   1      -5.576   2.313  -4.905  0.00  0.00     0.000 A 
ATOM      5  C6  UNL d   1      -4.267   2.612  -5.279  0.00  0.00     0.000 A 
ATOM      6  C7  UNL d   1      -3.358   1.591  -5.607  0.00  0.00    -0.073 A 
ATOM      7  C8  UNL d   1      -1.956   1.970  -5.998  0.00  0.00     0.078 C 
ENDROOT
BRANCH   1   8
ATOM      8  C1  UNL d   1      -2.845  -0.910  -5.817  0.00  0.00     0.053 C 
ATOM      9  C   UNL d   1      -2.449  -1.673  -4.563  0.00  0.00     0.018 C 
ENDBRANCH   1   8
TORSDOF 1
ENDMDL
