MODEL 1
REMARK minimizedAffinity -3.06241059
REMARK minimizedRMSD -1
REMARK  0 active torsions:
REMARK  status: ('A' for Active; 'I' for Inactive)
ROOT
ATOM      1  C   UNL d   1      -1.035   3.150  -4.908  0.00  0.00     0.077 C 
ATOM      2  C1  UNL d   1      -1.644   2.175  -3.945  0.00  0.00    -0.074 A 
ATOM      3  C2  UNL d   1      -2.507   1.168  -4.392  0.00  0.00    -0.005 A 
ATOM      4  C3  UNL d   1      -3.058   0.262  -3.486  0.00  0.00     0.006 A 
ATOM      5  C4  UNL d   1      -2.754   0.352  -2.127  0.00  0.00    -0.005 A 
ATOM      6  C5  UNL d   1      -1.893   1.352  -1.663  0.00  0.00    -0.074 A 
ATOM      7  C6  UNL d   1      -1.547   1.457  -0.207  0.00  0.00     0.077 C 
ATOM      8  C7  UNL d   1      -1.337   2.254  -2.580  0.00  0.00    -0.001 A 
ENDROOT
TORSDOF 0
ENDMDL
