MODEL 1
REMARK minimizedAffinity -4.65130615
REMARK minimizedRMSD -1
REMARK  0 active torsions:
REMARK  status: ('A' for Active; 'I' for Inactive)
ROOT
ATOM      1  C   UNL d   1      -0.801   0.756  -0.016  0.00  0.00     0.077 C 
ATOM      2  C1  UNL d   1      -1.201   1.268  -1.368  0.00  0.00    -0.074 A 
ATOM      3  C2  UNL d   1      -2.300   0.729  -2.044  0.00  0.00    -0.005 A 
ATOM      4  C3  UNL d   1      -2.666   1.222  -3.296  0.00  0.00     0.006 A 
ATOM      5  C4  UNL d   1      -1.938   2.257  -3.884  0.00  0.00    -0.005 A 
ATOM      6  C5  UNL d   1      -0.836   2.809  -3.223  0.00  0.00    -0.074 A 
ATOM      7  C6  UNL d   1      -0.049   3.928  -3.836  0.00  0.00     0.077 C 
ATOM      8  C7  UNL d   1      -0.479   2.313  -1.961  0.00  0.00    -0.001 A 
ENDROOT
TORSDOF 0
ENDMDL
