MODEL 1
REMARK minimizedAffinity -1.03368652
REMARK minimizedRMSD -1
REMARK  0 active torsions:
REMARK  status: ('A' for Active; 'I' for Inactive)
ROOT
ATOM      1  C   UNL d   1      -1.354  -0.723   1.801  0.00  0.00     0.077 C 
ATOM      2  C1  UNL d   1      -0.933  -0.483   0.381  0.00  0.00    -0.074 A 
ATOM      3  C2  UNL d   1       0.395  -0.671  -0.016  0.00  0.00    -0.005 A 
ATOM      4  C3  UNL d   1       0.770  -0.453  -1.342  0.00  0.00     0.006 A 
ATOM      5  C4  UNL d   1      -0.178  -0.046  -2.282  0.00  0.00    -0.005 A 
ATOM      6  C5  UNL d   1      -1.510   0.146  -1.903  0.00  0.00    -0.074 A 
ATOM      7  C6  UNL d   1      -2.543   0.574  -2.903  0.00  0.00     0.077 C 
ATOM      8  C7  UNL d   1      -1.880  -0.082  -0.571  0.00  0.00    -0.001 A 
ENDROOT
TORSDOF 0
ENDMDL
