MODEL 1
REMARK minimizedAffinity -2.44108844
REMARK minimizedRMSD -1
REMARK  0 active torsions:
REMARK  status: ('A' for Active; 'I' for Inactive)
ROOT
ATOM      1  C   UNL d   1      -0.727  -1.036   1.449  0.00  0.00     0.077 C 
ATOM      2  C1  UNL d   1      -0.577  -0.632   0.012  0.00  0.00    -0.074 A 
ATOM      3  C2  UNL d   1       0.624  -0.843  -0.672  0.00  0.00    -0.005 A 
ATOM      4  C3  UNL d   1       0.746  -0.471  -2.010  0.00  0.00     0.006 A 
ATOM      5  C4  UNL d   1      -0.330   0.115  -2.678  0.00  0.00    -0.005 A 
ATOM      6  C5  UNL d   1      -1.540   0.332  -2.010  0.00  0.00    -0.074 A 
ATOM      7  C6  UNL d   1      -2.710   0.952  -2.716  0.00  0.00     0.077 C 
ATOM      8  C7  UNL d   1      -1.657  -0.051  -0.667  0.00  0.00    -0.001 A 
ENDROOT
TORSDOF 0
ENDMDL
