MODEL 1
REMARK minimizedAffinity -4.63778734
REMARK minimizedRMSD -1
REMARK  0 active torsions:
REMARK  status: ('A' for Active; 'I' for Inactive)
ROOT
ATOM      1  C   UNL d   1      -1.628  -0.444   1.986  0.00  0.00     0.077 C 
ATOM      2  C1  UNL d   1      -0.769  -0.057   0.818  0.00  0.00    -0.074 A 
ATOM      3  C2  UNL d   1       0.467  -0.674   0.600  0.00  0.00    -0.005 A 
ATOM      4  C3  UNL d   1       1.250  -0.311  -0.496  0.00  0.00     0.006 A 
ATOM      5  C4  UNL d   1       0.805   0.670  -1.383  0.00  0.00    -0.005 A 
ATOM      6  C5  UNL d   1      -0.428   1.297  -1.181  0.00  0.00    -0.074 A 
ATOM      7  C6  UNL d   1      -0.925   2.347  -2.130  0.00  0.00     0.077 C 
ATOM      8  C7  UNL d   1      -1.212   0.922  -0.082  0.00  0.00    -0.001 A 
ENDROOT
TORSDOF 0
ENDMDL
