MODEL 1
REMARK minimizedAffinity -5.35875082
REMARK minimizedRMSD -1
REMARK  0 active torsions:
REMARK  status: ('A' for Active; 'I' for Inactive)
ROOT
ATOM      1  C   UNL d   1       0.300   4.313   0.632  0.00  0.00     0.077 C 
ATOM      2  C1  UNL d   1       0.833   2.957   0.276  0.00  0.00    -0.074 A 
ATOM      3  C2  UNL d   1       2.208   2.702   0.280  0.00  0.00    -0.005 A 
ATOM      4  C3  UNL d   1       2.688   1.433  -0.044  0.00  0.00     0.006 A 
ATOM      5  C4  UNL d   1       1.800   0.409  -0.375  0.00  0.00    -0.005 A 
ATOM      6  C5  UNL d   1       0.422   0.645  -0.383  0.00  0.00    -0.074 A 
ATOM      7  C6  UNL d   1      -0.546  -0.447  -0.726  0.00  0.00     0.077 C 
ATOM      8  C7  UNL d   1      -0.053   1.921  -0.049  0.00  0.00    -0.001 A 
ENDROOT
TORSDOF 0
ENDMDL
