MODEL 1
REMARK minimizedAffinity 1.63907778
REMARK minimizedRMSD -1
REMARK  0 active torsions:
REMARK  status: ('A' for Active; 'I' for Inactive)
ROOT
ATOM      1  C   UNL d   1      -1.322  -1.387   2.960  0.00  0.00     0.077 C 
ATOM      2  C1  UNL d   1      -0.737  -0.861   1.683  0.00  0.00    -0.074 A 
ATOM      3  C2  UNL d   1       0.600  -1.101   1.352  0.00  0.00    -0.005 A 
ATOM      4  C3  UNL d   1       1.127  -0.614   0.156  0.00  0.00     0.006 A 
ATOM      5  C4  UNL d   1       0.323   0.117  -0.719  0.00  0.00    -0.005 A 
ATOM      6  C5  UNL d   1      -1.017   0.367  -0.406  0.00  0.00    -0.074 A 
ATOM      7  C6  UNL d   1      -1.897   1.143  -1.340  0.00  0.00     0.077 C 
ATOM      8  C7  UNL d   1      -1.541  -0.132   0.795  0.00  0.00    -0.001 A 
ENDROOT
TORSDOF 0
ENDMDL
