MODEL 1
REMARK minimizedAffinity -4.32100534
REMARK minimizedRMSD -1
REMARK  0 active torsions:
REMARK  status: ('A' for Active; 'I' for Inactive)
ROOT
ATOM      1  C   UNL d   1       3.787   3.624   0.154  0.00  0.00     0.077 C 
ATOM      2  C1  UNL d   1       2.339   3.233   0.168  0.00  0.00    -0.074 A 
ATOM      3  C2  UNL d   1       1.341   4.184   0.407  0.00  0.00    -0.005 A 
ATOM      4  C3  UNL d   1      -0.002   3.807   0.407  0.00  0.00     0.006 A 
ATOM      5  C4  UNL d   1      -0.360   2.480   0.170  0.00  0.00    -0.005 A 
ATOM      6  C5  UNL d   1       0.624   1.516  -0.071  0.00  0.00    -0.074 A 
ATOM      7  C6  UNL d   1       0.256   0.086  -0.337  0.00  0.00     0.077 C 
ATOM      8  C7  UNL d   1       1.971   1.903  -0.077  0.00  0.00    -0.001 A 
ENDROOT
TORSDOF 0
ENDMDL
