MODEL 1
REMARK minimizedAffinity -0.731338322
REMARK minimizedRMSD -1
REMARK  0 active torsions:
REMARK  status: ('A' for Active; 'I' for Inactive)
ROOT
ATOM      1  C   UNL d   1       2.833  -1.403   1.471  0.00  0.00     0.077 C 
ATOM      2  C1  UNL d   1       1.375  -1.334   1.129  0.00  0.00    -0.074 A 
ATOM      3  C2  UNL d   1       0.470  -2.267   1.644  0.00  0.00    -0.005 A 
ATOM      4  C3  UNL d   1      -0.885  -2.185   1.324  0.00  0.00     0.006 A 
ATOM      5  C4  UNL d   1      -1.348  -1.169   0.487  0.00  0.00    -0.005 A 
ATOM      6  C5  UNL d   1      -0.459  -0.226  -0.038  0.00  0.00    -0.074 A 
ATOM      7  C6  UNL d   1      -0.942   0.877  -0.932  0.00  0.00     0.077 C 
ATOM      8  C7  UNL d   1       0.900  -0.312   0.294  0.00  0.00    -0.001 A 
ENDROOT
TORSDOF 0
ENDMDL
