MODEL 1
REMARK minimizedAffinity -4.60038185
REMARK minimizedRMSD -1
REMARK  0 active torsions:
REMARK  status: ('A' for Active; 'I' for Inactive)
ROOT
ATOM      1  C   UNL d   1       4.563   3.731  -0.734  0.00  0.00     0.077 C 
ATOM      2  C1  UNL d   1       3.197   3.171  -0.470  0.00  0.00    -0.074 A 
ATOM      3  C2  UNL d   1       2.136   4.005  -0.103  0.00  0.00    -0.005 A 
ATOM      4  C3  UNL d   1       0.869   3.471   0.130  0.00  0.00     0.006 A 
ATOM      5  C4  UNL d   1       0.650   2.099   0.000  0.00  0.00    -0.005 A 
ATOM      6  C5  UNL d   1       1.698   1.249  -0.366  0.00  0.00    -0.074 A 
ATOM      7  C6  UNL d   1       1.478  -0.227  -0.520  0.00  0.00     0.077 C 
ATOM      8  C7  UNL d   1       2.967   1.794  -0.606  0.00  0.00    -0.001 A 
ENDROOT
TORSDOF 0
ENDMDL
