MODEL 1
REMARK minimizedAffinity -5.01675987
REMARK minimizedRMSD -1
REMARK  0 active torsions:
REMARK  status: ('A' for Active; 'I' for Inactive)
ROOT
ATOM      1  C   UNL d   1       1.639   0.458  -0.174  0.00  0.00     0.077 C 
ATOM      2  C1  UNL d   1       1.947   1.921  -0.061  0.00  0.00    -0.074 A 
ATOM      3  C2  UNL d   1       0.974   2.830   0.365  0.00  0.00    -0.005 A 
ATOM      4  C3  UNL d   1       1.279   4.187   0.474  0.00  0.00     0.006 A 
ATOM      5  C4  UNL d   1       2.558   4.647   0.160  0.00  0.00    -0.005 A 
ATOM      6  C5  UNL d   1       3.544   3.753  -0.267  0.00  0.00    -0.074 A 
ATOM      7  C6  UNL d   1       4.927   4.230  -0.600  0.00  0.00     0.077 C 
ATOM      8  C7  UNL d   1       3.232   2.390  -0.368  0.00  0.00    -0.001 A 
ENDROOT
TORSDOF 0
ENDMDL
