MODEL 1
REMARK minimizedAffinity -3.10024571
REMARK minimizedRMSD -1
REMARK  0 active torsions:
REMARK  status: ('A' for Active; 'I' for Inactive)
ROOT
ATOM      1  C   UNL d   1      -1.094   1.400  -1.235  0.00  0.00     0.077 C 
ATOM      2  C1  UNL d   1      -1.089   0.442  -0.081  0.00  0.00    -0.074 A 
ATOM      3  C2  UNL d   1      -2.067   0.513   0.917  0.00  0.00    -0.005 A 
ATOM      4  C3  UNL d   1      -2.055  -0.391   1.979  0.00  0.00     0.006 A 
ATOM      5  C4  UNL d   1      -1.067  -1.373   2.054  0.00  0.00    -0.005 A 
ATOM      6  C5  UNL d   1      -0.082  -1.461   1.065  0.00  0.00    -0.074 A 
ATOM      7  C6  UNL d   1       0.981  -2.517   1.126  0.00  0.00     0.077 C 
ATOM      8  C7  UNL d   1      -0.105  -0.553  -0.002  0.00  0.00    -0.001 A 
ENDROOT
TORSDOF 0
ENDMDL
