MODEL 1
REMARK minimizedAffinity -4.2604723
REMARK minimizedRMSD -1
REMARK  0 active torsions:
REMARK  status: ('A' for Active; 'I' for Inactive)
ROOT
ATOM      1  C   UNL d   1      -1.522   1.726  -1.756  0.00  0.00     0.077 C 
ATOM      2  C1  UNL d   1      -1.145   0.751  -0.681  0.00  0.00    -0.074 A 
ATOM      3  C2  UNL d   1      -1.660   0.875   0.614  0.00  0.00    -0.005 A 
ATOM      4  C3  UNL d   1      -1.308  -0.045   1.602  0.00  0.00     0.006 A 
ATOM      5  C4  UNL d   1      -0.440  -1.096   1.305  0.00  0.00    -0.005 A 
ATOM      6  C5  UNL d   1       0.084  -1.237   0.016  0.00  0.00    -0.074 A 
ATOM      7  C6  UNL d   1       1.010  -2.367  -0.322  0.00  0.00     0.077 C 
ATOM      8  C7  UNL d   1      -0.280  -0.312  -0.973  0.00  0.00    -0.001 A 
ENDROOT
TORSDOF 0
ENDMDL
