MODEL 1
REMARK minimizedAffinity -3.40713286
REMARK minimizedRMSD -1
REMARK  0 active torsions:
REMARK  status: ('A' for Active; 'I' for Inactive)
ROOT
ATOM      1  C   UNL d   1       1.564  -3.268   0.939  0.00  0.00     0.077 C 
ATOM      2  C1  UNL d   1       1.191  -1.900   0.447  0.00  0.00    -0.074 A 
ATOM      3  C2  UNL d   1      -0.143  -1.481   0.431  0.00  0.00    -0.005 A 
ATOM      4  C3  UNL d   1      -0.473  -0.203  -0.020  0.00  0.00     0.006 A 
ATOM      5  C4  UNL d   1       0.526   0.667  -0.459  0.00  0.00    -0.005 A 
ATOM      6  C5  UNL d   1       1.865   0.266  -0.449  0.00  0.00    -0.074 A 
ATOM      7  C6  UNL d   1       2.952   1.192  -0.907  0.00  0.00     0.077 C 
ATOM      8  C7  UNL d   1       2.190  -1.017   0.012  0.00  0.00    -0.001 A 
ENDROOT
TORSDOF 0
ENDMDL
