MODEL 1
REMARK minimizedAffinity -3.55638242
REMARK minimizedRMSD -1
REMARK  0 active torsions:
REMARK  status: ('A' for Active; 'I' for Inactive)
ROOT
ATOM      1  C   UNL d   1       2.295  -0.013  -1.357  0.00  0.00     0.077 C 
ATOM      2  C1  UNL d   1       1.621  -0.855  -0.315  0.00  0.00    -0.074 A 
ATOM      3  C2  UNL d   1       2.172  -2.075   0.090  0.00  0.00    -0.005 A 
ATOM      4  C3  UNL d   1       1.539  -2.843   1.067  0.00  0.00     0.006 A 
ATOM      5  C4  UNL d   1       0.351  -2.399   1.649  0.00  0.00    -0.005 A 
ATOM      6  C5  UNL d   1      -0.215  -1.181   1.258  0.00  0.00    -0.074 A 
ATOM      7  C6  UNL d   1      -1.486  -0.685   1.880  0.00  0.00     0.077 C 
ATOM      8  C7  UNL d   1       0.431  -0.412   0.280  0.00  0.00    -0.001 A 
ENDROOT
TORSDOF 0
ENDMDL
