MODEL 1
REMARK minimizedAffinity -6.23939562
REMARK minimizedRMSD -1
REMARK  0 active torsions:
REMARK  status: ('A' for Active; 'I' for Inactive)
ROOT
ATOM      1  C2' OXE d   1       0.105   0.340  -0.441  0.00  0.00     0.078 C 
ATOM      2  C1' OXE d   1       0.033   3.065  -1.110  0.00  0.00     0.078 C 
ATOM      3  C1  OXE d   1      -0.831   2.599   0.035  0.00  0.00    -0.078 A 
ATOM      4  C2  OXE d   1      -0.825   1.256   0.325  0.00  0.00    -0.078 A 
ATOM      5  C3  OXE d   1      -1.562   0.781   1.406  0.00  0.00     0.003 A 
ATOM      6  C4  OXE d   1      -2.427   1.633   2.103  0.00  0.00    -0.002 A 
ATOM      7  C5  OXE d   1      -2.479   2.997   1.798  0.00  0.00    -0.002 A 
ATOM      8  C6  OXE d   1      -1.657   3.503   0.797  0.00  0.00     0.003 A 
ENDROOT
TORSDOF 0
ENDMDL
