MODEL 1
REMARK minimizedAffinity -4.50499773
REMARK minimizedRMSD -1
REMARK  0 active torsions:
REMARK  status: ('A' for Active; 'I' for Inactive)
ROOT
ATOM      1  C2' OXE d   1      -1.646   1.948   1.373  0.00  0.00     0.078 C 
ATOM      2  C1' OXE d   1      -0.368   3.124  -0.833  0.00  0.00     0.078 C 
ATOM      3  C1  OXE d   1       0.029   1.719  -0.456  0.00  0.00    -0.078 A 
ATOM      4  C2  OXE d   1      -0.567   1.168   0.652  0.00  0.00    -0.078 A 
ATOM      5  C3  OXE d   1      -0.277  -0.145   1.011  0.00  0.00     0.003 A 
ATOM      6  C4  OXE d   1       0.730  -0.856   0.346  0.00  0.00    -0.002 A 
ATOM      7  C5  OXE d   1       1.378  -0.299  -0.762  0.00  0.00    -0.002 A 
ATOM      8  C6  OXE d   1       1.011   0.968  -1.201  0.00  0.00     0.003 A 
ENDROOT
TORSDOF 0
ENDMDL
