MODEL 1
REMARK minimizedAffinity -5.38934994
REMARK minimizedRMSD -1
REMARK  0 active torsions:
REMARK  status: ('A' for Active; 'I' for Inactive)
ROOT
ATOM      1  C2' OXE d   1       0.455   0.240  -0.614  0.00  0.00     0.078 C 
ATOM      2  C1' OXE d   1      -0.888   0.374   1.847  0.00  0.00     0.078 C 
ATOM      3  C1  OXE d   1      -1.143   1.473   0.846  0.00  0.00    -0.078 A 
ATOM      4  C2  OXE d   1      -0.446   1.424  -0.337  0.00  0.00    -0.078 A 
ATOM      5  C3  OXE d   1      -0.685   2.383  -1.318  0.00  0.00     0.003 A 
ATOM      6  C4  OXE d   1      -1.513   3.480  -1.049  0.00  0.00    -0.002 A 
ATOM      7  C5  OXE d   1      -2.201   3.570   0.165  0.00  0.00    -0.002 A 
ATOM      8  C6  OXE d   1      -2.061   2.555   1.105  0.00  0.00     0.003 A 
ENDROOT
TORSDOF 0
ENDMDL
