MODEL 1
REMARK minimizedAffinity -5.50749302
REMARK minimizedRMSD -1
REMARK  0 active torsions:
REMARK  status: ('A' for Active; 'I' for Inactive)
ROOT
ATOM      1  C2' OXE d   1      -0.412  -1.111   1.636  0.00  0.00     0.078 C 
ATOM      2  C1' OXE d   1       0.565  -0.156  -0.816  0.00  0.00     0.078 C 
ATOM      3  C1  OXE d   1      -0.271   0.780   0.020  0.00  0.00    -0.078 A 
ATOM      4  C2  OXE d   1      -0.784   0.289   1.197  0.00  0.00    -0.078 A 
ATOM      5  C3  OXE d   1      -1.517   1.127   2.032  0.00  0.00     0.003 A 
ATOM      6  C4  OXE d   1      -1.865   2.416   1.614  0.00  0.00    -0.002 A 
ATOM      7  C5  OXE d   1      -1.387   2.923   0.401  0.00  0.00    -0.002 A 
ATOM      8  C6  OXE d   1      -0.555   2.134  -0.386  0.00  0.00     0.003 A 
ENDROOT
TORSDOF 0
ENDMDL
