MODEL 1
REMARK minimizedAffinity -5.27841139
REMARK minimizedRMSD -1
REMARK  0 active torsions:
REMARK  status: ('A' for Active; 'I' for Inactive)
ROOT
ATOM      1  C2' OXE d   1      -1.953   3.737   1.128  0.00  0.00     0.078 C 
ATOM      2  C1' OXE d   1      -0.012   3.137  -0.810  0.00  0.00     0.078 C 
ATOM      3  C1  OXE d   1      -0.449   2.029   0.115  0.00  0.00    -0.078 A 
ATOM      4  C2  OXE d   1      -1.365   2.343   1.090  0.00  0.00    -0.078 A 
ATOM      5  C3  OXE d   1      -1.842   1.345   1.935  0.00  0.00     0.003 A 
ATOM      6  C4  OXE d   1      -1.286   0.061   1.900  0.00  0.00    -0.002 A 
ATOM      7  C5  OXE d   1      -0.323  -0.270   0.940  0.00  0.00    -0.002 A 
ATOM      8  C6  OXE d   1       0.074   0.689   0.015  0.00  0.00     0.003 A 
ENDROOT
TORSDOF 0
ENDMDL
