MODEL 1
REMARK minimizedAffinity -1.91736639
REMARK minimizedRMSD -1
REMARK  0 active torsions:
REMARK  status: ('A' for Active; 'I' for Inactive)
ROOT
ATOM      1  C2' OXE d   1      -1.373   3.964   1.207  0.00  0.00     0.078 C 
ATOM      2  C1' OXE d   1       0.217   3.172  -0.967  0.00  0.00     0.078 C 
ATOM      3  C1  OXE d   1      -0.215   2.109   0.012  0.00  0.00    -0.078 A 
ATOM      4  C2  OXE d   1      -0.954   2.514   1.098  0.00  0.00    -0.078 A 
ATOM      5  C3  OXE d   1      -1.425   1.566   2.002  0.00  0.00     0.003 A 
ATOM      6  C4  OXE d   1      -1.025   0.228   1.900  0.00  0.00    -0.002 A 
ATOM      7  C5  OXE d   1      -0.240  -0.198   0.824  0.00  0.00    -0.002 A 
ATOM      8  C6  OXE d   1       0.137   0.721  -0.150  0.00  0.00     0.003 A 
ENDROOT
TORSDOF 0
ENDMDL
