MODEL 1
REMARK minimizedAffinity 2.25064301
REMARK minimizedRMSD -1
REMARK  0 active torsions:
REMARK  status: ('A' for Active; 'I' for Inactive)
ROOT
ATOM      1  C2' OXE d   1       1.848   0.131  -1.828  0.00  0.00     0.078 C 
ATOM      2  C1' OXE d   1       0.435  -0.567   0.495  0.00  0.00     0.078 C 
ATOM      3  C1  OXE d   1       0.531  -1.594  -0.605  0.00  0.00    -0.078 A 
ATOM      4  C2  OXE d   1       1.184  -1.228  -1.757  0.00  0.00    -0.078 A 
ATOM      5  C3  OXE d   1       1.348  -2.156  -2.781  0.00  0.00     0.003 A 
ATOM      6  C4  OXE d   1       0.722  -3.407  -2.712  0.00  0.00    -0.002 A 
ATOM      7  C5  OXE d   1       0.019  -3.785  -1.563  0.00  0.00    -0.002 A 
ATOM      8  C6  OXE d   1      -0.050  -2.909  -0.486  0.00  0.00     0.003 A 
ENDROOT
TORSDOF 0
ENDMDL
