MODEL 1
REMARK minimizedAffinity -1.20025837
REMARK minimizedRMSD -1
REMARK  0 active torsions:
REMARK  status: ('A' for Active; 'I' for Inactive)
ROOT
ATOM      1  C2' OXE d   1       0.009  -0.394   0.213  0.00  0.00     0.078 C 
ATOM      2  C1' OXE d   1       2.011  -0.136  -1.737  0.00  0.00     0.078 C 
ATOM      3  C1  OXE d   1       1.191  -1.402  -1.734  0.00  0.00    -0.078 A 
ATOM      4  C2  OXE d   1       0.245  -1.540  -0.747  0.00  0.00    -0.078 A 
ATOM      5  C3  OXE d   1      -0.576  -2.664  -0.731  0.00  0.00     0.003 A 
ATOM      6  C4  OXE d   1      -0.344  -3.724  -1.616  0.00  0.00    -0.002 A 
ATOM      7  C5  OXE d   1       0.641  -3.621  -2.604  0.00  0.00    -0.002 A 
ATOM      8  C6  OXE d   1       1.387  -2.452  -2.703  0.00  0.00     0.003 A 
ENDROOT
TORSDOF 0
ENDMDL
