MODEL 1
REMARK minimizedAffinity -4.08046579
REMARK minimizedRMSD -1
REMARK  0 active torsions:
REMARK  status: ('A' for Active; 'I' for Inactive)
ROOT
ATOM      1  C2' OXE d   1      -0.671  -0.927   2.023  0.00  0.00     0.078 C 
ATOM      2  C1' OXE d   1       0.574  -0.833  -0.491  0.00  0.00     0.078 C 
ATOM      3  C1  OXE d   1       0.096   0.467   0.106  0.00  0.00    -0.078 A 
ATOM      4  C2  OXE d   1      -0.554   0.406   1.315  0.00  0.00    -0.078 A 
ATOM      5  C3  OXE d   1      -0.967   1.582   1.936  0.00  0.00     0.003 A 
ATOM      6  C4  OXE d   1      -0.864   2.809   1.269  0.00  0.00    -0.002 A 
ATOM      7  C5  OXE d   1      -0.241   2.888   0.019  0.00  0.00    -0.002 A 
ATOM      8  C6  OXE d   1       0.281   1.735  -0.556  0.00  0.00     0.003 A 
ENDROOT
TORSDOF 0
ENDMDL
