MODEL 1
REMARK minimizedAffinity -6.21610451
REMARK minimizedRMSD -1
REMARK  0 active torsions:
REMARK  status: ('A' for Active; 'I' for Inactive)
ROOT
ATOM      1  C2' OXE d   1      -2.454   3.906   0.989  0.00  0.00     0.078 C 
ATOM      2  C1' OXE d   1      -0.133   3.569  -0.553  0.00  0.00     0.078 C 
ATOM      3  C1  OXE d   1      -0.619   2.391   0.254  0.00  0.00    -0.078 A 
ATOM      4  C2  OXE d   1      -1.729   2.579   1.042  0.00  0.00    -0.078 A 
ATOM      5  C3  OXE d   1      -2.251   1.510   1.764  0.00  0.00     0.003 A 
ATOM      6  C4  OXE d   1      -1.568   0.288   1.816  0.00  0.00    -0.002 A 
ATOM      7  C5  OXE d   1      -0.413   0.088   1.052  0.00  0.00    -0.002 A 
ATOM      8  C6  OXE d   1       0.050   1.113   0.235  0.00  0.00     0.003 A 
ENDROOT
TORSDOF 0
ENDMDL
