MODEL 1
REMARK minimizedAffinity -2.31927156
REMARK minimizedRMSD -1
REMARK  0 active torsions:
REMARK  status: ('A' for Active; 'I' for Inactive)
ROOT
ATOM      1  C2' OXE d   1       0.703   3.008  -0.315  0.00  0.00     0.078 C 
ATOM      2  C1' OXE d   1      -0.290   2.189   2.180  0.00  0.00     0.078 C 
ATOM      3  C1  OXE d   1       0.240   1.126   1.251  0.00  0.00    -0.078 A 
ATOM      4  C2  OXE d   1       0.681   1.530   0.014  0.00  0.00    -0.078 A 
ATOM      5  C3  OXE d   1       1.230   0.597  -0.861  0.00  0.00     0.003 A 
ATOM      6  C4  OXE d   1       1.196  -0.768  -0.554  0.00  0.00    -0.002 A 
ATOM      7  C5  OXE d   1       0.715  -1.206   0.685  0.00  0.00    -0.002 A 
ATOM      8  C6  OXE d   1       0.274  -0.269   1.613  0.00  0.00     0.003 A 
ENDROOT
TORSDOF 0
ENDMDL
