MODEL 1
REMARK minimizedAffinity -1.71565855
REMARK minimizedRMSD -1
REMARK  0 active torsions:
REMARK  status: ('A' for Active; 'I' for Inactive)
ROOT
ATOM      1  C2' OXE d   1       0.012   2.708  -0.766  0.00  0.00     0.078 C 
ATOM      2  C1' OXE d   1      -1.056   1.773   1.656  0.00  0.00     0.078 C 
ATOM      3  C1  OXE d   1      -0.269   0.801   0.813  0.00  0.00    -0.078 A 
ATOM      4  C2  OXE d   1       0.210   1.254  -0.393  0.00  0.00    -0.078 A 
ATOM      5  C3  OXE d   1       0.989   0.415  -1.185  0.00  0.00     0.003 A 
ATOM      6  C4  OXE d   1       1.160  -0.930  -0.837  0.00  0.00    -0.002 A 
ATOM      7  C5  OXE d   1       0.646  -1.423   0.367  0.00  0.00    -0.002 A 
ATOM      8  C6  OXE d   1      -0.032  -0.561   1.222  0.00  0.00     0.003 A 
ENDROOT
TORSDOF 0
ENDMDL
