MODEL 1
REMARK minimizedAffinity -4.54985332
REMARK minimizedRMSD -1
REMARK  0 active torsions:
REMARK  status: ('A' for Active; 'I' for Inactive)
ROOT
ATOM      1  C2' OXE d   1       0.640   0.051  -0.450  0.00  0.00     0.078 C 
ATOM      2  C1' OXE d   1      -0.742  -0.101   1.989  0.00  0.00     0.078 C 
ATOM      3  C1  OXE d   1      -1.100   1.021   1.046  0.00  0.00    -0.078 A 
ATOM      4  C2  OXE d   1      -0.386   1.115  -0.124  0.00  0.00    -0.078 A 
ATOM      5  C3  OXE d   1      -0.712   2.099  -1.054  0.00  0.00     0.003 A 
ATOM      6  C4  OXE d   1      -1.656   3.085  -0.741  0.00  0.00    -0.002 A 
ATOM      7  C5  OXE d   1      -2.366   3.031   0.463  0.00  0.00    -0.002 A 
ATOM      8  C6  OXE d   1      -2.131   1.983   1.347  0.00  0.00     0.003 A 
ENDROOT
TORSDOF 0
ENDMDL
