MODEL 1
REMARK minimizedAffinity -3.80122161
REMARK minimizedRMSD -1
REMARK  0 active torsions:
REMARK  status: ('A' for Active; 'I' for Inactive)
ROOT
ATOM      1  C2' OXE d   1       1.132   0.353  -1.037  0.00  0.00     0.078 C 
ATOM      2  C1' OXE d   1       0.478   3.058  -0.664  0.00  0.00     0.078 C 
ATOM      3  C1  OXE d   1      -0.159   2.047   0.256  0.00  0.00    -0.078 A 
ATOM      4  C2  OXE d   1       0.131   0.721   0.036  0.00  0.00    -0.078 A 
ATOM      5  C3  OXE d   1      -0.387  -0.248   0.890  0.00  0.00     0.003 A 
ATOM      6  C4  OXE d   1      -1.321   0.100   1.874  0.00  0.00    -0.002 A 
ATOM      7  C5  OXE d   1      -1.660   1.440   2.089  0.00  0.00    -0.002 A 
ATOM      8  C6  OXE d   1      -1.057   2.427   1.318  0.00  0.00     0.003 A 
ENDROOT
TORSDOF 0
ENDMDL
