MODEL 1
REMARK minimizedAffinity -6.57785034
REMARK minimizedRMSD -1
REMARK  0 active torsions:
REMARK  status: ('A' for Active; 'I' for Inactive)
ROOT
ATOM      1  C2' OXE d   1      -1.303   0.198   1.921  0.00  0.00     0.078 C 
ATOM      2  C1' OXE d   1       0.777   0.124   0.037  0.00  0.00     0.078 C 
ATOM      3  C1  OXE d   1      -0.067   1.372   0.104  0.00  0.00    -0.078 A 
ATOM      4  C2  OXE d   1      -1.112   1.381   0.997  0.00  0.00    -0.078 A 
ATOM      5  C3  OXE d   1      -1.888   2.528   1.137  0.00  0.00     0.003 A 
ATOM      6  C4  OXE d   1      -1.712   3.614   0.272  0.00  0.00    -0.002 A 
ATOM      7  C5  OXE d   1      -0.679   3.609  -0.672  0.00  0.00    -0.002 A 
ATOM      8  C6  OXE d   1       0.177   2.515  -0.739  0.00  0.00     0.003 A 
ENDROOT
TORSDOF 0
ENDMDL
