MODEL 1
REMARK minimizedAffinity -6.3702817
REMARK minimizedRMSD -1
REMARK  0 active torsions:
REMARK  status: ('A' for Active; 'I' for Inactive)
ROOT
ATOM      1  C2' OXE d   1      -0.176  -0.473   1.598  0.00  0.00     0.078 C 
ATOM      2  C1' OXE d   1       1.168   0.680  -0.580  0.00  0.00     0.078 C 
ATOM      3  C1  OXE d   1       0.066   1.478   0.069  0.00  0.00    -0.078 A 
ATOM      4  C2  OXE d   1      -0.618   0.887   1.104  0.00  0.00    -0.078 A 
ATOM      5  C3  OXE d   1      -1.607   1.601   1.773  0.00  0.00     0.003 A 
ATOM      6  C4  OXE d   1      -2.017   2.855   1.304  0.00  0.00    -0.002 A 
ATOM      7  C5  OXE d   1      -1.360   3.459   0.226  0.00  0.00    -0.002 A 
ATOM      8  C6  OXE d   1      -0.291   2.803  -0.375  0.00  0.00     0.003 A 
ENDROOT
TORSDOF 0
ENDMDL
