MODEL 1
REMARK minimizedAffinity -4.73560381
REMARK minimizedRMSD -1
REMARK  1 active torsions:
REMARK  status: ('A' for Active; 'I' for Inactive)
REMARK    1  A    between atoms: C3_4  and  O_7 
ROOT
ATOM      1  C   UNL d   1       2.438   2.887   0.176  0.00  0.00    -0.033 A 
ATOM      2  C1  UNL d   1       3.184   1.707   0.220  0.00  0.00     0.039 A 
ATOM      3  C2  UNL d   1       2.544   0.470   0.120  0.00  0.00    -0.080 A 
ATOM      4  C3  UNL d   1       1.160   0.427  -0.025  0.00  0.00     0.150 A 
ATOM      5  C4  UNL d   1       0.411   1.598  -0.073  0.00  0.00    -0.007 A 
ATOM      6  C5  UNL d   1       1.052   2.833   0.028  0.00  0.00     0.039 A 
ENDROOT
BRANCH   4   7
ATOM      7  O   UNL d   1       0.490  -0.756  -0.122  0.00  0.00    -0.526 OA
ATOM      8  H5  UNL d   1       1.133  -1.481  -0.045  0.00  0.00     0.418 HD
ENDBRANCH   4   7
TORSDOF 1
ENDMDL
