MODEL 1
REMARK minimizedAffinity -3.96686077
REMARK minimizedRMSD -1
REMARK  1 active torsions:
REMARK  status: ('A' for Active; 'I' for Inactive)
REMARK    1  A    between atoms: C3_4  and  O_7 
ROOT
ATOM      1  C   UNL d   1      -0.977   2.923   0.218  0.00  0.00    -0.033 A 
ATOM      2  C1  UNL d   1      -0.866   1.537   0.342  0.00  0.00     0.039 A 
ATOM      3  C2  UNL d   1       0.394   0.938   0.392  0.00  0.00    -0.080 A 
ATOM      4  C3  UNL d   1       1.533   1.734   0.317  0.00  0.00     0.150 A 
ATOM      5  C4  UNL d   1       1.430   3.116   0.196  0.00  0.00    -0.007 A 
ATOM      6  C5  UNL d   1       0.171   3.713   0.146  0.00  0.00     0.039 A 
ENDROOT
BRANCH   4   7
ATOM      7  O   UNL d   1       2.785   1.194   0.356  0.00  0.00    -0.526 OA
ATOM      8  H5  UNL d   1       2.701   0.228   0.412  0.00  0.00     0.418 HD
ENDBRANCH   4   7
TORSDOF 1
ENDMDL
