MODEL 1
REMARK minimizedAffinity -5.15851784
REMARK minimizedRMSD -1
REMARK  1 active torsions:
REMARK  status: ('A' for Active; 'I' for Inactive)
REMARK    1  A    between atoms: C3_4  and  O_7 
ROOT
ATOM      1  C   UNL d   1       1.484   3.492   0.323  0.00  0.00    -0.033 A 
ATOM      2  C1  UNL d   1       2.498   2.542   0.460  0.00  0.00     0.039 A 
ATOM      3  C2  UNL d   1       2.233   1.195   0.211  0.00  0.00    -0.080 A 
ATOM      4  C3  UNL d   1       0.953   0.810  -0.176  0.00  0.00     0.150 A 
ATOM      5  C4  UNL d   1      -0.061   1.751  -0.319  0.00  0.00    -0.007 A 
ATOM      6  C5  UNL d   1       0.205   3.097  -0.068  0.00  0.00     0.039 A 
ENDROOT
BRANCH   4   7
ATOM      7  O   UNL d   1       0.645  -0.494  -0.426  0.00  0.00    -0.526 OA
ATOM      8  H5  UNL d   1       1.436  -1.034  -0.259  0.00  0.00     0.418 HD
ENDBRANCH   4   7
TORSDOF 1
ENDMDL
