MODEL 1
REMARK minimizedAffinity -4.59002829
REMARK minimizedRMSD -1
REMARK  1 active torsions:
REMARK  status: ('A' for Active; 'I' for Inactive)
REMARK    1  A    between atoms: C3_4  and  O_7 
ROOT
ATOM      1  C   UNL d   1       0.539  -0.652   0.408  0.00  0.00    -0.033 A 
ATOM      2  C1  UNL d   1      -0.690  -0.011   0.578  0.00  0.00     0.039 A 
ATOM      3  C2  UNL d   1      -0.765   1.382   0.525  0.00  0.00    -0.080 A 
ATOM      4  C3  UNL d   1       0.393   2.121   0.301  0.00  0.00     0.150 A 
ATOM      5  C4  UNL d   1       1.619   1.489   0.127  0.00  0.00    -0.007 A 
ATOM      6  C5  UNL d   1       1.693   0.098   0.181  0.00  0.00     0.039 A 
ENDROOT
BRANCH   4   7
ATOM      7  O   UNL d   1       0.369   3.483   0.246  0.00  0.00    -0.526 OA
ATOM      8  H5  UNL d   1      -0.540   3.782   0.412  0.00  0.00     0.418 HD
ENDBRANCH   4   7
TORSDOF 1
ENDMDL
