MODEL 1
REMARK minimizedAffinity -4.31021976
REMARK minimizedRMSD -1
REMARK  1 active torsions:
REMARK  status: ('A' for Active; 'I' for Inactive)
REMARK    1  A    between atoms: C3_4  and  O_7 
ROOT
ATOM      1  C   UNL d   1       0.508   3.625   0.364  0.00  0.00    -0.033 A 
ATOM      2  C1  UNL d   1       1.623   2.796   0.499  0.00  0.00     0.039 A 
ATOM      3  C2  UNL d   1       1.473   1.408   0.452  0.00  0.00    -0.080 A 
ATOM      4  C3  UNL d   1       0.206   0.864   0.269  0.00  0.00     0.150 A 
ATOM      5  C4  UNL d   1      -0.909   1.684   0.129  0.00  0.00    -0.007 A 
ATOM      6  C5  UNL d   1      -0.758   3.069   0.178  0.00  0.00     0.039 A 
ENDROOT
BRANCH   4   7
ATOM      7  O   UNL d   1       0.009  -0.484   0.221  0.00  0.00    -0.526 OA
ATOM      8  H5  UNL d   1       0.864  -0.925   0.360  0.00  0.00     0.418 HD
ENDBRANCH   4   7
TORSDOF 1
ENDMDL
