MODEL 1
REMARK minimizedAffinity -5.0249567
REMARK minimizedRMSD -1
REMARK  1 active torsions:
REMARK  status: ('A' for Active; 'I' for Inactive)
REMARK    1  A    between atoms: C3_4  and  O_7 
ROOT
ATOM      1  C   UNL d   1       0.608   3.734   0.259  0.00  0.00    -0.033 A 
ATOM      2  C1  UNL d   1       1.670   2.866   0.522  0.00  0.00     0.039 A 
ATOM      3  C2  UNL d   1       1.480   1.485   0.445  0.00  0.00    -0.080 A 
ATOM      4  C3  UNL d   1       0.226   0.985   0.105  0.00  0.00     0.150 A 
ATOM      5  C4  UNL d   1      -0.835   1.844  -0.162  0.00  0.00    -0.007 A 
ATOM      6  C5  UNL d   1      -0.644   3.223  -0.084  0.00  0.00     0.039 A 
ENDROOT
BRANCH   4   7
ATOM      7  O   UNL d   1      -0.008  -0.355   0.022  0.00  0.00    -0.526 OA
ATOM      8  H5  UNL d   1       0.808  -0.826   0.260  0.00  0.00     0.418 HD
ENDBRANCH   4   7
TORSDOF 1
ENDMDL
