MODEL 1
REMARK minimizedAffinity -3.60582924
REMARK minimizedRMSD -1
REMARK  1 active torsions:
REMARK  status: ('A' for Active; 'I' for Inactive)
REMARK    1  A    between atoms: C3_4  and  O_7 
ROOT
ATOM      1  C   UNL d   1      -1.130  -3.644  -2.781  0.00  0.00    -0.033 A 
ATOM      2  C1  UNL d   1       0.185  -3.190  -2.896  0.00  0.00     0.039 A 
ATOM      3  C2  UNL d   1       0.756  -2.430  -1.874  0.00  0.00    -0.080 A 
ATOM      4  C3  UNL d   1       0.001  -2.131  -0.743  0.00  0.00     0.150 A 
ATOM      5  C4  UNL d   1      -1.308  -2.582  -0.619  0.00  0.00    -0.007 A 
ATOM      6  C5  UNL d   1      -1.877  -3.341  -1.642  0.00  0.00     0.039 A 
ENDROOT
BRANCH   4   7
ATOM      7  O   UNL d   1       0.513  -1.388   0.279  0.00  0.00    -0.526 OA
ATOM      8  H5  UNL d   1       1.418  -1.121   0.043  0.00  0.00     0.418 HD
ENDBRANCH   4   7
TORSDOF 1
ENDMDL
