MODEL 1
REMARK minimizedAffinity -4.32887554
REMARK minimizedRMSD -1
REMARK  1 active torsions:
REMARK  status: ('A' for Active; 'I' for Inactive)
REMARK    1  A    between atoms: C3_4  and  O_7 
ROOT
ATOM      1  C   UNL d   1      -0.341   0.393   0.567  0.00  0.00    -0.033 A 
ATOM      2  C1  UNL d   1       0.652   0.674  -0.373  0.00  0.00     0.039 A 
ATOM      3  C2  UNL d   1       0.892   1.993  -0.764  0.00  0.00    -0.080 A 
ATOM      4  C3  UNL d   1       0.134   3.019  -0.207  0.00  0.00     0.150 A 
ATOM      5  C4  UNL d   1      -0.854   2.747   0.734  0.00  0.00    -0.007 A 
ATOM      6  C5  UNL d   1      -1.093   1.429   1.122  0.00  0.00     0.039 A 
ENDROOT
BRANCH   4   7
ATOM      7  O   UNL d   1       0.329   4.321  -0.561  0.00  0.00    -0.526 OA
ATOM      8  H5  UNL d   1       1.023   4.355  -1.240  0.00  0.00     0.418 HD
ENDBRANCH   4   7
TORSDOF 1
ENDMDL
