MODEL 1
REMARK minimizedAffinity -3.77606702
REMARK minimizedRMSD -1
REMARK  1 active torsions:
REMARK  status: ('A' for Active; 'I' for Inactive)
REMARK    1  A    between atoms: C3_4  and  O_7 
ROOT
ATOM      1  C   UNL d   1      -0.156   1.036  -0.477  0.00  0.00    -0.033 A 
ATOM      2  C1  UNL d   1      -0.017  -0.305  -0.113  0.00  0.00     0.039 A 
ATOM      3  C2  UNL d   1       1.234  -0.803   0.256  0.00  0.00    -0.080 A 
ATOM      4  C3  UNL d   1       2.335   0.048   0.259  0.00  0.00     0.150 A 
ATOM      5  C4  UNL d   1       2.203   1.386  -0.099  0.00  0.00    -0.007 A 
ATOM      6  C5  UNL d   1       0.953   1.882  -0.469  0.00  0.00     0.039 A 
ENDROOT
BRANCH   4   7
ATOM      7  O   UNL d   1       3.577  -0.393   0.607  0.00  0.00    -0.526 OA
ATOM      8  H5  UNL d   1       3.522  -1.344   0.802  0.00  0.00     0.418 HD
ENDBRANCH   4   7
TORSDOF 1
ENDMDL
