MODEL 1
REMARK minimizedAffinity -4.28226089
REMARK minimizedRMSD -1
REMARK  1 active torsions:
REMARK  status: ('A' for Active; 'I' for Inactive)
REMARK    1  A    between atoms: C3_4  and  O_7 
ROOT
ATOM      1  C   UNL d   1      -0.811  -0.936   0.379  0.00  0.00    -0.033 A 
ATOM      2  C1  UNL d   1       0.421  -0.525  -0.133  0.00  0.00     0.039 A 
ATOM      3  C2  UNL d   1       0.725   0.835  -0.218  0.00  0.00    -0.080 A 
ATOM      4  C3  UNL d   1      -0.210   1.772   0.212  0.00  0.00     0.150 A 
ATOM      5  C4  UNL d   1      -1.438   1.370   0.727  0.00  0.00    -0.007 A 
ATOM      6  C5  UNL d   1      -1.740   0.011   0.811  0.00  0.00     0.039 A 
ENDROOT
BRANCH   4   7
ATOM      7  O   UNL d   1       0.039   3.111   0.144  0.00  0.00    -0.526 OA
ATOM      8  H5  UNL d   1       0.914   3.240  -0.259  0.00  0.00     0.418 HD
ENDBRANCH   4   7
TORSDOF 1
ENDMDL
