MODEL 1
REMARK minimizedAffinity -5.60357952
REMARK minimizedRMSD -1
REMARK  1 active torsions:
REMARK  status: ('A' for Active; 'I' for Inactive)
REMARK    1  A    between atoms: C3_4  and  O_7 
ROOT
ATOM      1  C   UNL d   1       1.125   3.803   0.276  0.00  0.00    -0.033 A 
ATOM      2  C1  UNL d   1       2.243   2.978   0.140  0.00  0.00     0.039 A 
ATOM      3  C2  UNL d   1       2.085   1.594   0.049  0.00  0.00    -0.080 A 
ATOM      4  C3  UNL d   1       0.805   1.048   0.093  0.00  0.00     0.150 A 
ATOM      5  C4  UNL d   1      -0.314   1.864   0.224  0.00  0.00    -0.007 A 
ATOM      6  C5  UNL d   1      -0.154   3.246   0.316  0.00  0.00     0.039 A 
ENDROOT
BRANCH   4   7
ATOM      7  O   UNL d   1       0.601  -0.297   0.012  0.00  0.00    -0.526 OA
ATOM      8  H5  UNL d   1       1.466  -0.737  -0.046  0.00  0.00     0.418 HD
ENDBRANCH   4   7
TORSDOF 1
ENDMDL
