MODEL 1
REMARK minimizedAffinity -3.31988406
REMARK minimizedRMSD -1
REMARK  1 active torsions:
REMARK  status: ('A' for Active; 'I' for Inactive)
REMARK    1  A    between atoms: C3_4  and  O_7 
ROOT
ATOM      1  C   UNL d   1       0.345  -0.886   0.440  0.00  0.00    -0.033 A 
ATOM      2  C1  UNL d   1       1.335   0.093   0.333  0.00  0.00     0.039 A 
ATOM      3  C2  UNL d   1       0.992   1.445   0.388  0.00  0.00    -0.080 A 
ATOM      4  C3  UNL d   1      -0.343   1.804   0.552  0.00  0.00     0.150 A 
ATOM      5  C4  UNL d   1      -1.334   0.835   0.663  0.00  0.00    -0.007 A 
ATOM      6  C5  UNL d   1      -0.989  -0.515   0.606  0.00  0.00     0.039 A 
ENDROOT
BRANCH   4   7
ATOM      7  O   UNL d   1      -0.728   3.111   0.607  0.00  0.00    -0.526 OA
ATOM      8  H5  UNL d   1       0.059   3.669   0.488  0.00  0.00     0.418 HD
ENDBRANCH   4   7
TORSDOF 1
ENDMDL
