MODEL 1
REMARK minimizedAffinity -4.95016336
REMARK minimizedRMSD -1
REMARK  1 active torsions:
REMARK  status: ('A' for Active; 'I' for Inactive)
REMARK    1  A    between atoms: C3_4  and  O_7 
ROOT
ATOM      1  C   UNL d   1       0.233   3.170  -0.953  0.00  0.00    -0.033 A 
ATOM      2  C1  UNL d   1       0.131   1.779  -1.021  0.00  0.00     0.039 A 
ATOM      3  C2  UNL d   1       1.142   0.976  -0.489  0.00  0.00    -0.080 A 
ATOM      4  C3  UNL d   1       2.247   1.576   0.109  0.00  0.00     0.150 A 
ATOM      5  C4  UNL d   1       2.353   2.961   0.183  0.00  0.00    -0.007 A 
ATOM      6  C5  UNL d   1       1.343   3.761  -0.349  0.00  0.00     0.039 A 
ENDROOT
BRANCH   4   7
ATOM      7  O   UNL d   1       3.262   0.835   0.638  0.00  0.00    -0.526 OA
ATOM      8  H5  UNL d   1       3.066  -0.105   0.488  0.00  0.00     0.418 HD
ENDBRANCH   4   7
TORSDOF 1
ENDMDL
