MODEL 1
REMARK minimizedAffinity -4.85211992
REMARK minimizedRMSD -1
REMARK  1 active torsions:
REMARK  status: ('A' for Active; 'I' for Inactive)
REMARK    1  A    between atoms: C3_4  and  O_7 
ROOT
ATOM      1  C   UNL d   1       0.342   3.777   0.141  0.00  0.00    -0.033 A 
ATOM      2  C1  UNL d   1      -0.907   3.262  -0.212  0.00  0.00     0.039 A 
ATOM      3  C2  UNL d   1      -1.111   1.881  -0.242  0.00  0.00    -0.080 A 
ATOM      4  C3  UNL d   1      -0.061   1.028   0.085  0.00  0.00     0.150 A 
ATOM      5  C4  UNL d   1       1.184   1.535   0.442  0.00  0.00    -0.007 A 
ATOM      6  C5  UNL d   1       1.387   2.914   0.470  0.00  0.00     0.039 A 
ENDROOT
BRANCH   4   7
ATOM      7  O   UNL d   1      -0.211  -0.327   0.066  0.00  0.00    -0.526 OA
ATOM      8  H5  UNL d   1      -1.115  -0.532  -0.227  0.00  0.00     0.418 HD
ENDBRANCH   4   7
TORSDOF 1
ENDMDL
