MODEL 1
REMARK minimizedAffinity -5.41823196
REMARK minimizedRMSD -1
REMARK  1 active torsions:
REMARK  status: ('A' for Active; 'I' for Inactive)
REMARK    1  A    between atoms: C3_4  and  O_7 
ROOT
ATOM      1  C   UNL d   1       0.534   3.330  -0.063  0.00  0.00    -0.033 A 
ATOM      2  C1  UNL d   1       1.769   2.738   0.209  0.00  0.00     0.039 A 
ATOM      3  C2  UNL d   1       1.850   1.366   0.453  0.00  0.00    -0.080 A 
ATOM      4  C3  UNL d   1       0.690   0.597   0.421  0.00  0.00     0.150 A 
ATOM      5  C4  UNL d   1      -0.544   1.179   0.146  0.00  0.00    -0.007 A 
ATOM      6  C5  UNL d   1      -0.622   2.550  -0.096  0.00  0.00     0.039 A 
ENDROOT
BRANCH   4   7
ATOM      7  O   UNL d   1       0.718  -0.745   0.657  0.00  0.00    -0.526 OA
ATOM      8  H5  UNL d   1       1.632  -1.003   0.861  0.00  0.00     0.418 HD
ENDBRANCH   4   7
TORSDOF 1
ENDMDL
