MODEL 1
REMARK minimizedAffinity -4.54241419
REMARK minimizedRMSD -1
REMARK  1 active torsions:
REMARK  status: ('A' for Active; 'I' for Inactive)
REMARK    1  A    between atoms: C3_4  and  O_7 
ROOT
ATOM      1  C   UNL d   1       0.576   3.403  -0.036  0.00  0.00    -0.033 A 
ATOM      2  C1  UNL d   1       1.607   2.556  -0.447  0.00  0.00     0.039 A 
ATOM      3  C2  UNL d   1       1.391   1.178  -0.526  0.00  0.00    -0.080 A 
ATOM      4  C3  UNL d   1       0.142   0.662  -0.194  0.00  0.00     0.150 A 
ATOM      5  C4  UNL d   1      -0.891   1.501   0.212  0.00  0.00    -0.007 A 
ATOM      6  C5  UNL d   1      -0.674   2.876   0.292  0.00  0.00     0.039 A 
ENDROOT
BRANCH   4   7
ATOM      7  O   UNL d   1      -0.115  -0.675  -0.251  0.00  0.00    -0.526 OA
ATOM      8  H5  UNL d   1       0.699  -1.134  -0.519  0.00  0.00     0.418 HD
ENDBRANCH   4   7
TORSDOF 1
ENDMDL
