MODEL 1
REMARK minimizedAffinity -4.03963709
REMARK minimizedRMSD -1
REMARK  1 active torsions:
REMARK  status: ('A' for Active; 'I' for Inactive)
REMARK    1  A    between atoms: C3_4  and  O_7 
ROOT
ATOM      1  C   UNL d   1      -1.065  -4.001  -1.404  0.00  0.00    -0.033 A 
ATOM      2  C1  UNL d   1      -0.208  -3.362  -2.302  0.00  0.00     0.039 A 
ATOM      3  C2  UNL d   1       0.566  -2.279  -1.881  0.00  0.00    -0.080 A 
ATOM      4  C3  UNL d   1       0.475  -1.846  -0.561  0.00  0.00     0.150 A 
ATOM      5  C4  UNL d   1      -0.374  -2.480   0.340  0.00  0.00    -0.007 A 
ATOM      6  C5  UNL d   1      -1.147  -3.561  -0.082  0.00  0.00     0.039 A 
ENDROOT
BRANCH   4   7
ATOM      7  O   UNL d   1       1.207  -0.790  -0.105  0.00  0.00    -0.526 OA
ATOM      8  H5  UNL d   1       1.726  -0.434  -0.844  0.00  0.00     0.418 HD
ENDBRANCH   4   7
TORSDOF 1
ENDMDL
