MODEL 1
REMARK minimizedAffinity 14.7041044
REMARK minimizedRMSD -1
REMARK  2 active torsions:
REMARK  status: ('A' for Active; 'I' for Inactive)
REMARK    1  A    between atoms: C2'_3  and  C1'_4 
REMARK    2  A    between atoms: C1'_4  and  C1_5 
ROOT
ATOM      1  C1  I4B d   1      -0.552  -1.936  -4.372  0.00  0.00    -0.075 A 
ATOM      2  C2  I4B d   1      -1.028  -0.679  -4.649  0.00  0.00     0.003 A 
ATOM      3  C3  I4B d   1      -0.128   0.373  -4.951  0.00  0.00     0.002 A 
ATOM      4  C4  I4B d   1       1.231   0.136  -4.915  0.00  0.00    -0.004 A 
ATOM      5  C5  I4B d   1       1.710  -1.145  -4.656  0.00  0.00     0.002 A 
ATOM      6  C6  I4B d   1       0.813  -2.191  -4.395  0.00  0.00     0.003 A 
ENDROOT
BRANCH   1   7
ATOM      7  C1' I4B d   1      -1.528  -3.015  -4.025  0.00  0.00     0.060 C 
BRANCH   7   8
ATOM      8  C2' I4B d   1      -1.520  -4.032  -5.149  0.00  0.00    -0.013 C 
ATOM      9  C4' I4B d   1      -1.480  -5.438  -4.612  0.00  0.00     0.013 C 
ATOM     10  C3' I4B d   1      -2.743  -3.806  -5.987  0.00  0.00     0.013 C 
ENDBRANCH   7   8
ENDBRANCH   1   7
TORSDOF 2
ENDMDL
