MODEL 1
REMARK minimizedAffinity 9.86345005
REMARK minimizedRMSD -1
REMARK  2 active torsions:
REMARK  status: ('A' for Active; 'I' for Inactive)
REMARK    1  A    between atoms: C2'_3  and  C1'_4 
REMARK    2  A    between atoms: C1'_4  and  C1_5 
ROOT
ATOM      1  C1  I4B d   1      -1.787  -3.595  -3.646  0.00  0.00    -0.075 A 
ATOM      2  C2  I4B d   1      -1.830  -3.591  -5.018  0.00  0.00     0.003 A 
ATOM      3  C3  I4B d   1      -1.972  -4.806  -5.731  0.00  0.00     0.002 A 
ATOM      4  C4  I4B d   1      -2.016  -5.999  -5.038  0.00  0.00    -0.004 A 
ATOM      5  C5  I4B d   1      -1.996  -5.999  -3.646  0.00  0.00     0.002 A 
ATOM      6  C6  I4B d   1      -1.893  -4.789  -2.945  0.00  0.00     0.003 A 
ENDROOT
BRANCH   1   7
ATOM      7  C1' I4B d   1      -1.603  -2.296  -2.927  0.00  0.00     0.060 C 
BRANCH   7   8
ATOM      8  C2' I4B d   1      -0.129  -1.948  -2.961  0.00  0.00    -0.013 C 
ATOM      9  C4' I4B d   1       0.101  -0.609  -3.610  0.00  0.00     0.013 C 
ATOM     10  C3' I4B d   1       0.383  -1.962  -1.551  0.00  0.00     0.013 C 
ENDBRANCH   7   8
ENDBRANCH   1   7
TORSDOF 2
ENDMDL
