MODEL 1
REMARK minimizedAffinity 11.7792082
REMARK minimizedRMSD -1
REMARK  2 active torsions:
REMARK  status: ('A' for Active; 'I' for Inactive)
REMARK    1  A    between atoms: C2'_3  and  C1'_4 
REMARK    2  A    between atoms: C1'_4  and  C1_5 
ROOT
ATOM      1  C1  I4B d   1       0.599  -0.869   2.826  0.00  0.00    -0.075 A 
ATOM      2  C2  I4B d   1       0.603  -2.142   3.339  0.00  0.00     0.003 A 
ATOM      3  C3  I4B d   1       1.618  -2.543   4.242  0.00  0.00     0.002 A 
ATOM      4  C4  I4B d   1       2.629  -1.661   4.564  0.00  0.00    -0.004 A 
ATOM      5  C5  I4B d   1       2.611  -0.364   4.060  0.00  0.00     0.002 A 
ATOM      6  C6  I4B d   1       1.583   0.040   3.196  0.00  0.00     0.003 A 
ENDROOT
BRANCH   1   7
ATOM      7  C1' I4B d   1      -0.468  -0.489   1.850  0.00  0.00     0.060 C 
BRANCH   7   8
ATOM      8  C2' I4B d   1      -1.558   0.240   2.609  0.00  0.00    -0.013 C 
ATOM      9  C4' I4B d   1      -1.574   1.707   2.266  0.00  0.00     0.013 C 
ATOM     10  C3' I4B d   1      -2.868  -0.408   2.275  0.00  0.00     0.013 C 
ENDBRANCH   7   8
ENDBRANCH   1   7
TORSDOF 2
ENDMDL
