MODEL 1
REMARK minimizedAffinity 14.9101934
REMARK minimizedRMSD -1
REMARK  2 active torsions:
REMARK  status: ('A' for Active; 'I' for Inactive)
REMARK    1  A    between atoms: C2'_3  and  C1'_4 
REMARK    2  A    between atoms: C1'_4  and  C1_5 
ROOT
ATOM      1  C1  I4B d   1       0.205  -2.888   3.296  0.00  0.00    -0.075 A 
ATOM      2  C2  I4B d   1       1.517  -3.234   3.509  0.00  0.00     0.003 A 
ATOM      3  C3  I4B d   1       1.850  -4.195   4.493  0.00  0.00     0.002 A 
ATOM      4  C4  I4B d   1       0.852  -4.745   5.272  0.00  0.00    -0.004 A 
ATOM      5  C5  I4B d   1      -0.479  -4.411   5.040  0.00  0.00     0.002 A 
ATOM      6  C6  I4B d   1      -0.806  -3.486   4.037  0.00  0.00     0.003 A 
ENDROOT
BRANCH   1   7
ATOM      7  C1' I4B d   1      -0.109  -1.846   2.271  0.00  0.00     0.060 C 
BRANCH   7   8
ATOM      8  C2' I4B d   1      -1.494  -2.128   1.726  0.00  0.00    -0.013 C 
ATOM      9  C4' I4B d   1      -2.466  -1.047   2.119  0.00  0.00     0.013 C 
ATOM     10  C3' I4B d   1      -1.390  -2.247   0.235  0.00  0.00     0.013 C 
ENDBRANCH   7   8
ENDBRANCH   1   7
TORSDOF 2
ENDMDL
