MODEL 1
REMARK minimizedAffinity 7.34224415
REMARK minimizedRMSD -1
REMARK  2 active torsions:
REMARK  status: ('A' for Active; 'I' for Inactive)
REMARK    1  A    between atoms: C2'_3  and  C1'_4 
REMARK    2  A    between atoms: C1'_4  and  C1_5 
ROOT
ATOM      1  C1  I4B d   1       2.863  -3.554   4.780  0.00  0.00    -0.075 A 
ATOM      2  C2  I4B d   1       1.526  -3.846   4.891  0.00  0.00     0.003 A 
ATOM      3  C3  I4B d   1       0.565  -3.048   4.225  0.00  0.00     0.002 A 
ATOM      4  C4  I4B d   1       0.978  -1.945   3.505  0.00  0.00    -0.004 A 
ATOM      5  C5  I4B d   1       2.335  -1.664   3.376  0.00  0.00     0.002 A 
ATOM      6  C6  I4B d   1       3.284  -2.480   4.007  0.00  0.00     0.003 A 
ENDROOT
BRANCH   1   7
ATOM      7  C1' I4B d   1       3.849  -4.398   5.524  0.00  0.00     0.060 C 
BRANCH   7   8
ATOM      8  C2' I4B d   1       5.144  -4.406   4.737  0.00  0.00    -0.013 C 
ATOM      9  C4' I4B d   1       5.999  -3.216   5.083  0.00  0.00     0.013 C 
ATOM     10  C3' I4B d   1       5.858  -5.691   5.033  0.00  0.00     0.013 C 
ENDBRANCH   7   8
ENDBRANCH   1   7
TORSDOF 2
ENDMDL
