MODEL 1
REMARK minimizedAffinity 17.4777756
REMARK minimizedRMSD -1
REMARK  2 active torsions:
REMARK  status: ('A' for Active; 'I' for Inactive)
REMARK    1  A    between atoms: C2'_3  and  C1'_4 
REMARK    2  A    between atoms: C1'_4  and  C1_5 
ROOT
ATOM      1  C1  I4B d   1       3.538  -1.509  -3.521  0.00  0.00    -0.075 A 
ATOM      2  C2  I4B d   1       3.544  -0.165  -3.797  0.00  0.00     0.003 A 
ATOM      3  C3  I4B d   1       2.326   0.554  -3.866  0.00  0.00     0.002 A 
ATOM      4  C4  I4B d   1       1.131  -0.117  -3.704  0.00  0.00    -0.004 A 
ATOM      5  C5  I4B d   1       1.128  -1.475  -3.401  0.00  0.00     0.002 A 
ATOM      6  C6  I4B d   1       2.339  -2.174  -3.297  0.00  0.00     0.003 A 
ENDROOT
BRANCH   1   7
ATOM      7  C1' I4B d   1       4.840  -2.244  -3.487  0.00  0.00     0.060 C 
BRANCH   7   8
ATOM      8  C2' I4B d   1       4.965  -3.032  -4.776  0.00  0.00    -0.013 C 
ATOM      9  C4' I4B d   1       5.992  -2.420  -5.692  0.00  0.00     0.013 C 
ATOM     10  C3' I4B d   1       5.327  -4.443  -4.422  0.00  0.00     0.013 C 
ENDBRANCH   7   8
ENDBRANCH   1   7
TORSDOF 2
ENDMDL
