MODEL 1
REMARK minimizedAffinity 5.24985981
REMARK minimizedRMSD -1
REMARK  3 active torsions:
REMARK  status: ('A' for Active; 'I' for Inactive)
REMARK    1  A    between atoms: C3'_2  and  C2'_3 
REMARK    2  A    between atoms: C2'_3  and  C1'_4 
REMARK    3  A    between atoms: C1'_4  and  C1_5 
ROOT
ATOM      1  C1  N4B d   1       1.337  -2.915   0.558  0.00  0.00    -0.075 A 
ATOM      2  C2  N4B d   1       0.386  -3.892   0.190  0.00  0.00     0.002 A 
ATOM      3  C3  N4B d   1      -0.879  -3.854   0.723  0.00  0.00     0.002 A 
ATOM      4  C4  N4B d   1      -1.208  -2.865   1.637  0.00  0.00    -0.004 A 
ATOM      5  C5  N4B d   1      -0.292  -1.910   1.968  0.00  0.00     0.002 A 
ATOM      6  C6  N4B d   1       0.982  -1.933   1.437  0.00  0.00     0.002 A 
ENDROOT
BRANCH   1   7
ATOM      7  C1' N4B d   1       2.758  -2.965   0.067  0.00  0.00     0.057 C 
BRANCH   7   8
ATOM      8  C2' N4B d   1       3.271  -4.399   0.164  0.00  0.00     0.009 C 
BRANCH   8   9
ATOM      9  C3' N4B d   1       4.137  -4.612   1.394  0.00  0.00     0.004 C 
ATOM     10  C4' N4B d   1       5.604  -4.535   1.092  0.00  0.00     0.003 C 
ENDBRANCH   8   9
ENDBRANCH   7   8
ENDBRANCH   1   7
TORSDOF 3
ENDMDL
