MODEL 1
REMARK minimizedAffinity 3.84120607
REMARK minimizedRMSD -1
REMARK  3 active torsions:
REMARK  status: ('A' for Active; 'I' for Inactive)
REMARK    1  A    between atoms: C3'_2  and  C2'_3 
REMARK    2  A    between atoms: C2'_3  and  C1'_4 
REMARK    3  A    between atoms: C1'_4  and  C1_5 
ROOT
ATOM      1  C1  N4B d   1      -2.231   3.007  -3.847  0.00  0.00    -0.075 A 
ATOM      2  C2  N4B d   1      -3.224   2.078  -4.227  0.00  0.00     0.002 A 
ATOM      3  C3  N4B d   1      -4.213   1.728  -3.340  0.00  0.00     0.002 A 
ATOM      4  C4  N4B d   1      -4.218   2.278  -2.067  0.00  0.00    -0.004 A 
ATOM      5  C5  N4B d   1      -3.270   3.194  -1.716  0.00  0.00     0.002 A 
ATOM      6  C6  N4B d   1      -2.273   3.558  -2.599  0.00  0.00     0.002 A 
ENDROOT
BRANCH   1   7
ATOM      7  C1' N4B d   1      -1.082   3.356  -4.752  0.00  0.00     0.057 C 
BRANCH   7   8
ATOM      8  C2' N4B d   1      -0.463   2.070  -5.294  0.00  0.00     0.009 C 
BRANCH   8   9
ATOM      9  C3' N4B d   1       0.392   1.369  -4.253  0.00  0.00     0.004 C 
ATOM     10  C4' N4B d   1       0.055  -0.086  -4.109  0.00  0.00     0.003 C 
ENDBRANCH   8   9
ENDBRANCH   7   8
ENDBRANCH   1   7
TORSDOF 3
ENDMDL
