MODEL 1
REMARK minimizedAffinity 1.96184528
REMARK minimizedRMSD -1
REMARK  3 active torsions:
REMARK  status: ('A' for Active; 'I' for Inactive)
REMARK    1  A    between atoms: C3'_2  and  C2'_3 
REMARK    2  A    between atoms: C2'_3  and  C1'_4 
REMARK    3  A    between atoms: C1'_4  and  C1_5 
ROOT
ATOM      1  C1  N4B d   1      -1.902   3.929  -4.245  0.00  0.00    -0.075 A 
ATOM      2  C2  N4B d   1      -1.242   2.687  -4.124  0.00  0.00     0.002 A 
ATOM      3  C3  N4B d   1      -0.183   2.389  -4.946  0.00  0.00     0.002 A 
ATOM      4  C4  N4B d   1       0.219   3.306  -5.906  0.00  0.00    -0.004 A 
ATOM      5  C5  N4B d   1      -0.407   4.514  -5.999  0.00  0.00     0.002 A 
ATOM      6  C6  N4B d   1      -1.470   4.828  -5.177  0.00  0.00     0.002 A 
ENDROOT
BRANCH   1   7
ATOM      7  C1' N4B d   1      -3.119   4.265  -3.426  0.00  0.00     0.057 C 
BRANCH   7   8
ATOM      8  C2' N4B d   1      -3.779   2.972  -2.957  0.00  0.00     0.009 C 
BRANCH   8   9
ATOM      9  C3' N4B d   1      -4.175   3.036  -1.492  0.00  0.00     0.004 C 
ATOM     10  C4' N4B d   1      -3.423   4.088  -0.732  0.00  0.00     0.003 C 
ENDBRANCH   8   9
ENDBRANCH   7   8
ENDBRANCH   1   7
TORSDOF 3
ENDMDL
