MODEL 1
REMARK minimizedAffinity 5.13331175
REMARK minimizedRMSD -1
REMARK  3 active torsions:
REMARK  status: ('A' for Active; 'I' for Inactive)
REMARK    1  A    between atoms: C3'_2  and  C2'_3 
REMARK    2  A    between atoms: C2'_3  and  C1'_4 
REMARK    3  A    between atoms: C1'_4  and  C1_5 
ROOT
ATOM      1  C1  N4B d   1      -1.194   2.995  -4.015  0.00  0.00    -0.075 A 
ATOM      2  C2  N4B d   1      -0.043   2.348  -4.518  0.00  0.00     0.002 A 
ATOM      3  C3  N4B d   1       0.708   2.950  -5.497  0.00  0.00     0.002 A 
ATOM      4  C4  N4B d   1       0.321   4.182  -6.000  0.00  0.00    -0.004 A 
ATOM      5  C5  N4B d   1      -0.777   4.811  -5.491  0.00  0.00     0.002 A 
ATOM      6  C6  N4B d   1      -1.540   4.221  -4.503  0.00  0.00     0.002 A 
ENDROOT
BRANCH   1   7
ATOM      7  C1' N4B d   1      -2.096   2.338  -3.005  0.00  0.00     0.057 C 
BRANCH   7   8
ATOM      8  C2' N4B d   1      -3.549   2.638  -3.362  0.00  0.00     0.009 C 
BRANCH   8   9
ATOM      9  C3' N4B d   1      -4.282   3.327  -2.224  0.00  0.00     0.004 C 
ATOM     10  C4' N4B d   1      -3.382   3.670  -1.075  0.00  0.00     0.003 C 
ENDBRANCH   8   9
ENDBRANCH   7   8
ENDBRANCH   1   7
TORSDOF 3
ENDMDL
