MODEL 1
REMARK minimizedAffinity -0.0940341651
REMARK minimizedRMSD -1
REMARK  3 active torsions:
REMARK  status: ('A' for Active; 'I' for Inactive)
REMARK    1  A    between atoms: C3'_2  and  C2'_3 
REMARK    2  A    between atoms: C2'_3  and  C1'_4 
REMARK    3  A    between atoms: C1'_4  and  C1_5 
ROOT
ATOM      1  C1  N4B d   1      -4.121   1.374   3.925  0.00  0.00    -0.075 A 
ATOM      2  C2  N4B d   1      -5.063   0.750   3.078  0.00  0.00     0.002 A 
ATOM      3  C3  N4B d   1      -5.998  -0.107   3.603  0.00  0.00     0.002 A 
ATOM      4  C4  N4B d   1      -6.000  -0.369   4.965  0.00  0.00    -0.004 A 
ATOM      5  C5  N4B d   1      -5.104   0.258   5.781  0.00  0.00     0.002 A 
ATOM      6  C6  N4B d   1      -4.160   1.125   5.267  0.00  0.00     0.002 A 
ENDROOT
BRANCH   1   7
ATOM      7  C1' N4B d   1      -3.025   2.251   3.385  0.00  0.00     0.057 C 
BRANCH   7   8
ATOM      8  C2' N4B d   1      -2.230   1.474   2.341  0.00  0.00     0.009 C 
BRANCH   8   9
ATOM      9  C3' N4B d   1      -0.740   1.486   2.636  0.00  0.00     0.004 C 
ATOM     10  C4' N4B d   1      -0.003   0.376   1.950  0.00  0.00     0.003 C 
ENDBRANCH   8   9
ENDBRANCH   7   8
ENDBRANCH   1   7
TORSDOF 3
ENDMDL
