MODEL 1
REMARK minimizedAffinity 0.258295715
REMARK minimizedRMSD -1
REMARK  3 active torsions:
REMARK  status: ('A' for Active; 'I' for Inactive)
REMARK    1  A    between atoms: C3'_2  and  C2'_3 
REMARK    2  A    between atoms: C2'_3  and  C1'_4 
REMARK    3  A    between atoms: C1'_4  and  C1_5 
ROOT
ATOM      1  C1  N4B d   1      -2.779   1.503   4.711  0.00  0.00    -0.075 A 
ATOM      2  C2  N4B d   1      -2.420   2.851   4.492  0.00  0.00     0.002 A 
ATOM      3  C3  N4B d   1      -1.322   3.153   3.724  0.00  0.00     0.002 A 
ATOM      4  C4  N4B d   1      -0.560   2.128   3.184  0.00  0.00    -0.004 A 
ATOM      5  C5  N4B d   1      -0.928   0.829   3.380  0.00  0.00     0.002 A 
ATOM      6  C6  N4B d   1      -2.031   0.511   4.145  0.00  0.00     0.002 A 
ENDROOT
BRANCH   1   7
ATOM      7  C1' N4B d   1      -3.920   1.122   5.614  0.00  0.00     0.057 C 
BRANCH   7   8
ATOM      8  C2' N4B d   1      -4.000  -0.399   5.705  0.00  0.00     0.009 C 
BRANCH   8   9
ATOM      9  C3' N4B d   1      -5.436  -0.893   5.718  0.00  0.00     0.004 C 
ATOM     10  C4' N4B d   1      -5.999  -1.081   4.341  0.00  0.00     0.003 C 
ENDBRANCH   8   9
ENDBRANCH   7   8
ENDBRANCH   1   7
TORSDOF 3
ENDMDL
