MODEL 1
REMARK minimizedAffinity 6.77634573
REMARK minimizedRMSD -1
REMARK  3 active torsions:
REMARK  status: ('A' for Active; 'I' for Inactive)
REMARK    1  A    between atoms: C3'_2  and  C2'_3 
REMARK    2  A    between atoms: C2'_3  and  C1'_4 
REMARK    3  A    between atoms: C1'_4  and  C1_5 
ROOT
ATOM      1  C1  N4B d   1       3.628   2.179   0.418  0.00  0.00    -0.075 A 
ATOM      2  C2  N4B d   1       2.723   3.203   0.061  0.00  0.00     0.002 A 
ATOM      3  C3  N4B d   1       3.148   4.508   0.011  0.00  0.00     0.002 A 
ATOM      4  C4  N4B d   1       4.463   4.814   0.329  0.00  0.00    -0.004 A 
ATOM      5  C5  N4B d   1       5.337   3.816   0.648  0.00  0.00     0.002 A 
ATOM      6  C6  N4B d   1       4.924   2.499   0.699  0.00  0.00     0.002 A 
ENDROOT
BRANCH   1   7
ATOM      7  C1' N4B d   1       3.188   0.749   0.570  0.00  0.00     0.057 C 
BRANCH   7   8
ATOM      8  C2' N4B d   1       2.930   0.459   2.046  0.00  0.00     0.009 C 
BRANCH   8   9
ATOM      9  C3' N4B d   1       3.951  -0.508   2.622  0.00  0.00     0.004 C 
ATOM     10  C4' N4B d   1       5.272   0.143   2.903  0.00  0.00     0.003 C 
ENDBRANCH   8   9
ENDBRANCH   7   8
ENDBRANCH   1   7
TORSDOF 3
ENDMDL
