MODEL 1
REMARK minimizedAffinity 3.35209227
REMARK minimizedRMSD -1
REMARK  3 active torsions:
REMARK  status: ('A' for Active; 'I' for Inactive)
REMARK    1  A    between atoms: C3'_2  and  C2'_3 
REMARK    2  A    between atoms: C2'_3  and  C1'_4 
REMARK    3  A    between atoms: C1'_4  and  C1_5 
ROOT
ATOM      1  C1  N4B d   1      -4.994   2.957   5.720  0.00  0.00    -0.075 A 
ATOM      2  C2  N4B d   1      -3.595   3.142   5.782  0.00  0.00     0.002 A 
ATOM      3  C3  N4B d   1      -3.076   4.405   5.930  0.00  0.00     0.002 A 
ATOM      4  C4  N4B d   1      -3.932   5.494   5.999  0.00  0.00    -0.004 A 
ATOM      5  C5  N4B d   1      -5.282   5.304   5.965  0.00  0.00     0.002 A 
ATOM      6  C6  N4B d   1      -5.818   4.040   5.821  0.00  0.00     0.002 A 
ENDROOT
BRANCH   1   7
ATOM      7  C1' N4B d   1      -5.605   1.604   5.473  0.00  0.00     0.057 C 
BRANCH   7   8
ATOM      8  C2' N4B d   1      -4.950   0.975   4.247  0.00  0.00     0.009 C 
BRANCH   8   9
ATOM      9  C3' N4B d   1      -5.823   1.099   3.010  0.00  0.00     0.004 C 
ATOM     10  C4' N4B d   1      -5.682  -0.069   2.080  0.00  0.00     0.003 C 
ENDBRANCH   8   9
ENDBRANCH   7   8
ENDBRANCH   1   7
TORSDOF 3
ENDMDL
