MODEL 1
REMARK minimizedAffinity 2.16512799
REMARK minimizedRMSD -1
REMARK  3 active torsions:
REMARK  status: ('A' for Active; 'I' for Inactive)
REMARK    1  A    between atoms: C3'_2  and  C2'_3 
REMARK    2  A    between atoms: C2'_3  and  C1'_4 
REMARK    3  A    between atoms: C1'_4  and  C1_5 
ROOT
ATOM      1  C1  N4B d   1      -3.867  -3.768   4.040  0.00  0.00    -0.075 A 
ATOM      2  C2  N4B d   1      -3.759  -3.626   5.441  0.00  0.00     0.002 A 
ATOM      3  C3  N4B d   1      -3.347  -2.432   5.980  0.00  0.00     0.002 A 
ATOM      4  C4  N4B d   1      -3.021  -1.377   5.141  0.00  0.00    -0.004 A 
ATOM      5  C5  N4B d   1      -3.153  -1.514   3.790  0.00  0.00     0.002 A 
ATOM      6  C6  N4B d   1      -3.570  -2.707   3.235  0.00  0.00     0.002 A 
ENDROOT
BRANCH   1   7
ATOM      7  C1' N4B d   1      -4.231  -5.081   3.401  0.00  0.00     0.057 C 
BRANCH   7   8
ATOM      8  C2' N4B d   1      -5.705  -5.054   3.005  0.00  0.00     0.009 C 
BRANCH   8   9
ATOM      9  C3' N4B d   1      -6.000  -5.992   1.848  0.00  0.00     0.004 C 
ATOM     10  C4' N4B d   1      -4.913  -6.000   0.815  0.00  0.00     0.003 C 
ENDBRANCH   8   9
ENDBRANCH   7   8
ENDBRANCH   1   7
TORSDOF 3
ENDMDL
