MODEL 1
REMARK minimizedAffinity 2.86983752
REMARK minimizedRMSD -1
REMARK  3 active torsions:
REMARK  status: ('A' for Active; 'I' for Inactive)
REMARK    1  A    between atoms: C3'_2  and  C2'_3 
REMARK    2  A    between atoms: C2'_3  and  C1'_4 
REMARK    3  A    between atoms: C1'_4  and  C1_5 
ROOT
ATOM      1  C1  N4B d   1      -3.858   3.577   5.779  0.00  0.00    -0.075 A 
ATOM      2  C2  N4B d   1      -4.583   4.781   5.912  0.00  0.00     0.002 A 
ATOM      3  C3  N4B d   1      -3.917   5.979   5.988  0.00  0.00     0.002 A 
ATOM      4  C4  N4B d   1      -2.531   5.997   5.953  0.00  0.00    -0.004 A 
ATOM      5  C5  N4B d   1      -1.838   4.831   5.799  0.00  0.00     0.002 A 
ATOM      6  C6  N4B d   1      -2.495   3.620   5.717  0.00  0.00     0.002 A 
ENDROOT
BRANCH   1   7
ATOM      7  C1' N4B d   1      -4.539   2.235   5.779  0.00  0.00     0.057 C 
BRANCH   7   8
ATOM      8  C2' N4B d   1      -3.493   1.143   5.983  0.00  0.00     0.009 C 
BRANCH   8   9
ATOM      9  C3' N4B d   1      -4.114  -0.243   5.990  0.00  0.00     0.004 C 
ATOM     10  C4' N4B d   1      -3.089  -1.338   5.963  0.00  0.00     0.003 C 
ENDBRANCH   8   9
ENDBRANCH   7   8
ENDBRANCH   1   7
TORSDOF 3
ENDMDL
