MODEL 1
REMARK minimizedAffinity 6.31863022
REMARK minimizedRMSD -1
REMARK  0 active torsions:
REMARK  status: ('A' for Active; 'I' for Inactive)
ROOT
ATOM      1  C   UNL d   1       2.127   1.229   0.382  0.00  0.00     0.078 C 
ATOM      2  C1  UNL d   1       1.452   2.558   0.544  0.00  0.00    -0.077 A 
ATOM      3  C2  UNL d   1       1.654   3.333   1.692  0.00  0.00    -0.001 A 
ATOM      4  C3  UNL d   1       1.011   4.564   1.834  0.00  0.00     0.003 A 
ATOM      5  C4  UNL d   1       0.163   5.030   0.832  0.00  0.00    -0.005 A 
ATOM      6  C5  UNL d   1      -0.046   4.264  -0.313  0.00  0.00     0.003 A 
ATOM      7  C6  UNL d   1       0.596   3.033  -0.456  0.00  0.00    -0.001 A 
ENDROOT
TORSDOF 0
ENDMDL
