MODEL 1
REMARK minimizedAffinity 9.23509026
REMARK minimizedRMSD -1
REMARK  0 active torsions:
REMARK  status: ('A' for Active; 'I' for Inactive)
ROOT
ATOM      1  C   UNL d   1       2.397   2.241   2.875  0.00  0.00     0.078 C 
ATOM      2  C1  UNL d   1       2.623   1.576   1.550  0.00  0.00    -0.077 A 
ATOM      3  C2  UNL d   1       2.563   2.308   0.357  0.00  0.00    -0.001 A 
ATOM      4  C3  UNL d   1       2.766   1.674  -0.870  0.00  0.00     0.003 A 
ATOM      5  C4  UNL d   1       3.028   0.307  -0.917  0.00  0.00    -0.005 A 
ATOM      6  C5  UNL d   1       3.087  -0.430   0.265  0.00  0.00     0.003 A 
ATOM      7  C6  UNL d   1       2.884   0.202   1.493  0.00  0.00    -0.001 A 
ENDROOT
TORSDOF 0
ENDMDL
