MODEL 1
REMARK minimizedAffinity -5.73044157
REMARK minimizedRMSD -1
REMARK  0 active torsions:
REMARK  status: ('A' for Active; 'I' for Inactive)
ROOT
ATOM      1  C   UNL d   1       2.744  -1.500   0.919  0.00  0.00     0.078 C 
ATOM      2  C1  UNL d   1       3.592  -0.293   0.651  0.00  0.00    -0.077 A 
ATOM      3  C2  UNL d   1       3.013   0.926   0.276  0.00  0.00    -0.001 A 
ATOM      4  C3  UNL d   1       3.815   2.039   0.019  0.00  0.00     0.003 A 
ATOM      5  C4  UNL d   1       5.200   1.945   0.134  0.00  0.00    -0.005 A 
ATOM      6  C5  UNL d   1       5.786   0.735   0.505  0.00  0.00     0.003 A 
ATOM      7  C6  UNL d   1       4.985  -0.379   0.761  0.00  0.00    -0.001 A 
ENDROOT
TORSDOF 0
ENDMDL
