MODEL 1
REMARK minimizedAffinity 9.47501373
REMARK minimizedRMSD -1
REMARK  0 active torsions:
REMARK  status: ('A' for Active; 'I' for Inactive)
ROOT
ATOM      1  C   UNL d   1       5.997  -1.120   1.671  0.00  0.00     0.078 C 
ATOM      2  C1  UNL d   1       4.836  -0.442   1.006  0.00  0.00    -0.077 A 
ATOM      3  C2  UNL d   1       4.852   0.936   0.757  0.00  0.00    -0.001 A 
ATOM      4  C3  UNL d   1       3.761   1.555   0.146  0.00  0.00     0.003 A 
ATOM      5  C4  UNL d   1       2.645   0.805  -0.220  0.00  0.00    -0.005 A 
ATOM      6  C5  UNL d   1       2.619  -0.566   0.027  0.00  0.00     0.003 A 
ATOM      7  C6  UNL d   1       3.709  -1.188   0.638  0.00  0.00    -0.001 A 
ENDROOT
TORSDOF 0
ENDMDL
