MODEL 1
REMARK minimizedAffinity 0.00373513042
REMARK minimizedRMSD -1
REMARK  0 active torsions:
REMARK  status: ('A' for Active; 'I' for Inactive)
ROOT
ATOM      1  C   UNL d   1       5.369   3.412   1.746  0.00  0.00     0.078 C 
ATOM      2  C1  UNL d   1       4.400   2.600   0.940  0.00  0.00    -0.077 A 
ATOM      3  C2  UNL d   1       4.690   2.233  -0.381  0.00  0.00    -0.001 A 
ATOM      4  C3  UNL d   1       3.774   1.485  -1.122  0.00  0.00     0.003 A 
ATOM      5  C4  UNL d   1       2.563   1.098  -0.553  0.00  0.00    -0.005 A 
ATOM      6  C5  UNL d   1       2.265   1.460   0.759  0.00  0.00     0.003 A 
ATOM      7  C6  UNL d   1       3.179   2.208   1.502  0.00  0.00    -0.001 A 
ENDROOT
TORSDOF 0
ENDMDL
