MODEL 1
REMARK minimizedAffinity -1.49254143
REMARK minimizedRMSD -1
REMARK  0 active torsions:
REMARK  status: ('A' for Active; 'I' for Inactive)
ROOT
ATOM      1  C   UNL d   1      -1.809  -5.786   2.472  0.00  0.00     0.078 C 
ATOM      2  C1  UNL d   1      -1.178  -5.207   3.703  0.00  0.00    -0.077 A 
ATOM      3  C2  UNL d   1      -1.006  -5.982   4.857  0.00  0.00    -0.001 A 
ATOM      4  C3  UNL d   1      -0.427  -5.427   5.999  0.00  0.00     0.003 A 
ATOM      5  C4  UNL d   1      -0.016  -4.096   6.000  0.00  0.00    -0.005 A 
ATOM      6  C5  UNL d   1      -0.186  -3.317   4.857  0.00  0.00     0.003 A 
ATOM      7  C6  UNL d   1      -0.765  -3.869   3.714  0.00  0.00    -0.001 A 
ENDROOT
TORSDOF 0
ENDMDL
