MODEL 1
REMARK minimizedAffinity 9.23887825
REMARK minimizedRMSD -1
REMARK  0 active torsions:
REMARK  status: ('A' for Active; 'I' for Inactive)
ROOT
ATOM      1  C   UNL d   1       6.000   5.939  -1.330  0.00  0.00     0.078 C 
ATOM      2  C1  UNL d   1       5.847   4.619  -0.636  0.00  0.00    -0.077 A 
ATOM      3  C2  UNL d   1       5.998   4.511   0.752  0.00  0.00    -0.001 A 
ATOM      4  C3  UNL d   1       5.862   3.274   1.383  0.00  0.00     0.003 A 
ATOM      5  C4  UNL d   1       5.576   2.134   0.634  0.00  0.00    -0.005 A 
ATOM      6  C5  UNL d   1       5.426   2.231  -0.748  0.00  0.00     0.003 A 
ATOM      7  C6  UNL d   1       5.561   3.467  -1.381  0.00  0.00    -0.001 A 
ENDROOT
TORSDOF 0
ENDMDL
