MODEL 1
REMARK minimizedAffinity -4.7750802
REMARK minimizedRMSD -1
REMARK  0 active torsions:
REMARK  status: ('A' for Active; 'I' for Inactive)
ROOT
ATOM      1  C   UNL d   1       4.142   1.328  -0.968  0.00  0.00     0.078 C 
ATOM      2  C1  UNL d   1       2.969   0.437  -0.688  0.00  0.00    -0.077 A 
ATOM      3  C2  UNL d   1       3.090  -0.957  -0.752  0.00  0.00    -0.001 A 
ATOM      4  C3  UNL d   1       1.987  -1.774  -0.499  0.00  0.00     0.003 A 
ATOM      5  C4  UNL d   1       0.755  -1.207  -0.181  0.00  0.00    -0.005 A 
ATOM      6  C5  UNL d   1       0.624   0.179  -0.117  0.00  0.00     0.003 A 
ATOM      7  C6  UNL d   1       1.725   0.998  -0.370  0.00  0.00    -0.001 A 
ENDROOT
TORSDOF 0
ENDMDL
