MODEL 1
REMARK minimizedAffinity -2.91433334
REMARK minimizedRMSD -1
REMARK  3 active torsions:
REMARK  status: ('A' for Active; 'I' for Inactive)
REMARK    1  A    between atoms: C3'_2  and  C2'_3 
REMARK    2  A    between atoms: C2'_3  and  C1'_4 
REMARK    3  A    between atoms: C1'_4  and  C1_5 
ROOT
ATOM      1  C1  N4B d   1      -0.017   0.145   0.144  0.00  0.00    -0.075 A 
ATOM      2  C2  N4B d   1      -0.975   0.216   1.179  0.00  0.00     0.002 A 
ATOM      3  C3  N4B d   1      -1.775  -0.866   1.450  0.00  0.00     0.002 A 
ATOM      4  C4  N4B d   1      -1.649  -2.019   0.689  0.00  0.00    -0.004 A 
ATOM      5  C5  N4B d   1      -0.704  -2.089  -0.292  0.00  0.00     0.002 A 
ATOM      6  C6  N4B d   1       0.110  -1.010  -0.572  0.00  0.00     0.002 A 
ENDROOT
BRANCH   1   7
ATOM      7  C1' N4B d   1       0.822   1.332  -0.245  0.00  0.00     0.057 C 
BRANCH   7   8
ATOM      8  C2' N4B d   1       0.515   2.492   0.697  0.00  0.00     0.009 C 
BRANCH   8   9
ATOM      9  C3' N4B d   1       1.752   2.964   1.441  0.00  0.00     0.004 C 
ATOM     10  C4' N4B d   1       2.990   2.920   0.595  0.00  0.00     0.003 C 
ENDBRANCH   8   9
ENDBRANCH   7   8
ENDBRANCH   1   7
TORSDOF 3
ENDMDL
