MODEL 1
REMARK minimizedAffinity -4.18793106
REMARK minimizedRMSD -1
REMARK  3 active torsions:
REMARK  status: ('A' for Active; 'I' for Inactive)
REMARK    1  A    between atoms: C3'_2  and  C2'_3 
REMARK    2  A    between atoms: C2'_3  and  C1'_4 
REMARK    3  A    between atoms: C1'_4  and  C1_5 
ROOT
ATOM      1  C1  N4B d   1       0.720   1.319   0.769  0.00  0.00    -0.075 A 
ATOM      2  C2  N4B d   1       1.733   2.146   1.302  0.00  0.00     0.002 A 
ATOM      3  C3  N4B d   1       2.051   3.329   0.682  0.00  0.00     0.002 A 
ATOM      4  C4  N4B d   1       1.385   3.695  -0.479  0.00  0.00    -0.004 A 
ATOM      5  C5  N4B d   1       0.390   2.903  -0.973  0.00  0.00     0.002 A 
ATOM      6  C6  N4B d   1       0.058   1.713  -0.357  0.00  0.00     0.002 A 
ENDROOT
BRANCH   1   7
ATOM      7  C1' N4B d   1       0.397  -0.024   1.364  0.00  0.00     0.057 C 
BRANCH   7   8
ATOM      8  C2' N4B d   1      -0.995  -0.453   0.907  0.00  0.00     0.009 C 
BRANCH   8   9
ATOM      9  C3' N4B d   1      -0.990  -1.848   0.305  0.00  0.00     0.004 C 
ATOM     10  C4' N4B d   1       0.283  -2.162  -0.422  0.00  0.00     0.003 C 
ENDBRANCH   8   9
ENDBRANCH   7   8
ENDBRANCH   1   7
TORSDOF 3
ENDMDL
