MODEL 1
REMARK minimizedAffinity -3.97139096
REMARK minimizedRMSD -1
REMARK  3 active torsions:
REMARK  status: ('A' for Active; 'I' for Inactive)
REMARK    1  A    between atoms: C3'_2  and  C2'_3 
REMARK    2  A    between atoms: C2'_3  and  C1'_4 
REMARK    3  A    between atoms: C1'_4  and  C1_5 
ROOT
ATOM      1  C1  N4B d   1      -0.254  -0.421   0.280  0.00  0.00    -0.075 A 
ATOM      2  C2  N4B d   1      -1.355  -0.959   0.982  0.00  0.00     0.002 A 
ATOM      3  C3  N4B d   1      -1.459  -2.317   1.160  0.00  0.00     0.002 A 
ATOM      4  C4  N4B d   1      -0.489  -3.154   0.630  0.00  0.00    -0.004 A 
ATOM      5  C5  N4B d   1       0.584  -2.625  -0.025  0.00  0.00     0.002 A 
ATOM      6  C6  N4B d   1       0.704  -1.262  -0.208  0.00  0.00     0.002 A 
ENDROOT
BRANCH   1   7
ATOM      7  C1' N4B d   1      -0.141   1.050  -0.014  0.00  0.00     0.057 C 
BRANCH   7   8
ATOM      8  C2' N4B d   1       1.325   1.465   0.065  0.00  0.00     0.009 C 
BRANCH   8   9
ATOM      9  C3' N4B d   1       1.483   2.969   0.203  0.00  0.00     0.004 C 
ATOM     10  C4' N4B d   1       2.208   3.365   1.455  0.00  0.00     0.003 C 
ENDBRANCH   8   9
ENDBRANCH   7   8
ENDBRANCH   1   7
TORSDOF 3
ENDMDL
