MODEL 1
REMARK minimizedAffinity -3.24413919
REMARK minimizedRMSD -1
REMARK  3 active torsions:
REMARK  status: ('A' for Active; 'I' for Inactive)
REMARK    1  A    between atoms: C3'_2  and  C2'_3 
REMARK    2  A    between atoms: C2'_3  and  C1'_4 
REMARK    3  A    between atoms: C1'_4  and  C1_5 
ROOT
ATOM      1  C1  N4B d   1       0.473   2.112   0.335  0.00  0.00    -0.075 A 
ATOM      2  C2  N4B d   1      -0.008   2.570   1.582  0.00  0.00     0.002 A 
ATOM      3  C3  N4B d   1       0.789   3.354   2.379  0.00  0.00     0.002 A 
ATOM      4  C4  N4B d   1       2.071   3.677   1.961  0.00  0.00    -0.004 A 
ATOM      5  C5  N4B d   1       2.519   3.252   0.745  0.00  0.00     0.002 A 
ATOM      6  C6  N4B d   1       1.728   2.466  -0.069  0.00  0.00     0.002 A 
ENDROOT
BRANCH   1   7
ATOM      7  C1' N4B d   1      -0.329   1.181  -0.532  0.00  0.00     0.057 C 
BRANCH   7   8
ATOM      8  C2' N4B d   1      -0.191  -0.243  -0.002  0.00  0.00     0.009 C 
BRANCH   8   9
ATOM      9  C3' N4B d   1      -1.480  -0.743   0.627  0.00  0.00     0.004 C 
ATOM     10  C4' N4B d   1      -1.265  -1.915   1.538  0.00  0.00     0.003 C 
ENDBRANCH   8   9
ENDBRANCH   7   8
ENDBRANCH   1   7
TORSDOF 3
ENDMDL
