MODEL 1
REMARK minimizedAffinity -6.56935549
REMARK minimizedRMSD -1
REMARK  3 active torsions:
REMARK  status: ('A' for Active; 'I' for Inactive)
REMARK    1  A    between atoms: C3'_2  and  C2'_3 
REMARK    2  A    between atoms: C2'_3  and  C1'_4 
REMARK    3  A    between atoms: C1'_4  and  C1_5 
ROOT
ATOM      1  C1  N4B d   1      -0.196  -1.002   0.055  0.00  0.00    -0.075 A 
ATOM      2  C2  N4B d   1      -0.345  -2.202   0.786  0.00  0.00     0.002 A 
ATOM      3  C3  N4B d   1      -0.331  -3.410   0.132  0.00  0.00     0.002 A 
ATOM      4  C4  N4B d   1      -0.189  -3.442  -1.247  0.00  0.00    -0.004 A 
ATOM      5  C5  N4B d   1      -0.020  -2.280  -1.942  0.00  0.00     0.002 A 
ATOM      6  C6  N4B d   1      -0.028  -1.059  -1.298  0.00  0.00     0.002 A 
ENDROOT
BRANCH   1   7
ATOM      7  C1' N4B d   1      -0.292   0.346   0.715  0.00  0.00     0.057 C 
BRANCH   7   8
ATOM      8  C2' N4B d   1       0.005   1.431  -0.316  0.00  0.00     0.009 C 
BRANCH   8   9
ATOM      9  C3' N4B d   1       0.445   2.730   0.336  0.00  0.00     0.004 C 
ATOM     10  C4' N4B d   1       1.847   2.668   0.866  0.00  0.00     0.003 C 
ENDBRANCH   8   9
ENDBRANCH   7   8
ENDBRANCH   1   7
TORSDOF 3
ENDMDL
