MODEL 1
REMARK minimizedAffinity -6.58170843
REMARK minimizedRMSD -1
REMARK  3 active torsions:
REMARK  status: ('A' for Active; 'I' for Inactive)
REMARK    1  A    between atoms: C3'_2  and  C2'_3 
REMARK    2  A    between atoms: C2'_3  and  C1'_4 
REMARK    3  A    between atoms: C1'_4  and  C1_5 
ROOT
ATOM      1  C1  N4B d   1       0.020  -0.919  -0.289  0.00  0.00    -0.075 A 
ATOM      2  C2  N4B d   1      -0.211  -2.150   0.363  0.00  0.00     0.002 A 
ATOM      3  C3  N4B d   1      -0.064  -3.329  -0.325  0.00  0.00     0.002 A 
ATOM      4  C4  N4B d   1       0.292  -3.302  -1.665  0.00  0.00    -0.004 A 
ATOM      5  C5  N4B d   1       0.537  -2.109  -2.281  0.00  0.00     0.002 A 
ATOM      6  C6  N4B d   1       0.398  -0.916  -1.600  0.00  0.00     0.002 A 
ENDROOT
BRANCH   1   7
ATOM      7  C1' N4B d   1      -0.211   0.399   0.399  0.00  0.00     0.057 C 
BRANCH   7   8
ATOM      8  C2' N4B d   1       0.159   1.532  -0.553  0.00  0.00     0.009 C 
BRANCH   8   9
ATOM      9  C3' N4B d   1       0.793   2.704   0.177  0.00  0.00     0.004 C 
ATOM     10  C4' N4B d   1       1.062   3.872  -0.724  0.00  0.00     0.003 C 
ENDBRANCH   8   9
ENDBRANCH   7   8
ENDBRANCH   1   7
TORSDOF 3
ENDMDL
