MODEL 1
REMARK minimizedAffinity -4.31520939
REMARK minimizedRMSD -1
REMARK  1 active torsions:
REMARK  status: ('A' for Active; 'I' for Inactive)
REMARK    1  A    between atoms: C3_4  and  O_7 
ROOT
ATOM      1  C   UNL d   1      -0.487  -1.152   0.240  0.00  0.00    -0.033 A 
ATOM      2  C1  UNL d   1      -1.093  -0.608   1.374  0.00  0.00     0.039 A 
ATOM      3  C2  UNL d   1      -0.626   0.594   1.908  0.00  0.00    -0.080 A 
ATOM      4  C3  UNL d   1       0.444   1.243   1.299  0.00  0.00     0.150 A 
ATOM      5  C4  UNL d   1       1.050   0.709   0.166  0.00  0.00    -0.007 A 
ATOM      6  C5  UNL d   1       0.584  -0.492  -0.365  0.00  0.00     0.039 A 
ENDROOT
BRANCH   4   7
ATOM      7  O   UNL d   1       0.937   2.417   1.787  0.00  0.00    -0.526 OA
ATOM      8  H5  UNL d   1       0.439   2.650   2.588  0.00  0.00     0.418 HD
ENDBRANCH   4   7
TORSDOF 1
ENDMDL
