MODEL 1
REMARK minimizedAffinity -4.45160437
REMARK minimizedRMSD -1
REMARK  1 active torsions:
REMARK  status: ('A' for Active; 'I' for Inactive)
REMARK    1  A    between atoms: C3_4  and  O_7 
ROOT
ATOM      1  C   UNL d   1      -0.401  -0.423   0.542  0.00  0.00    -0.033 A 
ATOM      2  C1  UNL d   1      -0.523   0.115   1.824  0.00  0.00     0.039 A 
ATOM      3  C2  UNL d   1      -0.176   1.447   2.060  0.00  0.00    -0.080 A 
ATOM      4  C3  UNL d   1       0.289   2.229   1.006  0.00  0.00     0.150 A 
ATOM      5  C4  UNL d   1       0.408   1.701  -0.275  0.00  0.00    -0.007 A 
ATOM      6  C5  UNL d   1       0.063   0.370  -0.508  0.00  0.00     0.039 A 
ENDROOT
BRANCH   4   7
ATOM      7  O   UNL d   1       0.643   3.533   1.189  0.00  0.00    -0.526 OA
ATOM      8  H5  UNL d   1       0.536   3.752   2.129  0.00  0.00     0.418 HD
ENDBRANCH   4   7
TORSDOF 1
ENDMDL
