MODEL 1
REMARK minimizedAffinity -4.75538921
REMARK minimizedRMSD -1
REMARK  1 active torsions:
REMARK  status: ('A' for Active; 'I' for Inactive)
REMARK    1  A    between atoms: C3_4  and  O_7 
ROOT
ATOM      1  C   UNL d   1      -0.020  -0.412   0.385  0.00  0.00    -0.033 A 
ATOM      2  C1  UNL d   1      -0.216   0.153   1.647  0.00  0.00     0.039 A 
ATOM      3  C2  UNL d   1       0.283   1.427   1.928  0.00  0.00    -0.080 A 
ATOM      4  C3  UNL d   1       0.974   2.123   0.940  0.00  0.00     0.150 A 
ATOM      5  C4  UNL d   1       1.169   1.567  -0.320  0.00  0.00    -0.007 A 
ATOM      6  C5  UNL d   1       0.671   0.295  -0.598  0.00  0.00     0.039 A 
ENDROOT
BRANCH   4   7
ATOM      7  O   UNL d   1       1.484   3.367   1.169  0.00  0.00    -0.526 OA
ATOM      8  H5  UNL d   1       1.297   3.611   2.091  0.00  0.00     0.418 HD
ENDBRANCH   4   7
TORSDOF 1
ENDMDL
