MODEL 1
REMARK minimizedAffinity -1.66190183
REMARK minimizedRMSD -1
REMARK  1 active torsions:
REMARK  status: ('A' for Active; 'I' for Inactive)
REMARK    1  A    between atoms: C3_4  and  O_7 
ROOT
ATOM      1  C   UNL d   1       0.339  -1.552  -0.897  0.00  0.00    -0.033 A 
ATOM      2  C1  UNL d   1      -0.592  -0.897  -0.088  0.00  0.00     0.039 A 
ATOM      3  C2  UNL d   1      -0.304   0.368   0.427  0.00  0.00    -0.080 A 
ATOM      4  C3  UNL d   1       0.916   0.967   0.126  0.00  0.00     0.150 A 
ATOM      5  C4  UNL d   1       1.847   0.322  -0.682  0.00  0.00    -0.007 A 
ATOM      6  C5  UNL d   1       1.557  -0.942  -1.195  0.00  0.00     0.039 A 
ENDROOT
BRANCH   4   7
ATOM      7  O   UNL d   1       1.244   2.198   0.610  0.00  0.00    -0.526 OA
ATOM      8  H5  UNL d   1       0.519   2.510   1.176  0.00  0.00     0.418 HD
ENDBRANCH   4   7
TORSDOF 1
ENDMDL
