MODEL 1
REMARK minimizedAffinity -3.71277142
REMARK minimizedRMSD -1
REMARK  1 active torsions:
REMARK  status: ('A' for Active; 'I' for Inactive)
REMARK    1  A    between atoms: C3_4  and  O_7 
ROOT
ATOM      1  C   UNL d   1       0.424   0.997  -0.713  0.00  0.00    -0.033 A 
ATOM      2  C1  UNL d   1      -0.261   0.020   0.013  0.00  0.00     0.039 A 
ATOM      3  C2  UNL d   1      -0.278   0.069   1.408  0.00  0.00    -0.080 A 
ATOM      4  C3  UNL d   1       0.391   1.098   2.065  0.00  0.00     0.150 A 
ATOM      5  C4  UNL d   1       1.072   2.077   1.348  0.00  0.00    -0.007 A 
ATOM      6  C5  UNL d   1       1.089   2.026  -0.046  0.00  0.00     0.039 A 
ENDROOT
BRANCH   4   7
ATOM      7  O   UNL d   1       0.406   1.185   3.425  0.00  0.00    -0.526 OA
ATOM      8  H5  UNL d   1      -0.081   0.426   3.787  0.00  0.00     0.418 HD
ENDBRANCH   4   7
TORSDOF 1
ENDMDL
