MODEL 1
REMARK minimizedAffinity -5.29582167
REMARK minimizedRMSD -1
REMARK  1 active torsions:
REMARK  status: ('A' for Active; 'I' for Inactive)
REMARK    1  A    between atoms: C3_4  and  O_7 
ROOT
ATOM      1  C   UNL d   1       1.947   1.958   1.533  0.00  0.00    -0.033 A 
ATOM      2  C1  UNL d   1       2.569   1.318   0.459  0.00  0.00     0.039 A 
ATOM      3  C2  UNL d   1       1.838   0.458  -0.362  0.00  0.00    -0.080 A 
ATOM      4  C3  UNL d   1       0.487   0.248  -0.100  0.00  0.00     0.150 A 
ATOM      5  C4  UNL d   1      -0.140   0.885   0.966  0.00  0.00    -0.007 A 
ATOM      6  C5  UNL d   1       0.592   1.742   1.785  0.00  0.00     0.039 A 
ENDROOT
BRANCH   4   7
ATOM      7  O   UNL d   1      -0.267  -0.586  -0.871  0.00  0.00    -0.526 OA
ATOM      8  H5  UNL d   1       0.306  -0.978  -1.552  0.00  0.00     0.418 HD
ENDBRANCH   4   7
TORSDOF 1
ENDMDL
