MODEL 1
REMARK minimizedAffinity -0.864750445
REMARK minimizedRMSD -1
REMARK  1 active torsions:
REMARK  status: ('A' for Active; 'I' for Inactive)
REMARK    1  A    between atoms: C3_4  and  O_7 
ROOT
ATOM      1  C   UNL d   1      -3.341  -1.492  -3.818  0.00  0.00    -0.033 A 
ATOM      2  C1  UNL d   1      -3.574  -1.895  -2.502  0.00  0.00     0.039 A 
ATOM      3  C2  UNL d   1      -2.524  -1.920  -1.582  0.00  0.00    -0.080 A 
ATOM      4  C3  UNL d   1      -1.248  -1.540  -1.990  0.00  0.00     0.150 A 
ATOM      5  C4  UNL d   1      -1.010  -1.133  -3.299  0.00  0.00    -0.007 A 
ATOM      6  C5  UNL d   1      -2.060  -1.110  -4.217  0.00  0.00     0.039 A 
ENDROOT
BRANCH   4   7
ATOM      7  O   UNL d   1      -0.191  -1.552  -1.129  0.00  0.00    -0.526 OA
ATOM      8  H5  UNL d   1      -0.499  -1.882  -0.269  0.00  0.00     0.418 HD
ENDBRANCH   4   7
TORSDOF 1
ENDMDL
