MODEL 1
REMARK minimizedAffinity -5.26319742
REMARK minimizedRMSD -1
REMARK  1 active torsions:
REMARK  status: ('A' for Active; 'I' for Inactive)
REMARK    1  A    between atoms: C3_4  and  O_7 
ROOT
ATOM      1  C   UNL d   1      -0.429   1.346   1.342  0.00  0.00    -0.033 A 
ATOM      2  C1  UNL d   1      -0.268   0.210   0.547  0.00  0.00     0.039 A 
ATOM      3  C2  UNL d   1       0.984  -0.098   0.011  0.00  0.00    -0.080 A 
ATOM      4  C3  UNL d   1       2.066   0.737   0.279  0.00  0.00     0.150 A 
ATOM      5  C4  UNL d   1       1.914   1.868   1.074  0.00  0.00    -0.007 A 
ATOM      6  C5  UNL d   1       0.663   2.174   1.607  0.00  0.00     0.039 A 
ENDROOT
BRANCH   4   7
ATOM      7  O   UNL d   1       3.306   0.480  -0.226  0.00  0.00    -0.526 OA
ATOM      8  H5  UNL d   1       3.254  -0.318  -0.779  0.00  0.00     0.418 HD
ENDBRANCH   4   7
TORSDOF 1
ENDMDL
