MODEL 1
REMARK minimizedAffinity -3.73228765
REMARK minimizedRMSD -1
REMARK  1 active torsions:
REMARK  status: ('A' for Active; 'I' for Inactive)
REMARK    1  A    between atoms: C3_4  and  O_7 
ROOT
ATOM      1  C   UNL d   1      -0.003  -0.234  -0.162  0.00  0.00    -0.033 A 
ATOM      2  C1  UNL d   1       1.061   0.413  -0.794  0.00  0.00     0.039 A 
ATOM      3  C2  UNL d   1       1.539   1.625  -0.292  0.00  0.00    -0.080 A 
ATOM      4  C3  UNL d   1       0.947   2.178   0.840  0.00  0.00     0.150 A 
ATOM      5  C4  UNL d   1      -0.111   1.537   1.476  0.00  0.00    -0.007 A 
ATOM      6  C5  UNL d   1      -0.588   0.327   0.974  0.00  0.00     0.039 A 
ENDROOT
BRANCH   4   7
ATOM      7  O   UNL d   1       1.377   3.361   1.363  0.00  0.00    -0.526 OA
ATOM      8  H5  UNL d   1       2.094   3.703   0.803  0.00  0.00     0.418 HD
ENDBRANCH   4   7
TORSDOF 1
ENDMDL
