MODEL 1
REMARK minimizedAffinity -2.80344725
REMARK minimizedRMSD -1
REMARK  1 active torsions:
REMARK  status: ('A' for Active; 'I' for Inactive)
REMARK    1  A    between atoms: C3_4  and  O_7 
ROOT
ATOM      1  C   UNL d   1      -0.902  -0.620  -0.868  0.00  0.00    -0.033 A 
ATOM      2  C1  UNL d   1      -0.604  -1.148   0.389  0.00  0.00     0.039 A 
ATOM      3  C2  UNL d   1      -0.375  -0.295   1.471  0.00  0.00    -0.080 A 
ATOM      4  C3  UNL d   1      -0.449   1.082   1.281  0.00  0.00     0.150 A 
ATOM      5  C4  UNL d   1      -0.749   1.615   0.032  0.00  0.00    -0.007 A 
ATOM      6  C5  UNL d   1      -0.977   0.761  -1.046  0.00  0.00     0.039 A 
ENDROOT
BRANCH   4   7
ATOM      7  O   UNL d   1      -0.229   1.955   2.305  0.00  0.00    -0.526 OA
ATOM      8  H5  UNL d   1      -0.004   1.445   3.101  0.00  0.00     0.418 HD
ENDBRANCH   4   7
TORSDOF 1
ENDMDL
