MODEL 1
REMARK minimizedAffinity -4.97515297
REMARK minimizedRMSD -1
REMARK  1 active torsions:
REMARK  status: ('A' for Active; 'I' for Inactive)
REMARK    1  A    between atoms: C3_4  and  O_7 
ROOT
ATOM      1  C   UNL d   1      -0.777  -0.269   0.299  0.00  0.00    -0.033 A 
ATOM      2  C1  UNL d   1       0.313   0.180  -0.449  0.00  0.00     0.039 A 
ATOM      3  C2  UNL d   1       0.990   1.341  -0.072  0.00  0.00    -0.080 A 
ATOM      4  C3  UNL d   1       0.569   2.043   1.055  0.00  0.00     0.150 A 
ATOM      5  C4  UNL d   1      -0.513   1.599   1.807  0.00  0.00    -0.007 A 
ATOM      6  C5  UNL d   1      -1.189   0.440   1.428  0.00  0.00     0.039 A 
ENDROOT
BRANCH   4   7
ATOM      7  O   UNL d   1       1.196   3.184   1.459  0.00  0.00    -0.526 OA
ATOM      8  H5  UNL d   1       1.907   3.385   0.828  0.00  0.00     0.418 HD
ENDBRANCH   4   7
TORSDOF 1
ENDMDL
