MODEL 1
REMARK minimizedAffinity -4.35391235
REMARK minimizedRMSD -1
REMARK  1 active torsions:
REMARK  status: ('A' for Active; 'I' for Inactive)
REMARK    1  A    between atoms: C3_4  and  O_7 
ROOT
ATOM      1  C   UNL d   1       1.213   2.234   1.747  0.00  0.00    -0.033 A 
ATOM      2  C1  UNL d   1       0.004   1.674   2.165  0.00  0.00     0.039 A 
ATOM      3  C2  UNL d   1      -0.580   0.641   1.429  0.00  0.00    -0.080 A 
ATOM      4  C3  UNL d   1       0.054   0.177   0.281  0.00  0.00     0.150 A 
ATOM      5  C4  UNL d   1       1.261   0.728  -0.139  0.00  0.00    -0.007 A 
ATOM      6  C5  UNL d   1       1.842   1.760   0.596  0.00  0.00     0.039 A 
ENDROOT
BRANCH   4   7
ATOM      7  O   UNL d   1      -0.479  -0.826  -0.473  0.00  0.00    -0.526 OA
ATOM      8  H5  UNL d   1      -1.328  -1.089  -0.078  0.00  0.00     0.418 HD
ENDBRANCH   4   7
TORSDOF 1
ENDMDL
