MODEL 1
REMARK minimizedAffinity -0.0625821576
REMARK minimizedRMSD -1
REMARK  0 active torsions:
REMARK  status: ('A' for Active; 'I' for Inactive)
ROOT
ATOM      1  N1  IND d   1       0.245  -0.453  -1.749  0.00  0.00    -0.196 N 
ATOM      2  C2  IND d   1       0.904   0.353  -2.636  0.00  0.00     0.054 A 
ATOM      3  C3  IND d   1       1.317   1.486  -2.024  0.00  0.00    -0.031 A 
ATOM      4  C4  IND d   1       1.109   2.181   0.446  0.00  0.00     0.051 A 
ATOM      5  C5  IND d   1       0.554   1.789   1.632  0.00  0.00    -0.031 A 
ATOM      6  C6  IND d   1      -0.144   0.606   1.754  0.00  0.00     0.015 A 
ATOM      7  C7  IND d   1      -0.304  -0.240   0.694  0.00  0.00    -0.016 A 
ATOM      8  C8  IND d   1       0.252   0.157  -0.514  0.00  0.00    -0.047 A 
ATOM      9  C9  IND d   1       0.925   1.378  -0.655  0.00  0.00    -0.096 A 
ATOM     10  HN1 IND d   1      -0.114  -1.212  -1.933  0.00  0.00     0.298 HD
ENDROOT
TORSDOF 0
ENDMDL
