MODEL 1
REMARK minimizedAffinity 0.552866697
REMARK minimizedRMSD -1
REMARK  0 active torsions:
REMARK  status: ('A' for Active; 'I' for Inactive)
ROOT
ATOM      1  N1  IND d   1       1.057  -1.455  -0.236  0.00  0.00    -0.196 N 
ATOM      2  C2  IND d   1       1.379  -0.167   0.090  0.00  0.00     0.054 A 
ATOM      3  C3  IND d   1       0.476   0.338   0.960  0.00  0.00    -0.031 A 
ATOM      4  C4  IND d   1      -1.551  -0.806   2.061  0.00  0.00     0.051 A 
ATOM      5  C5  IND d   1      -2.271  -1.967   2.047  0.00  0.00    -0.031 A 
ATOM      6  C6  IND d   1      -1.910  -3.040   1.258  0.00  0.00     0.015 A 
ATOM      7  C7  IND d   1      -0.804  -2.995   0.458  0.00  0.00    -0.016 A 
ATOM      8  C8  IND d   1      -0.074  -1.815   0.463  0.00  0.00    -0.047 A 
ATOM      9  C9  IND d   1      -0.460  -0.707   1.230  0.00  0.00    -0.096 A 
ATOM     10  HN1 IND d   1       1.488  -1.956  -0.786  0.00  0.00     0.298 HD
ENDROOT
TORSDOF 0
ENDMDL
