MODEL 1
REMARK minimizedAffinity 12.1484461
REMARK minimizedRMSD -1
REMARK  0 active torsions:
REMARK  status: ('A' for Active; 'I' for Inactive)
ROOT
ATOM      1  N1  IND d   1       2.275   0.085   3.647  0.00  0.00    -0.196 N 
ATOM      2  C2  IND d   1       1.209   0.656   4.285  0.00  0.00     0.054 A 
ATOM      3  C3  IND d   1       0.416   1.295   3.396  0.00  0.00    -0.031 A 
ATOM      4  C4  IND d   1       0.620   1.445   0.834  0.00  0.00     0.051 A 
ATOM      5  C5  IND d   1       1.448   1.113  -0.202  0.00  0.00    -0.031 A 
ATOM      6  C6  IND d   1       2.616   0.405  -0.004  0.00  0.00     0.015 A 
ATOM      7  C7  IND d   1       2.995  -0.010   1.241  0.00  0.00    -0.016 A 
ATOM      8  C8  IND d   1       2.161   0.332   2.296  0.00  0.00    -0.047 A 
ATOM      9  C9  IND d   1       0.996   1.087   2.107  0.00  0.00    -0.096 A 
ATOM     10  HN1 IND d   1       2.910  -0.354   4.026  0.00  0.00     0.298 HD
ENDROOT
TORSDOF 0
ENDMDL
