MODEL 1
REMARK minimizedAffinity 18.0193043
REMARK minimizedRMSD -1
REMARK  0 active torsions:
REMARK  status: ('A' for Active; 'I' for Inactive)
ROOT
ATOM      1  N1  IND d   1       1.151  -0.501   0.228  0.00  0.00    -0.196 N 
ATOM      2  C2  IND d   1       1.304   0.682  -0.441  0.00  0.00     0.054 A 
ATOM      3  C3  IND d   1       0.232   1.480  -0.236  0.00  0.00    -0.031 A 
ATOM      4  C4  IND d   1      -1.839   1.089   1.241  0.00  0.00     0.051 A 
ATOM      5  C5  IND d   1      -2.445   0.143   2.019  0.00  0.00    -0.031 A 
ATOM      6  C6  IND d   1      -1.870  -1.091   2.246  0.00  0.00     0.015 A 
ATOM      7  C7  IND d   1      -0.657  -1.421   1.711  0.00  0.00    -0.016 A 
ATOM      8  C8  IND d   1      -0.043  -0.465   0.915  0.00  0.00    -0.047 A 
ATOM      9  C9  IND d   1      -0.641   0.773   0.646  0.00  0.00    -0.096 A 
ATOM     10  HN1 IND d   1       1.706  -1.157   0.220  0.00  0.00     0.298 HD
ENDROOT
TORSDOF 0
ENDMDL
