MODEL 1
REMARK minimizedAffinity 4.18107319
REMARK minimizedRMSD -1
REMARK  0 active torsions:
REMARK  status: ('A' for Active; 'I' for Inactive)
ROOT
ATOM      1  N1  IND d   1       2.398   6.000  -5.978  0.00  0.00    -0.196 N 
ATOM      2  C2  IND d   1       1.454   5.203  -5.393  0.00  0.00     0.054 A 
ATOM      3  C3  IND d   1       2.045   4.201  -4.704  0.00  0.00    -0.031 A 
ATOM      4  C4  IND d   1       4.548   3.737  -4.318  0.00  0.00     0.051 A 
ATOM      5  C5  IND d   1       5.792   4.169  -4.681  0.00  0.00    -0.031 A 
ATOM      6  C6  IND d   1       5.973   5.257  -5.510  0.00  0.00     0.015 A 
ATOM      7  C7  IND d   1       4.911   5.964  -6.000  0.00  0.00    -0.016 A 
ATOM      8  C8  IND d   1       3.645   5.524  -5.638  0.00  0.00    -0.047 A 
ATOM      9  C9  IND d   1       3.455   4.394  -4.832  0.00  0.00    -0.096 A 
ATOM     10  HN1 IND d   1       2.240   6.683  -6.475  0.00  0.00     0.298 HD
ENDROOT
TORSDOF 0
ENDMDL
