MODEL 1
REMARK minimizedAffinity 19.1276684
REMARK minimizedRMSD -1
REMARK  0 active torsions:
REMARK  status: ('A' for Active; 'I' for Inactive)
ROOT
ATOM      1  N1  IND d   1      -4.724  -0.636  -2.152  0.00  0.00    -0.196 N 
ATOM      2  C2  IND d   1      -4.590  -1.988  -2.007  0.00  0.00     0.054 A 
ATOM      3  C3  IND d   1      -3.977  -2.277  -0.837  0.00  0.00    -0.031 A 
ATOM      4  C4  IND d   1      -3.201  -0.693   1.038  0.00  0.00     0.051 A 
ATOM      5  C5  IND d   1      -3.078   0.633   1.346  0.00  0.00    -0.031 A 
ATOM      6  C6  IND d   1      -3.508   1.623   0.487  0.00  0.00     0.015 A 
ATOM      7  C7  IND d   1      -4.091   1.324  -0.712  0.00  0.00    -0.016 A 
ATOM      8  C8  IND d   1      -4.211  -0.021  -1.030  0.00  0.00    -0.047 A 
ATOM      9  C9  IND d   1      -3.738  -1.031  -0.182  0.00  0.00    -0.096 A 
ATOM     10  HN1 IND d   1      -5.071  -0.236  -2.829  0.00  0.00     0.298 HD
ENDROOT
TORSDOF 0
ENDMDL
