MODEL 1
REMARK minimizedAffinity 8.03414917
REMARK minimizedRMSD -1
REMARK  0 active torsions:
REMARK  status: ('A' for Active; 'I' for Inactive)
ROOT
ATOM      1  N1  IND d   1      -1.585   4.597  -4.539  0.00  0.00    -0.196 N 
ATOM      2  C2  IND d   1      -0.829   5.686  -4.205  0.00  0.00     0.054 A 
ATOM      3  C3  IND d   1      -0.702   5.776  -2.862  0.00  0.00    -0.031 A 
ATOM      4  C4  IND d   1      -1.566   4.190  -1.028  0.00  0.00     0.051 A 
ATOM      5  C5  IND d   1      -2.339   3.079  -0.841  0.00  0.00    -0.031 A 
ATOM      6  C6  IND d   1      -2.910   2.401  -1.899  0.00  0.00     0.015 A 
ATOM      7  C7  IND d   1      -2.718   2.805  -3.190  0.00  0.00    -0.016 A 
ATOM      8  C8  IND d   1      -1.940   3.938  -3.383  0.00  0.00    -0.047 A 
ATOM      9  C9  IND d   1      -1.393   4.654  -2.310  0.00  0.00    -0.096 A 
ATOM     10  HN1 IND d   1      -1.803   4.364  -5.338  0.00  0.00     0.298 HD
ENDROOT
TORSDOF 0
ENDMDL
