MODEL 1
REMARK minimizedAffinity 1.44489002
REMARK minimizedRMSD -1
REMARK  0 active torsions:
REMARK  status: ('A' for Active; 'I' for Inactive)
ROOT
ATOM      1  N1  IND d   1       0.700   3.875  -6.000  0.00  0.00    -0.196 N 
ATOM      2  C2  IND d   1      -0.056   5.013  -5.955  0.00  0.00     0.054 A 
ATOM      3  C3  IND d   1       0.617   6.000  -5.323  0.00  0.00    -0.031 A 
ATOM      4  C4  IND d   1       3.009   6.000  -4.371  0.00  0.00     0.051 A 
ATOM      5  C5  IND d   1       4.078   5.179  -4.145  0.00  0.00    -0.031 A 
ATOM      6  C6  IND d   1       4.077   3.856  -4.535  0.00  0.00     0.015 A 
ATOM      7  C7  IND d   1       3.006   3.304  -5.180  0.00  0.00    -0.016 A 
ATOM      8  C8  IND d   1       1.916   4.133  -5.405  0.00  0.00    -0.047 A 
ATOM      9  C9  IND d   1       1.894   5.465  -4.974  0.00  0.00    -0.096 A 
ATOM     10  HN1 IND d   1       0.457   3.124  -6.342  0.00  0.00     0.298 HD
ENDROOT
TORSDOF 0
ENDMDL
