MODEL 1
REMARK minimizedAffinity 0.896267295
REMARK minimizedRMSD -1
REMARK  0 active torsions:
REMARK  status: ('A' for Active; 'I' for Inactive)
ROOT
ATOM      1  N1  IND d   1      -1.207   5.977  -5.153  0.00  0.00    -0.196 N 
ATOM      2  C2  IND d   1      -0.129   5.978  -4.313  0.00  0.00     0.054 A 
ATOM      3  C3  IND d   1      -0.538   6.000  -3.024  0.00  0.00    -0.031 A 
ATOM      4  C4  IND d   1      -2.925   5.934  -2.064  0.00  0.00     0.051 A 
ATOM      5  C5  IND d   1      -4.239   5.964  -2.440  0.00  0.00    -0.031 A 
ATOM      6  C6  IND d   1      -4.617   5.998  -3.767  0.00  0.00     0.015 A 
ATOM      7  C7  IND d   1      -3.691   5.991  -4.772  0.00  0.00    -0.016 A 
ATOM      8  C8  IND d   1      -2.356   5.968  -4.393  0.00  0.00    -0.047 A 
ATOM      9  C9  IND d   1      -1.966   5.977  -3.048  0.00  0.00    -0.096 A 
ATOM     10  HN1 IND d   1      -1.173   5.981  -6.013  0.00  0.00     0.298 HD
ENDROOT
TORSDOF 0
ENDMDL
