MODEL 1
REMARK minimizedAffinity 1.31398904
REMARK minimizedRMSD -1
REMARK  0 active torsions:
REMARK  status: ('A' for Active; 'I' for Inactive)
ROOT
ATOM      1  N1  IND d   1       0.024  -0.707   0.477  0.00  0.00    -0.196 N 
ATOM      2  C2  IND d   1      -0.550  -0.429   1.686  0.00  0.00     0.054 A 
ATOM      3  C3  IND d   1      -0.237   0.827   2.078  0.00  0.00    -0.031 A 
ATOM      4  C4  IND d   1       1.121   2.634   0.845  0.00  0.00     0.051 A 
ATOM      5  C5  IND d   1       1.878   2.836  -0.274  0.00  0.00    -0.031 A 
ATOM      6  C6  IND d   1       2.057   1.848  -1.221  0.00  0.00     0.015 A 
ATOM      7  C7  IND d   1       1.474   0.620  -1.089  0.00  0.00    -0.016 A 
ATOM      8  C8  IND d   1       0.710   0.409   0.051  0.00  0.00    -0.047 A 
ATOM      9  C9  IND d   1       0.560   1.393   1.036  0.00  0.00    -0.096 A 
ATOM     10  HN1 IND d   1      -0.033  -1.454   0.055  0.00  0.00     0.298 HD
ENDROOT
TORSDOF 0
ENDMDL
