MODEL 1
REMARK minimizedAffinity 7.50033903
REMARK minimizedRMSD -1
REMARK  0 active torsions:
REMARK  status: ('A' for Active; 'I' for Inactive)
ROOT
ATOM      1  N1  IND d   1       1.422  -0.070  -0.254  0.00  0.00    -0.196 N 
ATOM      2  C2  IND d   1       1.807   1.221  -0.020  0.00  0.00     0.054 A 
ATOM      3  C3  IND d   1       1.035   1.774   0.942  0.00  0.00    -0.031 A 
ATOM      4  C4  IND d   1      -0.847   0.712   2.341  0.00  0.00     0.051 A 
ATOM      5  C5  IND d   1      -1.582  -0.434   2.465  0.00  0.00    -0.031 A 
ATOM      6  C6  IND d   1      -1.346  -1.540   1.675  0.00  0.00     0.015 A 
ATOM      7  C7  IND d   1      -0.355  -1.546   0.735  0.00  0.00    -0.016 A 
ATOM      8  C8  IND d   1       0.388  -0.382   0.601  0.00  0.00    -0.047 A 
ATOM      9  C9  IND d   1       0.126   0.759   1.371  0.00  0.00    -0.096 A 
ATOM     10  HN1 IND d   1       1.768  -0.599  -0.838  0.00  0.00     0.298 HD
ENDROOT
TORSDOF 0
ENDMDL
