MODEL 1
REMARK minimizedAffinity 5.82282352
REMARK minimizedRMSD -1
REMARK  0 active torsions:
REMARK  status: ('A' for Active; 'I' for Inactive)
ROOT
ATOM      1  N1  IND d   1       0.575  -0.246   0.391  0.00  0.00    -0.196 N 
ATOM      2  C2  IND d   1      -0.314  -0.238   1.429  0.00  0.00     0.054 A 
ATOM      3  C3  IND d   1      -0.467   1.017   1.909  0.00  0.00    -0.031 A 
ATOM      4  C4  IND d   1       0.565   3.223   1.075  0.00  0.00     0.051 A 
ATOM      5  C5  IND d   1       1.467   3.718   0.176  0.00  0.00    -0.031 A 
ATOM      6  C6  IND d   1       2.129   2.901  -0.718  0.00  0.00     0.015 A 
ATOM      7  C7  IND d   1       1.904   1.554  -0.753  0.00  0.00    -0.016 A 
ATOM      8  C8  IND d   1       0.994   1.047   0.164  0.00  0.00    -0.047 A 
ATOM      9  C9  IND d   1       0.351   1.865   1.101  0.00  0.00    -0.096 A 
ATOM     10  HN1 IND d   1       0.829  -0.941  -0.047  0.00  0.00     0.298 HD
ENDROOT
TORSDOF 0
ENDMDL
