MODEL 1
REMARK minimizedAffinity 2.14823318
REMARK minimizedRMSD -1
REMARK  0 active torsions:
REMARK  status: ('A' for Active; 'I' for Inactive)
ROOT
ATOM      1  N1  IND d   1      -2.372   5.985  -2.816  0.00  0.00    -0.196 N 
ATOM      2  C2  IND d   1      -3.263   5.982  -3.852  0.00  0.00     0.054 A 
ATOM      3  C3  IND d   1      -2.608   5.997  -5.035  0.00  0.00    -0.031 A 
ATOM      4  C4  IND d   1      -0.078   5.926  -5.506  0.00  0.00     0.051 A 
ATOM      5  C5  IND d   1       1.135   5.957  -4.878  0.00  0.00    -0.031 A 
ATOM      6  C6  IND d   1       1.244   5.997  -3.503  0.00  0.00     0.015 A 
ATOM      7  C7  IND d   1       0.138   5.996  -2.700  0.00  0.00    -0.016 A 
ATOM      8  C8  IND d   1      -1.096   5.972  -3.335  0.00  0.00    -0.047 A 
ATOM      9  C9  IND d   1      -1.213   5.974  -4.730  0.00  0.00    -0.096 A 
ATOM     10  HN1 IND d   1      -2.574   5.993  -1.980  0.00  0.00     0.298 HD
ENDROOT
TORSDOF 0
ENDMDL
