MODEL 1
REMARK minimizedAffinity 2.24022794
REMARK minimizedRMSD -1
REMARK  0 active torsions:
REMARK  status: ('A' for Active; 'I' for Inactive)
ROOT
ATOM      1  N1  IND d   1       0.540  -0.639   0.142  0.00  0.00    -0.196 N 
ATOM      2  C2  IND d   1       0.460  -0.720  -1.220  0.00  0.00     0.054 A 
ATOM      3  C3  IND d   1       0.676   0.493  -1.777  0.00  0.00    -0.031 A 
ATOM      4  C4  IND d   1       1.281   2.726  -0.649  0.00  0.00     0.051 A 
ATOM      5  C5  IND d   1       1.432   3.307   0.579  0.00  0.00    -0.031 A 
ATOM      6  C6  IND d   1       1.294   2.586   1.748  0.00  0.00     0.015 A 
ATOM      7  C7  IND d   1       1.009   1.250   1.732  0.00  0.00    -0.016 A 
ATOM      8  C8  IND d   1       0.847   0.659   0.487  0.00  0.00    -0.047 A 
ATOM      9  C9  IND d   1       0.945   1.394  -0.702  0.00  0.00    -0.096 A 
ATOM     10  HN1 IND d   1       0.419  -1.289   0.692  0.00  0.00     0.298 HD
ENDROOT
TORSDOF 0
ENDMDL
