MODEL 1
REMARK minimizedAffinity 3.4861486
REMARK minimizedRMSD -1
REMARK  0 active torsions:
REMARK  status: ('A' for Active; 'I' for Inactive)
ROOT
ATOM      1  N1  IND d   1       1.038  -0.106  -0.866  0.00  0.00    -0.196 N 
ATOM      2  C2  IND d   1       0.325  -0.038   0.298  0.00  0.00     0.054 A 
ATOM      3  C3  IND d   1      -1.001  -0.073   0.041  0.00  0.00    -0.031 A 
ATOM      4  C4  IND d   1      -2.224  -0.344  -2.209  0.00  0.00     0.051 A 
ATOM      5  C5  IND d   1      -2.000  -0.409  -3.555  0.00  0.00    -0.031 A 
ATOM      6  C6  IND d   1      -0.726  -0.379  -4.085  0.00  0.00     0.015 A 
ATOM      7  C7  IND d   1       0.377  -0.293  -3.283  0.00  0.00    -0.016 A 
ATOM      8  C8  IND d   1       0.153  -0.220  -1.916  0.00  0.00    -0.047 A 
ATOM      9  C9  IND d   1      -1.139  -0.207  -1.375  0.00  0.00    -0.096 A 
ATOM     10  HN1 IND d   1       1.895  -0.082  -0.932  0.00  0.00     0.298 HD
ENDROOT
TORSDOF 0
ENDMDL
