MODEL 1
REMARK minimizedAffinity 4.88766193
REMARK minimizedRMSD -1
REMARK  0 active torsions:
REMARK  status: ('A' for Active; 'I' for Inactive)
ROOT
ATOM      1  N1  IND d   1      -0.466  -0.285  -0.113  0.00  0.00    -0.196 N 
ATOM      2  C2  IND d   1       0.234   0.069  -1.232  0.00  0.00     0.054 A 
ATOM      3  C3  IND d   1       1.168   0.999  -0.928  0.00  0.00    -0.031 A 
ATOM      4  C4  IND d   1       1.788   2.007   1.358  0.00  0.00     0.051 A 
ATOM      5  C5  IND d   1       1.403   2.021   2.669  0.00  0.00    -0.031 A 
ATOM      6  C6  IND d   1       0.356   1.249   3.130  0.00  0.00     0.015 A 
ATOM      7  C7  IND d   1      -0.341   0.423   2.295  0.00  0.00    -0.016 A 
ATOM      8  C8  IND d   1       0.043   0.411   0.961  0.00  0.00    -0.047 A 
ATOM      9  C9  IND d   1       1.077   1.224   0.479  0.00  0.00    -0.096 A 
ATOM     10  HN1 IND d   1      -1.116  -0.848  -0.085  0.00  0.00     0.298 HD
ENDROOT
TORSDOF 0
ENDMDL
