MODEL 1
REMARK minimizedAffinity 0.252099961
REMARK minimizedRMSD -1
REMARK  1 active torsions:
REMARK  status: ('A' for Active; 'I' for Inactive)
REMARK    1  A    between atoms: C1_2  and  C2_3 
ROOT
ATOM      1  C2  UNL d   1       1.213   2.924  -0.221  0.00  0.00    -0.081 A 
ATOM      2  C3  UNL d   1       0.566   1.978   0.584  0.00  0.00     0.006 A 
ATOM      3  C4  UNL d   1       0.614   0.620   0.259  0.00  0.00     0.002 A 
ATOM      4  C5  UNL d   1       1.315   0.185  -0.871  0.00  0.00    -0.080 A 
ATOM      5  C6  UNL d   1       1.399  -1.272  -1.215  0.00  0.00     0.076 C 
ATOM      6  C7  UNL d   1       1.946   1.132  -1.685  0.00  0.00     0.002 A 
ATOM      7  C8  UNL d   1       1.898   2.489  -1.361  0.00  0.00     0.006 A 
ENDROOT
BRANCH   1   8
ATOM      8  C1  UNL d   1       1.218   4.382   0.162  0.00  0.00     0.054 C 
ATOM      9  C   UNL d   1       1.390   4.558   1.664  0.00  0.00     0.018 C 
ENDBRANCH   1   8
TORSDOF 1
ENDMDL
