MODEL 1
REMARK minimizedAffinity -5.55366945
REMARK minimizedRMSD -1
REMARK  1 active torsions:
REMARK  status: ('A' for Active; 'I' for Inactive)
REMARK    1  A    between atoms: C1_2  and  C2_3 
ROOT
ATOM      1  C2  UNL d   1       0.961   3.073  -0.220  0.00  0.00    -0.081 A 
ATOM      2  C3  UNL d   1       0.624   2.085   0.713  0.00  0.00     0.006 A 
ATOM      3  C4  UNL d   1       0.813   0.734   0.413  0.00  0.00     0.002 A 
ATOM      4  C5  UNL d   1       1.349   0.349  -0.821  0.00  0.00    -0.080 A 
ATOM      5  C6  UNL d   1       1.586  -1.096  -1.144  0.00  0.00     0.076 C 
ATOM      6  C7  UNL d   1       1.670   1.336  -1.760  0.00  0.00     0.002 A 
ATOM      7  C8  UNL d   1       1.480   2.687  -1.460  0.00  0.00     0.006 A 
ENDROOT
BRANCH   1   8
ATOM      8  C1  UNL d   1       0.819   4.533   0.126  0.00  0.00     0.054 C 
ATOM      9  C   UNL d   1       1.811   5.386  -0.652  0.00  0.00     0.018 C 
ENDBRANCH   1   8
TORSDOF 1
ENDMDL
