MODEL 1
REMARK minimizedAffinity -2.60530972
REMARK minimizedRMSD -1
REMARK  1 active torsions:
REMARK  status: ('A' for Active; 'I' for Inactive)
REMARK    1  A    between atoms: C1_2  and  C2_3 
ROOT
ATOM      1  C2  UNL d   1       1.416   3.925  -0.869  0.00  0.00    -0.081 A 
ATOM      2  C3  UNL d   1       1.679   3.111  -1.977  0.00  0.00     0.006 A 
ATOM      3  C4  UNL d   1       1.492   1.729  -1.902  0.00  0.00     0.002 A 
ATOM      4  C5  UNL d   1       1.032   1.139  -0.721  0.00  0.00    -0.080 A 
ATOM      5  C6  UNL d   1       0.798  -0.340  -0.636  0.00  0.00     0.076 C 
ATOM      6  C7  UNL d   1       0.785   1.949   0.393  0.00  0.00     0.002 A 
ATOM      7  C8  UNL d   1       0.972   3.331   0.318  0.00  0.00     0.006 A 
ENDROOT
BRANCH   1   8
ATOM      8  C1  UNL d   1       1.554   5.423  -0.967  0.00  0.00     0.054 C 
ATOM      9  C   UNL d   1       2.998   5.829  -1.225  0.00  0.00     0.018 C 
ENDBRANCH   1   8
TORSDOF 1
ENDMDL
