MODEL 1
REMARK minimizedAffinity -2.43869305
REMARK minimizedRMSD -1
REMARK  1 active torsions:
REMARK  status: ('A' for Active; 'I' for Inactive)
REMARK    1  A    between atoms: C1_2  and  C2_3 
ROOT
ATOM      1  C2  UNL d   1       1.502   4.138  -0.388  0.00  0.00    -0.081 A 
ATOM      2  C3  UNL d   1       1.128   3.410   0.749  0.00  0.00     0.006 A 
ATOM      3  C4  UNL d   1       0.933   2.029   0.672  0.00  0.00     0.002 A 
ATOM      4  C5  UNL d   1       1.115   1.353  -0.538  0.00  0.00    -0.080 A 
ATOM      5  C6  UNL d   1       0.937  -0.134  -0.627  0.00  0.00     0.076 C 
ATOM      6  C7  UNL d   1       1.471   2.082  -1.678  0.00  0.00     0.002 A 
ATOM      7  C8  UNL d   1       1.666   3.463  -1.602  0.00  0.00     0.006 A 
ENDROOT
BRANCH   1   8
ATOM      8  C1  UNL d   1       1.777   5.617  -0.294  0.00  0.00     0.054 C 
ATOM      9  C   UNL d   1       3.030   5.997  -1.070  0.00  0.00     0.018 C 
ENDBRANCH   1   8
TORSDOF 1
ENDMDL
