MODEL 1
REMARK minimizedAffinity -0.615213692
REMARK minimizedRMSD -1
REMARK  1 active torsions:
REMARK  status: ('A' for Active; 'I' for Inactive)
REMARK    1  A    between atoms: C1_2  and  C2_3 
ROOT
ATOM      1  C2  UNL d   1       1.247   1.060  -0.398  0.00  0.00    -0.081 A 
ATOM      2  C3  UNL d   1       1.361   1.445  -1.739  0.00  0.00     0.006 A 
ATOM      3  C4  UNL d   1       1.441   2.797  -2.084  0.00  0.00     0.002 A 
ATOM      4  C5  UNL d   1       1.416   3.784  -1.093  0.00  0.00    -0.080 A 
ATOM      5  C6  UNL d   1       1.531   5.237  -1.447  0.00  0.00     0.076 C 
ATOM      6  C7  UNL d   1       1.284   3.400   0.246  0.00  0.00     0.002 A 
ATOM      7  C8  UNL d   1       1.204   2.049   0.590  0.00  0.00     0.006 A 
ENDROOT
BRANCH   1   8
ATOM      8  C1  UNL d   1       1.227  -0.399  -0.019  0.00  0.00     0.054 C 
ATOM      9  C   UNL d   1       2.506  -0.802   0.701  0.00  0.00     0.018 C 
ENDBRANCH   1   8
TORSDOF 1
ENDMDL
