MODEL 1
REMARK minimizedAffinity 6.24828672
REMARK minimizedRMSD -1
REMARK  1 active torsions:
REMARK  status: ('A' for Active; 'I' for Inactive)
REMARK    1  A    between atoms: C1_2  and  C2_3 
ROOT
ATOM      1  C2  UNL d   1       1.317   2.312  -1.315  0.00  0.00    -0.081 A 
ATOM      2  C3  UNL d   1       1.755   2.162   0.006  0.00  0.00     0.006 A 
ATOM      3  C4  UNL d   1       1.826   0.894   0.589  0.00  0.00     0.002 A 
ATOM      4  C5  UNL d   1       1.467  -0.244  -0.142  0.00  0.00    -0.080 A 
ATOM      5  C6  UNL d   1       1.567  -1.613   0.462  0.00  0.00     0.076 C 
ATOM      6  C7  UNL d   1       1.013  -0.092  -1.456  0.00  0.00     0.002 A 
ATOM      7  C8  UNL d   1       0.942   1.175  -2.039  0.00  0.00     0.006 A 
ENDROOT
BRANCH   1   8
ATOM      8  C1  UNL d   1       1.302   3.671  -1.968  0.00  0.00     0.054 C 
ATOM      9  C   UNL d   1       2.071   4.691  -1.140  0.00  0.00     0.018 C 
ENDBRANCH   1   8
TORSDOF 1
ENDMDL
