MODEL 1
REMARK minimizedAffinity -4.26436329
REMARK minimizedRMSD -1
REMARK  1 active torsions:
REMARK  status: ('A' for Active; 'I' for Inactive)
REMARK    1  A    between atoms: C1_2  and  C2_3 
ROOT
ATOM      1  C2  UNL d   1       0.874   1.551  -0.891  0.00  0.00    -0.081 A 
ATOM      2  C3  UNL d   1       1.109   2.158  -2.131  0.00  0.00     0.006 A 
ATOM      3  C4  UNL d   1       1.405   3.521  -2.206  0.00  0.00     0.002 A 
ATOM      4  C5  UNL d   1       1.479   4.297  -1.045  0.00  0.00    -0.080 A 
ATOM      5  C6  UNL d   1       1.827   5.755  -1.110  0.00  0.00     0.076 C 
ATOM      6  C7  UNL d   1       1.228   3.694   0.192  0.00  0.00     0.002 A 
ATOM      7  C8  UNL d   1       0.931   2.331   0.269  0.00  0.00     0.006 A 
ENDROOT
BRANCH   1   8
ATOM      8  C1  UNL d   1       0.618   0.068  -0.800  0.00  0.00     0.054 C 
ATOM      9  C   UNL d   1       1.472  -0.576   0.282  0.00  0.00     0.018 C 
ENDBRANCH   1   8
TORSDOF 1
ENDMDL
