MODEL 1
REMARK minimizedAffinity 2.92750597
REMARK minimizedRMSD -1
REMARK  1 active torsions:
REMARK  status: ('A' for Active; 'I' for Inactive)
REMARK    1  A    between atoms: C1_2  and  C2_3 
ROOT
ATOM      1  C2  UNL d   1       0.998  -1.165  -0.622  0.00  0.00    -0.081 A 
ATOM      2  C3  UNL d   1       0.337  -0.590  -1.715  0.00  0.00     0.006 A 
ATOM      3  C4  UNL d   1       0.462   0.775  -1.980  0.00  0.00     0.002 A 
ATOM      4  C5  UNL d   1       1.255   1.587  -1.162  0.00  0.00    -0.080 A 
ATOM      5  C6  UNL d   1       1.422   3.049  -1.453  0.00  0.00     0.076 C 
ATOM      6  C7  UNL d   1       1.902   1.017  -0.060  0.00  0.00     0.002 A 
ATOM      7  C8  UNL d   1       1.777  -0.349   0.206  0.00  0.00     0.006 A 
ENDROOT
BRANCH   1   8
ATOM      8  C1  UNL d   1       0.918  -2.649  -0.372  0.00  0.00     0.054 C 
ATOM      9  C   UNL d   1      -0.053  -3.321  -1.333  0.00  0.00     0.018 C 
ENDBRANCH   1   8
TORSDOF 1
ENDMDL
