MODEL 1
REMARK minimizedAffinity -4.73047209
REMARK minimizedRMSD -1
REMARK  1 active torsions:
REMARK  status: ('A' for Active; 'I' for Inactive)
REMARK    1  A    between atoms: C1_2  and  C2_3 
ROOT
ATOM      1  C2  UNL d   1       1.189   1.919  -0.174  0.00  0.00    -0.081 A 
ATOM      2  C3  UNL d   1       1.253   2.238  -1.535  0.00  0.00     0.006 A 
ATOM      3  C4  UNL d   1       1.450   3.559  -1.945  0.00  0.00     0.002 A 
ATOM      4  C5  UNL d   1       1.593   4.581  -1.000  0.00  0.00    -0.080 A 
ATOM      5  C6  UNL d   1       1.835   5.999  -1.426  0.00  0.00     0.076 C 
ATOM      6  C7  UNL d   1       1.511   4.265   0.360  0.00  0.00     0.002 A 
ATOM      7  C8  UNL d   1       1.314   2.944   0.770  0.00  0.00     0.006 A 
ENDROOT
BRANCH   1   8
ATOM      8  C1  UNL d   1       1.042   0.486   0.272  0.00  0.00     0.054 C 
ATOM      9  C   UNL d   1       0.355  -0.357  -0.793  0.00  0.00     0.018 C 
ENDBRANCH   1   8
TORSDOF 1
ENDMDL
