MODEL 1
REMARK minimizedAffinity 5.51972342
REMARK minimizedRMSD -1
REMARK  1 active torsions:
REMARK  status: ('A' for Active; 'I' for Inactive)
REMARK    1  A    between atoms: C1_2  and  C2_3 
ROOT
ATOM      1  C2  UNL d   1       1.479   4.009  -1.088  0.00  0.00    -0.081 A 
ATOM      2  C3  UNL d   1       1.170   3.139  -0.035  0.00  0.00     0.006 A 
ATOM      3  C4  UNL d   1       1.006   1.772  -0.271  0.00  0.00     0.002 A 
ATOM      4  C5  UNL d   1       1.156   1.251  -1.561  0.00  0.00    -0.080 A 
ATOM      5  C6  UNL d   1       1.012  -0.219  -1.823  0.00  0.00     0.076 C 
ATOM      6  C7  UNL d   1       1.448   2.123  -2.616  0.00  0.00     0.002 A 
ATOM      7  C8  UNL d   1       1.611   3.490  -2.381  0.00  0.00     0.006 A 
ENDROOT
BRANCH   1   8
ATOM      8  C1  UNL d   1       1.720   5.474  -0.826  0.00  0.00     0.054 C 
ATOM      9  C   UNL d   1       2.893   5.996  -1.644  0.00  0.00     0.018 C 
ENDBRANCH   1   8
TORSDOF 1
ENDMDL
