MODEL 1
REMARK minimizedAffinity -3.10171294
REMARK minimizedRMSD -1
REMARK  1 active torsions:
REMARK  status: ('A' for Active; 'I' for Inactive)
REMARK    1  A    between atoms: C1_2  and  C2_3 
ROOT
ATOM      1  C2  UNL d   1       1.116   1.563  -0.637  0.00  0.00    -0.081 A 
ATOM      2  C3  UNL d   1       1.414   2.271  -1.808  0.00  0.00     0.006 A 
ATOM      3  C4  UNL d   1       1.608   3.653  -1.770  0.00  0.00     0.002 A 
ATOM      4  C5  UNL d   1       1.515   4.350  -0.561  0.00  0.00    -0.080 A 
ATOM      5  C6  UNL d   1       1.751   5.830  -0.501  0.00  0.00     0.076 C 
ATOM      6  C7  UNL d   1       1.201   3.646   0.607  0.00  0.00     0.002 A 
ATOM      7  C8  UNL d   1       1.006   2.264   0.569  0.00  0.00     0.006 A 
ENDROOT
BRANCH   1   8
ATOM      8  C1  UNL d   1       0.970   0.063  -0.663  0.00  0.00     0.054 C 
ATOM      9  C   UNL d   1       2.147  -0.619   0.019  0.00  0.00     0.018 C 
ENDBRANCH   1   8
TORSDOF 1
ENDMDL
