MODEL 1
REMARK minimizedAffinity -4.91393566
REMARK minimizedRMSD -1
REMARK  0 active torsions:
REMARK  status: ('A' for Active; 'I' for Inactive)
ROOT
ATOM      1  C1  DEN d   1       0.743  -0.111   0.990  0.00  0.00     0.130 A 
ATOM      2  C2  DEN d   1       0.547   0.866  -0.078  0.00  0.00    -0.031 A 
ATOM      3  C3  DEN d   1      -0.708   0.528  -0.780  0.00  0.00     0.027 A 
ATOM      4  C4  DEN d   1      -2.359  -1.398  -0.317  0.00  0.00     0.027 A 
ATOM      5  C5  DEN d   1      -2.611  -2.493   0.480  0.00  0.00    -0.003 A 
ATOM      6  C6  DEN d   1      -1.753  -2.888   1.472  0.00  0.00     0.001 A 
ATOM      7  C7  DEN d   1      -0.623  -2.155   1.723  0.00  0.00     0.017 A 
ATOM      8  C8  DEN d   1      -0.358  -1.054   0.919  0.00  0.00    -0.094 A 
ATOM      9  C9  DEN d   1      -1.244  -0.664  -0.071  0.00  0.00    -0.072 A 
ENDROOT
TORSDOF 0
ENDMDL
