MODEL 1
REMARK minimizedAffinity -4.60260963
REMARK minimizedRMSD -1
REMARK  0 active torsions:
REMARK  status: ('A' for Active; 'I' for Inactive)
ROOT
ATOM      1  C1  DEN d   1      -0.518  -2.202   1.492  0.00  0.00     0.130 A 
ATOM      2  C2  DEN d   1      -1.748  -2.988   1.531  0.00  0.00    -0.031 A 
ATOM      3  C3  DEN d   1      -2.655  -2.467   0.488  0.00  0.00     0.027 A 
ATOM      4  C4  DEN d   1      -2.275  -0.535  -1.177  0.00  0.00     0.027 A 
ATOM      5  C5  DEN d   1      -1.389   0.438  -1.584  0.00  0.00    -0.003 A 
ATOM      6  C6  DEN d   1      -0.174   0.620  -0.977  0.00  0.00     0.001 A 
ATOM      7  C7  DEN d   1       0.207  -0.213   0.042  0.00  0.00     0.017 A 
ATOM      8  C8  DEN d   1      -0.684  -1.191   0.463  0.00  0.00    -0.094 A 
ATOM      9  C9  DEN d   1      -1.903  -1.367  -0.171  0.00  0.00    -0.072 A 
ENDROOT
TORSDOF 0
ENDMDL
