MODEL 1
REMARK minimizedAffinity -2.19998479
REMARK minimizedRMSD -1
REMARK  0 active torsions:
REMARK  status: ('A' for Active; 'I' for Inactive)
ROOT
ATOM      1  C1  DEN d   1       0.721  -0.519   1.071  0.00  0.00     0.130 A 
ATOM      2  C2  DEN d   1       0.613   0.566   0.100  0.00  0.00    -0.031 A 
ATOM      3  C3  DEN d   1      -0.728   0.497  -0.515  0.00  0.00     0.027 A 
ATOM      4  C4  DEN d   1      -2.639  -1.173  -0.058  0.00  0.00     0.027 A 
ATOM      5  C5  DEN d   1      -3.012  -2.279   0.673  0.00  0.00    -0.003 A 
ATOM      6  C6  DEN d   1      -2.163  -2.892   1.556  0.00  0.00     0.001 A 
ATOM      7  C7  DEN d   1      -0.911  -2.374   1.763  0.00  0.00     0.017 A 
ATOM      8  C8  DEN d   1      -0.525  -1.264   1.025  0.00  0.00    -0.094 A 
ATOM      9  C9  DEN d   1      -1.403  -0.652   0.146  0.00  0.00    -0.072 A 
ENDROOT
TORSDOF 0
ENDMDL
