MODEL 1
REMARK minimizedAffinity -3.48864222
REMARK minimizedRMSD -1
REMARK  0 active torsions:
REMARK  status: ('A' for Active; 'I' for Inactive)
ROOT
ATOM      1  C1  DEN d   1       0.558   0.391  -0.427  0.00  0.00     0.130 A 
ATOM      2  C2  DEN d   1       1.548  -0.014   0.567  0.00  0.00    -0.031 A 
ATOM      3  C3  DEN d   1       1.023  -1.196   1.280  0.00  0.00     0.027 A 
ATOM      4  C4  DEN d   1      -1.214  -2.435   0.939  0.00  0.00     0.027 A 
ATOM      5  C5  DEN d   1      -2.388  -2.454   0.219  0.00  0.00    -0.003 A 
ATOM      6  C6  DEN d   1      -2.675  -1.514  -0.735  0.00  0.00     0.001 A 
ATOM      7  C7  DEN d   1      -1.756  -0.541  -1.027  0.00  0.00     0.017 A 
ATOM      8  C8  DEN d   1      -0.573  -0.510  -0.300  0.00  0.00    -0.094 A 
ATOM      9  C9  DEN d   1      -0.296  -1.477   0.652  0.00  0.00    -0.072 A 
ENDROOT
TORSDOF 0
ENDMDL
