MODEL 1
REMARK minimizedAffinity -3.41992617
REMARK minimizedRMSD -1
REMARK  0 active torsions:
REMARK  status: ('A' for Active; 'I' for Inactive)
ROOT
ATOM      1  C1  DEN d   1       2.073   2.740   1.740  0.00  0.00     0.130 A 
ATOM      2  C2  DEN d   1       3.308   2.669   0.963  0.00  0.00    -0.031 A 
ATOM      3  C3  DEN d   1       3.153   1.602  -0.046  0.00  0.00     0.027 A 
ATOM      4  C4  DEN d   1       1.128   0.064  -0.483  0.00  0.00     0.027 A 
ATOM      5  C5  DEN d   1      -0.146  -0.258  -0.071  0.00  0.00    -0.003 A 
ATOM      6  C6  DEN d   1      -0.752   0.368   0.986  0.00  0.00     0.001 A 
ATOM      7  C7  DEN d   1      -0.101   1.381   1.639  0.00  0.00     0.017 A 
ATOM      8  C8  DEN d   1       1.187   1.706   1.235  0.00  0.00    -0.094 A 
ATOM      9  C9  DEN d   1       1.778   1.070   0.156  0.00  0.00    -0.072 A 
ENDROOT
TORSDOF 0
ENDMDL
