MODEL 1
REMARK minimizedAffinity -5.31940651
REMARK minimizedRMSD -1
REMARK  0 active torsions:
REMARK  status: ('A' for Active; 'I' for Inactive)
ROOT
ATOM      1  C1  DEN d   1      -0.000   0.057  -0.370  0.00  0.00     0.130 A 
ATOM      2  C2  DEN d   1      -0.681   0.650  -1.518  0.00  0.00    -0.031 A 
ATOM      3  C3  DEN d   1      -1.941  -0.090  -1.734  0.00  0.00     0.027 A 
ATOM      4  C4  DEN d   1      -2.901  -2.082  -0.405  0.00  0.00     0.027 A 
ATOM      5  C5  DEN d   1      -2.676  -2.942   0.647  0.00  0.00    -0.003 A 
ATOM      6  C6  DEN d   1      -1.537  -2.885   1.406  0.00  0.00     0.001 A 
ATOM      7  C7  DEN d   1      -0.600  -1.919   1.152  0.00  0.00     0.017 A 
ATOM      8  C8  DEN d   1      -0.816  -1.053   0.089  0.00  0.00    -0.094 A 
ATOM      9  C9  DEN d   1      -1.979  -1.118  -0.659  0.00  0.00    -0.072 A 
ENDROOT
TORSDOF 0
ENDMDL
