MODEL 1
REMARK minimizedAffinity -3.99290776
REMARK minimizedRMSD -1
REMARK  0 active torsions:
REMARK  status: ('A' for Active; 'I' for Inactive)
ROOT
ATOM      1  C1  DEN d   1       1.220   0.680  -0.889  0.00  0.00     0.130 A 
ATOM      2  C2  DEN d   1       1.716   0.524   0.475  0.00  0.00    -0.031 A 
ATOM      3  C3  DEN d   1       0.620  -0.026   1.299  0.00  0.00     0.027 A 
ATOM      4  C4  DEN d   1      -1.781  -0.651   0.596  0.00  0.00     0.027 A 
ATOM      5  C5  DEN d   1      -2.670  -0.684  -0.455  0.00  0.00    -0.003 A 
ATOM      6  C6  DEN d   1      -2.339  -0.237  -1.707  0.00  0.00     0.001 A 
ATOM      7  C7  DEN d   1      -1.071   0.221  -1.950  0.00  0.00     0.017 A 
ATOM      8  C8  DEN d   1      -0.171   0.265  -0.893  0.00  0.00    -0.094 A 
ATOM      9  C9  DEN d   1      -0.522  -0.203   0.362  0.00  0.00    -0.072 A 
ENDROOT
TORSDOF 0
ENDMDL
