MODEL 1
REMARK minimizedAffinity -3.63236785
REMARK minimizedRMSD -1
REMARK  0 active torsions:
REMARK  status: ('A' for Active; 'I' for Inactive)
ROOT
ATOM      1  C1  DEN d   1       1.150   3.060   1.065  0.00  0.00     0.130 A 
ATOM      2  C2  DEN d   1       2.499   2.580   1.353  0.00  0.00    -0.031 A 
ATOM      3  C3  DEN d   1       2.593   1.180   0.893  0.00  0.00     0.027 A 
ATOM      4  C4  DEN d   1       0.792  -0.282  -0.235  0.00  0.00     0.027 A 
ATOM      5  C5  DEN d   1      -0.513  -0.315  -0.676  0.00  0.00    -0.003 A 
ATOM      6  C6  DEN d   1      -1.358   0.754  -0.537  0.00  0.00     0.001 A 
ATOM      7  C7  DEN d   1      -0.894   1.918   0.016  0.00  0.00     0.017 A 
ATOM      8  C8  DEN d   1       0.418   1.957   0.469  0.00  0.00    -0.094 A 
ATOM      9  C9  DEN d   1       1.260   0.870   0.309  0.00  0.00    -0.072 A 
ENDROOT
TORSDOF 0
ENDMDL
