MODEL 1
REMARK minimizedAffinity -3.61141491
REMARK minimizedRMSD -1
REMARK  0 active torsions:
REMARK  status: ('A' for Active; 'I' for Inactive)
ROOT
ATOM      1  C1  DEN d   1       0.538  -1.133   0.798  0.00  0.00     0.130 A 
ATOM      2  C2  DEN d   1       1.320   0.082   0.585  0.00  0.00    -0.031 A 
ATOM      3  C3  DEN d   1       0.548   0.972  -0.305  0.00  0.00     0.027 A 
ATOM      4  C4  DEN d   1      -1.772   0.591  -1.366  0.00  0.00     0.027 A 
ATOM      5  C5  DEN d   1      -2.819  -0.295  -1.486  0.00  0.00    -0.003 A 
ATOM      6  C6  DEN d   1      -2.807  -1.526  -0.886  0.00  0.00     0.001 A 
ATOM      7  C7  DEN d   1      -1.744  -1.888  -0.101  0.00  0.00     0.017 A 
ATOM      8  C8  DEN d   1      -0.681  -1.003   0.019  0.00  0.00    -0.094 A 
ATOM      9  C9  DEN d   1      -0.718   0.242  -0.586  0.00  0.00    -0.072 A 
ENDROOT
TORSDOF 0
ENDMDL
