MODEL 1
REMARK minimizedAffinity 2.69188023
REMARK minimizedRMSD -1
REMARK  0 active torsions:
REMARK  status: ('A' for Active; 'I' for Inactive)
ROOT
ATOM      1  C1  DEN d   1       1.578   3.451   0.326  0.00  0.00     0.130 A 
ATOM      2  C2  DEN d   1       2.870   3.311   0.991  0.00  0.00    -0.031 A 
ATOM      3  C3  DEN d   1       3.115   1.872   1.216  0.00  0.00     0.027 A 
ATOM      4  C4  DEN d   1       1.628  -0.142   0.597  0.00  0.00     0.027 A 
ATOM      5  C5  DEN d   1       0.432  -0.523   0.030  0.00  0.00    -0.003 A 
ATOM      6  C6  DEN d   1      -0.474   0.389  -0.444  0.00  0.00     0.001 A 
ATOM      7  C7  DEN d   1      -0.178   1.726  -0.400  0.00  0.00     0.017 A 
ATOM      8  C8  DEN d   1       1.023   2.117   0.177  0.00  0.00    -0.094 A 
ATOM      9  C9  DEN d   1       1.931   1.180   0.640  0.00  0.00    -0.072 A 
ENDROOT
TORSDOF 0
ENDMDL
