MODEL 1
REMARK minimizedAffinity -2.62369299
REMARK minimizedRMSD -1
REMARK  0 active torsions:
REMARK  status: ('A' for Active; 'I' for Inactive)
ROOT
ATOM      1  C1  DEN d   1      -0.195   0.382   1.531  0.00  0.00     0.130 A 
ATOM      2  C2  DEN d   1       1.143   0.720   1.054  0.00  0.00    -0.031 A 
ATOM      3  C3  DEN d   1       1.144   0.610  -0.419  0.00  0.00     0.027 A 
ATOM      4  C4  DEN d   1      -0.788  -0.043  -1.998  0.00  0.00     0.027 A 
ATOM      5  C5  DEN d   1      -2.109  -0.427  -2.056  0.00  0.00    -0.003 A 
ATOM      6  C6  DEN d   1      -2.869  -0.601  -0.930  0.00  0.00     0.001 A 
ATOM      7  C7  DEN d   1      -2.326  -0.346   0.301  0.00  0.00     0.017 A 
ATOM      8  C8  DEN d   1      -0.992   0.035   0.368  0.00  0.00    -0.094 A 
ATOM      9  C9  DEN d   1      -0.244   0.217  -0.782  0.00  0.00    -0.072 A 
ENDROOT
TORSDOF 0
ENDMDL
