MODEL 1
REMARK minimizedAffinity -3.96935296
REMARK minimizedRMSD -1
REMARK  0 active torsions:
REMARK  status: ('A' for Active; 'I' for Inactive)
ROOT
ATOM      1  C1  DEN d   1       0.994   0.619  -1.028  0.00  0.00     0.130 A 
ATOM      2  C2  DEN d   1       1.825   0.463   0.163  0.00  0.00    -0.031 A 
ATOM      3  C3  DEN d   1       0.969  -0.044   1.254  0.00  0.00     0.027 A 
ATOM      4  C4  DEN d   1      -1.548  -0.604   1.215  0.00  0.00     0.027 A 
ATOM      5  C5  DEN d   1      -2.682  -0.622   0.433  0.00  0.00    -0.003 A 
ATOM      6  C6  DEN d   1      -2.678  -0.199  -0.869  0.00  0.00     0.001 A 
ATOM      7  C7  DEN d   1      -1.506   0.218  -1.444  0.00  0.00     0.017 A 
ATOM      8  C8  DEN d   1      -0.360   0.246  -0.660  0.00  0.00    -0.094 A 
ATOM      9  C9  DEN d   1      -0.383  -0.197   0.652  0.00  0.00    -0.072 A 
ENDROOT
TORSDOF 0
ENDMDL
