MODEL 1
REMARK minimizedAffinity -2.73720074
REMARK minimizedRMSD -1
REMARK  0 active torsions:
REMARK  status: ('A' for Active; 'I' for Inactive)
ROOT
ATOM      1  C1  DEN d   1      -2.733  -0.915   0.961  0.00  0.00     0.130 A 
ATOM      2  C2  DEN d   1      -3.426  -1.452  -0.207  0.00  0.00    -0.031 A 
ATOM      3  C3  DEN d   1      -2.559  -1.250  -1.385  0.00  0.00     0.027 A 
ATOM      4  C4  DEN d   1      -0.222  -0.166  -1.514  0.00  0.00     0.027 A 
ATOM      5  C5  DEN d   1       0.772   0.449  -0.785  0.00  0.00    -0.003 A 
ATOM      6  C6  DEN d   1       0.654   0.681   0.559  0.00  0.00     0.001 A 
ATOM      7  C7  DEN d   1      -0.465   0.255   1.226  0.00  0.00     0.017 A 
ATOM      8  C8  DEN d   1      -1.474  -0.359   0.497  0.00  0.00    -0.094 A 
ATOM      9  C9  DEN d   1      -1.331  -0.596  -0.860  0.00  0.00    -0.072 A 
ENDROOT
TORSDOF 0
ENDMDL
