MODEL 1
REMARK minimizedAffinity -5.11186886
REMARK minimizedRMSD -1
REMARK  0 active torsions:
REMARK  status: ('A' for Active; 'I' for Inactive)
ROOT
ATOM      1  C1  DEN d   1      -2.294  -1.498   0.916  0.00  0.00     0.130 A 
ATOM      2  C2  DEN d   1      -3.101  -1.049  -0.215  0.00  0.00    -0.031 A 
ATOM      3  C3  DEN d   1      -2.204  -0.385  -1.181  0.00  0.00     0.027 A 
ATOM      4  C4  DEN d   1       0.345  -0.015  -1.040  0.00  0.00     0.027 A 
ATOM      5  C5  DEN d   1       1.466  -0.211  -0.264  0.00  0.00    -0.003 A 
ATOM      6  C6  DEN d   1       1.408  -0.814   0.964  0.00  0.00     0.001 A 
ATOM      7  C7  DEN d   1       0.210  -1.284   1.434  0.00  0.00     0.017 A 
ATOM      8  C8  DEN d   1      -0.926  -1.083   0.661  0.00  0.00    -0.094 A 
ATOM      9  C9  DEN d   1      -0.845  -0.483  -0.584  0.00  0.00    -0.072 A 
ENDROOT
TORSDOF 0
ENDMDL
