MODEL 1
REMARK minimizedAffinity -4.35771084
REMARK minimizedRMSD -1
REMARK  0 active torsions:
REMARK  status: ('A' for Active; 'I' for Inactive)
ROOT
ATOM      1  C1  DEN d   1       0.564  -1.056   1.087  0.00  0.00     0.130 A 
ATOM      2  C2  DEN d   1       1.724  -0.216   0.800  0.00  0.00    -0.031 A 
ATOM      3  C3  DEN d   1       1.373   0.681  -0.319  0.00  0.00     0.027 A 
ATOM      4  C4  DEN d   1      -0.844   0.854  -1.626  0.00  0.00     0.027 A 
ATOM      5  C5  DEN d   1      -2.115   0.339  -1.753  0.00  0.00    -0.003 A 
ATOM      6  C6  DEN d   1      -2.567  -0.691  -0.972  0.00  0.00     0.001 A 
ATOM      7  C7  DEN d   1      -1.757  -1.210   0.003  0.00  0.00     0.017 A 
ATOM      8  C8  DEN d   1      -0.471  -0.701   0.132  0.00  0.00    -0.094 A 
ATOM      9  C9  DEN d   1      -0.037   0.349  -0.659  0.00  0.00    -0.072 A 
ENDROOT
TORSDOF 0
ENDMDL
