MODEL 1
REMARK minimizedAffinity -0.332873017
REMARK minimizedRMSD -1
REMARK  0 active torsions:
REMARK  status: ('A' for Active; 'I' for Inactive)
ROOT
ATOM      1  C1  DEN d   1       0.249  -0.059   1.399  0.00  0.00     0.130 A 
ATOM      2  C2  DEN d   1       1.359   0.654   0.772  0.00  0.00    -0.031 A 
ATOM      3  C3  DEN d   1       1.076   0.758  -0.673  0.00  0.00     0.027 A 
ATOM      4  C4  DEN d   1      -0.964  -0.106  -1.994  0.00  0.00     0.027 A 
ATOM      5  C5  DEN d   1      -2.159  -0.784  -1.896  0.00  0.00    -0.003 A 
ATOM      6  C6  DEN d   1      -2.616  -1.293  -0.709  0.00  0.00     0.001 A 
ATOM      7  C7  DEN d   1      -1.893  -1.092   0.437  0.00  0.00     0.017 A 
ATOM      8  C8  DEN d   1      -0.683  -0.417   0.346  0.00  0.00    -0.094 A 
ATOM      9  C9  DEN d   1      -0.245   0.101  -0.862  0.00  0.00    -0.072 A 
ENDROOT
TORSDOF 0
ENDMDL
