MODEL 1
REMARK minimizedAffinity -4.82081604
REMARK minimizedRMSD -1
REMARK  0 active torsions:
REMARK  status: ('A' for Active; 'I' for Inactive)
ROOT
ATOM      1  C1  DEN d   1      -2.244   0.607  -0.431  0.00  0.00     0.130 A 
ATOM      2  C2  DEN d   1      -1.028   1.287   0.005  0.00  0.00    -0.031 A 
ATOM      3  C3  DEN d   1      -0.222   0.327   0.785  0.00  0.00     0.027 A 
ATOM      4  C4  DEN d   1      -0.735  -2.137   1.352  0.00  0.00     0.027 A 
ATOM      5  C5  DEN d   1      -1.653  -3.154   1.211  0.00  0.00    -0.003 A 
ATOM      6  C6  DEN d   1      -2.839  -2.980   0.547  0.00  0.00     0.001 A 
ATOM      7  C7  DEN d   1      -3.117  -1.774  -0.040  0.00  0.00     0.017 A 
ATOM      8  C8  DEN d   1      -2.200  -0.742   0.104  0.00  0.00    -0.094 A 
ATOM      9  C9  DEN d   1      -1.001  -0.941   0.769  0.00  0.00    -0.072 A 
ENDROOT
TORSDOF 0
ENDMDL
