MODEL 1
REMARK minimizedAffinity -6.46353579
REMARK minimizedRMSD -1
REMARK  0 active torsions:
REMARK  status: ('A' for Active; 'I' for Inactive)
ROOT
ATOM      1  C1  DEN d   1      -1.157  -2.240   1.714  0.00  0.00     0.130 A 
ATOM      2  C2  DEN d   1      -2.500  -2.759   1.466  0.00  0.00    -0.031 A 
ATOM      3  C3  DEN d   1      -3.062  -2.037   0.308  0.00  0.00     0.027 A 
ATOM      4  C4  DEN d   1      -1.989  -0.178  -1.123  0.00  0.00     0.027 A 
ATOM      5  C5  DEN d   1      -0.867   0.604  -1.289  0.00  0.00    -0.003 A 
ATOM      6  C6  DEN d   1       0.214   0.518  -0.452  0.00  0.00     0.001 A 
ATOM      7  C7  DEN d   1       0.215  -0.402   0.563  0.00  0.00     0.017 A 
ATOM      8  C8  DEN d   1      -0.915  -1.189   0.741  0.00  0.00    -0.094 A 
ATOM      9  C9  DEN d   1      -1.993  -1.095  -0.123  0.00  0.00    -0.072 A 
ENDROOT
TORSDOF 0
ENDMDL
