MODEL 1
REMARK minimizedAffinity -0.346081525
REMARK minimizedRMSD -1
REMARK  1 active torsions:
REMARK  status: ('A' for Active; 'I' for Inactive)
REMARK    1  A    between atoms: N_2  and  C1_3 
ROOT
ATOM      1  C1  UNL d   1       0.110  -2.519  -0.049  0.00  0.00     0.143 A 
ATOM      2  C2  UNL d   1      -1.068  -1.879   0.349  0.00  0.00    -0.057 A 
ATOM      3  C3  UNL d   1      -2.311  -2.254  -0.173  0.00  0.00     0.033 A 
ATOM      4  C4  UNL d   1      -2.395  -3.262  -1.129  0.00  0.00    -0.042 A 
ATOM      5  C5  UNL d   1      -1.234  -3.895  -1.558  0.00  0.00     0.033 A 
ATOM      6  C6  UNL d   1       0.003  -3.520  -1.027  0.00  0.00    -0.057 A 
ENDROOT
BRANCH   1   7
ATOM      7  N   UNL d   1       1.386  -2.125   0.360  0.00  0.00    -0.732 N 
ATOM      8  C   UNL d   1       1.903  -0.820   0.008  0.00  0.00     0.284 C 
ATOM      9  H3  UNL d   1       1.594  -2.410   1.315  0.00  0.00     0.395 HD
ENDBRANCH   1   7
TORSDOF 1
ENDMDL
