MODEL 1
REMARK minimizedAffinity 6.45733976
REMARK minimizedRMSD -1
REMARK  1 active torsions:
REMARK  status: ('A' for Active; 'I' for Inactive)
REMARK    1  A    between atoms: N_2  and  C1_3 
ROOT
ATOM      1  C1  UNL d   1       2.767   2.042   1.940  0.00  0.00     0.143 A 
ATOM      2  C2  UNL d   1       4.126   1.733   2.063  0.00  0.00    -0.057 A 
ATOM      3  C3  UNL d   1       5.061   2.707   2.432  0.00  0.00     0.033 A 
ATOM      4  C4  UNL d   1       4.657   4.018   2.659  0.00  0.00    -0.042 A 
ATOM      5  C5  UNL d   1       3.315   4.354   2.519  0.00  0.00     0.033 A 
ATOM      6  C6  UNL d   1       2.384   3.375   2.156  0.00  0.00    -0.057 A 
ENDROOT
BRANCH   1   7
ATOM      7  N   UNL d   1       1.803   1.142   1.480  0.00  0.00    -0.732 N 
ATOM      8  C   UNL d   1       2.033   0.363   0.282  0.00  0.00     0.284 C 
ATOM      9  H3  UNL d   1       1.366   0.620   2.237  0.00  0.00     0.395 HD
ENDBRANCH   1   7
TORSDOF 1
ENDMDL
