MODEL 1
REMARK minimizedAffinity 8.81453228
REMARK minimizedRMSD -1
REMARK  1 active torsions:
REMARK  status: ('A' for Active; 'I' for Inactive)
REMARK    1  A    between atoms: N_2  and  C1_3 
ROOT
ATOM      1  C1  UNL d   1      -3.058  -2.236  -1.216  0.00  0.00     0.143 A 
ATOM      2  C2  UNL d   1      -2.253  -3.331  -1.549  0.00  0.00    -0.057 A 
ATOM      3  C3  UNL d   1      -1.112  -3.646  -0.801  0.00  0.00     0.033 A 
ATOM      4  C4  UNL d   1      -0.738  -2.852   0.278  0.00  0.00    -0.042 A 
ATOM      5  C5  UNL d   1      -1.510  -1.744   0.610  0.00  0.00     0.033 A 
ATOM      6  C6  UNL d   1      -2.652  -1.438  -0.135  0.00  0.00    -0.057 A 
ENDROOT
BRANCH   1   7
ATOM      7  N   UNL d   1      -4.150  -1.813  -1.979  0.00  0.00    -0.732 N 
ATOM      8  C   UNL d   1      -4.810  -0.558  -1.690  0.00  0.00     0.284 C 
ATOM      9  H3  UNL d   1      -4.025  -1.998  -2.972  0.00  0.00     0.395 HD
ENDBRANCH   1   7
TORSDOF 1
ENDMDL
