MODEL 1
REMARK minimizedAffinity 2.36601758
REMARK minimizedRMSD -1
REMARK  1 active torsions:
REMARK  status: ('A' for Active; 'I' for Inactive)
REMARK    1  A    between atoms: N_2  and  C1_3 
ROOT
ATOM      1  C1  UNL d   1       3.977   4.329   3.039  0.00  0.00     0.143 A 
ATOM      2  C2  UNL d   1       2.642   3.965   2.834  0.00  0.00    -0.057 A 
ATOM      3  C3  UNL d   1       2.305   2.730   2.265  0.00  0.00     0.033 A 
ATOM      4  C4  UNL d   1       3.302   1.847   1.864  0.00  0.00    -0.042 A 
ATOM      5  C5  UNL d   1       4.637   2.199   2.035  0.00  0.00     0.033 A 
ATOM      6  C6  UNL d   1       4.967   3.430   2.609  0.00  0.00    -0.057 A 
ENDROOT
BRANCH   1   7
ATOM      7  N   UNL d   1       4.379   5.582   3.508  0.00  0.00    -0.732 N 
ATOM      8  C   UNL d   1       4.791   5.756   4.885  0.00  0.00     0.284 C 
ATOM      9  H3  UNL d   1       4.954   6.083   2.835  0.00  0.00     0.395 HD
ENDBRANCH   1   7
TORSDOF 1
ENDMDL
