MODEL 1
REMARK minimizedAffinity 5.2044611
REMARK minimizedRMSD -1
REMARK  1 active torsions:
REMARK  status: ('A' for Active; 'I' for Inactive)
REMARK    1  A    between atoms: N_2  and  C1_3 
ROOT
ATOM      1  C1  UNL d   1       0.257  -2.945  -0.210  0.00  0.00     0.143 A 
ATOM      2  C2  UNL d   1      -1.091  -2.792  -0.552  0.00  0.00    -0.057 A 
ATOM      3  C3  UNL d   1      -1.813  -3.834  -1.147  0.00  0.00     0.033 A 
ATOM      4  C4  UNL d   1      -1.189  -5.043  -1.437  0.00  0.00    -0.042 A 
ATOM      5  C5  UNL d   1       0.156  -5.210  -1.128  0.00  0.00     0.033 A 
ATOM      6  C6  UNL d   1       0.870  -4.167  -0.528  0.00  0.00    -0.057 A 
ENDROOT
BRANCH   1   7
ATOM      7  N   UNL d   1       1.054  -1.914   0.293  0.00  0.00    -0.732 N 
ATOM      8  C   UNL d   1       2.195  -1.433  -0.456  0.00  0.00     0.284 C 
ATOM      9  H3  UNL d   1       0.506  -1.179   0.734  0.00  0.00     0.395 HD
ENDBRANCH   1   7
TORSDOF 1
ENDMDL
