MODEL 1
REMARK minimizedAffinity 6.63446903
REMARK minimizedRMSD -1
REMARK  1 active torsions:
REMARK  status: ('A' for Active; 'I' for Inactive)
REMARK    1  A    between atoms: N_2  and  C1_3 
ROOT
ATOM      1  C1  UNL d   1      -4.144  -2.096   3.146  0.00  0.00     0.143 A 
ATOM      2  C2  UNL d   1      -2.799  -1.856   3.447  0.00  0.00    -0.057 A 
ATOM      3  C3  UNL d   1      -2.021  -0.998   2.660  0.00  0.00     0.033 A 
ATOM      4  C4  UNL d   1      -2.568  -0.386   1.537  0.00  0.00    -0.042 A 
ATOM      5  C5  UNL d   1      -3.896  -0.630   1.205  0.00  0.00     0.033 A 
ATOM      6  C6  UNL d   1      -4.670  -1.482   1.998  0.00  0.00    -0.057 A 
ENDROOT
BRANCH   1   7
ATOM      7  N   UNL d   1      -4.943  -3.014   3.832  0.00  0.00    -0.732 N 
ATOM      8  C   UNL d   1      -5.991  -3.738   3.144  0.00  0.00     0.284 C 
ATOM      9  H3  UNL d   1      -4.409  -3.580   4.488  0.00  0.00     0.395 HD
ENDBRANCH   1   7
TORSDOF 1
ENDMDL
