MODEL 1
REMARK minimizedAffinity 7.27364922
REMARK minimizedRMSD -1
REMARK  1 active torsions:
REMARK  status: ('A' for Active; 'I' for Inactive)
REMARK    1  A    between atoms: N_2  and  C1_3 
ROOT
ATOM      1  C1  UNL d   1      -3.116  -5.344  -0.406  0.00  0.00     0.143 A 
ATOM      2  C2  UNL d   1      -1.920  -6.000  -0.717  0.00  0.00    -0.057 A 
ATOM      3  C3  UNL d   1      -0.745  -5.284  -0.974  0.00  0.00     0.033 A 
ATOM      4  C4  UNL d   1      -0.751  -3.893  -0.952  0.00  0.00    -0.042 A 
ATOM      5  C5  UNL d   1      -1.934  -3.219  -0.670  0.00  0.00     0.033 A 
ATOM      6  C6  UNL d   1      -3.103  -3.940  -0.408  0.00  0.00    -0.057 A 
ENDROOT
BRANCH   1   7
ATOM      7  N   UNL d   1      -4.340  -5.996  -0.238  0.00  0.00    -0.732 N 
ATOM      8  C   UNL d   1      -5.003  -6.000   1.048  0.00  0.00     0.284 C 
ATOM      9  H3  UNL d   1      -4.966  -5.855  -1.028  0.00  0.00     0.395 HD
ENDBRANCH   1   7
TORSDOF 1
ENDMDL
