MODEL 1
REMARK minimizedAffinity 8.64878559
REMARK minimizedRMSD -1
REMARK  1 active torsions:
REMARK  status: ('A' for Active; 'I' for Inactive)
REMARK    1  A    between atoms: N_2  and  C1_3 
ROOT
ATOM      1  C1  UNL d   1      -5.532   2.900  -2.942  0.00  0.00     0.143 A 
ATOM      2  C2  UNL d   1      -5.150   3.339  -1.670  0.00  0.00    -0.057 A 
ATOM      3  C3  UNL d   1      -5.153   2.472  -0.571  0.00  0.00     0.033 A 
ATOM      4  C4  UNL d   1      -5.568   1.153  -0.720  0.00  0.00    -0.042 A 
ATOM      5  C5  UNL d   1      -5.977   0.701  -1.969  0.00  0.00     0.033 A 
ATOM      6  C6  UNL d   1      -5.965   1.570  -3.065  0.00  0.00    -0.057 A 
ENDROOT
BRANCH   1   7
ATOM      7  N   UNL d   1      -5.645   3.739  -4.054  0.00  0.00    -0.732 N 
ATOM      8  C   UNL d   1      -5.994   5.134  -3.892  0.00  0.00     0.284 C 
ATOM      9  H3  UNL d   1      -4.915   3.570  -4.743  0.00  0.00     0.395 HD
ENDBRANCH   1   7
TORSDOF 1
ENDMDL
