MODEL 1
REMARK minimizedAffinity 6.35541725
REMARK minimizedRMSD -1
REMARK  1 active torsions:
REMARK  status: ('A' for Active; 'I' for Inactive)
REMARK    1  A    between atoms: N_2  and  C1_3 
ROOT
ATOM      1  C1  UNL d   1       3.999   4.363   3.008  0.00  0.00     0.143 A 
ATOM      2  C2  UNL d   1       2.644   4.078   2.804  0.00  0.00    -0.057 A 
ATOM      3  C3  UNL d   1       2.228   2.827   2.333  0.00  0.00     0.033 A 
ATOM      4  C4  UNL d   1       3.164   1.845   2.029  0.00  0.00    -0.042 A 
ATOM      5  C5  UNL d   1       4.518   2.114   2.201  0.00  0.00     0.033 A 
ATOM      6  C6  UNL d   1       4.927   3.363   2.678  0.00  0.00    -0.057 A 
ENDROOT
BRANCH   1   7
ATOM      7  N   UNL d   1       4.482   5.620   3.380  0.00  0.00    -0.732 N 
ATOM      8  C   UNL d   1       4.556   5.998   4.775  0.00  0.00     0.284 C 
ATOM      9  H3  UNL d   1       5.289   5.904   2.829  0.00  0.00     0.395 HD
ENDBRANCH   1   7
TORSDOF 1
ENDMDL
