MODEL 1
REMARK minimizedAffinity 10.4158916
REMARK minimizedRMSD -1
REMARK  1 active torsions:
REMARK  status: ('A' for Active; 'I' for Inactive)
REMARK    1  A    between atoms: N_2  and  C1_3 
ROOT
ATOM      1  C1  UNL d   1      -4.160   0.397  -0.021  0.00  0.00     0.143 A 
ATOM      2  C2  UNL d   1      -3.678   1.692   0.195  0.00  0.00    -0.057 A 
ATOM      3  C3  UNL d   1      -4.356   2.812  -0.303  0.00  0.00     0.033 A 
ATOM      4  C4  UNL d   1      -5.516   2.653  -1.053  0.00  0.00    -0.042 A 
ATOM      5  C5  UNL d   1      -6.000   1.373  -1.302  0.00  0.00     0.033 A 
ATOM      6  C6  UNL d   1      -5.322   0.260  -0.797  0.00  0.00    -0.057 A 
ENDROOT
BRANCH   1   7
ATOM      7  N   UNL d   1      -3.479  -0.761   0.363  0.00  0.00    -0.732 N 
ATOM      8  C   UNL d   1      -2.579  -0.745   1.496  0.00  0.00     0.284 C 
ATOM      9  H3  UNL d   1      -4.064  -1.592   0.309  0.00  0.00     0.395 HD
ENDBRANCH   1   7
TORSDOF 1
ENDMDL
