MODEL 1
REMARK minimizedAffinity 1.15630162
REMARK minimizedRMSD -1
REMARK  1 active torsions:
REMARK  status: ('A' for Active; 'I' for Inactive)
REMARK    1  A    between atoms: N_2  and  C1_3 
ROOT
ATOM      1  C1  UNL d   1       1.238  -3.853  -0.855  0.00  0.00     0.143 A 
ATOM      2  C2  UNL d   1      -0.107  -3.494  -0.711  0.00  0.00    -0.057 A 
ATOM      3  C3  UNL d   1      -1.136  -4.374  -1.067  0.00  0.00     0.033 A 
ATOM      4  C4  UNL d   1      -0.837  -5.622  -1.603  0.00  0.00    -0.042 A 
ATOM      5  C5  UNL d   1       0.492  -5.991  -1.779  0.00  0.00     0.033 A 
ATOM      6  C6  UNL d   1       1.515  -5.110  -1.415  0.00  0.00    -0.057 A 
ENDROOT
BRANCH   1   7
ATOM      7  N   UNL d   1       2.305  -2.986  -0.611  0.00  0.00    -0.732 N 
ATOM      8  C   UNL d   1       2.077  -1.682  -0.025  0.00  0.00     0.284 C 
ATOM      9  H3  UNL d   1       3.122  -3.469  -0.245  0.00  0.00     0.395 HD
ENDBRANCH   1   7
TORSDOF 1
ENDMDL
