MODEL 1
REMARK minimizedAffinity 2.05406761
REMARK minimizedRMSD -1
REMARK  1 active torsions:
REMARK  status: ('A' for Active; 'I' for Inactive)
REMARK    1  A    between atoms: N_2  and  C1_3 
ROOT
ATOM      1  C1  UNL d   1       0.045   1.566  -5.441  0.00  0.00     0.143 A 
ATOM      2  C2  UNL d   1       0.706   0.785  -4.487  0.00  0.00    -0.057 A 
ATOM      3  C3  UNL d   1       2.006   1.095  -4.069  0.00  0.00     0.033 A 
ATOM      4  C4  UNL d   1       2.681   2.178  -4.622  0.00  0.00    -0.042 A 
ATOM      5  C5  UNL d   1       2.054   2.953  -5.591  0.00  0.00     0.033 A 
ATOM      6  C6  UNL d   1       0.753   2.643  -5.999  0.00  0.00    -0.057 A 
ENDROOT
BRANCH   1   7
ATOM      7  N   UNL d   1      -1.209   1.253  -5.970  0.00  0.00    -0.732 N 
ATOM      8  C   UNL d   1      -2.265   2.242  -6.000  0.00  0.00     0.284 C 
ATOM      9  H3  UNL d   1      -1.146   0.687  -6.813  0.00  0.00     0.395 HD
ENDBRANCH   1   7
TORSDOF 1
ENDMDL
