MODEL 1
REMARK minimizedAffinity 6.69215202
REMARK minimizedRMSD -1
REMARK  1 active torsions:
REMARK  status: ('A' for Active; 'I' for Inactive)
REMARK    1  A    between atoms: N_2  and  C1_3 
ROOT
ATOM      1  C1  UNL d   1      -0.338   1.298  -5.585  0.00  0.00     0.143 A 
ATOM      2  C2  UNL d   1       0.650   2.197  -5.999  0.00  0.00    -0.057 A 
ATOM      3  C3  UNL d   1       1.947   2.144  -5.473  0.00  0.00     0.033 A 
ATOM      4  C4  UNL d   1       2.270   1.206  -4.498  0.00  0.00    -0.042 A 
ATOM      5  C5  UNL d   1       1.297   0.318  -4.053  0.00  0.00     0.033 A 
ATOM      6  C6  UNL d   1       0.006   0.372  -4.588  0.00  0.00    -0.057 A 
ENDROOT
BRANCH   1   7
ATOM      7  N   UNL d   1      -1.671   1.363  -5.998  0.00  0.00    -0.732 N 
ATOM      8  C   UNL d   1      -2.386   2.622  -5.987  0.00  0.00     0.284 C 
ATOM      9  H3  UNL d   1      -1.852   0.789  -6.818  0.00  0.00     0.395 HD
ENDBRANCH   1   7
TORSDOF 1
ENDMDL
