MODEL 1
REMARK minimizedAffinity 7.30271864
REMARK minimizedRMSD -1
REMARK  1 active torsions:
REMARK  status: ('A' for Active; 'I' for Inactive)
REMARK    1  A    between atoms: N_2  and  C1_3 
ROOT
ATOM      1  C1  UNL d   1      -1.725  -4.151  -1.146  0.00  0.00     0.143 A 
ATOM      2  C2  UNL d   1      -2.981  -3.832  -1.672  0.00  0.00    -0.057 A 
ATOM      3  C3  UNL d   1      -3.685  -2.702  -1.237  0.00  0.00     0.033 A 
ATOM      4  C4  UNL d   1      -3.155  -1.884  -0.245  0.00  0.00    -0.042 A 
ATOM      5  C5  UNL d   1      -1.918  -2.196   0.310  0.00  0.00     0.033 A 
ATOM      6  C6  UNL d   1      -1.218  -3.322  -0.133  0.00  0.00    -0.057 A 
ENDROOT
BRANCH   1   7
ATOM      7  N   UNL d   1      -1.020  -5.314  -1.466  0.00  0.00    -0.732 N 
ATOM      8  C   UNL d   1       0.235  -5.619  -0.813  0.00  0.00     0.284 C 
ATOM      9  H3  UNL d   1      -1.632  -6.118  -1.586  0.00  0.00     0.395 HD
ENDBRANCH   1   7
TORSDOF 1
ENDMDL
