MODEL 1
REMARK minimizedAffinity 0.558601916
REMARK minimizedRMSD -1
REMARK  1 active torsions:
REMARK  status: ('A' for Active; 'I' for Inactive)
REMARK    1  A    between atoms: N_2  and  C1_3 
ROOT
ATOM      1  C1  UNL d   1      -0.952  -4.400  -0.765  0.00  0.00     0.143 A 
ATOM      2  C2  UNL d   1      -1.489  -5.641  -0.409  0.00  0.00    -0.057 A 
ATOM      3  C3  UNL d   1      -2.799  -5.993  -0.757  0.00  0.00     0.033 A 
ATOM      4  C4  UNL d   1      -3.606  -5.094  -1.446  0.00  0.00    -0.042 A 
ATOM      5  C5  UNL d   1      -3.102  -3.845  -1.789  0.00  0.00     0.033 A 
ATOM      6  C6  UNL d   1      -1.791  -3.502  -1.444  0.00  0.00    -0.057 A 
ENDROOT
BRANCH   1   7
ATOM      7  N   UNL d   1       0.309  -3.953  -0.362  0.00  0.00    -0.732 N 
ATOM      8  C   UNL d   1       0.448  -2.743   0.419  0.00  0.00     0.284 C 
ATOM      9  H3  UNL d   1       0.913  -4.715  -0.060  0.00  0.00     0.395 HD
ENDBRANCH   1   7
TORSDOF 1
ENDMDL
