MODEL 1
REMARK minimizedAffinity -1.85384572
REMARK minimizedRMSD -1
REMARK  3 active torsions:
REMARK  status: ('A' for Active; 'I' for Inactive)
REMARK    1  A    between atoms: C3'_2  and  C2'_3 
REMARK    2  A    between atoms: C2'_3  and  C1'_4 
REMARK    3  A    between atoms: C1'_4  and  C1_5 
ROOT
ATOM      1  C1  N4B d   1       0.369   0.605   0.063  0.00  0.00    -0.075 A 
ATOM      2  C2  N4B d   1       0.598   1.994   0.181  0.00  0.00     0.002 A 
ATOM      3  C3  N4B d   1       0.707   2.568   1.424  0.00  0.00     0.002 A 
ATOM      4  C4  N4B d   1       0.572   1.781   2.557  0.00  0.00    -0.004 A 
ATOM      5  C5  N4B d   1       0.376   0.436   2.434  0.00  0.00     0.002 A 
ATOM      6  C6  N4B d   1       0.269  -0.155   1.192  0.00  0.00     0.002 A 
ENDROOT
BRANCH   1   7
ATOM      7  C1' N4B d   1       0.158  -0.054  -1.273  0.00  0.00     0.057 C 
BRANCH   7   8
ATOM      8  C2' N4B d   1      -1.338  -0.133  -1.561  0.00  0.00     0.009 C 
BRANCH   8   9
ATOM      9  C3' N4B d   1      -1.631  -0.904  -2.837  0.00  0.00     0.004 C 
ATOM     10  C4' N4B d   1      -3.096  -1.141  -3.049  0.00  0.00     0.003 C 
ENDBRANCH   8   9
ENDBRANCH   7   8
ENDBRANCH   1   7
TORSDOF 3
ENDMDL
