MODEL 1
REMARK minimizedAffinity -3.58558321
REMARK minimizedRMSD -1
REMARK  3 active torsions:
REMARK  status: ('A' for Active; 'I' for Inactive)
REMARK    1  A    between atoms: C3'_2  and  C2'_3 
REMARK    2  A    between atoms: C2'_3  and  C1'_4 
REMARK    3  A    between atoms: C1'_4  and  C1_5 
ROOT
ATOM      1  C1  N4B d   1      -1.103   0.702  -0.710  0.00  0.00    -0.075 A 
ATOM      2  C2  N4B d   1      -0.934  -0.016   0.495  0.00  0.00     0.002 A 
ATOM      3  C3  N4B d   1       0.240   0.094   1.200  0.00  0.00     0.002 A 
ATOM      4  C4  N4B d   1       1.260   0.898   0.713  0.00  0.00    -0.004 A 
ATOM      5  C5  N4B d   1       1.078   1.608  -0.438  0.00  0.00     0.002 A 
ATOM      6  C6  N4B d   1      -0.097   1.510  -1.155  0.00  0.00     0.002 A 
ENDROOT
BRANCH   1   7
ATOM      7  C1' N4B d   1      -2.335   0.547  -1.560  0.00  0.00     0.057 C 
BRANCH   7   8
ATOM      8  C2' N4B d   1      -1.922   0.129  -2.968  0.00  0.00     0.009 C 
BRANCH   8   9
ATOM      9  C3' N4B d   1      -2.174  -1.348  -3.219  0.00  0.00     0.004 C 
ATOM     10  C4' N4B d   1      -1.162  -1.961  -4.141  0.00  0.00     0.003 C 
ENDBRANCH   8   9
ENDBRANCH   7   8
ENDBRANCH   1   7
TORSDOF 3
ENDMDL
