MODEL 1
REMARK minimizedAffinity -3.24992108
REMARK minimizedRMSD -1
REMARK  3 active torsions:
REMARK  status: ('A' for Active; 'I' for Inactive)
REMARK    1  A    between atoms: C3'_2  and  C2'_3 
REMARK    2  A    between atoms: C2'_3  and  C1'_4 
REMARK    3  A    between atoms: C1'_4  and  C1_5 
ROOT
ATOM      1  C1  N4B d   1       0.246   0.129   0.140  0.00  0.00    -0.075 A 
ATOM      2  C2  N4B d   1      -0.638   0.654  -0.828  0.00  0.00     0.002 A 
ATOM      3  C3  N4B d   1      -0.560   1.978  -1.183  0.00  0.00     0.002 A 
ATOM      4  C4  N4B d   1       0.378   2.798  -0.573  0.00  0.00    -0.004 A 
ATOM      5  C5  N4B d   1       1.245   2.277   0.343  0.00  0.00     0.002 A 
ATOM      6  C6  N4B d   1       1.180   0.947   0.706  0.00  0.00     0.002 A 
ENDROOT
BRANCH   1   7
ATOM      7  C1' N4B d   1       0.142  -1.292   0.623  0.00  0.00     0.057 C 
BRANCH   7   8
ATOM      8  C2' N4B d   1      -1.294  -1.570   1.055  0.00  0.00     0.009 C 
BRANCH   8   9
ATOM      9  C3' N4B d   1      -1.365  -2.621   2.150  0.00  0.00     0.004 C 
ATOM     10  C4' N4B d   1      -2.630  -2.540   2.952  0.00  0.00     0.003 C 
ENDBRANCH   8   9
ENDBRANCH   7   8
ENDBRANCH   1   7
TORSDOF 3
ENDMDL
