MODEL 1
REMARK minimizedAffinity 8.11455631
REMARK minimizedRMSD -1
REMARK  3 active torsions:
REMARK  status: ('A' for Active; 'I' for Inactive)
REMARK    1  A    between atoms: C3'_2  and  C2'_3 
REMARK    2  A    between atoms: C2'_3  and  C1'_4 
REMARK    3  A    between atoms: C1'_4  and  C1_5 
ROOT
ATOM      1  C1  N4B d   1       3.465   3.463  -3.170  0.00  0.00    -0.075 A 
ATOM      2  C2  N4B d   1       4.605   3.292  -2.355  0.00  0.00     0.002 A 
ATOM      3  C3  N4B d   1       5.861   3.358  -2.909  0.00  0.00     0.002 A 
ATOM      4  C4  N4B d   1       5.999   3.575  -4.272  0.00  0.00    -0.004 A 
ATOM      5  C5  N4B d   1       4.892   3.764  -5.047  0.00  0.00     0.002 A 
ATOM      6  C6  N4B d   1       3.625   3.704  -4.504  0.00  0.00     0.002 A 
ENDROOT
BRANCH   1   7
ATOM      7  C1' N4B d   1       2.070   3.313  -2.626  0.00  0.00     0.057 C 
BRANCH   7   8
ATOM      8  C2' N4B d   1       1.887   1.892  -2.102  0.00  0.00     0.009 C 
BRANCH   8   9
ATOM      9  C3' N4B d   1       1.121   1.864  -0.790  0.00  0.00     0.004 C 
ATOM     10  C4' N4B d   1       1.137   0.515  -0.136  0.00  0.00     0.003 C 
ENDBRANCH   8   9
ENDBRANCH   7   8
ENDBRANCH   1   7
TORSDOF 3
ENDMDL
