MODEL 1
REMARK minimizedAffinity -1.87976718
REMARK minimizedRMSD -1
REMARK  3 active torsions:
REMARK  status: ('A' for Active; 'I' for Inactive)
REMARK    1  A    between atoms: C3'_2  and  C2'_3 
REMARK    2  A    between atoms: C2'_3  and  C1'_4 
REMARK    3  A    between atoms: C1'_4  and  C1_5 
ROOT
ATOM      1  C1  N4B d   1       1.501   1.739   2.491  0.00  0.00    -0.075 A 
ATOM      2  C2  N4B d   1       0.695   1.491   3.624  0.00  0.00     0.002 A 
ATOM      3  C3  N4B d   1       1.277   1.336   4.859  0.00  0.00     0.002 A 
ATOM      4  C4  N4B d   1       2.656   1.405   4.981  0.00  0.00    -0.004 A 
ATOM      5  C5  N4B d   1       3.425   1.670   3.886  0.00  0.00     0.002 A 
ATOM      6  C6  N4B d   1       2.855   1.832   2.639  0.00  0.00     0.002 A 
ENDROOT
BRANCH   1   7
ATOM      7  C1' N4B d   1       0.918   1.830   1.107  0.00  0.00     0.057 C 
BRANCH   7   8
ATOM      8  C2' N4B d   1       1.077   0.484   0.407  0.00  0.00     0.009 C 
BRANCH   8   9
ATOM      9  C3' N4B d   1      -0.214  -0.317   0.417  0.00  0.00     0.004 C 
ATOM     10  C4' N4B d   1      -1.386   0.476   0.914  0.00  0.00     0.003 C 
ENDBRANCH   8   9
ENDBRANCH   7   8
ENDBRANCH   1   7
TORSDOF 3
ENDMDL
