MODEL 1
REMARK minimizedAffinity -4.19227648
REMARK minimizedRMSD -1
REMARK  3 active torsions:
REMARK  status: ('A' for Active; 'I' for Inactive)
REMARK    1  A    between atoms: C3'_2  and  C2'_3 
REMARK    2  A    between atoms: C2'_3  and  C1'_4 
REMARK    3  A    between atoms: C1'_4  and  C1_5 
ROOT
ATOM      1  C1  N4B d   1      -1.113  -0.941   1.996  0.00  0.00    -0.075 A 
ATOM      2  C2  N4B d   1      -1.116  -2.334   1.764  0.00  0.00     0.002 A 
ATOM      3  C3  N4B d   1      -1.858  -3.162   2.569  0.00  0.00     0.002 A 
ATOM      4  C4  N4B d   1      -2.588  -2.626   3.619  0.00  0.00    -0.004 A 
ATOM      5  C5  N4B d   1      -2.600  -1.276   3.821  0.00  0.00     0.002 A 
ATOM      6  C6  N4B d   1      -1.862  -0.431   3.018  0.00  0.00     0.002 A 
ENDROOT
BRANCH   1   7
ATOM      7  C1' N4B d   1      -0.250  -0.004   1.196  0.00  0.00     0.057 C 
BRANCH   7   8
ATOM      8  C2' N4B d   1       1.133   0.074   1.838  0.00  0.00     0.009 C 
BRANCH   8   9
ATOM      9  C3' N4B d   1       1.516   1.500   2.192  0.00  0.00     0.004 C 
ATOM     10  C4' N4B d   1       1.535   1.746   3.671  0.00  0.00     0.003 C 
ENDBRANCH   8   9
ENDBRANCH   7   8
ENDBRANCH   1   7
TORSDOF 3
ENDMDL
