MODEL 1
REMARK minimizedAffinity 1.35874045
REMARK minimizedRMSD -1
REMARK  3 active torsions:
REMARK  status: ('A' for Active; 'I' for Inactive)
REMARK    1  A    between atoms: C3'_2  and  C2'_3 
REMARK    2  A    between atoms: C2'_3  and  C1'_4 
REMARK    3  A    between atoms: C1'_4  and  C1_5 
ROOT
ATOM      1  C1  N4B d   1       0.504   1.066  -0.507  0.00  0.00    -0.075 A 
ATOM      2  C2  N4B d   1       1.184   2.295  -0.650  0.00  0.00     0.002 A 
ATOM      3  C3  N4B d   1       1.581   2.719  -1.894  0.00  0.00     0.002 A 
ATOM      4  C4  N4B d   1       1.328   1.925  -3.003  0.00  0.00    -0.004 A 
ATOM      5  C5  N4B d   1       0.648   0.751  -2.859  0.00  0.00     0.002 A 
ATOM      6  C6  N4B d   1       0.239   0.314  -1.615  0.00  0.00     0.002 A 
ENDROOT
BRANCH   1   7
ATOM      7  C1' N4B d   1       0.125   0.520   0.843  0.00  0.00     0.057 C 
BRANCH   7   8
ATOM      8  C2' N4B d   1       1.206   0.891   1.854  0.00  0.00     0.009 C 
BRANCH   8   9
ATOM      9  C3' N4B d   1       0.614   1.328   3.183  0.00  0.00     0.004 C 
ATOM     10  C4' N4B d   1       1.614   1.303   4.300  0.00  0.00     0.003 C 
ENDBRANCH   8   9
ENDBRANCH   7   8
ENDBRANCH   1   7
TORSDOF 3
ENDMDL
