MODEL 1
REMARK minimizedAffinity -2.15260077
REMARK minimizedRMSD -1
REMARK  3 active torsions:
REMARK  status: ('A' for Active; 'I' for Inactive)
REMARK    1  A    between atoms: C3'_2  and  C2'_3 
REMARK    2  A    between atoms: C2'_3  and  C1'_4 
REMARK    3  A    between atoms: C1'_4  and  C1_5 
ROOT
ATOM      1  C1  N4B d   1       2.042   1.634   2.693  0.00  0.00    -0.075 A 
ATOM      2  C2  N4B d   1       0.753   2.027   3.116  0.00  0.00     0.002 A 
ATOM      3  C3  N4B d   1      -0.353   1.634   2.403  0.00  0.00     0.002 A 
ATOM      4  C4  N4B d   1      -0.194   0.867   1.258  0.00  0.00    -0.004 A 
ATOM      5  C5  N4B d   1       1.052   0.470   0.871  0.00  0.00     0.002 A 
ATOM      6  C6  N4B d   1       2.173   0.854   1.580  0.00  0.00     0.002 A 
ENDROOT
BRANCH   1   7
ATOM      7  C1' N4B d   1       3.286   2.111   3.391  0.00  0.00     0.057 C 
BRANCH   7   8
ATOM      8  C2' N4B d   1       3.418   3.620   3.206  0.00  0.00     0.009 C 
BRANCH   8   9
ATOM      9  C3' N4B d   1       4.816   4.113   3.534  0.00  0.00     0.004 C 
ATOM     10  C4' N4B d   1       4.874   5.596   3.747  0.00  0.00     0.003 C 
ENDBRANCH   8   9
ENDBRANCH   7   8
ENDBRANCH   1   7
TORSDOF 3
ENDMDL
