MODEL 1
REMARK minimizedAffinity 3.75591755
REMARK minimizedRMSD -1
REMARK  3 active torsions:
REMARK  status: ('A' for Active; 'I' for Inactive)
REMARK    1  A    between atoms: C3'_2  and  C2'_3 
REMARK    2  A    between atoms: C2'_3  and  C1'_4 
REMARK    3  A    between atoms: C1'_4  and  C1_5 
ROOT
ATOM      1  C1  N4B d   1      -0.489  -2.697  -0.526  0.00  0.00    -0.075 A 
ATOM      2  C2  N4B d   1      -1.709  -2.009  -0.349  0.00  0.00     0.002 A 
ATOM      3  C3  N4B d   1      -2.240  -1.866   0.910  0.00  0.00     0.002 A 
ATOM      4  C4  N4B d   1      -1.581  -2.416   1.999  0.00  0.00    -0.004 A 
ATOM      5  C5  N4B d   1      -0.390  -3.057   1.823  0.00  0.00     0.002 A 
ATOM      6  C6  N4B d   1       0.158  -3.205   0.564  0.00  0.00     0.002 A 
ENDROOT
BRANCH   1   7
ATOM      7  C1' N4B d   1       0.088  -2.954  -1.891  0.00  0.00     0.057 C 
BRANCH   7   8
ATOM      8  C2' N4B d   1      -0.841  -2.360  -2.946  0.00  0.00     0.009 C 
BRANCH   8   9
ATOM      9  C3' N4B d   1      -1.451  -3.431  -3.834  0.00  0.00     0.004 C 
ATOM     10  C4' N4B d   1      -0.737  -3.575  -5.145  0.00  0.00     0.003 C 
ENDBRANCH   8   9
ENDBRANCH   7   8
ENDBRANCH   1   7
TORSDOF 3
ENDMDL
