MODEL 1
REMARK minimizedAffinity -0.903268218
REMARK minimizedRMSD -1
REMARK  3 active torsions:
REMARK  status: ('A' for Active; 'I' for Inactive)
REMARK    1  A    between atoms: C3'_2  and  C2'_3 
REMARK    2  A    between atoms: C2'_3  and  C1'_4 
REMARK    3  A    between atoms: C1'_4  and  C1_5 
ROOT
ATOM      1  C1  N4B d   1      -1.358  -2.249   2.246  0.00  0.00    -0.075 A 
ATOM      2  C2  N4B d   1      -0.415  -3.252   1.935  0.00  0.00     0.002 A 
ATOM      3  C3  N4B d   1      -0.023  -3.447   0.633  0.00  0.00     0.002 A 
ATOM      4  C4  N4B d   1      -0.574  -2.666  -0.373  0.00  0.00    -0.004 A 
ATOM      5  C5  N4B d   1      -1.465  -1.682  -0.061  0.00  0.00     0.002 A 
ATOM      6  C6  N4B d   1      -1.865  -1.473   1.244  0.00  0.00     0.002 A 
ENDROOT
BRANCH   1   7
ATOM      7  C1' N4B d   1      -1.881  -2.056   3.643  0.00  0.00     0.057 C 
BRANCH   7   8
ATOM      8  C2' N4B d   1      -2.219  -0.583   3.853  0.00  0.00     0.009 C 
BRANCH   8   9
ATOM      9  C3' N4B d   1      -2.284  -0.219   5.326  0.00  0.00     0.004 C 
ATOM     10  C4' N4B d   1      -1.889   1.203   5.591  0.00  0.00     0.003 C 
ENDBRANCH   8   9
ENDBRANCH   7   8
ENDBRANCH   1   7
TORSDOF 3
ENDMDL
