MODEL 1
REMARK minimizedAffinity 10.1145897
REMARK minimizedRMSD -1
REMARK  3 active torsions:
REMARK  status: ('A' for Active; 'I' for Inactive)
REMARK    1  A    between atoms: C3'_2  and  C2'_3 
REMARK    2  A    between atoms: C2'_3  and  C1'_4 
REMARK    3  A    between atoms: C1'_4  and  C1_5 
ROOT
ATOM      1  C1  N4B d   1      -0.740  -2.631  -1.178  0.00  0.00    -0.075 A 
ATOM      2  C2  N4B d   1      -0.213  -3.780  -0.549  0.00  0.00     0.002 A 
ATOM      3  C3  N4B d   1      -0.340  -3.937   0.810  0.00  0.00     0.002 A 
ATOM      4  C4  N4B d   1      -0.970  -2.955   1.558  0.00  0.00    -0.004 A 
ATOM      5  C5  N4B d   1      -1.499  -1.860   0.939  0.00  0.00     0.002 A 
ATOM      6  C6  N4B d   1      -1.382  -1.691  -0.426  0.00  0.00     0.002 A 
ENDROOT
BRANCH   1   7
ATOM      7  C1' N4B d   1      -0.550  -2.373  -2.648  0.00  0.00     0.057 C 
BRANCH   7   8
ATOM      8  C2' N4B d   1       0.928  -2.522  -2.996  0.00  0.00     0.009 C 
BRANCH   8   9
ATOM      9  C3' N4B d   1       1.138  -3.377  -4.234  0.00  0.00     0.004 C 
ATOM     10  C4' N4B d   1       2.574  -3.754  -4.443  0.00  0.00     0.003 C 
ENDBRANCH   8   9
ENDBRANCH   7   8
ENDBRANCH   1   7
TORSDOF 3
ENDMDL
