MODEL 1
REMARK minimizedAffinity 5.40672827
REMARK minimizedRMSD -1
REMARK  3 active torsions:
REMARK  status: ('A' for Active; 'I' for Inactive)
REMARK    1  A    between atoms: C3'_2  and  C2'_3 
REMARK    2  A    between atoms: C2'_3  and  C1'_4 
REMARK    3  A    between atoms: C1'_4  and  C1_5 
ROOT
ATOM      1  C1  N4B d   1      -0.201  -3.869  -4.641  0.00  0.00    -0.075 A 
ATOM      2  C2  N4B d   1       0.394  -4.173  -5.885  0.00  0.00     0.002 A 
ATOM      3  C3  N4B d   1       1.759  -4.284  -5.985  0.00  0.00     0.002 A 
ATOM      4  C4  N4B d   1       2.548  -4.078  -4.863  0.00  0.00    -0.004 A 
ATOM      5  C5  N4B d   1       1.964  -3.810  -3.660  0.00  0.00     0.002 A 
ATOM      6  C6  N4B d   1       0.593  -3.700  -3.544  0.00  0.00     0.002 A 
ENDROOT
BRANCH   1   7
ATOM      7  C1' N4B d   1      -1.683  -3.653  -4.500  0.00  0.00     0.057 C 
BRANCH   7   8
ATOM      8  C2' N4B d   1      -2.421  -4.869  -5.052  0.00  0.00     0.009 C 
BRANCH   8   9
ATOM      9  C3' N4B d   1      -3.909  -4.816  -4.751  0.00  0.00     0.004 C 
ATOM     10  C4' N4B d   1      -4.655  -5.994  -5.301  0.00  0.00     0.003 C 
ENDBRANCH   8   9
ENDBRANCH   7   8
ENDBRANCH   1   7
TORSDOF 3
ENDMDL
