MODEL 1
REMARK minimizedAffinity 3.25512958
REMARK minimizedRMSD -1
REMARK  3 active torsions:
REMARK  status: ('A' for Active; 'I' for Inactive)
REMARK    1  A    between atoms: C3'_2  and  C2'_3 
REMARK    2  A    between atoms: C2'_3  and  C1'_4 
REMARK    3  A    between atoms: C1'_4  and  C1_5 
ROOT
ATOM      1  C1  N4B d   1      -0.384  -2.548  -1.187  0.00  0.00    -0.075 A 
ATOM      2  C2  N4B d   1       0.226  -3.161  -0.071  0.00  0.00     0.002 A 
ATOM      3  C3  N4B d   1      -0.342  -3.042   1.174  0.00  0.00     0.002 A 
ATOM      4  C4  N4B d   1      -1.504  -2.300   1.329  0.00  0.00    -0.004 A 
ATOM      5  C5  N4B d   1      -2.101  -1.732   0.242  0.00  0.00     0.002 A 
ATOM      6  C6  N4B d   1      -1.543  -1.848  -1.016  0.00  0.00     0.002 A 
ENDROOT
BRANCH   1   7
ATOM      7  C1' N4B d   1       0.246  -2.579  -2.553  0.00  0.00     0.057 C 
BRANCH   7   8
ATOM      8  C2' N4B d   1      -0.541  -3.534  -3.445  0.00  0.00     0.009 C 
BRANCH   8   9
ATOM      9  C3' N4B d   1      -0.044  -4.964  -3.324  0.00  0.00     0.004 C 
ATOM     10  C4' N4B d   1      -0.675  -5.885  -4.326  0.00  0.00     0.003 C 
ENDBRANCH   8   9
ENDBRANCH   7   8
ENDBRANCH   1   7
TORSDOF 3
ENDMDL
