MODEL 1
REMARK minimizedAffinity 11.9698725
REMARK minimizedRMSD -1
REMARK  3 active torsions:
REMARK  status: ('A' for Active; 'I' for Inactive)
REMARK    1  A    between atoms: C3'_2  and  C2'_3 
REMARK    2  A    between atoms: C2'_3  and  C1'_4 
REMARK    3  A    between atoms: C1'_4  and  C1_5 
ROOT
ATOM      1  C1  N4B d   1      -1.096  -3.077  -2.461  0.00  0.00    -0.075 A 
ATOM      2  C2  N4B d   1      -0.396  -4.129  -1.830  0.00  0.00     0.002 A 
ATOM      3  C3  N4B d   1       0.302  -3.892  -0.671  0.00  0.00     0.002 A 
ATOM      4  C4  N4B d   1       0.329  -2.613  -0.137  0.00  0.00    -0.004 A 
ATOM      5  C5  N4B d   1      -0.371  -1.608  -0.738  0.00  0.00     0.002 A 
ATOM      6  C6  N4B d   1      -1.080  -1.832  -1.901  0.00  0.00     0.002 A 
ENDROOT
BRANCH   1   7
ATOM      7  C1' N4B d   1      -1.802  -3.268  -3.775  0.00  0.00     0.057 C 
BRANCH   7   8
ATOM      8  C2' N4B d   1      -0.818  -3.015  -4.913  0.00  0.00     0.009 C 
BRANCH   8   9
ATOM      9  C3' N4B d   1      -0.922  -4.071  -6.000  0.00  0.00     0.004 C 
ATOM     10  C4' N4B d   1      -2.160  -4.909  -5.879  0.00  0.00     0.003 C 
ENDBRANCH   8   9
ENDBRANCH   7   8
ENDBRANCH   1   7
TORSDOF 3
ENDMDL
