MODEL 1
REMARK minimizedAffinity 5.35692215
REMARK minimizedRMSD -1
REMARK  3 active torsions:
REMARK  status: ('A' for Active; 'I' for Inactive)
REMARK    1  A    between atoms: C3'_2  and  C2'_3 
REMARK    2  A    between atoms: C2'_3  and  C1'_4 
REMARK    3  A    between atoms: C1'_4  and  C1_5 
ROOT
ATOM      1  C1  N4B d   1      -1.508  -2.262  -0.865  0.00  0.00    -0.075 A 
ATOM      2  C2  N4B d   1      -2.353  -2.649  -1.928  0.00  0.00     0.002 A 
ATOM      3  C3  N4B d   1      -1.834  -2.824  -3.188  0.00  0.00     0.002 A 
ATOM      4  C4  N4B d   1      -0.483  -2.601  -3.411  0.00  0.00    -0.004 A 
ATOM      5  C5  N4B d   1       0.330  -2.252  -2.372  0.00  0.00     0.002 A 
ATOM      6  C6  N4B d   1      -0.177  -2.076  -1.101  0.00  0.00     0.002 A 
ENDROOT
BRANCH   1   7
ATOM      7  C1' N4B d   1      -2.045  -1.975   0.511  0.00  0.00     0.057 C 
BRANCH   7   8
ATOM      8  C2' N4B d   1      -3.446  -2.565   0.635  0.00  0.00     0.009 C 
BRANCH   8   9
ATOM      9  C3' N4B d   1      -4.368  -1.673   1.450  0.00  0.00     0.004 C 
ATOM     10  C4' N4B d   1      -3.713  -0.392   1.872  0.00  0.00     0.003 C 
ENDBRANCH   8   9
ENDBRANCH   7   8
ENDBRANCH   1   7
TORSDOF 3
ENDMDL
