MODEL 1
REMARK minimizedAffinity 19.1077232
REMARK minimizedRMSD -1
REMARK  3 active torsions:
REMARK  status: ('A' for Active; 'I' for Inactive)
REMARK    1  A    between atoms: C3'_2  and  C2'_3 
REMARK    2  A    between atoms: C2'_3  and  C1'_4 
REMARK    3  A    between atoms: C1'_4  and  C1_5 
ROOT
ATOM      1  C1  N4B d   1      -0.527  -2.282  -1.617  0.00  0.00    -0.075 A 
ATOM      2  C2  N4B d   1       0.318  -3.022  -0.761  0.00  0.00     0.002 A 
ATOM      3  C3  N4B d   1       0.157  -2.940   0.601  0.00  0.00     0.002 A 
ATOM      4  C4  N4B d   1      -0.825  -2.115   1.127  0.00  0.00    -0.004 A 
ATOM      5  C5  N4B d   1      -1.653  -1.423   0.293  0.00  0.00     0.002 A 
ATOM      6  C6  N4B d   1      -1.506  -1.499  -1.078  0.00  0.00     0.002 A 
ENDROOT
BRANCH   1   7
ATOM      7  C1' N4B d   1      -0.334  -2.272  -3.109  0.00  0.00     0.057 C 
BRANCH   7   8
ATOM      8  C2' N4B d   1      -1.478  -3.037  -3.767  0.00  0.00     0.009 C 
BRANCH   8   9
ATOM      9  C3' N4B d   1      -1.472  -2.880  -5.278  0.00  0.00     0.004 C 
ATOM     10  C4' N4B d   1      -1.433  -4.195  -5.998  0.00  0.00     0.003 C 
ENDBRANCH   8   9
ENDBRANCH   7   8
ENDBRANCH   1   7
TORSDOF 3
ENDMDL
