MODEL 1
REMARK minimizedAffinity 7.18379402
REMARK minimizedRMSD -1
REMARK  0 active torsions:
REMARK  status: ('A' for Active; 'I' for Inactive)
ROOT
ATOM      1  C2' OXE d   1       0.010   1.829  -5.131  0.00  0.00     0.078 C 
ATOM      2  C1' OXE d   1      -0.991   1.913  -2.509  0.00  0.00     0.078 C 
ATOM      3  C1  OXE d   1      -1.986   1.838  -3.640  0.00  0.00    -0.078 A 
ATOM      4  C2  OXE d   1      -1.489   1.844  -4.921  0.00  0.00    -0.078 A 
ATOM      5  C3  OXE d   1      -2.360   1.722  -6.000  0.00  0.00     0.003 A 
ATOM      6  C4  OXE d   1      -3.746   1.747  -5.798  0.00  0.00    -0.002 A 
ATOM      7  C5  OXE d   1      -4.274   1.780  -4.503  0.00  0.00    -0.002 A 
ATOM      8  C6  OXE d   1      -3.409   1.782  -3.414  0.00  0.00     0.003 A 
ENDROOT
TORSDOF 0
ENDMDL
