MODEL 1
REMARK minimizedAffinity 7.23626375
REMARK minimizedRMSD -1
REMARK  0 active torsions:
REMARK  status: ('A' for Active; 'I' for Inactive)
ROOT
ATOM      1  C2' OXE d   1       0.415  -1.134   3.404  0.00  0.00     0.078 C 
ATOM      2  C1' OXE d   1       1.144  -1.719   0.757  0.00  0.00     0.078 C 
ATOM      3  C1  OXE d   1      -0.285  -1.312   1.020  0.00  0.00    -0.078 A 
ATOM      4  C2  OXE d   1      -0.644  -1.073   2.325  0.00  0.00    -0.078 A 
ATOM      5  C3  OXE d   1      -1.935  -0.642   2.616  0.00  0.00     0.003 A 
ATOM      6  C4  OXE d   1      -2.911  -0.598   1.614  0.00  0.00    -0.002 A 
ATOM      7  C5  OXE d   1      -2.576  -0.876   0.284  0.00  0.00    -0.002 A 
ATOM      8  C6  OXE d   1      -1.260  -1.193  -0.035  0.00  0.00     0.003 A 
ENDROOT
TORSDOF 0
ENDMDL
