MODEL 1
REMARK minimizedAffinity 4.50189257
REMARK minimizedRMSD -1
REMARK  0 active torsions:
REMARK  status: ('A' for Active; 'I' for Inactive)
ROOT
ATOM      1  C2' OXE d   1      -1.590  -4.107   3.174  0.00  0.00     0.078 C 
ATOM      2  C1' OXE d   1      -0.599  -1.481   3.141  0.00  0.00     0.078 C 
ATOM      3  C1  OXE d   1       0.283  -2.573   2.590  0.00  0.00    -0.078 A 
ATOM      4  C2  OXE d   1      -0.191  -3.861   2.653  0.00  0.00    -0.078 A 
ATOM      5  C3  OXE d   1       0.560  -4.899   2.109  0.00  0.00     0.003 A 
ATOM      6  C4  OXE d   1       1.857  -4.665   1.638  0.00  0.00    -0.002 A 
ATOM      7  C5  OXE d   1       2.375  -3.366   1.602  0.00  0.00    -0.002 A 
ATOM      8  C6  OXE d   1       1.586  -2.305   2.033  0.00  0.00     0.003 A 
ENDROOT
TORSDOF 0
ENDMDL
