MODEL 1
REMARK minimizedAffinity 13.4257469
REMARK minimizedRMSD -1
REMARK  0 active torsions:
REMARK  status: ('A' for Active; 'I' for Inactive)
ROOT
ATOM      1  C2' OXE d   1       0.652  -0.774   0.284  0.00  0.00     0.078 C 
ATOM      2  C1' OXE d   1       0.024  -1.547   2.908  0.00  0.00     0.078 C 
ATOM      3  C1  OXE d   1       1.098  -2.321   2.185  0.00  0.00    -0.078 A 
ATOM      4  C2  OXE d   1       1.367  -1.965   0.885  0.00  0.00    -0.078 A 
ATOM      5  C3  OXE d   1       2.386  -2.610   0.190  0.00  0.00     0.003 A 
ATOM      6  C4  OXE d   1       3.035  -3.717   0.749  0.00  0.00    -0.002 A 
ATOM      7  C5  OXE d   1       2.749  -4.121   2.058  0.00  0.00    -0.002 A 
ATOM      8  C6  OXE d   1       1.816  -3.408   2.803  0.00  0.00     0.003 A 
ENDROOT
TORSDOF 0
ENDMDL
