MODEL 1
REMARK minimizedAffinity 11.3319216
REMARK minimizedRMSD -1
REMARK  0 active torsions:
REMARK  status: ('A' for Active; 'I' for Inactive)
ROOT
ATOM      1  C2' OXE d   1       2.780  -5.128   1.135  0.00  0.00     0.078 C 
ATOM      2  C1' OXE d   1       3.458  -4.031   3.629  0.00  0.00     0.078 C 
ATOM      3  C1  OXE d   1       2.505  -3.255   2.754  0.00  0.00    -0.078 A 
ATOM      4  C2  OXE d   1       2.216  -3.776   1.516  0.00  0.00    -0.078 A 
ATOM      5  C3  OXE d   1       1.300  -3.128   0.692  0.00  0.00     0.003 A 
ATOM      6  C4  OXE d   1       0.790  -1.874   1.048  0.00  0.00    -0.002 A 
ATOM      7  C5  OXE d   1       1.103  -1.306   2.288  0.00  0.00    -0.002 A 
ATOM      8  C6  OXE d   1       1.924  -2.002   3.169  0.00  0.00     0.003 A 
ENDROOT
TORSDOF 0
ENDMDL
