MODEL 1
REMARK minimizedAffinity 10.7652178
REMARK minimizedRMSD -1
REMARK  0 active torsions:
REMARK  status: ('A' for Active; 'I' for Inactive)
ROOT
ATOM      1  C2' OXE d   1       5.987   0.990  -1.359  0.00  0.00     0.078 C 
ATOM      2  C1' OXE d   1       5.839  -0.306   1.127  0.00  0.00     0.078 C 
ATOM      3  C1  OXE d   1       5.876   1.202   1.121  0.00  0.00    -0.078 A 
ATOM      4  C2  OXE d   1       5.995   1.826  -0.097  0.00  0.00    -0.078 A 
ATOM      5  C3  OXE d   1       5.979   3.216  -0.164  0.00  0.00     0.003 A 
ATOM      6  C4  OXE d   1       5.997   3.982   1.008  0.00  0.00    -0.002 A 
ATOM      7  C5  OXE d   1       5.915   3.365   2.261  0.00  0.00    -0.002 A 
ATOM      8  C6  OXE d   1       5.812   1.981   2.333  0.00  0.00     0.003 A 
ENDROOT
TORSDOF 0
ENDMDL
