MODEL 1
REMARK minimizedAffinity 3.51772928
REMARK minimizedRMSD -1
REMARK  0 active torsions:
REMARK  status: ('A' for Active; 'I' for Inactive)
ROOT
ATOM      1  C2' OXE d   1       2.224   2.997   2.337  0.00  0.00     0.078 C 
ATOM      2  C1' OXE d   1       2.220   0.569   0.926  0.00  0.00     0.078 C 
ATOM      3  C1  OXE d   1       3.555   1.186   1.262  0.00  0.00    -0.078 A 
ATOM      4  C2  OXE d   1       3.547   2.397   1.911  0.00  0.00    -0.078 A 
ATOM      5  C3  OXE d   1       4.751   2.983   2.293  0.00  0.00     0.003 A 
ATOM      6  C4  OXE d   1       5.970   2.427   1.887  0.00  0.00    -0.002 A 
ATOM      7  C5  OXE d   1       6.000   1.214   1.190  0.00  0.00    -0.002 A 
ATOM      8  C6  OXE d   1       4.805   0.560   0.908  0.00  0.00     0.003 A 
ENDROOT
TORSDOF 0
ENDMDL
