MODEL 1
REMARK minimizedAffinity 10.5049143
REMARK minimizedRMSD -1
REMARK  0 active torsions:
REMARK  status: ('A' for Active; 'I' for Inactive)
ROOT
ATOM      1  C2' OXE d   1       2.131  -5.088   1.410  0.00  0.00     0.078 C 
ATOM      2  C1' OXE d   1       3.886  -3.500   2.920  0.00  0.00     0.078 C 
ATOM      3  C1  OXE d   1       2.522  -2.938   2.608  0.00  0.00    -0.078 A 
ATOM      4  C2  OXE d   1       1.687  -3.703   1.829  0.00  0.00    -0.078 A 
ATOM      5  C3  OXE d   1       0.397  -3.256   1.557  0.00  0.00     0.003 A 
ATOM      6  C4  OXE d   1      -0.003  -1.970   1.940  0.00  0.00    -0.002 A 
ATOM      7  C5  OXE d   1       0.846  -1.159   2.699  0.00  0.00    -0.002 A 
ATOM      8  C6  OXE d   1       2.093  -1.644   3.077  0.00  0.00     0.003 A 
ENDROOT
TORSDOF 0
ENDMDL
