MODEL 1
REMARK minimizedAffinity 2.64380217
REMARK minimizedRMSD -1
REMARK  0 active torsions:
REMARK  status: ('A' for Active; 'I' for Inactive)
ROOT
ATOM      1  C2' OXE d   1       5.998   1.904   0.719  0.00  0.00     0.078 C 
ATOM      2  C1' OXE d   1       6.000   2.886   3.349  0.00  0.00     0.078 C 
ATOM      3  C1  OXE d   1       4.666   2.621   2.698  0.00  0.00    -0.078 A 
ATOM      4  C2  OXE d   1       4.674   2.185   1.395  0.00  0.00    -0.078 A 
ATOM      5  C3  OXE d   1       3.472   1.872   0.765  0.00  0.00     0.003 A 
ATOM      6  C4  OXE d   1       2.251   2.144   1.393  0.00  0.00    -0.002 A 
ATOM      7  C5  OXE d   1       2.220   2.626   2.706  0.00  0.00    -0.002 A 
ATOM      8  C6  OXE d   1       3.416   2.829   3.386  0.00  0.00     0.003 A 
ENDROOT
TORSDOF 0
ENDMDL
