MODEL 1
REMARK minimizedAffinity -0.762256503
REMARK minimizedRMSD -1
REMARK  0 active torsions:
REMARK  status: ('A' for Active; 'I' for Inactive)
ROOT
ATOM      1  C2' OXE d   1       5.999   2.025   0.833  0.00  0.00     0.078 C 
ATOM      2  C1' OXE d   1       5.986  -0.752   0.424  0.00  0.00     0.078 C 
ATOM      3  C1  OXE d   1       5.981   0.138  -0.794  0.00  0.00    -0.078 A 
ATOM      4  C2  OXE d   1       5.941   1.496  -0.583  0.00  0.00    -0.078 A 
ATOM      5  C3  OXE d   1       5.990   2.364  -1.671  0.00  0.00     0.003 A 
ATOM      6  C4  OXE d   1       5.926   1.866  -2.978  0.00  0.00    -0.002 A 
ATOM      7  C5  OXE d   1       5.927   0.487  -3.214  0.00  0.00    -0.002 A 
ATOM      8  C6  OXE d   1       5.997  -0.388  -2.136  0.00  0.00     0.003 A 
ENDROOT
TORSDOF 0
ENDMDL
