MODEL 1
REMARK minimizedAffinity 2.3741281
REMARK minimizedRMSD -1
REMARK  0 active torsions:
REMARK  status: ('A' for Active; 'I' for Inactive)
ROOT
ATOM      1  C2' OXE d   1       5.954  -0.745  -0.013  0.00  0.00     0.078 C 
ATOM      2  C1' OXE d   1       5.998   2.029   0.419  0.00  0.00     0.078 C 
ATOM      3  C1  OXE d   1       5.974   1.539  -1.008  0.00  0.00    -0.078 A 
ATOM      4  C2  OXE d   1       6.000   0.180  -1.210  0.00  0.00    -0.078 A 
ATOM      5  C3  OXE d   1       5.924  -0.326  -2.505  0.00  0.00     0.003 A 
ATOM      6  C4  OXE d   1       5.976   0.536  -3.607  0.00  0.00    -0.002 A 
ATOM      7  C5  OXE d   1       5.990   1.923  -3.423  0.00  0.00    -0.002 A 
ATOM      8  C6  OXE d   1       5.946   2.440  -2.133  0.00  0.00     0.003 A 
ENDROOT
TORSDOF 0
ENDMDL
