MODEL 1
REMARK minimizedAffinity 0.258437485
REMARK minimizedRMSD -1
REMARK  1 active torsions:
REMARK  status: ('A' for Active; 'I' for Inactive)
REMARK    1  A    between atoms: C1_2  and  C2_3 
ROOT
ATOM      1  C2  UNL d   1       3.854   3.529  -4.752  0.00  0.00    -0.077 A 
ATOM      2  C3  UNL d   1       2.552   4.046  -4.802  0.00  0.00     0.002 A 
ATOM      3  C4  UNL d   1       2.303   5.277  -5.413  0.00  0.00     0.002 A 
ATOM      4  C5  UNL d   1       3.351   5.999  -5.981  0.00  0.00    -0.004 A 
ATOM      5  C6  UNL d   1       4.650   5.494  -5.934  0.00  0.00     0.002 A 
ATOM      6  C7  UNL d   1       4.900   4.265  -5.323  0.00  0.00     0.002 A 
ENDROOT
BRANCH   1   7
ATOM      7  C1  UNL d   1       4.117   2.179  -4.138  0.00  0.00     0.055 C 
ATOM      8  C   UNL d   1       4.499   2.303  -2.670  0.00  0.00     0.019 C 
ENDBRANCH   1   7
TORSDOF 1
ENDMDL
