MODEL 1
REMARK minimizedAffinity 3.4237268
REMARK minimizedRMSD -1
REMARK  1 active torsions:
REMARK  status: ('A' for Active; 'I' for Inactive)
REMARK    1  A    between atoms: C1_2  and  C2_3 
ROOT
ATOM      1  C2  UNL d   1       2.849   2.659   0.895  0.00  0.00    -0.077 A 
ATOM      2  C3  UNL d   1       2.003   1.651   1.377  0.00  0.00     0.002 A 
ATOM      3  C4  UNL d   1       2.386   0.310   1.300  0.00  0.00     0.002 A 
ATOM      4  C5  UNL d   1       3.618  -0.033   0.746  0.00  0.00    -0.004 A 
ATOM      5  C6  UNL d   1       4.466   0.963   0.263  0.00  0.00     0.002 A 
ATOM      6  C7  UNL d   1       4.084   2.303   0.338  0.00  0.00     0.002 A 
ENDROOT
BRANCH   1   7
ATOM      7  C1  UNL d   1       2.458   4.109   1.022  0.00  0.00     0.055 C 
ATOM      8  C   UNL d   1       3.657   4.975   1.382  0.00  0.00     0.019 C 
ENDBRANCH   1   7
TORSDOF 1
ENDMDL
