MODEL 1
REMARK minimizedAffinity 1.69843769
REMARK minimizedRMSD -1
REMARK  1 active torsions:
REMARK  status: ('A' for Active; 'I' for Inactive)
REMARK    1  A    between atoms: C1_2  and  C2_3 
ROOT
ATOM      1  C2  UNL d   1       4.126   4.659  -4.752  0.00  0.00    -0.077 A 
ATOM      2  C3  UNL d   1       2.759   4.521  -5.034  0.00  0.00     0.002 A 
ATOM      3  C4  UNL d   1       2.126   3.288  -4.872  0.00  0.00     0.002 A 
ATOM      4  C5  UNL d   1       2.848   2.185  -4.422  0.00  0.00    -0.004 A 
ATOM      5  C6  UNL d   1       4.208   2.311  -4.141  0.00  0.00     0.002 A 
ATOM      6  C7  UNL d   1       4.844   3.543  -4.304  0.00  0.00     0.002 A 
ENDROOT
BRANCH   1   7
ATOM      7  C1  UNL d   1       4.800   6.000  -4.879  0.00  0.00     0.055 C 
ATOM      8  C   UNL d   1       5.833   5.996  -5.996  0.00  0.00     0.019 C 
ENDBRANCH   1   7
TORSDOF 1
ENDMDL
