MODEL 1
REMARK minimizedAffinity -0.85275501
REMARK minimizedRMSD -1
REMARK  1 active torsions:
REMARK  status: ('A' for Active; 'I' for Inactive)
REMARK    1  A    between atoms: C1_2  and  C2_3 
ROOT
ATOM      1  C2  UNL d   1      -1.721   1.407   2.757  0.00  0.00    -0.077 A 
ATOM      2  C3  UNL d   1      -2.679   2.229   3.367  0.00  0.00     0.002 A 
ATOM      3  C4  UNL d   1      -3.894   1.695   3.801  0.00  0.00     0.002 A 
ATOM      4  C5  UNL d   1      -4.160   0.338   3.634  0.00  0.00    -0.004 A 
ATOM      5  C6  UNL d   1      -3.215  -0.488   3.027  0.00  0.00     0.002 A 
ATOM      6  C7  UNL d   1      -2.000   0.044   2.591  0.00  0.00     0.002 A 
ENDROOT
BRANCH   1   7
ATOM      7  C1  UNL d   1      -0.390   1.971   2.333  0.00  0.00     0.055 C 
ATOM      8  C   UNL d   1       0.754   1.050   2.733  0.00  0.00     0.019 C 
ENDBRANCH   1   7
TORSDOF 1
ENDMDL
