MODEL 1
REMARK minimizedAffinity 4.87656975
REMARK minimizedRMSD -1
REMARK  1 active torsions:
REMARK  status: ('A' for Active; 'I' for Inactive)
REMARK    1  A    between atoms: C1_2  and  C2_3 
ROOT
ATOM      1  C2  UNL d   1      -2.992  -3.831  -2.030  0.00  0.00    -0.077 A 
ATOM      2  C3  UNL d   1      -3.047  -3.230  -0.765  0.00  0.00     0.002 A 
ATOM      3  C4  UNL d   1      -3.111  -1.840  -0.646  0.00  0.00     0.002 A 
ATOM      4  C5  UNL d   1      -3.125  -1.041  -1.787  0.00  0.00    -0.004 A 
ATOM      5  C6  UNL d   1      -3.069  -1.630  -3.050  0.00  0.00     0.002 A 
ATOM      6  C7  UNL d   1      -3.003  -3.018  -3.171  0.00  0.00     0.002 A 
ENDROOT
BRANCH   1   7
ATOM      7  C1  UNL d   1      -2.973  -5.332  -2.162  0.00  0.00     0.055 C 
ATOM      8  C   UNL d   1      -3.724  -5.998  -1.019  0.00  0.00     0.019 C 
ENDBRANCH   1   7
TORSDOF 1
ENDMDL
