MODEL 1
REMARK minimizedAffinity 2.09959769
REMARK minimizedRMSD -1
REMARK  1 active torsions:
REMARK  status: ('A' for Active; 'I' for Inactive)
REMARK    1  A    between atoms: C1_2  and  C2_3 
ROOT
ATOM      1  C2  UNL d   1      -3.648   1.628   3.785  0.00  0.00    -0.077 A 
ATOM      2  C3  UNL d   1      -2.580   2.399   3.306  0.00  0.00     0.002 A 
ATOM      3  C4  UNL d   1      -1.520   1.793   2.627  0.00  0.00     0.002 A 
ATOM      4  C5  UNL d   1      -1.521   0.416   2.417  0.00  0.00    -0.004 A 
ATOM      5  C6  UNL d   1      -2.579  -0.360   2.891  0.00  0.00     0.002 A 
ATOM      6  C7  UNL d   1      -3.638   0.243   3.571  0.00  0.00     0.002 A 
ENDROOT
BRANCH   1   7
ATOM      7  C1  UNL d   1      -4.815   2.285   4.474  0.00  0.00     0.055 C 
ATOM      8  C   UNL d   1      -4.598   2.363   5.978  0.00  0.00     0.019 C 
ENDBRANCH   1   7
TORSDOF 1
ENDMDL
