MODEL 1
REMARK minimizedAffinity 10.6717958
REMARK minimizedRMSD -1
REMARK  1 active torsions:
REMARK  status: ('A' for Active; 'I' for Inactive)
REMARK    1  A    between atoms: C1_2  and  C2_3 
ROOT
ATOM      1  C2  UNL d   1      -2.584  -1.794   0.692  0.00  0.00    -0.077 A 
ATOM      2  C3  UNL d   1      -3.625  -1.211  -0.044  0.00  0.00     0.002 A 
ATOM      3  C4  UNL d   1      -3.966  -1.711  -1.303  0.00  0.00     0.002 A 
ATOM      4  C5  UNL d   1      -3.275  -2.798  -1.833  0.00  0.00    -0.004 A 
ATOM      5  C6  UNL d   1      -2.236  -3.383  -1.110  0.00  0.00     0.002 A 
ATOM      6  C7  UNL d   1      -1.893  -2.884   0.147  0.00  0.00     0.002 A 
ENDROOT
BRANCH   1   7
ATOM      7  C1  UNL d   1      -2.247  -1.287   2.070  0.00  0.00     0.055 C 
ATOM      8  C   UNL d   1      -0.915  -1.842   2.553  0.00  0.00     0.019 C 
ENDBRANCH   1   7
TORSDOF 1
ENDMDL
