MODEL 1
REMARK minimizedAffinity 3.93853402
REMARK minimizedRMSD -1
REMARK  1 active torsions:
REMARK  status: ('A' for Active; 'I' for Inactive)
REMARK    1  A    between atoms: C1_2  and  C2_3 
ROOT
ATOM      1  C2  UNL d   1      -3.713   1.535   4.146  0.00  0.00    -0.077 A 
ATOM      2  C3  UNL d   1      -3.337   0.321   3.554  0.00  0.00     0.002 A 
ATOM      3  C4  UNL d   1      -2.231   0.262   2.705  0.00  0.00     0.002 A 
ATOM      4  C5  UNL d   1      -1.488   1.411   2.445  0.00  0.00    -0.004 A 
ATOM      5  C6  UNL d   1      -1.854   2.624   3.027  0.00  0.00     0.002 A 
ATOM      6  C7  UNL d   1      -2.961   2.685   3.875  0.00  0.00     0.002 A 
ENDROOT
BRANCH   1   7
ATOM      7  C1  UNL d   1      -4.877   1.591   5.101  0.00  0.00     0.055 C 
ATOM      8  C   UNL d   1      -4.798   2.817   5.999  0.00  0.00     0.019 C 
ENDBRANCH   1   7
TORSDOF 1
ENDMDL
