MODEL 1
REMARK minimizedAffinity 6.81888628
REMARK minimizedRMSD -1
REMARK  1 active torsions:
REMARK  status: ('A' for Active; 'I' for Inactive)
REMARK    1  A    between atoms: C1_2  and  C2_3 
ROOT
ATOM      1  C2  UNL d   1       0.746   3.552   1.516  0.00  0.00    -0.077 A 
ATOM      2  C3  UNL d   1       1.089   4.892   1.744  0.00  0.00     0.002 A 
ATOM      3  C4  UNL d   1       2.379   5.348   1.462  0.00  0.00     0.002 A 
ATOM      4  C5  UNL d   1       3.332   4.473   0.948  0.00  0.00    -0.004 A 
ATOM      5  C6  UNL d   1       3.001   3.138   0.719  0.00  0.00     0.002 A 
ATOM      6  C7  UNL d   1       1.713   2.680   1.001  0.00  0.00     0.002 A 
ENDROOT
BRANCH   1   7
ATOM      7  C1  UNL d   1      -0.658   3.070   1.773  0.00  0.00     0.055 C 
ATOM      8  C   UNL d   1      -0.668   1.860   2.696  0.00  0.00     0.019 C 
ENDBRANCH   1   7
TORSDOF 1
ENDMDL
