MODEL 1
REMARK minimizedAffinity 0.879439831
REMARK minimizedRMSD -1
REMARK  1 active torsions:
REMARK  status: ('A' for Active; 'I' for Inactive)
REMARK    1  A    between atoms: C1_2  and  C2_3 
ROOT
ATOM      1  C2  UNL d   1      -0.090   0.483   2.786  0.00  0.00    -0.077 A 
ATOM      2  C3  UNL d   1      -0.115   1.853   2.489  0.00  0.00     0.002 A 
ATOM      3  C4  UNL d   1      -1.332   2.513   2.306  0.00  0.00     0.002 A 
ATOM      4  C5  UNL d   1      -2.531   1.813   2.421  0.00  0.00    -0.004 A 
ATOM      5  C6  UNL d   1      -2.516   0.450   2.713  0.00  0.00     0.002 A 
ATOM      6  C7  UNL d   1      -1.301  -0.212   2.896  0.00  0.00     0.002 A 
ENDROOT
BRANCH   1   7
ATOM      7  C1  UNL d   1       1.220  -0.220   3.033  0.00  0.00     0.055 C 
ATOM      8  C   UNL d   1       2.185  -0.016   1.874  0.00  0.00     0.019 C 
ENDBRANCH   1   7
TORSDOF 1
ENDMDL
