MODEL 1
REMARK minimizedAffinity 2.64744663
REMARK minimizedRMSD -1
REMARK  1 active torsions:
REMARK  status: ('A' for Active; 'I' for Inactive)
REMARK    1  A    between atoms: C1_2  and  C2_3 
ROOT
ATOM      1  C2  UNL d   1      -3.758   2.069   3.781  0.00  0.00    -0.077 A 
ATOM      2  C3  UNL d   1      -2.988   3.163   3.361  0.00  0.00     0.002 A 
ATOM      3  C4  UNL d   1      -1.835   2.964   2.599  0.00  0.00     0.002 A 
ATOM      4  C5  UNL d   1      -1.445   1.674   2.246  0.00  0.00    -0.004 A 
ATOM      5  C6  UNL d   1      -2.203   0.579   2.660  0.00  0.00     0.002 A 
ATOM      6  C7  UNL d   1      -3.355   0.776   3.423  0.00  0.00     0.002 A 
ENDROOT
BRANCH   1   7
ATOM      7  C1  UNL d   1      -5.028   2.284   4.561  0.00  0.00     0.055 C 
ATOM      8  C   UNL d   1      -4.733   2.682   6.000  0.00  0.00     0.019 C 
ENDBRANCH   1   7
TORSDOF 1
ENDMDL
