MODEL 1
REMARK minimizedAffinity -4.20581245
REMARK minimizedRMSD -1
REMARK  0 active torsions:
REMARK  status: ('A' for Active; 'I' for Inactive)
ROOT
ATOM      1  C1  DEN d   1       0.470   0.755   0.443  0.00  0.00     0.130 A 
ATOM      2  C2  DEN d   1      -0.713   0.031   0.900  0.00  0.00    -0.031 A 
ATOM      3  C3  DEN d   1      -1.182  -0.824  -0.209  0.00  0.00     0.027 A 
ATOM      4  C4  DEN d   1      -0.194  -1.100  -2.575  0.00  0.00     0.027 A 
ATOM      5  C5  DEN d   1       0.801  -0.684  -3.431  0.00  0.00    -0.003 A 
ATOM      6  C6  DEN d   1       1.728   0.258  -3.071  0.00  0.00     0.001 A 
ATOM      7  C7  DEN d   1       1.706   0.783  -1.806  0.00  0.00     0.017 A 
ATOM      8  C8  DEN d   1       0.701   0.374  -0.939  0.00  0.00    -0.094 A 
ATOM      9  C9  DEN d   1      -0.220  -0.589  -1.318  0.00  0.00    -0.072 A 
ENDROOT
TORSDOF 0
ENDMDL
