MODEL 1
REMARK minimizedAffinity -5.8682394
REMARK minimizedRMSD -1
REMARK  0 active torsions:
REMARK  status: ('A' for Active; 'I' for Inactive)
ROOT
ATOM      1  C1  DEN d   1       0.763   1.103   2.248  0.00  0.00     0.130 A 
ATOM      2  C2  DEN d   1      -0.471   1.564   2.878  0.00  0.00    -0.031 A 
ATOM      3  C3  DEN d   1      -1.593   1.246   1.972  0.00  0.00     0.027 A 
ATOM      4  C4  DEN d   1      -1.539   0.086  -0.331  0.00  0.00     0.027 A 
ATOM      5  C5  DEN d   1      -0.721  -0.476  -1.286  0.00  0.00    -0.003 A 
ATOM      6  C6  DEN d   1       0.641  -0.520  -1.147  0.00  0.00     0.001 A 
ATOM      7  C7  DEN d   1       1.222  -0.033  -0.006  0.00  0.00     0.017 A 
ATOM      8  C8  DEN d   1       0.405   0.541   0.958  0.00  0.00    -0.094 A 
ATOM      9  C9  DEN d   1      -0.971   0.565   0.804  0.00  0.00    -0.072 A 
ENDROOT
TORSDOF 0
ENDMDL
