MODEL 1
REMARK minimizedAffinity -3.72696185
REMARK minimizedRMSD -1
REMARK  0 active torsions:
REMARK  status: ('A' for Active; 'I' for Inactive)
ROOT
ATOM      1  C1  DEN d   1       1.407  -0.249  -0.089  0.00  0.00     0.130 A 
ATOM      2  C2  DEN d   1       1.008  -0.797  -1.382  0.00  0.00    -0.031 A 
ATOM      3  C3  DEN d   1      -0.466  -0.756  -1.460  0.00  0.00     0.027 A 
ATOM      4  C4  DEN d   1      -2.160   0.102   0.284  0.00  0.00     0.027 A 
ATOM      5  C5  DEN d   1      -2.298   0.650   1.541  0.00  0.00    -0.003 A 
ATOM      6  C6  DEN d   1      -1.221   0.902   2.349  0.00  0.00     0.001 A 
ATOM      7  C7  DEN d   1       0.045   0.649   1.892  0.00  0.00     0.017 A 
ATOM      8  C8  DEN d   1       0.191   0.090   0.629  0.00  0.00    -0.094 A 
ATOM      9  C9  DEN d   1      -0.909  -0.146  -0.178  0.00  0.00    -0.072 A 
ENDROOT
TORSDOF 0
ENDMDL
