MODEL 1
REMARK minimizedAffinity -5.79800177
REMARK minimizedRMSD -1
REMARK  0 active torsions:
REMARK  status: ('A' for Active; 'I' for Inactive)
ROOT
ATOM      1  C1  DEN d   1      -1.149   0.285  -0.641  0.00  0.00     0.130 A 
ATOM      2  C2  DEN d   1      -0.048  -0.473  -1.229  0.00  0.00    -0.031 A 
ATOM      3  C3  DEN d   1       0.937  -0.748  -0.164  0.00  0.00     0.027 A 
ATOM      4  C4  DEN d   1       0.863  -0.082   2.327  0.00  0.00     0.027 A 
ATOM      5  C5  DEN d   1       0.134   0.579   3.291  0.00  0.00    -0.003 A 
ATOM      6  C6  DEN d   1      -1.047   1.212   3.007  0.00  0.00     0.001 A 
ATOM      7  C7  DEN d   1      -1.557   1.159   1.737  0.00  0.00     0.017 A 
ATOM      8  C8  DEN d   1      -0.824   0.501   0.758  0.00  0.00    -0.094 A 
ATOM      9  C9  DEN d   1       0.362  -0.143   1.067  0.00  0.00    -0.072 A 
ENDROOT
TORSDOF 0
ENDMDL
