MODEL 1
REMARK minimizedAffinity -4.73828602
REMARK minimizedRMSD -1
REMARK  0 active torsions:
REMARK  status: ('A' for Active; 'I' for Inactive)
ROOT
ATOM      1  C1  DEN d   1      -1.279  -0.485  -0.779  0.00  0.00     0.130 A 
ATOM      2  C2  DEN d   1      -0.139  -0.986  -1.541  0.00  0.00    -0.031 A 
ATOM      3  C3  DEN d   1       1.088  -0.691  -0.774  0.00  0.00     0.027 A 
ATOM      4  C4  DEN d   1       1.331   0.483   1.510  0.00  0.00     0.027 A 
ATOM      5  C5  DEN d   1       0.646   1.095   2.536  0.00  0.00    -0.003 A 
ATOM      6  C6  DEN d   1      -0.715   1.252   2.513  0.00  0.00     0.001 A 
ATOM      7  C7  DEN d   1      -1.439   0.751   1.464  0.00  0.00     0.017 A 
ATOM      8  C8  DEN d   1      -0.754   0.140   0.422  0.00  0.00    -0.094 A 
ATOM      9  C9  DEN d   1       0.620  -0.021   0.469  0.00  0.00    -0.072 A 
ENDROOT
TORSDOF 0
ENDMDL
