MODEL 1
REMARK minimizedAffinity -4.28125095
REMARK minimizedRMSD -1
REMARK  0 active torsions:
REMARK  status: ('A' for Active; 'I' for Inactive)
ROOT
ATOM      1  C1  DEN d   1      -1.815   0.359   2.230  0.00  0.00     0.130 A 
ATOM      2  C2  DEN d   1      -1.043   1.280   3.060  0.00  0.00    -0.031 A 
ATOM      3  C3  DEN d   1       0.210   1.598   2.346  0.00  0.00     0.027 A 
ATOM      4  C4  DEN d   1       1.023   0.762   0.045  0.00  0.00     0.027 A 
ATOM      5  C5  DEN d   1       0.717  -0.044  -1.029  0.00  0.00    -0.003 A 
ATOM      6  C6  DEN d   1      -0.430  -0.792  -1.077  0.00  0.00     0.001 A 
ATOM      7  C7  DEN d   1      -1.334  -0.715  -0.051  0.00  0.00     0.017 A 
ATOM      8  C8  DEN d   1      -1.028   0.089   1.039  0.00  0.00    -0.094 A 
ATOM      9  C9  DEN d   1       0.130   0.847   1.063  0.00  0.00    -0.072 A 
ENDROOT
TORSDOF 0
ENDMDL
