MODEL 1
REMARK minimizedAffinity -4.51351166
REMARK minimizedRMSD -1
REMARK  0 active torsions:
REMARK  status: ('A' for Active; 'I' for Inactive)
ROOT
ATOM      1  C1  DEN d   1       1.958  -0.551   1.194  0.00  0.00     0.130 A 
ATOM      2  C2  DEN d   1       1.757  -1.081  -0.152  0.00  0.00    -0.031 A 
ATOM      3  C3  DEN d   1       0.393  -0.719  -0.586  0.00  0.00     0.027 A 
ATOM      4  C4  DEN d   1      -1.417   0.607   0.686  0.00  0.00     0.027 A 
ATOM      5  C5  DEN d   1      -1.714   1.252   1.866  0.00  0.00    -0.003 A 
ATOM      6  C6  DEN d   1      -0.828   1.312   2.909  0.00  0.00     0.001 A 
ATOM      7  C7  DEN d   1       0.416   0.755   2.775  0.00  0.00     0.017 A 
ATOM      8  C8  DEN d   1       0.721   0.096   1.592  0.00  0.00    -0.094 A 
ATOM      9  C9  DEN d   1      -0.184   0.057   0.544  0.00  0.00    -0.072 A 
ENDROOT
TORSDOF 0
ENDMDL
