MODEL 1
REMARK minimizedAffinity -3.01386237
REMARK minimizedRMSD -1
REMARK  0 active torsions:
REMARK  status: ('A' for Active; 'I' for Inactive)
ROOT
ATOM      1  C1  DEN d   1      -2.195   0.592   0.163  0.00  0.00     0.130 A 
ATOM      2  C2  DEN d   1      -2.259   1.037   1.553  0.00  0.00    -0.031 A 
ATOM      3  C3  DEN d   1      -0.917   0.871   2.147  0.00  0.00     0.027 A 
ATOM      4  C4  DEN d   1       1.242  -0.023   1.054  0.00  0.00     0.027 A 
ATOM      5  C5  DEN d   1       1.786  -0.533  -0.104  0.00  0.00    -0.003 A 
ATOM      6  C6  DEN d   1       1.039  -0.734  -1.234  0.00  0.00     0.001 A 
ATOM      7  C7  DEN d   1      -0.284  -0.381  -1.246  0.00  0.00     0.017 A 
ATOM      8  C8  DEN d   1      -0.841   0.127  -0.080  0.00  0.00    -0.094 A 
ATOM      9  C9  DEN d   1      -0.067   0.334   1.049  0.00  0.00    -0.072 A 
ENDROOT
TORSDOF 0
ENDMDL
