MODEL 1
REMARK minimizedAffinity -2.86458659
REMARK minimizedRMSD -1
REMARK  0 active torsions:
REMARK  status: ('A' for Active; 'I' for Inactive)
ROOT
ATOM      1  C1  DEN d   1       0.278   1.129   2.804  0.00  0.00     0.130 A 
ATOM      2  C2  DEN d   1      -0.983   1.094   3.540  0.00  0.00    -0.031 A 
ATOM      3  C3  DEN d   1      -1.969   0.360   2.721  0.00  0.00     0.027 A 
ATOM      4  C4  DEN d   1      -1.665  -0.723   0.400  0.00  0.00     0.027 A 
ATOM      5  C5  DEN d   1      -0.776  -0.943  -0.629  0.00  0.00    -0.003 A 
ATOM      6  C6  DEN d   1       0.506  -0.462  -0.601  0.00  0.00     0.001 A 
ATOM      7  C7  DEN d   1       0.950   0.224   0.499  0.00  0.00     0.017 A 
ATOM      8  C8  DEN d   1       0.057   0.457   1.536  0.00  0.00    -0.094 A 
ATOM      9  C9  DEN d   1      -1.232  -0.048   1.494  0.00  0.00    -0.072 A 
ENDROOT
TORSDOF 0
ENDMDL
