MODEL 1
REMARK minimizedAffinity 8.50218296
REMARK minimizedRMSD -1
REMARK  0 active torsions:
REMARK  status: ('A' for Active; 'I' for Inactive)
ROOT
ATOM      1  C   UNL d   1      -0.902  -0.672  -3.081  0.00  0.00     0.020 A 
ATOM      2  C1  UNL d   1       0.003   0.376  -2.915  0.00  0.00     0.020 A 
ATOM      3  C2  UNL d   1      -0.196   1.317  -1.903  0.00  0.00     0.034 A 
ATOM      4  C3  UNL d   1      -1.304   1.213  -1.053  0.00  0.00     0.017 A 
ATOM      5  C4  UNL d   1      -2.212   0.162  -1.220  0.00  0.00     0.017 A 
ATOM      6  C5  UNL d   1      -2.007  -0.778  -2.235  0.00  0.00     0.034 A 
ATOM      7 Cl   UNL d   1      -3.601  -0.033  -0.211  0.00  0.00    -0.070 Cl
ATOM      8 Cl1  UNL d   1      -1.488   2.413   0.177  0.00  0.00    -0.070 Cl
ENDROOT
TORSDOF 0
ENDMDL
