MODEL 1
REMARK minimizedAffinity 8.55704784
REMARK minimizedRMSD -1
REMARK  0 active torsions:
REMARK  status: ('A' for Active; 'I' for Inactive)
ROOT
ATOM      1  C   UNL d   1      -4.872  -4.834  -5.998  0.00  0.00     0.020 A 
ATOM      2  C1  UNL d   1      -4.189  -6.000  -5.653  0.00  0.00     0.020 A 
ATOM      3  C2  UNL d   1      -2.837  -5.941  -5.310  0.00  0.00     0.034 A 
ATOM      4  C3  UNL d   1      -2.164  -4.714  -5.310  0.00  0.00     0.017 A 
ATOM      5  C4  UNL d   1      -2.850  -3.544  -5.657  0.00  0.00     0.017 A 
ATOM      6  C5  UNL d   1      -4.204  -3.609  -6.000  0.00  0.00     0.034 A 
ATOM      7 Cl   UNL d   1      -2.087  -1.994  -5.680  0.00  0.00    -0.070 Cl
ATOM      8 Cl1  UNL d   1      -0.492  -4.715  -4.874  0.00  0.00    -0.070 Cl
ENDROOT
TORSDOF 0
ENDMDL
