MODEL 1
REMARK minimizedAffinity 5.5409441
REMARK minimizedRMSD -1
REMARK  0 active torsions:
REMARK  status: ('A' for Active; 'I' for Inactive)
ROOT
ATOM      1  C   UNL d   1      -1.037   4.210  -1.606  0.00  0.00     0.020 A 
ATOM      2  C1  UNL d   1      -1.133   4.608  -0.273  0.00  0.00     0.020 A 
ATOM      3  C2  UNL d   1      -0.749   3.733   0.746  0.00  0.00     0.034 A 
ATOM      4  C3  UNL d   1      -0.267   2.457   0.434  0.00  0.00     0.017 A 
ATOM      5  C4  UNL d   1      -0.171   2.059  -0.905  0.00  0.00     0.017 A 
ATOM      6  C5  UNL d   1      -0.557   2.938  -1.921  0.00  0.00     0.034 A 
ATOM      7 Cl   UNL d   1       0.414   0.500  -1.369  0.00  0.00    -0.070 Cl
ATOM      8 Cl1  UNL d   1       0.191   1.427   1.744  0.00  0.00    -0.070 Cl
ENDROOT
TORSDOF 0
ENDMDL
