MODEL 1
REMARK minimizedAffinity 12.1085939
REMARK minimizedRMSD -1
REMARK  0 active torsions:
REMARK  status: ('A' for Active; 'I' for Inactive)
ROOT
ATOM      1  C   UNL d   1      -0.568   0.605  -2.990  0.00  0.00     0.020 A 
ATOM      2  C1  UNL d   1      -0.051   1.777  -2.439  0.00  0.00     0.020 A 
ATOM      3  C2  UNL d   1      -0.567   2.271  -1.239  0.00  0.00     0.034 A 
ATOM      4  C3  UNL d   1      -1.603   1.594  -0.586  0.00  0.00     0.017 A 
ATOM      5  C4  UNL d   1      -2.121   0.417  -1.140  0.00  0.00     0.017 A 
ATOM      6  C5  UNL d   1      -1.601  -0.073  -2.341  0.00  0.00     0.034 A 
ATOM      7 Cl   UNL d   1      -3.399  -0.474  -0.392  0.00  0.00    -0.070 Cl
ATOM      8 Cl1  UNL d   1      -2.192   2.262   0.894  0.00  0.00    -0.070 Cl
ENDROOT
TORSDOF 0
ENDMDL
