MODEL 1
REMARK minimizedAffinity 10.0995245
REMARK minimizedRMSD -1
REMARK  0 active torsions:
REMARK  status: ('A' for Active; 'I' for Inactive)
ROOT
ATOM      1  C   UNL d   1       0.023   1.619  -1.503  0.00  0.00     0.020 A 
ATOM      2  C1  UNL d   1       0.078   1.786  -2.886  0.00  0.00     0.020 A 
ATOM      3  C2  UNL d   1      -0.811   1.090  -3.709  0.00  0.00     0.034 A 
ATOM      4  C3  UNL d   1      -1.758   0.225  -3.150  0.00  0.00     0.017 A 
ATOM      5  C4  UNL d   1      -1.813   0.059  -1.761  0.00  0.00     0.017 A 
ATOM      6  C5  UNL d   1      -0.921   0.758  -0.942  0.00  0.00     0.034 A 
ATOM      7 Cl   UNL d   1      -2.954  -0.991  -0.998  0.00  0.00    -0.070 Cl
ATOM      8 Cl1  UNL d   1      -2.826  -0.602  -4.227  0.00  0.00    -0.070 Cl
ENDROOT
TORSDOF 0
ENDMDL
