MODEL 1
REMARK minimizedAffinity 0.859463155
REMARK minimizedRMSD -1
REMARK  0 active torsions:
REMARK  status: ('A' for Active; 'I' for Inactive)
ROOT
ATOM      1  C   UNL d   1      -0.161   3.584   1.116  0.00  0.00     0.020 A 
ATOM      2  C1  UNL d   1      -0.151   2.256   1.541  0.00  0.00     0.020 A 
ATOM      3  C2  UNL d   1      -0.382   1.227   0.625  0.00  0.00     0.034 A 
ATOM      4  C3  UNL d   1      -0.625   1.525  -0.721  0.00  0.00     0.017 A 
ATOM      5  C4  UNL d   1      -0.636   2.858  -1.147  0.00  0.00     0.017 A 
ATOM      6  C5  UNL d   1      -0.403   3.884  -0.225  0.00  0.00     0.034 A 
ATOM      7 Cl   UNL d   1      -0.928   3.303  -2.791  0.00  0.00    -0.070 Cl
ATOM      8 Cl1  UNL d   1      -0.902   0.203  -1.798  0.00  0.00    -0.070 Cl
ENDROOT
TORSDOF 0
ENDMDL
