MODEL 1
REMARK minimizedAffinity 2.27550006
REMARK minimizedRMSD -1
REMARK  0 active torsions:
REMARK  status: ('A' for Active; 'I' for Inactive)
ROOT
ATOM      1  C   UNL d   1      -0.714   3.104   1.575  0.00  0.00     0.020 A 
ATOM      2  C1  UNL d   1      -0.286   1.811   1.875  0.00  0.00     0.020 A 
ATOM      3  C2  UNL d   1      -0.077   0.890   0.847  0.00  0.00     0.034 A 
ATOM      4  C3  UNL d   1      -0.295   1.259  -0.486  0.00  0.00     0.017 A 
ATOM      5  C4  UNL d   1      -0.724   2.558  -0.785  0.00  0.00     0.017 A 
ATOM      6  C5  UNL d   1      -0.932   3.477   0.248  0.00  0.00     0.034 A 
ATOM      7 Cl   UNL d   1      -1.013   3.088  -2.405  0.00  0.00    -0.070 Cl
ATOM      8 Cl1  UNL d   1      -0.016   0.069  -1.706  0.00  0.00    -0.070 Cl
ENDROOT
TORSDOF 0
ENDMDL
