MODEL 1
REMARK minimizedAffinity 8.4048233
REMARK minimizedRMSD -1
REMARK  0 active torsions:
REMARK  status: ('A' for Active; 'I' for Inactive)
ROOT
ATOM      1  C   UNL d   1      -0.754   1.890   2.754  0.00  0.00     0.020 A 
ATOM      2  C1  UNL d   1       0.177   2.707   2.115  0.00  0.00     0.020 A 
ATOM      3  C2  UNL d   1       0.186   2.799   0.722  0.00  0.00     0.034 A 
ATOM      4  C3  UNL d   1      -0.738   2.072  -0.037  0.00  0.00     0.017 A 
ATOM      5  C4  UNL d   1      -1.673   1.252   0.605  0.00  0.00     0.017 A 
ATOM      6  C5  UNL d   1      -1.677   1.164   2.001  0.00  0.00     0.034 A 
ATOM      7 Cl   UNL d   1      -2.844   0.325  -0.264  0.00  0.00    -0.070 Cl
ATOM      8 Cl1  UNL d   1      -0.669   2.233  -1.756  0.00  0.00    -0.070 Cl
ENDROOT
TORSDOF 0
ENDMDL
