MODEL 1
REMARK minimizedAffinity 5.72756672
REMARK minimizedRMSD -1
REMARK  0 active torsions:
REMARK  status: ('A' for Active; 'I' for Inactive)
ROOT
ATOM      1  C   UNL d   1       0.942   1.638   1.614  0.00  0.00     0.020 A 
ATOM      2  C1  UNL d   1      -0.262   1.962   0.992  0.00  0.00     0.020 A 
ATOM      3  C2  UNL d   1      -0.644   1.301  -0.178  0.00  0.00     0.034 A 
ATOM      4  C3  UNL d   1       0.180   0.313  -0.729  0.00  0.00     0.017 A 
ATOM      5  C4  UNL d   1       1.389  -0.011  -0.103  0.00  0.00     0.017 A 
ATOM      6  C5  UNL d   1       1.766   0.653   1.068  0.00  0.00     0.034 A 
ATOM      7 Cl   UNL d   1       2.458  -1.219  -0.724  0.00  0.00    -0.070 Cl
ATOM      8 Cl1  UNL d   1      -0.355  -0.463  -2.177  0.00  0.00    -0.070 Cl
ENDROOT
TORSDOF 0
ENDMDL
