MODEL 1
REMARK minimizedAffinity -0.29696241
REMARK minimizedRMSD -1
REMARK  0 active torsions:
REMARK  status: ('A' for Active; 'I' for Inactive)
ROOT
ATOM      1  C   UNL d   1      -1.339   2.536   2.255  0.00  0.00     0.020 A 
ATOM      2  C1  UNL d   1      -0.869   2.878   0.988  0.00  0.00     0.020 A 
ATOM      3  C2  UNL d   1       0.077   2.070   0.353  0.00  0.00     0.034 A 
ATOM      4  C3  UNL d   1       0.557   0.918   0.985  0.00  0.00     0.017 A 
ATOM      5  C4  UNL d   1       0.085   0.576   2.258  0.00  0.00     0.017 A 
ATOM      6  C5  UNL d   1      -0.863   1.387   2.889  0.00  0.00     0.034 A 
ATOM      7 Cl   UNL d   1       0.629  -0.831   3.101  0.00  0.00    -0.070 Cl
ATOM      8 Cl1  UNL d   1       1.726  -0.034   0.142  0.00  0.00    -0.070 Cl
ENDROOT
TORSDOF 0
ENDMDL
