MODEL 1
REMARK minimizedAffinity -3.62514472
REMARK minimizedRMSD -1
REMARK  1 active torsions:
REMARK  status: ('A' for Active; 'I' for Inactive)
REMARK    1  A    between atoms: C3_4  and  O_7 
ROOT
ATOM      1  C   UNL d   1      -0.330   1.453   2.250  0.00  0.00    -0.033 A 
ATOM      2  C1  UNL d   1      -1.580   0.988   1.836  0.00  0.00     0.039 A 
ATOM      3  C2  UNL d   1      -1.688   0.196   0.691  0.00  0.00    -0.080 A 
ATOM      4  C3  UNL d   1      -0.540  -0.126  -0.028  0.00  0.00     0.150 A 
ATOM      5  C4  UNL d   1       0.709   0.331   0.381  0.00  0.00    -0.007 A 
ATOM      6  C5  UNL d   1       0.814   1.123   1.523  0.00  0.00     0.039 A 
ENDROOT
BRANCH   4   7
ATOM      7  O   UNL d   1      -0.596  -0.893  -1.154  0.00  0.00    -0.526 OA
ATOM      8  H5  UNL d   1      -1.526  -1.111  -1.331  0.00  0.00     0.418 HD
ENDBRANCH   4   7
TORSDOF 1
ENDMDL
