MODEL 1
REMARK minimizedAffinity -5.0175848
REMARK minimizedRMSD -1
REMARK  1 active torsions:
REMARK  status: ('A' for Active; 'I' for Inactive)
REMARK    1  A    between atoms: C3_4  and  O_7 
ROOT
ATOM      1  C   UNL d   1      -0.216   0.683   3.433  0.00  0.00    -0.033 A 
ATOM      2  C1  UNL d   1       0.940  -0.014   3.075  0.00  0.00     0.039 A 
ATOM      3  C2  UNL d   1       1.139  -0.405   1.750  0.00  0.00    -0.080 A 
ATOM      4  C3  UNL d   1       0.177  -0.094   0.793  0.00  0.00     0.150 A 
ATOM      5  C4  UNL d   1      -0.975   0.603   1.141  0.00  0.00    -0.007 A 
ATOM      6  C5  UNL d   1      -1.173   0.993   2.465  0.00  0.00     0.039 A 
ENDROOT
BRANCH   4   7
ATOM      7  O   UNL d   1       0.325  -0.459  -0.512  0.00  0.00    -0.526 OA
ATOM      8  H5  UNL d   1       1.154  -0.959  -0.599  0.00  0.00     0.418 HD
ENDBRANCH   4   7
TORSDOF 1
ENDMDL
