MODEL 1
REMARK minimizedAffinity -4.83425856
REMARK minimizedRMSD -1
REMARK  1 active torsions:
REMARK  status: ('A' for Active; 'I' for Inactive)
REMARK    1  A    between atoms: C3_4  and  O_7 
ROOT
ATOM      1  C   UNL d   1       0.847  -0.376   0.120  0.00  0.00    -0.033 A 
ATOM      2  C1  UNL d   1      -0.470   0.031  -0.100  0.00  0.00     0.039 A 
ATOM      3  C2  UNL d   1      -1.163   0.728   0.892  0.00  0.00    -0.080 A 
ATOM      4  C3  UNL d   1      -0.527   1.012   2.098  0.00  0.00     0.150 A 
ATOM      5  C4  UNL d   1       0.786   0.613   2.322  0.00  0.00    -0.007 A 
ATOM      6  C5  UNL d   1       1.476  -0.084   1.331  0.00  0.00     0.039 A 
ENDROOT
BRANCH   4   7
ATOM      7  O   UNL d   1      -1.164   1.685   3.097  0.00  0.00    -0.526 OA
ATOM      8  H5  UNL d   1      -2.074   1.872   2.812  0.00  0.00     0.418 HD
ENDBRANCH   4   7
TORSDOF 1
ENDMDL
