MODEL 1
REMARK minimizedAffinity -4.51816082
REMARK minimizedRMSD -1
REMARK  1 active torsions:
REMARK  status: ('A' for Active; 'I' for Inactive)
REMARK    1  A    between atoms: C3_4  and  O_7 
ROOT
ATOM      1  C   UNL d   1      -0.355   0.437   3.073  0.00  0.00    -0.033 A 
ATOM      2  C1  UNL d   1       0.826  -0.127   2.587  0.00  0.00     0.039 A 
ATOM      3  C2  UNL d   1       1.009  -0.293   1.213  0.00  0.00    -0.080 A 
ATOM      4  C3  UNL d   1       0.004   0.108   0.337  0.00  0.00     0.150 A 
ATOM      5  C4  UNL d   1      -1.174   0.673   0.814  0.00  0.00    -0.007 A 
ATOM      6  C5  UNL d   1      -1.355   0.838   2.186  0.00  0.00     0.039 A 
ENDROOT
BRANCH   4   7
ATOM      7  O   UNL d   1       0.135  -0.039  -1.012  0.00  0.00    -0.526 OA
ATOM      8  H5  UNL d   1       0.987  -0.470  -1.194  0.00  0.00     0.418 HD
ENDBRANCH   4   7
TORSDOF 1
ENDMDL
