MODEL 1
REMARK minimizedAffinity -5.46561241
REMARK minimizedRMSD -1
REMARK  1 active torsions:
REMARK  status: ('A' for Active; 'I' for Inactive)
REMARK    1  A    between atoms: C3_4  and  O_7 
ROOT
ATOM      1  C   UNL d   1       0.027   1.087   3.698  0.00  0.00    -0.033 A 
ATOM      2  C1  UNL d   1       1.158   0.401   3.251  0.00  0.00     0.039 A 
ATOM      3  C2  UNL d   1       1.262   0.021   1.911  0.00  0.00    -0.080 A 
ATOM      4  C3  UNL d   1       0.231   0.333   1.030  0.00  0.00     0.150 A 
ATOM      5  C4  UNL d   1      -0.897   1.019   1.468  0.00  0.00    -0.007 A 
ATOM      6  C5  UNL d   1      -1.000   1.397   2.806  0.00  0.00     0.039 A 
ENDROOT
BRANCH   4   7
ATOM      7  O   UNL d   1       0.285  -0.021  -0.285  0.00  0.00    -0.526 OA
ATOM      8  H5  UNL d   1       1.109  -0.515  -0.437  0.00  0.00     0.418 HD
ENDBRANCH   4   7
TORSDOF 1
ENDMDL
