MODEL 1
REMARK minimizedAffinity -4.61807728
REMARK minimizedRMSD -1
REMARK  1 active torsions:
REMARK  status: ('A' for Active; 'I' for Inactive)
REMARK    1  A    between atoms: C3_4  and  O_7 
ROOT
ATOM      1  C   UNL d   1       0.228   1.320   2.961  0.00  0.00    -0.033 A 
ATOM      2  C1  UNL d   1      -0.854   1.340   2.079  0.00  0.00     0.039 A 
ATOM      3  C2  UNL d   1      -0.836   0.544   0.932  0.00  0.00    -0.080 A 
ATOM      4  C3  UNL d   1       0.268  -0.266   0.679  0.00  0.00     0.150 A 
ATOM      5  C4  UNL d   1       1.347  -0.293   1.556  0.00  0.00    -0.007 A 
ATOM      6  C5  UNL d   1       1.328   0.502   2.700  0.00  0.00     0.039 A 
ENDROOT
BRANCH   4   7
ATOM      7  O   UNL d   1       0.333  -1.055  -0.430  0.00  0.00    -0.526 OA
ATOM      8  H5  UNL d   1      -0.470  -0.912  -0.958  0.00  0.00     0.418 HD
ENDBRANCH   4   7
TORSDOF 1
ENDMDL
