MODEL 1
REMARK minimizedAffinity -2.68578768
REMARK minimizedRMSD -1
REMARK  1 active torsions:
REMARK  status: ('A' for Active; 'I' for Inactive)
REMARK    1  A    between atoms: C3_4  and  O_7 
ROOT
ATOM      1  C   UNL d   1       0.292   0.370  -0.191  0.00  0.00    -0.033 A 
ATOM      2  C1  UNL d   1       0.685   1.634   0.255  0.00  0.00     0.039 A 
ATOM      3  C2  UNL d   1       0.261   2.099   1.501  0.00  0.00    -0.080 A 
ATOM      4  C3  UNL d   1      -0.554   1.293   2.290  0.00  0.00     0.150 A 
ATOM      5  C4  UNL d   1      -0.946   0.032   1.854  0.00  0.00    -0.007 A 
ATOM      6  C5  UNL d   1      -0.522  -0.431   0.609  0.00  0.00     0.039 A 
ENDROOT
BRANCH   4   7
ATOM      7  O   UNL d   1      -0.997   1.706   3.511  0.00  0.00    -0.526 OA
ATOM      8  H5  UNL d   1      -0.671   2.608   3.668  0.00  0.00     0.418 HD
ENDBRANCH   4   7
TORSDOF 1
ENDMDL
