MODEL 1
REMARK minimizedAffinity -2.42617798
REMARK minimizedRMSD -1
REMARK  1 active torsions:
REMARK  status: ('A' for Active; 'I' for Inactive)
REMARK    1  A    between atoms: N_2  and  C1_3 
ROOT
ATOM      1  C1  UNL d   1       3.416  -3.309  -4.337  0.00  0.00     0.143 A 
ATOM      2  C2  UNL d   1       3.549  -4.372  -5.236  0.00  0.00    -0.057 A 
ATOM      3  C3  UNL d   1       3.302  -5.693  -4.841  0.00  0.00     0.033 A 
ATOM      4  C4  UNL d   1       2.944  -5.977  -3.528  0.00  0.00    -0.042 A 
ATOM      5  C5  UNL d   1       2.829  -4.938  -2.610  0.00  0.00     0.033 A 
ATOM      6  C6  UNL d   1       3.071  -3.621  -3.012  0.00  0.00    -0.057 A 
ENDROOT
BRANCH   1   7
ATOM      7  N   UNL d   1       3.743  -1.986  -4.643  0.00  0.00    -0.732 N 
ATOM      8  C   UNL d   1       4.075  -1.603  -5.998  0.00  0.00     0.284 C 
ATOM      9  H3  UNL d   1       3.151  -1.317  -4.155  0.00  0.00     0.395 HD
ENDBRANCH   1   7
TORSDOF 1
ENDMDL
