MODEL 1
REMARK minimizedAffinity -2.20886135
REMARK minimizedRMSD -1
REMARK  1 active torsions:
REMARK  status: ('A' for Active; 'I' for Inactive)
REMARK    1  A    between atoms: N_2  and  C1_3 
ROOT
ATOM      1  C1  UNL d   1       0.327   0.396  -0.201  0.00  0.00     0.143 A 
ATOM      2  C2  UNL d   1       0.572  -0.914   0.223  0.00  0.00    -0.057 A 
ATOM      3  C3  UNL d   1      -0.472  -1.751   0.637  0.00  0.00     0.033 A 
ATOM      4  C4  UNL d   1      -1.781  -1.280   0.661  0.00  0.00    -0.042 A 
ATOM      5  C5  UNL d   1      -2.045   0.028   0.268  0.00  0.00     0.033 A 
ATOM      6  C6  UNL d   1      -0.999   0.856  -0.150  0.00  0.00    -0.057 A 
ENDROOT
BRANCH   1   7
ATOM      7  N   UNL d   1       1.333   1.308  -0.530  0.00  0.00    -0.732 N 
ATOM      8  C   UNL d   1       2.686   1.116  -0.055  0.00  0.00     0.284 C 
ATOM      9  H3  UNL d   1       1.272   1.622  -1.495  0.00  0.00     0.395 HD
ENDBRANCH   1   7
TORSDOF 1
ENDMDL
