MODEL 1
REMARK minimizedAffinity 2.88887763
REMARK minimizedRMSD -1
REMARK  1 active torsions:
REMARK  status: ('A' for Active; 'I' for Inactive)
REMARK    1  A    between atoms: N_2  and  C1_3 
ROOT
ATOM      1  C1  UNL d   1       1.908  -0.284   1.091  0.00  0.00     0.143 A 
ATOM      2  C2  UNL d   1       3.215   0.011   0.689  0.00  0.00    -0.057 A 
ATOM      3  C3  UNL d   1       3.519   1.209   0.030  0.00  0.00     0.033 A 
ATOM      4  C4  UNL d   1       2.512   2.122  -0.265  0.00  0.00    -0.042 A 
ATOM      5  C5  UNL d   1       1.202   1.838   0.103  0.00  0.00     0.033 A 
ATOM      6  C6  UNL d   1       0.905   0.644   0.766  0.00  0.00    -0.057 A 
ENDROOT
BRANCH   1   7
ATOM      7  N   UNL d   1       1.525  -1.501   1.661  0.00  0.00    -0.732 N 
ATOM      8  C   UNL d   1       0.373  -2.219   1.162  0.00  0.00     0.284 C 
ATOM      9  H3  UNL d   1       2.322  -2.094   1.881  0.00  0.00     0.395 HD
ENDBRANCH   1   7
TORSDOF 1
ENDMDL
