MODEL 1
REMARK minimizedAffinity -2.59771991
REMARK minimizedRMSD -1
REMARK  1 active torsions:
REMARK  status: ('A' for Active; 'I' for Inactive)
REMARK    1  A    between atoms: N_2  and  C1_3 
ROOT
ATOM      1  C1  UNL d   1       2.124   0.069   2.413  0.00  0.00     0.143 A 
ATOM      2  C2  UNL d   1       2.603   1.223   1.785  0.00  0.00    -0.057 A 
ATOM      3  C3  UNL d   1       1.908   1.814   0.723  0.00  0.00     0.033 A 
ATOM      4  C4  UNL d   1       0.732   1.241   0.249  0.00  0.00    -0.042 A 
ATOM      5  C5  UNL d   1       0.251   0.079   0.842  0.00  0.00     0.033 A 
ATOM      6  C6  UNL d   1       0.946  -0.502   1.907  0.00  0.00    -0.057 A 
ENDROOT
BRANCH   1   7
ATOM      7  N   UNL d   1       2.820  -0.621   3.409  0.00  0.00    -0.732 N 
ATOM      8  C   UNL d   1       2.157  -1.017   4.632  0.00  0.00     0.284 C 
ATOM      9  H3  UNL d   1       3.446  -1.327   3.028  0.00  0.00     0.395 HD
ENDBRANCH   1   7
TORSDOF 1
ENDMDL
