MODEL 1
REMARK minimizedAffinity 8.91533566
REMARK minimizedRMSD -1
REMARK  0 active torsions:
REMARK  status: ('A' for Active; 'I' for Inactive)
ROOT
ATOM      1  C4' PXY d   1      -2.761   0.759   3.263  0.00  0.00     0.077 C 
ATOM      2  C1' PXY d   1      -2.638  -2.394  -1.581  0.00  0.00     0.077 C 
ATOM      3  C1  PXY d   1      -2.659  -1.562  -0.314  0.00  0.00    -0.082 A 
ATOM      4  C2  PXY d   1      -3.377  -1.965   0.722  0.00  0.00     0.003 A 
ATOM      5  C3  PXY d   1      -3.432  -1.209   1.864  0.00  0.00     0.003 A 
ATOM      6  C4  PXY d   1      -2.703  -0.054   1.967  0.00  0.00    -0.082 A 
ATOM      7  C5  PXY d   1      -1.960   0.358   0.918  0.00  0.00     0.003 A 
ATOM      8  C6  PXY d   1      -1.949  -0.403  -0.247  0.00  0.00     0.003 A 
ENDROOT
TORSDOF 0
ENDMDL
