MODEL 1
REMARK minimizedAffinity 1.68958068
REMARK minimizedRMSD -1
REMARK  0 active torsions:
REMARK  status: ('A' for Active; 'I' for Inactive)
ROOT
ATOM      1  C4' PXY d   1      -0.323  -0.093  -1.184  0.00  0.00     0.077 C 
ATOM      2  C1' PXY d   1      -3.631  -0.284   3.552  0.00  0.00     0.077 C 
ATOM      3  C1  PXY d   1      -2.767  -0.246   2.307  0.00  0.00    -0.082 A 
ATOM      4  C2  PXY d   1      -1.750   0.598   2.242  0.00  0.00     0.003 A 
ATOM      5  C3  PXY d   1      -0.978   0.668   1.112  0.00  0.00     0.003 A 
ATOM      6  C4  PXY d   1      -1.217  -0.172   0.057  0.00  0.00    -0.082 A 
ATOM      7  C5  PXY d   1      -2.246  -1.043   0.120  0.00  0.00     0.003 A 
ATOM      8  C6  PXY d   1      -3.043  -1.070   1.260  0.00  0.00     0.003 A 
ENDROOT
TORSDOF 0
ENDMDL
