MODEL 1
REMARK minimizedAffinity 3.15601301
REMARK minimizedRMSD -1
REMARK  0 active torsions:
REMARK  status: ('A' for Active; 'I' for Inactive)
ROOT
ATOM      1  C4' PXY d   1       5.464   5.989   5.724  0.00  0.00     0.077 C 
ATOM      2  C1' PXY d   1       4.309   4.411   0.285  0.00  0.00     0.077 C 
ATOM      3  C1  PXY d   1       4.604   4.835   1.710  0.00  0.00    -0.082 A 
ATOM      4  C2  PXY d   1       5.731   4.451   2.287  0.00  0.00     0.003 A 
ATOM      5  C3  PXY d   1       5.999   4.799   3.586  0.00  0.00     0.003 A 
ATOM      6  C4  PXY d   1       5.129   5.593   4.284  0.00  0.00    -0.082 A 
ATOM      7  C5  PXY d   1       3.982   5.997   3.699  0.00  0.00     0.003 A 
ATOM      8  C6  PXY d   1       3.709   5.599   2.393  0.00  0.00     0.003 A 
ENDROOT
TORSDOF 0
ENDMDL
