MODEL 1
REMARK minimizedAffinity 8.96074295
REMARK minimizedRMSD -1
REMARK  0 active torsions:
REMARK  status: ('A' for Active; 'I' for Inactive)
ROOT
ATOM      1  C4' PXY d   1      -1.931   1.208   2.588  0.00  0.00     0.077 C 
ATOM      2  C1' PXY d   1      -4.824  -2.486  -0.789  0.00  0.00     0.077 C 
ATOM      3  C1  PXY d   1      -4.075  -1.517   0.105  0.00  0.00    -0.082 A 
ATOM      4  C2  PXY d   1      -3.110  -0.768  -0.405  0.00  0.00     0.003 A 
ATOM      5  C3  PXY d   1      -2.402   0.090   0.396  0.00  0.00     0.003 A 
ATOM      6  C4  PXY d   1      -2.720   0.223   1.721  0.00  0.00    -0.082 A 
ATOM      7  C5  PXY d   1      -3.710  -0.529   2.246  0.00  0.00     0.003 A 
ATOM      8  C6  PXY d   1      -4.390  -1.425   1.425  0.00  0.00     0.003 A 
ENDROOT
TORSDOF 0
ENDMDL
