MODEL 1
REMARK minimizedAffinity 3.88410425
REMARK minimizedRMSD -1
REMARK  0 active torsions:
REMARK  status: ('A' for Active; 'I' for Inactive)
ROOT
ATOM      1  C4' PXY d   1       3.989  -1.412   2.840  0.00  0.00     0.077 C 
ATOM      2  C1' PXY d   1       5.714  -5.971   5.948  0.00  0.00     0.077 C 
ATOM      3  C1  PXY d   1       5.268  -4.767   5.141  0.00  0.00    -0.082 A 
ATOM      4  C2  PXY d   1       4.171  -4.843   4.405  0.00  0.00     0.003 A 
ATOM      5  C3  PXY d   1       3.771  -3.775   3.644  0.00  0.00     0.003 A 
ATOM      6  C4  PXY d   1       4.472  -2.599   3.678  0.00  0.00    -0.082 A 
ATOM      7  C5  PXY d   1       5.586  -2.510   4.435  0.00  0.00     0.003 A 
ATOM      8  C6  PXY d   1       5.998  -3.619   5.168  0.00  0.00     0.003 A 
ENDROOT
TORSDOF 0
ENDMDL
