MODEL 1
REMARK minimizedAffinity 1.84321392
REMARK minimizedRMSD -1
REMARK  0 active torsions:
REMARK  status: ('A' for Active; 'I' for Inactive)
ROOT
ATOM      1  C4' PXY d   1       4.400   5.085   0.328  0.00  0.00     0.077 C 
ATOM      2  C1' PXY d   1       5.828   5.095   5.929  0.00  0.00     0.077 C 
ATOM      3  C1  PXY d   1       5.442   5.098   4.463  0.00  0.00    -0.082 A 
ATOM      4  C2  PXY d   1       5.998   4.225   3.639  0.00  0.00     0.003 A 
ATOM      5  C3  PXY d   1       5.684   4.235   2.304  0.00  0.00     0.003 A 
ATOM      6  C4  PXY d   1       4.752   5.112   1.818  0.00  0.00    -0.082 A 
ATOM      7  C5  PXY d   1       4.172   5.999   2.655  0.00  0.00     0.003 A 
ATOM      8  C6  PXY d   1       4.535   6.000   3.998  0.00  0.00     0.003 A 
ENDROOT
TORSDOF 0
ENDMDL
