MODEL 1
REMARK minimizedAffinity 11.4356861
REMARK minimizedRMSD -1
REMARK  0 active torsions:
REMARK  status: ('A' for Active; 'I' for Inactive)
ROOT
ATOM      1  C4' PXY d   1      -0.271   5.217  -2.029  0.00  0.00     0.077 C 
ATOM      2  C1' PXY d   1      -3.455   5.259   2.796  0.00  0.00     0.077 C 
ATOM      3  C1  PXY d   1      -2.615   5.260   1.534  0.00  0.00    -0.082 A 
ATOM      4  C2  PXY d   1      -2.999   4.540   0.492  0.00  0.00     0.003 A 
ATOM      5  C3  PXY d   1      -2.235   4.503  -0.646  0.00  0.00     0.003 A 
ATOM      6  C4  PXY d   1      -1.093   5.254  -0.737  0.00  0.00    -0.082 A 
ATOM      7  C5  PXY d   1      -0.701   6.000   0.317  0.00  0.00     0.003 A 
ATOM      8  C6  PXY d   1      -1.469   5.990   1.478  0.00  0.00     0.003 A 
ENDROOT
TORSDOF 0
ENDMDL
