MODEL 1
REMARK minimizedAffinity 0.275477111
REMARK minimizedRMSD -1
REMARK  0 active torsions:
REMARK  status: ('A' for Active; 'I' for Inactive)
ROOT
ATOM      1  C4' PXY d   1       5.991   4.952   5.907  0.00  0.00     0.077 C 
ATOM      2  C1' PXY d   1       4.556   5.047   0.309  0.00  0.00     0.077 C 
ATOM      3  C1  PXY d   1       4.933   5.009   1.776  0.00  0.00    -0.082 A 
ATOM      4  C2  PXY d   1       4.562   5.998   2.573  0.00  0.00     0.003 A 
ATOM      5  C3  PXY d   1       4.923   5.996   3.896  0.00  0.00     0.003 A 
ATOM      6  C4  PXY d   1       5.624   4.944   4.421  0.00  0.00    -0.082 A 
ATOM      7  C5  PXY d   1       5.997   3.926   3.617  0.00  0.00     0.003 A 
ATOM      8  C6  PXY d   1       5.657   3.967   2.268  0.00  0.00     0.003 A 
ENDROOT
TORSDOF 0
ENDMDL
