MODEL 1
REMARK minimizedAffinity 16.3175526
REMARK minimizedRMSD -1
REMARK  0 active torsions:
REMARK  status: ('A' for Active; 'I' for Inactive)
ROOT
ATOM      1  C4' PXY d   1      -1.864   6.000   5.996  0.00  0.00     0.077 C 
ATOM      2  C1' PXY d   1      -1.050   1.865   2.039  0.00  0.00     0.077 C 
ATOM      3  C1  PXY d   1      -1.261   2.959   3.068  0.00  0.00    -0.082 A 
ATOM      4  C2  PXY d   1      -1.083   2.692   4.351  0.00  0.00     0.003 A 
ATOM      5  C3  PXY d   1      -1.301   3.661   5.297  0.00  0.00     0.003 A 
ATOM      6  C4  PXY d   1      -1.653   4.929   4.922  0.00  0.00    -0.082 A 
ATOM      7  C5  PXY d   1      -1.827   5.212   3.613  0.00  0.00     0.003 A 
ATOM      8  C6  PXY d   1      -1.641   4.204   2.672  0.00  0.00     0.003 A 
ENDROOT
TORSDOF 0
ENDMDL
