MODEL 1
REMARK minimizedAffinity 2.6677227
REMARK minimizedRMSD -1
REMARK  0 active torsions:
REMARK  status: ('A' for Active; 'I' for Inactive)
ROOT
ATOM      1  C4' PXY d   1      -1.890   4.010   4.694  0.00  0.00     0.077 C 
ATOM      2  C1' PXY d   1      -2.448  -0.097   0.664  0.00  0.00     0.077 C 
ATOM      3  C1  PXY d   1      -2.305   0.989   1.712  0.00  0.00    -0.082 A 
ATOM      4  C2  PXY d   1      -1.484   0.809   2.734  0.00  0.00     0.003 A 
ATOM      5  C3  PXY d   1      -1.368   1.767   3.708  0.00  0.00     0.003 A 
ATOM      6  C4  PXY d   1      -2.058   2.945   3.607  0.00  0.00    -0.082 A 
ATOM      7  C5  PXY d   1      -2.890   3.141   2.562  0.00  0.00     0.003 A 
ATOM      8  C6  PXY d   1      -3.025   2.139   1.606  0.00  0.00     0.003 A 
ENDROOT
TORSDOF 0
ENDMDL
