MODEL 1
REMARK minimizedAffinity 12.0111189
REMARK minimizedRMSD -1
REMARK  0 active torsions:
REMARK  status: ('A' for Active; 'I' for Inactive)
ROOT
ATOM      1  C4' PXY d   1      -5.641   5.768   3.330  0.00  0.00     0.077 C 
ATOM      2  C1' PXY d   1      -0.514   5.829   5.999  0.00  0.00     0.077 C 
ATOM      3  C1  PXY d   1      -1.852   5.817   5.288  0.00  0.00    -0.082 A 
ATOM      4  C2  PXY d   1      -2.964   5.998   5.983  0.00  0.00     0.003 A 
ATOM      5  C3  PXY d   1      -4.185   5.957   5.360  0.00  0.00     0.003 A 
ATOM      6  C4  PXY d   1      -4.266   5.783   4.005  0.00  0.00    -0.082 A 
ATOM      7  C5  PXY d   1      -3.136   5.608   3.288  0.00  0.00     0.003 A 
ATOM      8  C6  PXY d   1      -1.909   5.611   3.944  0.00  0.00     0.003 A 
ENDROOT
TORSDOF 0
ENDMDL
