MODEL 1
REMARK minimizedAffinity 7.75212526
REMARK minimizedRMSD -1
REMARK  0 active torsions:
REMARK  status: ('A' for Active; 'I' for Inactive)
ROOT
ATOM      1  C4' PXY d   1      -2.614  -1.927  -1.007  0.00  0.00     0.077 C 
ATOM      2  C1' PXY d   1      -2.618   1.669   3.520  0.00  0.00     0.077 C 
ATOM      3  C1  PXY d   1      -2.625   0.734   2.326  0.00  0.00    -0.082 A 
ATOM      4  C2  PXY d   1      -2.379  -0.554   2.503  0.00  0.00     0.003 A 
ATOM      5  C3  PXY d   1      -2.350  -1.408   1.430  0.00  0.00     0.003 A 
ATOM      6  C4  PXY d   1      -2.627  -0.948   0.171  0.00  0.00    -0.082 A 
ATOM      7  C5  PXY d   1      -2.889   0.363  -0.016  0.00  0.00     0.003 A 
ATOM      8  C6  PXY d   1      -2.873   1.221   1.080  0.00  0.00     0.003 A 
ENDROOT
TORSDOF 0
ENDMDL
