MODEL 1
REMARK minimizedAffinity 7.34281969
REMARK minimizedRMSD -1
REMARK  0 active torsions:
REMARK  status: ('A' for Active; 'I' for Inactive)
ROOT
ATOM      1  C4' PXY d   1      -2.178   1.886  -1.825  0.00  0.00     0.077 C 
ATOM      2  C1' PXY d   1      -2.596   0.108   3.659  0.00  0.00     0.077 C 
ATOM      3  C1  PXY d   1      -2.476   0.566   2.219  0.00  0.00    -0.082 A 
ATOM      4  C2  PXY d   1      -2.948   1.752   1.868  0.00  0.00     0.003 A 
ATOM      5  C3  PXY d   1      -2.877   2.168   0.564  0.00  0.00     0.003 A 
ATOM      6  C4  PXY d   1      -2.269   1.386  -0.381  0.00  0.00    -0.082 A 
ATOM      7  C5  PXY d   1      -1.775   0.180  -0.029  0.00  0.00     0.003 A 
ATOM      8  C6  PXY d   1      -1.895  -0.242   1.292  0.00  0.00     0.003 A 
ENDROOT
TORSDOF 0
ENDMDL
