MODEL 1
REMARK minimizedAffinity 9.73384476
REMARK minimizedRMSD -1
REMARK  0 active torsions:
REMARK  status: ('A' for Active; 'I' for Inactive)
ROOT
ATOM      1  C4' PXY d   1      -0.174  -0.776  -1.737  0.00  0.00     0.077 C 
ATOM      2  C1' PXY d   1      -2.824   0.255   3.296  0.00  0.00     0.077 C 
ATOM      3  C1  PXY d   1      -2.138  -0.024   1.973  0.00  0.00    -0.082 A 
ATOM      4  C2  PXY d   1      -0.852   0.252   1.832  0.00  0.00     0.003 A 
ATOM      5  C3  PXY d   1      -0.224   0.036   0.633  0.00  0.00     0.003 A 
ATOM      6  C4  PXY d   1      -0.906  -0.519  -0.417  0.00  0.00    -0.082 A 
ATOM      7  C5  PXY d   1      -2.216  -0.815  -0.277  0.00  0.00     0.003 A 
ATOM      8  C6  PXY d   1      -2.845  -0.549   0.935  0.00  0.00     0.003 A 
ENDROOT
TORSDOF 0
ENDMDL
