MODEL 1
REMARK minimizedAffinity 15.7690783
REMARK minimizedRMSD -1
REMARK  0 active torsions:
REMARK  status: ('A' for Active; 'I' for Inactive)
ROOT
ATOM      1  C4' PXY d   1      -0.091   1.330  -2.985  0.00  0.00     0.077 C 
ATOM      2  C1' PXY d   1       4.811  -1.157  -1.194  0.00  0.00     0.077 C 
ATOM      3  C1  PXY d   1       3.524  -0.514  -1.673  0.00  0.00    -0.082 A 
ATOM      4  C2  PXY d   1       3.329   0.781  -1.481  0.00  0.00     0.003 A 
ATOM      5  C3  PXY d   1       2.157   1.372  -1.879  0.00  0.00     0.003 A 
ATOM      6  C4  PXY d   1       1.198   0.641  -2.527  0.00  0.00    -0.082 A 
ATOM      7  C5  PXY d   1       1.394  -0.678  -2.735  0.00  0.00     0.003 A 
ATOM      8  C6  PXY d   1       2.572  -1.268  -2.287  0.00  0.00     0.003 A 
ENDROOT
TORSDOF 0
ENDMDL
