MODEL 1
REMARK minimizedAffinity 7.19177103
REMARK minimizedRMSD -1
REMARK  0 active torsions:
REMARK  status: ('A' for Active; 'I' for Inactive)
ROOT
ATOM      1  C4' PXY d   1      -3.500   0.287   4.411  0.00  0.00     0.077 C 
ATOM      2  C1' PXY d   1      -1.021  -0.279  -0.780  0.00  0.00     0.077 C 
ATOM      3  C1  PXY d   1      -1.659  -0.128   0.586  0.00  0.00    -0.082 A 
ATOM      4  C2  PXY d   1      -2.820  -0.712   0.834  0.00  0.00     0.003 A 
ATOM      5  C3  PXY d   1      -3.427  -0.560   2.054  0.00  0.00     0.003 A 
ATOM      6  C4  PXY d   1      -2.814   0.154   3.048  0.00  0.00    -0.082 A 
ATOM      7  C5  PXY d   1      -1.624   0.745   2.807  0.00  0.00     0.003 A 
ATOM      8  C6  PXY d   1      -1.045   0.612   1.549  0.00  0.00     0.003 A 
ENDROOT
TORSDOF 0
ENDMDL
