MODEL 1
REMARK minimizedAffinity 14.4960604
REMARK minimizedRMSD -1
REMARK  0 active torsions:
REMARK  status: ('A' for Active; 'I' for Inactive)
ROOT
ATOM      1  C4' PXY d   1      -3.138   0.757   4.598  0.00  0.00     0.077 C 
ATOM      2  C1' PXY d   1      -2.393   0.478  -1.128  0.00  0.00     0.077 C 
ATOM      3  C1  PXY d   1      -2.593   0.563   0.373  0.00  0.00    -0.082 A 
ATOM      4  C2  PXY d   1      -1.879  -0.212   1.173  0.00  0.00     0.003 A 
ATOM      5  C3  PXY d   1      -2.070  -0.171   2.530  0.00  0.00     0.003 A 
ATOM      6  C4  PXY d   1      -2.962   0.712   3.078  0.00  0.00    -0.082 A 
ATOM      7  C5  PXY d   1      -3.686   1.514   2.269  0.00  0.00     0.003 A 
ATOM      8  C6  PXY d   1      -3.507   1.427   0.891  0.00  0.00     0.003 A 
ENDROOT
TORSDOF 0
ENDMDL
