MODEL 1
REMARK minimizedAffinity 8.46136284
REMARK minimizedRMSD -1
REMARK  0 active torsions:
REMARK  status: ('A' for Active; 'I' for Inactive)
ROOT
ATOM      1  C4' PXY d   1       1.350  -2.483  -2.395  0.00  0.00     0.077 C 
ATOM      2  C1' PXY d   1       2.395   3.196  -2.664  0.00  0.00     0.077 C 
ATOM      3  C1  PXY d   1       2.130   1.705  -2.603  0.00  0.00    -0.082 A 
ATOM      4  C2  PXY d   1       0.989   1.264  -2.097  0.00  0.00     0.003 A 
ATOM      5  C3  PXY d   1       0.746  -0.083  -2.005  0.00  0.00     0.003 A 
ATOM      6  C4  PXY d   1       1.657  -0.986  -2.485  0.00  0.00    -0.082 A 
ATOM      7  C5  PXY d   1       2.818  -0.543  -3.012  0.00  0.00     0.003 A 
ATOM      8  C6  PXY d   1       3.063   0.826  -3.059  0.00  0.00     0.003 A 
ENDROOT
TORSDOF 0
ENDMDL
