MODEL 1
REMARK minimizedAffinity 3.13904285
REMARK minimizedRMSD -1
REMARK  0 active torsions:
REMARK  status: ('A' for Active; 'I' for Inactive)
ROOT
ATOM      1  C4' PXY d   1       5.995   5.990   3.538  0.00  0.00     0.077 C 
ATOM      2  C1' PXY d   1       3.528   4.541  -1.486  0.00  0.00     0.077 C 
ATOM      3  C1  PXY d   1       4.167   4.931  -0.167  0.00  0.00    -0.082 A 
ATOM      4  C2  PXY d   1       5.417   4.577   0.084  0.00  0.00     0.003 A 
ATOM      5  C3  PXY d   1       5.999   4.894   1.285  0.00  0.00     0.003 A 
ATOM      6  C4  PXY d   1       5.313   5.626   2.216  0.00  0.00    -0.082 A 
ATOM      7  C5  PXY d   1       4.041   6.000   1.962  0.00  0.00     0.003 A 
ATOM      8  C6  PXY d   1       3.454   5.633   0.755  0.00  0.00     0.003 A 
ENDROOT
TORSDOF 0
ENDMDL
