MODEL 1
REMARK minimizedAffinity 8.43084335
REMARK minimizedRMSD -1
REMARK  0 active torsions:
REMARK  status: ('A' for Active; 'I' for Inactive)
ROOT
ATOM      1  C4' PXY d   1       3.684   4.503  -1.947  0.00  0.00     0.077 C 
ATOM      2  C1' PXY d   1       5.540   6.000   3.319  0.00  0.00     0.077 C 
ATOM      3  C1  PXY d   1       5.041   5.608   1.942  0.00  0.00    -0.082 A 
ATOM      4  C2  PXY d   1       5.816   4.892   1.144  0.00  0.00     0.003 A 
ATOM      5  C3  PXY d   1       5.394   4.557  -0.116  0.00  0.00     0.003 A 
ATOM      6  C4  PXY d   1       4.143   4.913  -0.545  0.00  0.00    -0.082 A 
ATOM      7  C5  PXY d   1       3.341   5.634   0.267  0.00  0.00     0.003 A 
ATOM      8  C6  PXY d   1       3.805   6.000   1.527  0.00  0.00     0.003 A 
ENDROOT
TORSDOF 0
ENDMDL
