MODEL 1
REMARK minimizedAffinity -6.02716637
REMARK minimizedRMSD -1
REMARK  0 active torsions:
REMARK  status: ('A' for Active; 'I' for Inactive)
ROOT
ATOM      1  C1  DEN d   1       0.035   0.628  -0.267  0.00  0.00     0.130 A 
ATOM      2  C2  DEN d   1      -0.487  -0.344   0.688  0.00  0.00    -0.031 A 
ATOM      3  C3  DEN d   1       0.026  -1.677   0.311  0.00  0.00     0.027 A 
ATOM      4  C4  DEN d   1       1.575  -2.323  -1.647  0.00  0.00     0.027 A 
ATOM      5  C5  DEN d   1       2.269  -1.843  -2.736  0.00  0.00    -0.003 A 
ATOM      6  C6  DEN d   1       2.239  -0.521  -3.095  0.00  0.00     0.001 A 
ATOM      7  C7  DEN d   1       1.537   0.374  -2.332  0.00  0.00     0.017 A 
ATOM      8  C8  DEN d   1       0.829  -0.104  -1.237  0.00  0.00    -0.094 A 
ATOM      9  C9  DEN d   1       0.882  -1.442  -0.883  0.00  0.00    -0.072 A 
ENDROOT
TORSDOF 0
ENDMDL
