MODEL 1
REMARK minimizedAffinity -3.85191369
REMARK minimizedRMSD -1
REMARK  0 active torsions:
REMARK  status: ('A' for Active; 'I' for Inactive)
ROOT
ATOM      1  C1  DEN d   1      -0.354  -0.890   0.297  0.00  0.00     0.130 A 
ATOM      2  C2  DEN d   1      -0.396   0.363   1.046  0.00  0.00    -0.031 A 
ATOM      3  C3  DEN d   1       0.535   1.312   0.401  0.00  0.00     0.027 A 
ATOM      4  C4  DEN d   1       2.025   0.964  -1.675  0.00  0.00     0.027 A 
ATOM      5  C5  DEN d   1       2.411   0.062  -2.642  0.00  0.00    -0.003 A 
ATOM      6  C6  DEN d   1       1.932  -1.221  -2.676  0.00  0.00     0.001 A 
ATOM      7  C7  DEN d   1       1.004  -1.624  -1.752  0.00  0.00     0.017 A 
ATOM      8  C8  DEN d   1       0.616  -0.722  -0.770  0.00  0.00    -0.094 A 
ATOM      9  C9  DEN d   1       1.103   0.574  -0.759  0.00  0.00    -0.072 A 
ENDROOT
TORSDOF 0
ENDMDL
