MODEL 1
REMARK minimizedAffinity -4.89758396
REMARK minimizedRMSD -1
REMARK  0 active torsions:
REMARK  status: ('A' for Active; 'I' for Inactive)
ROOT
ATOM      1  C1  DEN d   1      -0.385  -1.069   0.488  0.00  0.00     0.130 A 
ATOM      2  C2  DEN d   1      -0.587   0.367   0.656  0.00  0.00    -0.031 A 
ATOM      3  C3  DEN d   1       0.225   1.065  -0.361  0.00  0.00     0.027 A 
ATOM      4  C4  DEN d   1       1.762   0.066  -2.175  0.00  0.00     0.027 A 
ATOM      5  C5  DEN d   1       2.263  -1.104  -2.702  0.00  0.00    -0.003 A 
ATOM      6  C6  DEN d   1       1.946  -2.332  -2.186  0.00  0.00     0.001 A 
ATOM      7  C7  DEN d   1       1.069  -2.422  -1.138  0.00  0.00     0.017 A 
ATOM      8  C8  DEN d   1       0.565  -1.246  -0.596  0.00  0.00    -0.094 A 
ATOM      9  C9  DEN d   1       0.888  -0.015  -1.140  0.00  0.00    -0.072 A 
ENDROOT
TORSDOF 0
ENDMDL
