MODEL 1
REMARK minimizedAffinity -5.45588589
REMARK minimizedRMSD -1
REMARK  0 active torsions:
REMARK  status: ('A' for Active; 'I' for Inactive)
ROOT
ATOM      1  C1  DEN d   1      -1.035   1.732  -1.410  0.00  0.00     0.130 A 
ATOM      2  C2  DEN d   1       0.203   1.017  -1.708  0.00  0.00    -0.031 A 
ATOM      3  C3  DEN d   1       0.477   0.092  -0.590  0.00  0.00     0.027 A 
ATOM      4  C4  DEN d   1      -0.892  -0.305   1.559  0.00  0.00     0.027 A 
ATOM      5  C5  DEN d   1      -2.013   0.076   2.263  0.00  0.00    -0.003 A 
ATOM      6  C6  DEN d   1      -2.862   1.052   1.811  0.00  0.00     0.001 A 
ATOM      7  C7  DEN d   1      -2.627   1.649   0.600  0.00  0.00     0.017 A 
ATOM      8  C8  DEN d   1      -1.495   1.275  -0.111  0.00  0.00    -0.094 A 
ATOM      9  C9  DEN d   1      -0.656   0.278   0.357  0.00  0.00    -0.072 A 
ENDROOT
TORSDOF 0
ENDMDL
