MODEL 1
REMARK minimizedAffinity 6.69907808
REMARK minimizedRMSD -1
REMARK  0 active torsions:
REMARK  status: ('A' for Active; 'I' for Inactive)
ROOT
ATOM      1  C1  DEN d   1      -2.847   1.098   3.618  0.00  0.00     0.130 A 
ATOM      2  C2  DEN d   1      -3.623   1.293   4.840  0.00  0.00    -0.031 A 
ATOM      3  C3  DEN d   1      -2.746   0.994   5.990  0.00  0.00     0.027 A 
ATOM      4  C4  DEN d   1      -0.274   0.257   5.998  0.00  0.00     0.027 A 
ATOM      5  C5  DEN d   1       0.807  -0.054   5.203  0.00  0.00    -0.003 A 
ATOM      6  C6  DEN d   1       0.736  -0.036   3.835  0.00  0.00     0.001 A 
ATOM      7  C7  DEN d   1      -0.427   0.344   3.220  0.00  0.00     0.017 A 
ATOM      8  C8  DEN d   1      -1.524   0.652   4.015  0.00  0.00    -0.094 A 
ATOM      9  C9  DEN d   1      -1.429   0.640   5.396  0.00  0.00    -0.072 A 
ENDROOT
TORSDOF 0
ENDMDL
