MODEL 1
REMARK minimizedAffinity -4.71273851
REMARK minimizedRMSD -1
REMARK  0 active torsions:
REMARK  status: ('A' for Active; 'I' for Inactive)
ROOT
ATOM      1  C1  DEN d   1       1.020  -2.152  -1.162  0.00  0.00     0.130 A 
ATOM      2  C2  DEN d   1       1.768  -2.246  -2.413  0.00  0.00    -0.031 A 
ATOM      3  C3  DEN d   1       2.144  -0.878  -2.824  0.00  0.00     0.027 A 
ATOM      4  C4  DEN d   1       1.648   1.363  -1.648  0.00  0.00     0.027 A 
ATOM      5  C5  DEN d   1       1.034   1.950  -0.564  0.00  0.00    -0.003 A 
ATOM      6  C6  DEN d   1       0.349   1.221   0.371  0.00  0.00     0.001 A 
ATOM      7  C7  DEN d   1       0.300  -0.144   0.264  0.00  0.00     0.017 A 
ATOM      8  C8  DEN d   1       0.910  -0.743  -0.831  0.00  0.00    -0.094 A 
ATOM      9  C9  DEN d   1       1.608   0.011  -1.759  0.00  0.00    -0.072 A 
ENDROOT
TORSDOF 0
ENDMDL
