MODEL 1
REMARK minimizedAffinity -5.91009855
REMARK minimizedRMSD -1
REMARK  0 active torsions:
REMARK  status: ('A' for Active; 'I' for Inactive)
ROOT
ATOM      1  C1  DEN d   1       0.703  -2.230   0.084  0.00  0.00     0.130 A 
ATOM      2  C2  DEN d   1      -0.110  -1.494   1.048  0.00  0.00    -0.031 A 
ATOM      3  C3  DEN d   1      -0.267  -0.112   0.551  0.00  0.00     0.027 A 
ATOM      4  C4  DEN d   1       0.660   0.951  -1.608  0.00  0.00     0.027 A 
ATOM      5  C5  DEN d   1       1.417   0.723  -2.737  0.00  0.00    -0.003 A 
ATOM      6  C6  DEN d   1       2.012  -0.486  -2.985  0.00  0.00     0.001 A 
ATOM      7  C7  DEN d   1       1.823  -1.527  -2.115  0.00  0.00     0.017 A 
ATOM      8  C8  DEN d   1       1.067  -1.302  -0.971  0.00  0.00    -0.094 A 
ATOM      9  C9  DEN d   1       0.464  -0.077  -0.744  0.00  0.00    -0.072 A 
ENDROOT
TORSDOF 0
ENDMDL
