MODEL 1
REMARK minimizedAffinity -2.04836488
REMARK minimizedRMSD -1
REMARK  0 active torsions:
REMARK  status: ('A' for Active; 'I' for Inactive)
ROOT
ATOM      1  C1  DEN d   1      -1.728   0.327  -0.021  0.00  0.00     0.130 A 
ATOM      2  C2  DEN d   1      -1.367  -0.177   1.302  0.00  0.00    -0.031 A 
ATOM      3  C3  DEN d   1       0.072  -0.505   1.289  0.00  0.00     0.027 A 
ATOM      4  C4  DEN d   1       1.771  -0.278  -0.639  0.00  0.00     0.027 A 
ATOM      5  C5  DEN d   1       1.931   0.092  -1.956  0.00  0.00    -0.003 A 
ATOM      6  C6  DEN d   1       0.885   0.531  -2.724  0.00  0.00     0.001 A 
ATOM      7  C7  DEN d   1      -0.360   0.653  -2.167  0.00  0.00     0.017 A 
ATOM      8  C8  DEN d   1      -0.532   0.275  -0.842  0.00  0.00    -0.094 A 
ATOM      9  C9  DEN d   1       0.541  -0.155  -0.079  0.00  0.00    -0.072 A 
ENDROOT
TORSDOF 0
ENDMDL
