MODEL 1
REMARK minimizedAffinity -5.95768881
REMARK minimizedRMSD -1
REMARK  0 active torsions:
REMARK  status: ('A' for Active; 'I' for Inactive)
ROOT
ATOM      1  C1  DEN d   1      -1.358   1.203  -1.093  0.00  0.00     0.130 A 
ATOM      2  C2  DEN d   1       0.050   0.823  -1.022  0.00  0.00    -0.031 A 
ATOM      3  C3  DEN d   1       0.295   0.221   0.304  0.00  0.00     0.027 A 
ATOM      4  C4  DEN d   1      -1.363  -0.162   2.242  0.00  0.00     0.027 A 
ATOM      5  C5  DEN d   1      -2.667   0.007   2.655  0.00  0.00    -0.003 A 
ATOM      6  C6  DEN d   1      -3.609   0.613   1.866  0.00  0.00     0.001 A 
ATOM      7  C7  DEN d   1      -3.273   1.030   0.606  0.00  0.00     0.017 A 
ATOM      8  C8  DEN d   1      -1.959   0.870   0.186  0.00  0.00    -0.094 A 
ATOM      9  C9  DEN d   1      -1.024   0.245   0.993  0.00  0.00    -0.072 A 
ENDROOT
TORSDOF 0
ENDMDL
