MODEL 1
REMARK minimizedAffinity -5.51686859
REMARK minimizedRMSD -1
REMARK  0 active torsions:
REMARK  status: ('A' for Active; 'I' for Inactive)
ROOT
ATOM      1  C1  DEN d   1      -0.516   1.170  -1.326  0.00  0.00     0.130 A 
ATOM      2  C2  DEN d   1       0.861   0.804  -1.646  0.00  0.00    -0.031 A 
ATOM      3  C3  DEN d   1       1.362  -0.074  -0.571  0.00  0.00     0.027 A 
ATOM      4  C4  DEN d   1       0.145  -0.903   1.547  0.00  0.00     0.027 A 
ATOM      5  C5  DEN d   1      -1.033  -0.849   2.258  0.00  0.00    -0.003 A 
ATOM      6  C6  DEN d   1      -2.101  -0.097   1.846  0.00  0.00     0.001 A 
ATOM      7  C7  DEN d   1      -2.028   0.596   0.666  0.00  0.00     0.017 A 
ATOM      8  C8  DEN d   1      -0.841   0.552  -0.053  0.00  0.00    -0.094 A 
ATOM      9  C9  DEN d   1       0.224  -0.223   0.375  0.00  0.00    -0.072 A 
ENDROOT
TORSDOF 0
ENDMDL
