MODEL 1
REMARK minimizedAffinity 0.665379703
REMARK minimizedRMSD -1
REMARK  0 active torsions:
REMARK  status: ('A' for Active; 'I' for Inactive)
ROOT
ATOM      1  C1  DEN d   1       0.485  -2.005  -0.376  0.00  0.00     0.130 A 
ATOM      2  C2  DEN d   1      -0.365  -1.763   0.786  0.00  0.00    -0.031 A 
ATOM      3  C3  DEN d   1      -0.254  -0.335   1.145  0.00  0.00     0.027 A 
ATOM      4  C4  DEN d   1       1.141   1.517   0.015  0.00  0.00     0.027 A 
ATOM      5  C5  DEN d   1       2.031   1.791  -1.000  0.00  0.00    -0.003 A 
ATOM      6  C6  DEN d   1       2.490   0.820  -1.850  0.00  0.00     0.001 A 
ATOM      7  C7  DEN d   1       2.026  -0.463  -1.729  0.00  0.00     0.017 A 
ATOM      8  C8  DEN d   1       1.135  -0.748  -0.704  0.00  0.00    -0.094 A 
ATOM      9  C9  DEN d   1       0.673   0.249   0.138  0.00  0.00    -0.072 A 
ENDROOT
TORSDOF 0
ENDMDL
