MODEL 1
REMARK minimizedAffinity -4.93650389
REMARK minimizedRMSD -1
REMARK  0 active torsions:
REMARK  status: ('A' for Active; 'I' for Inactive)
ROOT
ATOM      1  C1  DEN d   1       0.396   0.892   1.933  0.00  0.00     0.130 A 
ATOM      2  C2  DEN d   1       0.595   2.260   1.461  0.00  0.00    -0.031 A 
ATOM      3  C3  DEN d   1       0.850   2.209   0.007  0.00  0.00     0.027 A 
ATOM      4  C4  DEN d   1       0.952   0.156  -1.551  0.00  0.00     0.027 A 
ATOM      5  C5  DEN d   1       0.858  -1.217  -1.607  0.00  0.00    -0.003 A 
ATOM      6  C6  DEN d   1       0.640  -1.980  -0.490  0.00  0.00     0.001 A 
ATOM      7  C7  DEN d   1       0.462  -1.370   0.724  0.00  0.00     0.017 A 
ATOM      8  C8  DEN d   1       0.563   0.013   0.789  0.00  0.00    -0.094 A 
ATOM      9  C9  DEN d   1       0.772   0.767  -0.353  0.00  0.00    -0.072 A 
ENDROOT
TORSDOF 0
ENDMDL
