MODEL 1
REMARK minimizedAffinity -2.60454059
REMARK minimizedRMSD -1
REMARK  0 active torsions:
REMARK  status: ('A' for Active; 'I' for Inactive)
ROOT
ATOM      1  C1  DEN d   1       2.176  -0.160  -1.840  0.00  0.00     0.130 A 
ATOM      2  C2  DEN d   1       2.180   1.297  -1.945  0.00  0.00    -0.031 A 
ATOM      3  C3  DEN d   1       1.185   1.826  -0.991  0.00  0.00     0.027 A 
ATOM      4  C4  DEN d   1      -0.350   0.540   0.634  0.00  0.00     0.027 A 
ATOM      5  C5  DEN d   1      -0.720  -0.711   1.075  0.00  0.00    -0.003 A 
ATOM      6  C6  DEN d   1      -0.180  -1.858   0.556  0.00  0.00     0.001 A 
ATOM      7  C7  DEN d   1       0.793  -1.776  -0.404  0.00  0.00     0.017 A 
ATOM      8  C8  DEN d   1       1.167  -0.518  -0.859  0.00  0.00    -0.094 A 
ATOM      9  C9  DEN d   1       0.618   0.630  -0.313  0.00  0.00    -0.072 A 
ENDROOT
TORSDOF 0
ENDMDL
