MODEL 1
REMARK minimizedAffinity -5.59433126
REMARK minimizedRMSD -1
REMARK  0 active torsions:
REMARK  status: ('A' for Active; 'I' for Inactive)
ROOT
ATOM      1  C1  DEN d   1      -3.310   0.823  -0.717  0.00  0.00     0.130 A 
ATOM      2  C2  DEN d   1      -4.114   0.523   0.465  0.00  0.00    -0.031 A 
ATOM      3  C3  DEN d   1      -3.196   0.137   1.555  0.00  0.00     0.027 A 
ATOM      4  C4  DEN d   1      -0.622  -0.020   1.530  0.00  0.00     0.027 A 
ATOM      5  C5  DEN d   1       0.504   0.127   0.750  0.00  0.00    -0.003 A 
ATOM      6  C6  DEN d   1       0.436   0.481  -0.571  0.00  0.00     0.001 A 
ATOM      7  C7  DEN d   1      -0.781   0.743  -1.142  0.00  0.00     0.017 A 
ATOM      8  C8  DEN d   1      -1.922   0.590  -0.364  0.00  0.00    -0.094 A 
ATOM      9  C9  DEN d   1      -1.831   0.244   0.973  0.00  0.00    -0.072 A 
ENDROOT
TORSDOF 0
ENDMDL
