MODEL 1
REMARK minimizedAffinity -4.59279919
REMARK minimizedRMSD -1
REMARK  0 active torsions:
REMARK  status: ('A' for Active; 'I' for Inactive)
ROOT
ATOM      1  C1  DEN d   1      -0.491   1.338   0.059  0.00  0.00     0.130 A 
ATOM      2  C2  DEN d   1      -1.070   0.203   0.774  0.00  0.00    -0.031 A 
ATOM      3  C3  DEN d   1      -0.403  -1.025   0.298  0.00  0.00     0.027 A 
ATOM      4  C4  DEN d   1       1.463  -1.279  -1.464  0.00  0.00     0.027 A 
ATOM      5  C5  DEN d   1       2.269  -0.600  -2.351  0.00  0.00    -0.003 A 
ATOM      6  C6  DEN d   1       2.189   0.756  -2.521  0.00  0.00     0.001 A 
ATOM      7  C7  DEN d   1       1.313   1.484  -1.759  0.00  0.00     0.017 A 
ATOM      8  C8  DEN d   1       0.492   0.807  -0.867  0.00  0.00    -0.094 A 
ATOM      9  C9  DEN d   1       0.598  -0.564  -0.702  0.00  0.00    -0.072 A 
ENDROOT
TORSDOF 0
ENDMDL
