MODEL 1
REMARK minimizedAffinity 0.964817762
REMARK minimizedRMSD -1
REMARK  0 active torsions:
REMARK  status: ('A' for Active; 'I' for Inactive)
ROOT
ATOM      1  C2' OXE d   1       3.575  -1.391   5.252  0.00  0.00     0.078 C 
ATOM      2  C1' OXE d   1       1.649  -3.310   5.952  0.00  0.00     0.078 C 
ATOM      3  C1  OXE d   1       1.348  -2.406   4.783  0.00  0.00    -0.078 A 
ATOM      4  C2  OXE d   1       2.275  -1.439   4.477  0.00  0.00    -0.078 A 
ATOM      5  C3  OXE d   1       2.073  -0.614   3.374  0.00  0.00     0.003 A 
ATOM      6  C4  OXE d   1       0.864  -0.658   2.669  0.00  0.00    -0.002 A 
ATOM      7  C5  OXE d   1      -0.111  -1.609   2.989  0.00  0.00    -0.002 A 
ATOM      8  C6  OXE d   1       0.133  -2.516   4.014  0.00  0.00     0.003 A 
ENDROOT
TORSDOF 0
ENDMDL
