MODEL 1
REMARK minimizedAffinity 8.03639984
REMARK minimizedRMSD -1
REMARK  0 active torsions:
REMARK  status: ('A' for Active; 'I' for Inactive)
ROOT
ATOM      1  C2' OXE d   1      -2.805   1.151  -0.026  0.00  0.00     0.078 C 
ATOM      2  C1' OXE d   1      -0.772   2.677   1.165  0.00  0.00     0.078 C 
ATOM      3  C1  OXE d   1      -0.725   1.180   1.345  0.00  0.00    -0.078 A 
ATOM      4  C2  OXE d   1      -1.750   0.445   0.799  0.00  0.00    -0.078 A 
ATOM      5  C3  OXE d   1      -1.727  -0.944   0.889  0.00  0.00     0.003 A 
ATOM      6  C4  OXE d   1      -0.753  -1.587   1.662  0.00  0.00    -0.002 A 
ATOM      7  C5  OXE d   1       0.277  -0.855   2.261  0.00  0.00    -0.002 A 
ATOM      8  C6  OXE d   1       0.329   0.523   2.077  0.00  0.00     0.003 A 
ENDROOT
TORSDOF 0
ENDMDL
