MODEL 1
REMARK minimizedAffinity 8.27238655
REMARK minimizedRMSD -1
REMARK  0 active torsions:
REMARK  status: ('A' for Active; 'I' for Inactive)
ROOT
ATOM      1  C2' OXE d   1      -1.359   0.820   0.976  0.00  0.00     0.078 C 
ATOM      2  C1' OXE d   1      -2.125  -1.581   2.212  0.00  0.00     0.078 C 
ATOM      3  C1  OXE d   1      -0.671  -1.187   2.282  0.00  0.00    -0.078 A 
ATOM      4  C2  OXE d   1      -0.297  -0.034   1.635  0.00  0.00    -0.078 A 
ATOM      5  C3  OXE d   1       1.022   0.405   1.714  0.00  0.00     0.003 A 
ATOM      6  C4  OXE d   1       2.000  -0.396   2.317  0.00  0.00    -0.002 A 
ATOM      7  C5  OXE d   1       1.647  -1.593   2.948  0.00  0.00    -0.002 A 
ATOM      8  C6  OXE d   1       0.312  -1.981   2.976  0.00  0.00     0.003 A 
ENDROOT
TORSDOF 0
ENDMDL
