MODEL 1
REMARK minimizedAffinity 3.18812132
REMARK minimizedRMSD -1
REMARK  0 active torsions:
REMARK  status: ('A' for Active; 'I' for Inactive)
ROOT
ATOM      1  C2' OXE d   1       2.131  -1.266   5.521  0.00  0.00     0.078 C 
ATOM      2  C1' OXE d   1       0.707   1.110   5.973  0.00  0.00     0.078 C 
ATOM      3  C1  OXE d   1       0.631   0.496   4.598  0.00  0.00    -0.078 A 
ATOM      4  C2  OXE d   1       1.369  -0.642   4.372  0.00  0.00    -0.078 A 
ATOM      5  C3  OXE d   1       1.291  -1.279   3.137  0.00  0.00     0.003 A 
ATOM      6  C4  OXE d   1       0.592  -0.690   2.077  0.00  0.00    -0.002 A 
ATOM      7  C5  OXE d   1      -0.134   0.490   2.275  0.00  0.00    -0.002 A 
ATOM      8  C6  OXE d   1      -0.159   1.071   3.538  0.00  0.00     0.003 A 
ENDROOT
TORSDOF 0
ENDMDL
