MODEL 1
REMARK minimizedAffinity 1.38212788
REMARK minimizedRMSD -1
REMARK  0 active torsions:
REMARK  status: ('A' for Active; 'I' for Inactive)
ROOT
ATOM      1  C2' OXE d   1       0.664  -2.161   4.189  0.00  0.00     0.078 C 
ATOM      2  C1' OXE d   1      -1.897  -1.393   3.333  0.00  0.00     0.078 C 
ATOM      3  C1  OXE d   1      -0.709  -0.778   2.637  0.00  0.00    -0.078 A 
ATOM      4  C2  OXE d   1       0.541  -1.124   3.093  0.00  0.00    -0.078 A 
ATOM      5  C3  OXE d   1       1.671  -0.629   2.450  0.00  0.00     0.003 A 
ATOM      6  C4  OXE d   1       1.548   0.337   1.444  0.00  0.00    -0.002 A 
ATOM      7  C5  OXE d   1       0.285   0.734   0.991  0.00  0.00    -0.002 A 
ATOM      8  C6  OXE d   1      -0.850   0.155   1.547  0.00  0.00     0.003 A 
ENDROOT
TORSDOF 0
ENDMDL
