MODEL 1
REMARK minimizedAffinity 7.81338072
REMARK minimizedRMSD -1
REMARK  0 active torsions:
REMARK  status: ('A' for Active; 'I' for Inactive)
ROOT
ATOM      1  C2' OXE d   1       0.840  -1.253   4.068  0.00  0.00     0.078 C 
ATOM      2  C1' OXE d   1       2.260  -0.476   1.774  0.00  0.00     0.078 C 
ATOM      3  C1  OXE d   1       0.755  -0.383   1.735  0.00  0.00    -0.078 A 
ATOM      4  C2  OXE d   1       0.066  -0.809   2.845  0.00  0.00    -0.078 A 
ATOM      5  C3  OXE d   1      -1.321  -0.694   2.882  0.00  0.00     0.003 A 
ATOM      6  C4  OXE d   1      -2.029  -0.291   1.744  0.00  0.00    -0.002 A 
ATOM      7  C5  OXE d   1      -1.349   0.110   0.589  0.00  0.00    -0.002 A 
ATOM      8  C6  OXE d   1       0.041   0.110   0.583  0.00  0.00     0.003 A 
ENDROOT
TORSDOF 0
ENDMDL
