MODEL 1
REMARK minimizedAffinity 5.42333126
REMARK minimizedRMSD -1
REMARK  0 active torsions:
REMARK  status: ('A' for Active; 'I' for Inactive)
ROOT
ATOM      1  C2' OXE d   1      -0.329  -0.560   2.395  0.00  0.00     0.078 C 
ATOM      2  C1' OXE d   1      -0.559   2.058   1.406  0.00  0.00     0.078 C 
ATOM      3  C1  OXE d   1      -1.415   0.989   0.774  0.00  0.00    -0.078 A 
ATOM      4  C2  OXE d   1      -1.262  -0.297   1.233  0.00  0.00    -0.078 A 
ATOM      5  C3  OXE d   1      -2.067  -1.312   0.722  0.00  0.00     0.003 A 
ATOM      6  C4  OXE d   1      -2.921  -1.062  -0.360  0.00  0.00    -0.002 A 
ATOM      7  C5  OXE d   1      -3.062   0.233  -0.868  0.00  0.00    -0.002 A 
ATOM      8  C6  OXE d   1      -2.350   1.276  -0.286  0.00  0.00     0.003 A 
ENDROOT
TORSDOF 0
ENDMDL
