MODEL 1
REMARK minimizedAffinity 0.553069472
REMARK minimizedRMSD -1
REMARK  0 active torsions:
REMARK  status: ('A' for Active; 'I' for Inactive)
ROOT
ATOM      1  C2' OXE d   1       1.329  -1.950   4.157  0.00  0.00     0.078 C 
ATOM      2  C1' OXE d   1       2.644  -0.346   2.266  0.00  0.00     0.078 C 
ATOM      3  C1  OXE d   1       1.136  -0.316   2.288  0.00  0.00    -0.078 A 
ATOM      4  C2  OXE d   1       0.500  -1.139   3.185  0.00  0.00    -0.078 A 
ATOM      5  C3  OXE d   1      -0.888  -1.110   3.284  0.00  0.00     0.003 A 
ATOM      6  C4  OXE d   1      -1.648  -0.364   2.375  0.00  0.00    -0.002 A 
ATOM      7  C5  OXE d   1      -1.021   0.451   1.426  0.00  0.00    -0.002 A 
ATOM      8  C6  OXE d   1       0.368   0.519   1.398  0.00  0.00     0.003 A 
ENDROOT
TORSDOF 0
ENDMDL
