MODEL 1
REMARK minimizedAffinity 4.14121962
REMARK minimizedRMSD -1
REMARK  0 active torsions:
REMARK  status: ('A' for Active; 'I' for Inactive)
ROOT
ATOM      1  C2' OXE d   1      -1.879   0.777   0.719  0.00  0.00     0.078 C 
ATOM      2  C1' OXE d   1      -2.888  -1.101   2.545  0.00  0.00     0.078 C 
ATOM      3  C1  OXE d   1      -1.393  -0.913   2.484  0.00  0.00    -0.078 A 
ATOM      4  C2  OXE d   1      -0.905  -0.026   1.555  0.00  0.00    -0.078 A 
ATOM      5  C3  OXE d   1       0.463   0.226   1.494  0.00  0.00     0.003 A 
ATOM      6  C4  OXE d   1       1.357  -0.528   2.263  0.00  0.00    -0.002 A 
ATOM      7  C5  OXE d   1       0.884  -1.465   3.187  0.00  0.00    -0.002 A 
ATOM      8  C6  OXE d   1      -0.487  -1.639   3.340  0.00  0.00     0.003 A 
ENDROOT
TORSDOF 0
ENDMDL
