MODEL 1
REMARK minimizedAffinity -4.67470598
REMARK minimizedRMSD -1
REMARK  0 active torsions:
REMARK  status: ('A' for Active; 'I' for Inactive)
ROOT
ATOM      1  C   UNL d   1       0.690  -0.470  -0.381  0.00  0.00     0.078 C 
ATOM      2  C1  UNL d   1      -0.383   0.228   0.399  0.00  0.00    -0.077 A 
ATOM      3  C2  UNL d   1      -1.144   1.252  -0.178  0.00  0.00    -0.001 A 
ATOM      4  C3  UNL d   1      -2.134   1.900   0.563  0.00  0.00     0.003 A 
ATOM      5  C4  UNL d   1      -2.371   1.532   1.885  0.00  0.00    -0.005 A 
ATOM      6  C5  UNL d   1      -1.618   0.515   2.469  0.00  0.00     0.003 A 
ATOM      7  C6  UNL d   1      -0.628  -0.134   1.730  0.00  0.00    -0.001 A 
ENDROOT
TORSDOF 0
ENDMDL
