MODEL 1
REMARK minimizedAffinity -5.12957907
REMARK minimizedRMSD -1
REMARK  0 active torsions:
REMARK  status: ('A' for Active; 'I' for Inactive)
ROOT
ATOM      1  C   UNL d   1      -2.267   1.886   0.785  0.00  0.00     0.078 C 
ATOM      2  C1  UNL d   1      -1.135   1.278   0.013  0.00  0.00    -0.077 A 
ATOM      3  C2  UNL d   1      -0.728  -0.041   0.249  0.00  0.00    -0.001 A 
ATOM      4  C3  UNL d   1       0.334  -0.591  -0.471  0.00  0.00     0.003 A 
ATOM      5  C4  UNL d   1       0.998   0.171  -1.431  0.00  0.00    -0.005 A 
ATOM      6  C5  UNL d   1       0.601   1.485  -1.671  0.00  0.00     0.003 A 
ATOM      7  C6  UNL d   1      -0.460   2.036  -0.952  0.00  0.00    -0.001 A 
ENDROOT
TORSDOF 0
ENDMDL
