MODEL 1
REMARK minimizedAffinity -3.93234205
REMARK minimizedRMSD -1
REMARK  0 active torsions:
REMARK  status: ('A' for Active; 'I' for Inactive)
ROOT
ATOM      1  C   UNL d   1      -1.118  -0.434  -0.730  0.00  0.00     0.078 C 
ATOM      2  C1  UNL d   1      -1.273   0.464   0.460  0.00  0.00    -0.077 A 
ATOM      3  C2  UNL d   1      -0.320   0.474   1.486  0.00  0.00    -0.001 A 
ATOM      4  C3  UNL d   1      -0.483   1.308   2.593  0.00  0.00     0.003 A 
ATOM      5  C4  UNL d   1      -1.598   2.139   2.685  0.00  0.00    -0.005 A 
ATOM      6  C5  UNL d   1      -2.553   2.135   1.671  0.00  0.00     0.003 A 
ATOM      7  C6  UNL d   1      -2.392   1.301   0.563  0.00  0.00    -0.001 A 
ENDROOT
TORSDOF 0
ENDMDL
