MODEL 1
REMARK minimizedAffinity -1.52620983
REMARK minimizedRMSD -1
REMARK  0 active torsions:
REMARK  status: ('A' for Active; 'I' for Inactive)
ROOT
ATOM      1  C   UNL d   1      -1.918   2.048   2.196  0.00  0.00     0.078 C 
ATOM      2  C1  UNL d   1      -0.941   1.127   1.528  0.00  0.00    -0.077 A 
ATOM      3  C2  UNL d   1      -0.253   0.152   2.260  0.00  0.00    -0.001 A 
ATOM      4  C3  UNL d   1       0.661  -0.692   1.627  0.00  0.00     0.003 A 
ATOM      5  C4  UNL d   1       0.896  -0.569   0.259  0.00  0.00    -0.005 A 
ATOM      6  C5  UNL d   1       0.217   0.400  -0.477  0.00  0.00     0.003 A 
ATOM      7  C6  UNL d   1      -0.697   1.245   0.154  0.00  0.00    -0.001 A 
ENDROOT
TORSDOF 0
ENDMDL
