MODEL 1
REMARK minimizedAffinity -1.45219123
REMARK minimizedRMSD -1
REMARK  0 active torsions:
REMARK  status: ('A' for Active; 'I' for Inactive)
ROOT
ATOM      1  C   UNL d   1      -0.994   1.316   2.494  0.00  0.00     0.078 C 
ATOM      2  C1  UNL d   1      -0.611   0.567   1.253  0.00  0.00    -0.077 A 
ATOM      3  C2  UNL d   1       0.149   1.177   0.248  0.00  0.00    -0.001 A 
ATOM      4  C3  UNL d   1       0.489   0.471  -0.907  0.00  0.00     0.003 A 
ATOM      5  C4  UNL d   1       0.072  -0.849  -1.068  0.00  0.00    -0.005 A 
ATOM      6  C5  UNL d   1      -0.686  -1.464  -0.074  0.00  0.00     0.003 A 
ATOM      7  C6  UNL d   1      -1.027  -0.759   1.081  0.00  0.00    -0.001 A 
ENDROOT
TORSDOF 0
ENDMDL
