MODEL 1
REMARK minimizedAffinity -1.7382555
REMARK minimizedRMSD -1
REMARK  0 active torsions:
REMARK  status: ('A' for Active; 'I' for Inactive)
ROOT
ATOM      1  C   UNL d   1      -1.097   2.042   2.653  0.00  0.00     0.078 C 
ATOM      2  C1  UNL d   1      -0.593   1.026   1.672  0.00  0.00    -0.077 A 
ATOM      3  C2  UNL d   1      -0.189  -0.246   2.095  0.00  0.00    -0.001 A 
ATOM      4  C3  UNL d   1       0.287  -1.178   1.172  0.00  0.00     0.003 A 
ATOM      5  C4  UNL d   1       0.365  -0.848  -0.180  0.00  0.00    -0.005 A 
ATOM      6  C5  UNL d   1      -0.033   0.416  -0.610  0.00  0.00     0.003 A 
ATOM      7  C6  UNL d   1      -0.510   1.350   0.312  0.00  0.00    -0.001 A 
ENDROOT
TORSDOF 0
ENDMDL
