MODEL 1
REMARK minimizedAffinity -2.19803858
REMARK minimizedRMSD -1
REMARK  0 active torsions:
REMARK  status: ('A' for Active; 'I' for Inactive)
ROOT
ATOM      1  C   UNL d   1      -0.031  -3.815  -2.370  0.00  0.00     0.078 C 
ATOM      2  C1  UNL d   1       0.371  -2.603  -1.585  0.00  0.00    -0.077 A 
ATOM      3  C2  UNL d   1      -0.570  -1.627  -1.234  0.00  0.00    -0.001 A 
ATOM      4  C3  UNL d   1      -0.180  -0.498  -0.511  0.00  0.00     0.003 A 
ATOM      5  C4  UNL d   1       1.151  -0.335  -0.133  0.00  0.00    -0.005 A 
ATOM      6  C5  UNL d   1       2.095  -1.299  -0.480  0.00  0.00     0.003 A 
ATOM      7  C6  UNL d   1       1.707  -2.429  -1.203  0.00  0.00    -0.001 A 
ENDROOT
TORSDOF 0
ENDMDL
