MODEL 1
REMARK minimizedAffinity -2.98806381
REMARK minimizedRMSD -1
REMARK  0 active torsions:
REMARK  status: ('A' for Active; 'I' for Inactive)
ROOT
ATOM      1  C   UNL d   1       0.260  -0.653  -0.657  0.00  0.00     0.078 C 
ATOM      2  C1  UNL d   1       0.317  -1.986  -1.340  0.00  0.00    -0.077 A 
ATOM      3  C2  UNL d   1       1.070  -3.039  -0.806  0.00  0.00    -0.001 A 
ATOM      4  C3  UNL d   1       1.122  -4.272  -1.458  0.00  0.00     0.003 A 
ATOM      5  C4  UNL d   1       0.424  -4.464  -2.648  0.00  0.00    -0.005 A 
ATOM      6  C5  UNL d   1      -0.326  -3.422  -3.189  0.00  0.00     0.003 A 
ATOM      7  C6  UNL d   1      -0.379  -2.188  -2.538  0.00  0.00    -0.001 A 
ENDROOT
TORSDOF 0
ENDMDL
