MODEL 1
REMARK minimizedAffinity -1.80770361
REMARK minimizedRMSD -1
REMARK  0 active torsions:
REMARK  status: ('A' for Active; 'I' for Inactive)
ROOT
ATOM      1  C   UNL d   1      -5.256  -2.544   2.513  0.00  0.00     0.078 C 
ATOM      2  C1  UNL d   1      -4.257  -2.509   3.631  0.00  0.00    -0.077 A 
ATOM      3  C2  UNL d   1      -4.670  -2.373   4.963  0.00  0.00    -0.001 A 
ATOM      4  C3  UNL d   1      -3.728  -2.332   5.993  0.00  0.00     0.003 A 
ATOM      5  C4  UNL d   1      -2.369  -2.425   5.702  0.00  0.00    -0.005 A 
ATOM      6  C5  UNL d   1      -1.949  -2.558   4.380  0.00  0.00     0.003 A 
ATOM      7  C6  UNL d   1      -2.889  -2.599   3.349  0.00  0.00    -0.001 A 
ENDROOT
TORSDOF 0
ENDMDL
