MODEL 1
REMARK minimizedAffinity -0.818943083
REMARK minimizedRMSD -1
REMARK  0 active torsions:
REMARK  status: ('A' for Active; 'I' for Inactive)
ROOT
ATOM      1  C   UNL d   1      -5.135  -2.182   2.291  0.00  0.00     0.078 C 
ATOM      2  C1  UNL d   1      -4.128  -2.212   3.402  0.00  0.00    -0.077 A 
ATOM      3  C2  UNL d   1      -4.524  -2.074   4.738  0.00  0.00    -0.001 A 
ATOM      4  C3  UNL d   1      -3.575  -2.094   5.761  0.00  0.00     0.003 A 
ATOM      5  C4  UNL d   1      -2.224  -2.252   5.460  0.00  0.00    -0.005 A 
ATOM      6  C5  UNL d   1      -1.820  -2.388   4.133  0.00  0.00     0.003 A 
ATOM      7  C6  UNL d   1      -2.768  -2.368   3.108  0.00  0.00    -0.001 A 
ENDROOT
TORSDOF 0
ENDMDL
