MODEL 1
REMARK minimizedAffinity -0.468621492
REMARK minimizedRMSD -1
REMARK  0 active torsions:
REMARK  status: ('A' for Active; 'I' for Inactive)
ROOT
ATOM      1  C   UNL d   1       1.335  -0.370  -0.244  0.00  0.00     0.078 C 
ATOM      2  C1  UNL d   1       0.909  -1.499  -1.135  0.00  0.00    -0.077 A 
ATOM      3  C2  UNL d   1       1.136  -2.831  -0.769  0.00  0.00    -0.001 A 
ATOM      4  C3  UNL d   1       0.743  -3.872  -1.613  0.00  0.00     0.003 A 
ATOM      5  C4  UNL d   1       0.123  -3.590  -2.828  0.00  0.00    -0.005 A 
ATOM      6  C5  UNL d   1      -0.104  -2.268  -3.202  0.00  0.00     0.003 A 
ATOM      7  C6  UNL d   1       0.288  -1.226  -2.360  0.00  0.00    -0.001 A 
ENDROOT
TORSDOF 0
ENDMDL
