MODEL 1
REMARK minimizedAffinity -4.71239376
REMARK minimizedRMSD -1
REMARK  0 active torsions:
REMARK  status: ('A' for Active; 'I' for Inactive)
ROOT
ATOM      1  C   UNL d   1      -0.531   1.880   3.237  0.00  0.00     0.078 C 
ATOM      2  C1  UNL d   1      -0.486   0.877   2.123  0.00  0.00    -0.077 A 
ATOM      3  C2  UNL d   1      -0.922   1.211   0.835  0.00  0.00    -0.001 A 
ATOM      4  C3  UNL d   1      -0.883   0.264  -0.191  0.00  0.00     0.003 A 
ATOM      5  C4  UNL d   1      -0.411  -1.022   0.062  0.00  0.00    -0.005 A 
ATOM      6  C5  UNL d   1       0.022  -1.364   1.341  0.00  0.00     0.003 A 
ATOM      7  C6  UNL d   1      -0.015  -0.419   2.368  0.00  0.00    -0.001 A 
ENDROOT
TORSDOF 0
ENDMDL
