MODEL 1
REMARK minimizedAffinity -3.01754093
REMARK minimizedRMSD -1
REMARK  0 active torsions:
REMARK  status: ('A' for Active; 'I' for Inactive)
ROOT
ATOM      1  C   UNL d   1      -0.059  -1.072  -0.968  0.00  0.00     0.078 C 
ATOM      2  C1  UNL d   1      -0.358  -0.239   0.243  0.00  0.00    -0.077 A 
ATOM      3  C2  UNL d   1      -0.806   1.081   0.117  0.00  0.00    -0.001 A 
ATOM      4  C3  UNL d   1      -1.071   1.848   1.253  0.00  0.00     0.003 A 
ATOM      5  C4  UNL d   1      -0.890   1.303   2.523  0.00  0.00    -0.005 A 
ATOM      6  C5  UNL d   1      -0.443  -0.010   2.658  0.00  0.00     0.003 A 
ATOM      7  C6  UNL d   1      -0.177  -0.778   1.523  0.00  0.00    -0.001 A 
ENDROOT
TORSDOF 0
ENDMDL
