MODEL 1
REMARK minimizedAffinity -4.5420866
REMARK minimizedRMSD -1
REMARK  0 active torsions:
REMARK  status: ('A' for Active; 'I' for Inactive)
ROOT
ATOM      1  C   UNL d   1       0.124  -0.120  -0.374  0.00  0.00     0.078 C 
ATOM      2  C1  UNL d   1       0.184  -1.485  -0.993  0.00  0.00    -0.077 A 
ATOM      3  C2  UNL d   1      -0.902  -1.999  -1.712  0.00  0.00    -0.001 A 
ATOM      4  C3  UNL d   1      -0.837  -3.275  -2.275  0.00  0.00     0.003 A 
ATOM      5  C4  UNL d   1       0.313  -4.048  -2.123  0.00  0.00    -0.005 A 
ATOM      6  C5  UNL d   1       1.398  -3.546  -1.407  0.00  0.00     0.003 A 
ATOM      7  C6  UNL d   1       1.334  -2.271  -0.844  0.00  0.00    -0.001 A 
ENDROOT
TORSDOF 0
ENDMDL
