MODEL 1
REMARK minimizedAffinity -4.50395918
REMARK minimizedRMSD -1
REMARK  0 active torsions:
REMARK  status: ('A' for Active; 'I' for Inactive)
ROOT
ATOM      1  C   UNL d   1       0.636  -1.118  -1.127  0.00  0.00     0.078 C 
ATOM      2  C1  UNL d   1       0.055  -0.309  -0.006  0.00  0.00    -0.077 A 
ATOM      3  C2  UNL d   1       0.099  -0.770   1.315  0.00  0.00    -0.001 A 
ATOM      4  C3  UNL d   1      -0.455  -0.011   2.347  0.00  0.00     0.003 A 
ATOM      5  C4  UNL d   1      -1.059   1.213   2.068  0.00  0.00    -0.005 A 
ATOM      6  C5  UNL d   1      -1.109   1.680   0.756  0.00  0.00     0.003 A 
ATOM      7  C6  UNL d   1      -0.556   0.922  -0.277  0.00  0.00    -0.001 A 
ENDROOT
TORSDOF 0
ENDMDL
