MODEL 1
REMARK minimizedAffinity -4.41111851
REMARK minimizedRMSD -1
REMARK  0 active torsions:
REMARK  status: ('A' for Active; 'I' for Inactive)
ROOT
ATOM      1  C   UNL d   1       1.121  -1.102  -0.739  0.00  0.00     0.078 C 
ATOM      2  C1  UNL d   1       0.377  -0.195   0.195  0.00  0.00    -0.077 A 
ATOM      3  C2  UNL d   1       0.409  -0.401   1.579  0.00  0.00    -0.001 A 
ATOM      4  C3  UNL d   1      -0.297   0.446   2.435  0.00  0.00     0.003 A 
ATOM      5  C4  UNL d   1      -1.040   1.504   1.916  0.00  0.00    -0.005 A 
ATOM      6  C5  UNL d   1      -1.080   1.716   0.540  0.00  0.00     0.003 A 
ATOM      7  C6  UNL d   1      -0.375   0.870  -0.318  0.00  0.00    -0.001 A 
ENDROOT
TORSDOF 0
ENDMDL
