MODEL 1
REMARK minimizedAffinity 4.90877914
REMARK minimizedRMSD -1
REMARK  0 active torsions:
REMARK  status: ('A' for Active; 'I' for Inactive)
ROOT
ATOM      1  C   UNL d   1      -1.391   1.448   0.663  0.00  0.00     0.020 A 
ATOM      2  C1  UNL d   1      -0.681   2.194   1.603  0.00  0.00     0.020 A 
ATOM      3  C2  UNL d   1       0.250   1.568   2.434  0.00  0.00     0.034 A 
ATOM      4  C3  UNL d   1       0.475   0.191   2.326  0.00  0.00     0.017 A 
ATOM      5  C4  UNL d   1      -0.237  -0.558   1.382  0.00  0.00     0.017 A 
ATOM      6  C5  UNL d   1      -1.169   0.074   0.553  0.00  0.00     0.034 A 
ATOM      7 Cl   UNL d   1      -0.014  -2.261   1.190  0.00  0.00    -0.070 Cl
ATOM      8 Cl1  UNL d   1       1.643  -0.518   3.384  0.00  0.00    -0.070 Cl
ENDROOT
TORSDOF 0
ENDMDL
