MODEL 1
REMARK minimizedAffinity -1.51794243
REMARK minimizedRMSD -1
REMARK  0 active torsions:
REMARK  status: ('A' for Active; 'I' for Inactive)
ROOT
ATOM      1  C   UNL d   1      -1.081   2.877   1.693  0.00  0.00     0.020 A 
ATOM      2  C1  UNL d   1      -0.341   1.756   1.319  0.00  0.00     0.020 A 
ATOM      3  C2  UNL d   1      -0.757   0.482   1.714  0.00  0.00     0.034 A 
ATOM      4  C3  UNL d   1      -1.914   0.327   2.485  0.00  0.00     0.017 A 
ATOM      5  C4  UNL d   1      -2.656   1.454   2.860  0.00  0.00     0.017 A 
ATOM      6  C5  UNL d   1      -2.235   2.726   2.462  0.00  0.00     0.034 A 
ATOM      7 Cl   UNL d   1      -4.095   1.342   3.811  0.00  0.00    -0.070 Cl
ATOM      8 Cl1  UNL d   1      -2.369  -1.277   2.937  0.00  0.00    -0.070 Cl
ENDROOT
TORSDOF 0
ENDMDL
