MODEL 1
REMARK minimizedAffinity -1.84504151
REMARK minimizedRMSD -1
REMARK  0 active torsions:
REMARK  status: ('A' for Active; 'I' for Inactive)
ROOT
ATOM      1  C   UNL d   1      -0.328   2.012   1.495  0.00  0.00     0.020 A 
ATOM      2  C1  UNL d   1      -0.157   0.668   1.169  0.00  0.00     0.020 A 
ATOM      3  C2  UNL d   1      -1.055  -0.288   1.649  0.00  0.00     0.034 A 
ATOM      4  C3  UNL d   1      -2.128   0.100   2.460  0.00  0.00     0.017 A 
ATOM      5  C4  UNL d   1      -2.299   1.450   2.787  0.00  0.00     0.017 A 
ATOM      6  C5  UNL d   1      -1.397   2.402   2.303  0.00  0.00     0.034 A 
ATOM      7 Cl   UNL d   1      -3.599   2.005   3.782  0.00  0.00    -0.070 Cl
ATOM      8 Cl1  UNL d   1      -3.200  -1.134   3.019  0.00  0.00    -0.070 Cl
ENDROOT
TORSDOF 0
ENDMDL
