MODEL 1
REMARK minimizedAffinity -5.62423944
REMARK minimizedRMSD -1
REMARK  0 active torsions:
REMARK  status: ('A' for Active; 'I' for Inactive)
ROOT
ATOM      1  C   UNL d   1      -0.272   2.045   1.394  0.00  0.00     0.020 A 
ATOM      2  C1  UNL d   1       0.032   0.747   0.986  0.00  0.00     0.020 A 
ATOM      3  C2  UNL d   1      -0.790  -0.315   1.370  0.00  0.00     0.034 A 
ATOM      4  C3  UNL d   1      -1.919  -0.081   2.163  0.00  0.00     0.017 A 
ATOM      5  C4  UNL d   1      -2.222   1.223   2.572  0.00  0.00     0.017 A 
ATOM      6  C5  UNL d   1      -1.396   2.283   2.185  0.00  0.00     0.034 A 
ATOM      7 Cl   UNL d   1      -3.598   1.591   3.552  0.00  0.00    -0.070 Cl
ATOM      8 Cl1  UNL d   1      -2.891  -1.441   2.600  0.00  0.00    -0.070 Cl
ENDROOT
TORSDOF 0
ENDMDL
