MODEL 1
REMARK minimizedAffinity 0.181032285
REMARK minimizedRMSD -1
REMARK  0 active torsions:
REMARK  status: ('A' for Active; 'I' for Inactive)
ROOT
ATOM      1  C   UNL d   1       0.015   0.370   1.974  0.00  0.00     0.020 A 
ATOM      2  C1  UNL d   1       0.627   1.214   1.048  0.00  0.00     0.020 A 
ATOM      3  C2  UNL d   1       0.153   2.515   0.868  0.00  0.00     0.034 A 
ATOM      4  C3  UNL d   1      -0.937   2.976   1.616  0.00  0.00     0.017 A 
ATOM      5  C4  UNL d   1      -1.550   2.129   2.545  0.00  0.00     0.017 A 
ATOM      6  C5  UNL d   1      -1.071   0.827   2.721  0.00  0.00     0.034 A 
ATOM      7 Cl   UNL d   1      -2.899   2.627   3.504  0.00  0.00    -0.070 Cl
ATOM      8 Cl1  UNL d   1      -1.470   4.597   1.342  0.00  0.00    -0.070 Cl
ENDROOT
TORSDOF 0
ENDMDL
