MODEL 1
REMARK minimizedAffinity 5.87004852
REMARK minimizedRMSD -1
REMARK  0 active torsions:
REMARK  status: ('A' for Active; 'I' for Inactive)
ROOT
ATOM      1  C   UNL d   1       0.411   0.459   1.927  0.00  0.00     0.020 A 
ATOM      2  C1  UNL d   1       0.937   1.399   1.041  0.00  0.00     0.020 A 
ATOM      3  C2  UNL d   1       0.200   2.539   0.713  0.00  0.00     0.034 A 
ATOM      4  C3  UNL d   1      -1.068   2.742   1.271  0.00  0.00     0.017 A 
ATOM      5  C4  UNL d   1      -1.595   1.798   2.160  0.00  0.00     0.017 A 
ATOM      6  C5  UNL d   1      -0.852   0.658   2.485  0.00  0.00     0.034 A 
ATOM      7 Cl   UNL d   1      -3.152   1.979   2.888  0.00  0.00    -0.070 Cl
ATOM      8 Cl1  UNL d   1      -1.923   4.174   0.821  0.00  0.00    -0.070 Cl
ENDROOT
TORSDOF 0
ENDMDL
