MODEL 1
REMARK minimizedAffinity 2.19454622
REMARK minimizedRMSD -1
REMARK  0 active torsions:
REMARK  status: ('A' for Active; 'I' for Inactive)
ROOT
ATOM      1  C   UNL d   1      -1.348   2.548   1.522  0.00  0.00     0.020 A 
ATOM      2  C1  UNL d   1      -0.262   3.002   0.775  0.00  0.00     0.020 A 
ATOM      3  C2  UNL d   1       0.869   2.196   0.627  0.00  0.00     0.034 A 
ATOM      4  C3  UNL d   1       0.917   0.933   1.228  0.00  0.00     0.017 A 
ATOM      5  C4  UNL d   1      -0.174   0.478   1.977  0.00  0.00     0.017 A 
ATOM      6  C5  UNL d   1      -1.304   1.289   2.122  0.00  0.00     0.034 A 
ATOM      7 Cl   UNL d   1      -0.189  -1.069   2.748  0.00  0.00    -0.070 Cl
ATOM      8 Cl1  UNL d   1       2.347  -0.010   1.003  0.00  0.00    -0.070 Cl
ENDROOT
TORSDOF 0
ENDMDL
