MODEL 1
REMARK minimizedAffinity -1.12676585
REMARK minimizedRMSD -1
REMARK  0 active torsions:
REMARK  status: ('A' for Active; 'I' for Inactive)
ROOT
ATOM      1  C   UNL d   1       0.586  -0.271   1.499  0.00  0.00     0.020 A 
ATOM      2  C1  UNL d   1       0.641   1.076   1.143  0.00  0.00     0.020 A 
ATOM      3  C2  UNL d   1      -0.476   1.893   1.329  0.00  0.00     0.034 A 
ATOM      4  C3  UNL d   1      -1.652   1.364   1.872  0.00  0.00     0.017 A 
ATOM      5  C4  UNL d   1      -1.706   0.012   2.230  0.00  0.00     0.017 A 
ATOM      6  C5  UNL d   1      -0.585  -0.802   2.042  0.00  0.00     0.034 A 
ATOM      7 Cl   UNL d   1      -3.123  -0.712   2.906  0.00  0.00    -0.070 Cl
ATOM      8 Cl1  UNL d   1      -2.995   2.433   2.075  0.00  0.00    -0.070 Cl
ENDROOT
TORSDOF 0
ENDMDL
