MODEL 1
REMARK minimizedAffinity 0.960954726
REMARK minimizedRMSD -1
REMARK  0 active torsions:
REMARK  status: ('A' for Active; 'I' for Inactive)
ROOT
ATOM      1  C   UNL d   1      -2.172   0.713   1.587  0.00  0.00     0.020 A 
ATOM      2  C1  UNL d   1      -1.901  -0.360   2.436  0.00  0.00     0.020 A 
ATOM      3  C2  UNL d   1      -0.613  -0.540   2.944  0.00  0.00     0.034 A 
ATOM      4  C3  UNL d   1       0.409   0.354   2.605  0.00  0.00     0.017 A 
ATOM      5  C4  UNL d   1       0.136   1.430   1.753  0.00  0.00     0.017 A 
ATOM      6  C5  UNL d   1      -1.155   1.606   1.246  0.00  0.00     0.034 A 
ATOM      7 Cl   UNL d   1       1.346   2.574   1.288  0.00  0.00    -0.070 Cl
ATOM      8 Cl1  UNL d   1       1.978   0.071   3.271  0.00  0.00    -0.070 Cl
ENDROOT
TORSDOF 0
ENDMDL
