MODEL 1
REMARK minimizedAffinity 1.67876267
REMARK minimizedRMSD -1
REMARK  0 active torsions:
REMARK  status: ('A' for Active; 'I' for Inactive)
ROOT
ATOM      1  C   UNL d   1      -0.267   1.244   1.290  0.00  0.00     0.020 A 
ATOM      2  C1  UNL d   1      -1.555   0.712   1.245  0.00  0.00     0.020 A 
ATOM      3  C2  UNL d   1      -1.903  -0.346   2.087  0.00  0.00     0.034 A 
ATOM      4  C3  UNL d   1      -0.963  -0.875   2.978  0.00  0.00     0.017 A 
ATOM      5  C4  UNL d   1       0.330  -0.341   3.023  0.00  0.00     0.017 A 
ATOM      6  C5  UNL d   1       0.673   0.719   2.177  0.00  0.00     0.034 A 
ATOM      7 Cl   UNL d   1       1.545  -0.941   4.095  0.00  0.00    -0.070 Cl
ATOM      8 Cl1  UNL d   1      -1.463  -2.183   3.991  0.00  0.00    -0.070 Cl
ENDROOT
TORSDOF 0
ENDMDL
