MODEL 1
REMARK minimizedAffinity 2.92632699
REMARK minimizedRMSD -1
REMARK  0 active torsions:
REMARK  status: ('A' for Active; 'I' for Inactive)
ROOT
ATOM      1  C   UNL d   1      -4.655   2.554   5.585  0.00  0.00     0.020 A 
ATOM      2  C1  UNL d   1      -5.436   1.481   5.158  0.00  0.00     0.020 A 
ATOM      3  C2  UNL d   1      -4.924   0.570   4.232  0.00  0.00     0.034 A 
ATOM      4  C3  UNL d   1      -3.628   0.730   3.730  0.00  0.00     0.017 A 
ATOM      5  C4  UNL d   1      -2.845   1.808   4.159  0.00  0.00     0.017 A 
ATOM      6  C5  UNL d   1      -3.362   2.717   5.086  0.00  0.00     0.034 A 
ATOM      7 Cl   UNL d   1      -1.236   2.072   3.583  0.00  0.00    -0.070 Cl
ATOM      8 Cl1  UNL d   1      -3.059  -0.434   2.587  0.00  0.00    -0.070 Cl
ENDROOT
TORSDOF 0
ENDMDL
