MODEL 1
REMARK minimizedAffinity 0.206381172
REMARK minimizedRMSD -1
REMARK  0 active torsions:
REMARK  status: ('A' for Active; 'I' for Inactive)
ROOT
ATOM      1  C   UNL d   1      -0.415   3.138   1.437  0.00  0.00     0.020 A 
ATOM      2  C1  UNL d   1       0.261   2.057   0.871  0.00  0.00     0.020 A 
ATOM      3  C2  UNL d   1      -0.179   0.754   1.113  0.00  0.00     0.034 A 
ATOM      4  C3  UNL d   1      -1.299   0.528   1.922  0.00  0.00     0.017 A 
ATOM      5  C4  UNL d   1      -1.976   1.613   2.490  0.00  0.00     0.017 A 
ATOM      6  C5  UNL d   1      -1.531   2.916   2.245  0.00  0.00     0.034 A 
ATOM      7 Cl   UNL d   1      -3.365   1.414   3.499  0.00  0.00    -0.070 Cl
ATOM      8 Cl1  UNL d   1      -1.788  -1.109   2.178  0.00  0.00    -0.070 Cl
ENDROOT
TORSDOF 0
ENDMDL
