MODEL 1
REMARK minimizedAffinity 0.107810915
REMARK minimizedRMSD -1
REMARK  0 active torsions:
REMARK  status: ('A' for Active; 'I' for Inactive)
ROOT
ATOM      1  C   UNL d   1       0.203  -0.053   0.968  0.00  0.00     0.020 A 
ATOM      2  C1  UNL d   1       0.287   1.339   0.958  0.00  0.00     0.020 A 
ATOM      3  C2  UNL d   1      -0.691   2.101   1.600  0.00  0.00     0.034 A 
ATOM      4  C3  UNL d   1      -1.758   1.473   2.253  0.00  0.00     0.017 A 
ATOM      5  C4  UNL d   1      -1.841   0.076   2.262  0.00  0.00     0.017 A 
ATOM      6  C5  UNL d   1      -0.859  -0.683   1.618  0.00  0.00     0.034 A 
ATOM      7 Cl   UNL d   1      -3.127  -0.770   3.047  0.00  0.00    -0.070 Cl
ATOM      8 Cl1  UNL d   1      -2.931   2.479   3.026  0.00  0.00    -0.070 Cl
ENDROOT
TORSDOF 0
ENDMDL
