MODEL 1
REMARK minimizedAffinity -1.15779316
REMARK minimizedRMSD -1
REMARK  0 active torsions:
REMARK  status: ('A' for Active; 'I' for Inactive)
ROOT
ATOM      1  C   UNL d   1      -0.095   2.126   1.705  0.00  0.00     0.020 A 
ATOM      2  C1  UNL d   1       0.135   0.821   1.274  0.00  0.00     0.020 A 
ATOM      3  C2  UNL d   1      -0.748  -0.200   1.633  0.00  0.00     0.034 A 
ATOM      4  C3  UNL d   1      -1.866   0.084   2.426  0.00  0.00     0.017 A 
ATOM      5  C4  UNL d   1      -2.096   1.395   2.858  0.00  0.00     0.017 A 
ATOM      6  C5  UNL d   1      -1.209   2.413   2.496  0.00  0.00     0.034 A 
ATOM      7 Cl   UNL d   1      -3.454   1.822   3.839  0.00  0.00    -0.070 Cl
ATOM      8 Cl1  UNL d   1      -2.916  -1.226   2.832  0.00  0.00    -0.070 Cl
ENDROOT
TORSDOF 0
ENDMDL
