MODEL 1
REMARK minimizedAffinity -2.58688521
REMARK minimizedRMSD -1
REMARK  0 active torsions:
REMARK  status: ('A' for Active; 'I' for Inactive)
ROOT
ATOM      1  C   UNL d   1      -2.234   2.605   2.626  0.00  0.00     0.020 A 
ATOM      2  C1  UNL d   1      -3.023   1.592   3.169  0.00  0.00     0.020 A 
ATOM      3  C2  UNL d   1      -2.658   0.255   2.996  0.00  0.00     0.034 A 
ATOM      4  C3  UNL d   1      -1.502  -0.072   2.279  0.00  0.00     0.017 A 
ATOM      5  C4  UNL d   1      -0.710   0.946   1.735  0.00  0.00     0.017 A 
ATOM      6  C5  UNL d   1      -1.080   2.283   1.911  0.00  0.00     0.034 A 
ATOM      7 Cl   UNL d   1       0.731   0.620   0.838  0.00  0.00    -0.070 Cl
ATOM      8 Cl1  UNL d   1      -1.111  -1.746   2.105  0.00  0.00    -0.070 Cl
ENDROOT
TORSDOF 0
ENDMDL
