MODEL 1
REMARK minimizedAffinity -3.21004891
REMARK minimizedRMSD -1
REMARK  0 active torsions:
REMARK  status: ('A' for Active; 'I' for Inactive)
ROOT
ATOM      1  C   UNL d   1      -0.610  -1.042   1.369  0.00  0.00     0.020 A 
ATOM      2  C1  UNL d   1       0.336  -0.241   0.729  0.00  0.00     0.020 A 
ATOM      3  C2  UNL d   1       0.260   1.150   0.836  0.00  0.00     0.034 A 
ATOM      4  C3  UNL d   1      -0.763   1.743   1.584  0.00  0.00     0.017 A 
ATOM      5  C4  UNL d   1      -1.711   0.939   2.226  0.00  0.00     0.017 A 
ATOM      6  C5  UNL d   1      -1.631  -0.453   2.115  0.00  0.00     0.034 A 
ATOM      7 Cl   UNL d   1      -3.002   1.598   3.167  0.00  0.00    -0.070 Cl
ATOM      8 Cl1  UNL d   1      -0.796   3.469   1.673  0.00  0.00    -0.070 Cl
ENDROOT
TORSDOF 0
ENDMDL
