MODEL 1
REMARK minimizedAffinity 5.73176479
REMARK minimizedRMSD -1
REMARK  0 active torsions:
REMARK  status: ('A' for Active; 'I' for Inactive)
ROOT
ATOM      1  C   UNL d   1      -1.479   2.884   2.290  0.00  0.00     0.020 A 
ATOM      2  C1  UNL d   1      -0.947   1.671   1.856  0.00  0.00     0.020 A 
ATOM      3  C2  UNL d   1      -1.535   0.468   2.254  0.00  0.00     0.034 A 
ATOM      4  C3  UNL d   1      -2.658   0.476   3.089  0.00  0.00     0.017 A 
ATOM      5  C4  UNL d   1      -3.192   1.694   3.524  0.00  0.00     0.017 A 
ATOM      6  C5  UNL d   1      -2.599   2.896   3.123  0.00  0.00     0.034 A 
ATOM      7 Cl   UNL d   1      -4.576   1.785   4.556  0.00  0.00    -0.070 Cl
ATOM      8 Cl1  UNL d   1      -3.334  -1.049   3.541  0.00  0.00    -0.070 Cl
ENDROOT
TORSDOF 0
ENDMDL
