MODEL 1
REMARK minimizedAffinity 1.86673379
REMARK minimizedRMSD -1
REMARK  0 active torsions:
REMARK  status: ('A' for Active; 'I' for Inactive)
ROOT
ATOM      1  C   UNL d   1      -2.953  -5.101  -1.577  0.00  0.00     0.020 A 
ATOM      2  C1  UNL d   1      -3.293  -4.295  -0.491  0.00  0.00     0.020 A 
ATOM      3  C2  UNL d   1      -3.393  -2.911  -0.652  0.00  0.00     0.034 A 
ATOM      4  C3  UNL d   1      -3.152  -2.329  -1.902  0.00  0.00     0.017 A 
ATOM      5  C4  UNL d   1      -2.811  -3.139  -2.991  0.00  0.00     0.017 A 
ATOM      6  C5  UNL d   1      -2.713  -4.524  -2.824  0.00  0.00     0.034 A 
ATOM      7 Cl   UNL d   1      -2.500  -2.493  -4.564  0.00  0.00    -0.070 Cl
ATOM      8 Cl1  UNL d   1      -3.294  -0.612  -2.029  0.00  0.00    -0.070 Cl
ENDROOT
TORSDOF 0
ENDMDL
