MODEL 1
REMARK minimizedAffinity 1.82829702
REMARK minimizedRMSD -1
REMARK  0 active torsions:
REMARK  status: ('A' for Active; 'I' for Inactive)
ROOT
ATOM      1  C   UNL d   1      -0.478   3.164   1.484  0.00  0.00     0.020 A 
ATOM      2  C1  UNL d   1       0.129   2.012   0.984  0.00  0.00     0.020 A 
ATOM      3  C2  UNL d   1      -0.311   0.754   1.400  0.00  0.00     0.034 A 
ATOM      4  C3  UNL d   1      -1.361   0.644   2.319  0.00  0.00     0.017 A 
ATOM      5  C4  UNL d   1      -1.969   1.801   2.821  0.00  0.00     0.017 A 
ATOM      6  C5  UNL d   1      -1.524   3.058   2.401  0.00  0.00     0.034 A 
ATOM      7 Cl   UNL d   1      -3.270   1.745   3.958  0.00  0.00    -0.070 Cl
ATOM      8 Cl1  UNL d   1      -1.854  -0.943   2.790  0.00  0.00    -0.070 Cl
ENDROOT
TORSDOF 0
ENDMDL
