MODEL 1
REMARK minimizedAffinity 1.09155607
REMARK minimizedRMSD -1
REMARK  0 active torsions:
REMARK  status: ('A' for Active; 'I' for Inactive)
ROOT
ATOM      1  C   UNL d   1       0.940   0.626   0.554  0.00  0.00     0.172 C 
ATOM      2  N   UNL d   1       1.250  -0.578   1.289  0.00  0.00    -0.070 N 
ATOM      3  C1  UNL d   1       0.654  -1.798   1.112  0.00  0.00    -0.004 A 
ATOM      4  C2  UNL d   1       1.227  -2.681   2.001  0.00  0.00    -0.047 A 
ATOM      5  C3  UNL d   1       2.202  -1.967   2.738  0.00  0.00    -0.047 A 
ATOM      6  C4  UNL d   1       2.195  -0.668   2.277  0.00  0.00    -0.004 A 
ENDROOT
TORSDOF 0
ENDMDL
