MODEL 1
REMARK minimizedAffinity 0.387316257
REMARK minimizedRMSD -1
REMARK  0 active torsions:
REMARK  status: ('A' for Active; 'I' for Inactive)
ROOT
ATOM      1  C   UNL d   1      -2.997  -5.234  -2.395  0.00  0.00     0.172 C 
ATOM      2  N   UNL d   1      -1.871  -5.367  -3.289  0.00  0.00    -0.070 N 
ATOM      3  C1  UNL d   1      -0.609  -4.886  -3.061  0.00  0.00    -0.004 A 
ATOM      4  C2  UNL d   1       0.172  -5.218  -4.147  0.00  0.00    -0.047 A 
ATOM      5  C3  UNL d   1      -0.649  -5.922  -5.059  0.00  0.00    -0.047 A 
ATOM      6  C4  UNL d   1      -1.909  -6.000  -4.503  0.00  0.00    -0.004 A 
ENDROOT
TORSDOF 0
ENDMDL
