MODEL 1
REMARK minimizedAffinity -0.637870491
REMARK minimizedRMSD -1
REMARK  0 active torsions:
REMARK  status: ('A' for Active; 'I' for Inactive)
ROOT
ATOM      1  C   UNL d   1      -3.372  -1.256   0.521  0.00  0.00     0.172 C 
ATOM      2  N   UNL d   1      -4.384  -0.739  -0.370  0.00  0.00    -0.070 N 
ATOM      3  C1  UNL d   1      -5.116   0.401  -0.172  0.00  0.00    -0.004 A 
ATOM      4  C2  UNL d   1      -5.969   0.546  -1.244  0.00  0.00    -0.047 A 
ATOM      5  C3  UNL d   1      -5.743  -0.545  -2.116  0.00  0.00    -0.047 A 
ATOM      6  C4  UNL d   1      -4.757  -1.325  -1.551  0.00  0.00    -0.004 A 
ENDROOT
TORSDOF 0
ENDMDL
