MODEL 1
REMARK minimizedAffinity -0.297217339
REMARK minimizedRMSD -1
REMARK  0 active torsions:
REMARK  status: ('A' for Active; 'I' for Inactive)
ROOT
ATOM      1  C   UNL d   1       1.070   0.704   0.597  0.00  0.00     0.172 C 
ATOM      2  N   UNL d   1       1.220  -0.524   1.342  0.00  0.00    -0.070 N 
ATOM      3  C1  UNL d   1       1.852  -0.653   2.549  0.00  0.00    -0.004 A 
ATOM      4  C2  UNL d   1       1.779  -1.977   2.925  0.00  0.00    -0.047 A 
ATOM      5  C3  UNL d   1       1.079  -2.668   1.907  0.00  0.00    -0.047 A 
ATOM      6  C4  UNL d   1       0.745  -1.744   0.939  0.00  0.00    -0.004 A 
ENDROOT
TORSDOF 0
ENDMDL
