MODEL 1
REMARK minimizedAffinity -1.53707707
REMARK minimizedRMSD -1
REMARK  0 active torsions:
REMARK  status: ('A' for Active; 'I' for Inactive)
ROOT
ATOM      1  C   UNL d   1       1.427  -5.996  -5.221  0.00  0.00     0.172 C 
ATOM      2  N   UNL d   1       0.251  -5.997  -4.383  0.00  0.00    -0.070 N 
ATOM      3  C1  UNL d   1      -1.045  -5.995  -4.826  0.00  0.00    -0.004 A 
ATOM      4  C2  UNL d   1      -1.868  -5.997  -3.721  0.00  0.00    -0.047 A 
ATOM      5  C3  UNL d   1      -1.039  -5.999  -2.574  0.00  0.00    -0.047 A 
ATOM      6  C4  UNL d   1       0.268  -5.999  -3.013  0.00  0.00    -0.004 A 
ENDROOT
TORSDOF 0
ENDMDL
