MODEL 1
REMARK minimizedAffinity 0.191063821
REMARK minimizedRMSD -1
REMARK  0 active torsions:
REMARK  status: ('A' for Active; 'I' for Inactive)
ROOT
ATOM      1  C   UNL d   1       1.588   0.434   0.235  0.00  0.00     0.172 C 
ATOM      2  N   UNL d   1       1.661  -0.606   1.234  0.00  0.00    -0.070 N 
ATOM      3  C1  UNL d   1       2.035  -0.433   2.540  0.00  0.00    -0.004 A 
ATOM      4  C2  UNL d   1       1.974  -1.661   3.163  0.00  0.00    -0.047 A 
ATOM      5  C3  UNL d   1       1.550  -2.605   2.198  0.00  0.00    -0.047 A 
ATOM      6  C4  UNL d   1       1.363  -1.925   1.013  0.00  0.00    -0.004 A 
ENDROOT
TORSDOF 0
ENDMDL
