MODEL 1
REMARK minimizedAffinity 2.88430667
REMARK minimizedRMSD -1
REMARK  0 active torsions:
REMARK  status: ('A' for Active; 'I' for Inactive)
ROOT
ATOM      1  C   UNL d   1      -1.414  -0.238   0.986  0.00  0.00     0.172 C 
ATOM      2  N   UNL d   1      -0.002  -0.502   1.138  0.00  0.00    -0.070 N 
ATOM      3  C1  UNL d   1       0.546  -1.488   1.914  0.00  0.00    -0.004 A 
ATOM      4  C2  UNL d   1       1.917  -1.409   1.790  0.00  0.00    -0.047 A 
ATOM      5  C3  UNL d   1       2.201  -0.337   0.910  0.00  0.00    -0.047 A 
ATOM      6  C4  UNL d   1       0.995   0.206   0.521  0.00  0.00    -0.004 A 
ENDROOT
TORSDOF 0
ENDMDL
