MODEL 1
REMARK minimizedAffinity 0.924819291
REMARK minimizedRMSD -1
REMARK  0 active torsions:
REMARK  status: ('A' for Active; 'I' for Inactive)
ROOT
ATOM      1  C   UNL d   1       1.449  -5.915  -4.426  0.00  0.00     0.172 C 
ATOM      2  N   UNL d   1       0.045  -5.948  -4.092  0.00  0.00    -0.070 N 
ATOM      3  C1  UNL d   1      -0.989  -5.969  -4.989  0.00  0.00    -0.004 A 
ATOM      4  C2  UNL d   1      -2.167  -5.999  -4.274  0.00  0.00    -0.047 A 
ATOM      5  C3  UNL d   1      -1.830  -5.995  -2.900  0.00  0.00    -0.047 A 
ATOM      6  C4  UNL d   1      -0.454  -5.964  -2.816  0.00  0.00    -0.004 A 
ENDROOT
TORSDOF 0
ENDMDL
