MODEL 1
REMARK minimizedAffinity -1.02801132
REMARK minimizedRMSD -1
REMARK  0 active torsions:
REMARK  status: ('A' for Active; 'I' for Inactive)
ROOT
ATOM      1  C   UNL d   1      -0.914  -5.988  -2.386  0.00  0.00     0.172 C 
ATOM      2  N   UNL d   1      -0.566  -5.990  -3.787  0.00  0.00    -0.070 N 
ATOM      3  C1  UNL d   1       0.706  -5.982  -4.294  0.00  0.00    -0.004 A 
ATOM      4  C2  UNL d   1       0.613  -5.988  -5.669  0.00  0.00    -0.047 A 
ATOM      5  C3  UNL d   1      -0.763  -5.998  -6.000  0.00  0.00    -0.047 A 
ATOM      6  C4  UNL d   1      -1.470  -6.000  -4.816  0.00  0.00    -0.004 A 
ENDROOT
TORSDOF 0
ENDMDL
