MODEL 1
REMARK minimizedAffinity 1.4961015
REMARK minimizedRMSD -1
REMARK  0 active torsions:
REMARK  status: ('A' for Active; 'I' for Inactive)
ROOT
ATOM      1  C   UNL d   1       0.421  -3.238   1.013  0.00  0.00     0.172 C 
ATOM      2  N   UNL d   1       0.715  -1.836   0.833  0.00  0.00    -0.070 N 
ATOM      3  C1  UNL d   1      -0.109  -0.918   0.239  0.00  0.00    -0.004 A 
ATOM      4  C2  UNL d   1       0.532   0.302   0.263  0.00  0.00    -0.047 A 
ATOM      5  C3  UNL d   1       1.784   0.110   0.893  0.00  0.00    -0.047 A 
ATOM      6  C4  UNL d   1       1.872  -1.223   1.236  0.00  0.00    -0.004 A 
ENDROOT
TORSDOF 0
ENDMDL
