MODEL 1
REMARK minimizedAffinity -0.913698077
REMARK minimizedRMSD -1
REMARK  0 active torsions:
REMARK  status: ('A' for Active; 'I' for Inactive)
ROOT
ATOM      1  C   UNL d   1       2.996  -5.718  -4.001  0.00  0.00     0.172 C 
ATOM      2  N   UNL d   1       1.665  -5.780  -4.557  0.00  0.00    -0.070 N 
ATOM      3  C1  UNL d   1       1.344  -5.630  -5.879  0.00  0.00    -0.004 A 
ATOM      4  C2  UNL d   1      -0.023  -5.757  -6.000  0.00  0.00    -0.047 A 
ATOM      5  C3  UNL d   1      -0.542  -5.990  -4.704  0.00  0.00    -0.047 A 
ATOM      6  C4  UNL d   1       0.524  -5.999  -3.830  0.00  0.00    -0.004 A 
ENDROOT
TORSDOF 0
ENDMDL
