MODEL 1
REMARK minimizedAffinity -1.70563471
REMARK minimizedRMSD -1
REMARK  0 active torsions:
REMARK  status: ('A' for Active; 'I' for Inactive)
ROOT
ATOM      1  C   UNL d   1       0.791  -5.984  -5.635  0.00  0.00     0.172 C 
ATOM      2  N   UNL d   1      -0.244  -5.989  -4.628  0.00  0.00    -0.070 N 
ATOM      3  C1  UNL d   1      -1.592  -5.998  -4.869  0.00  0.00    -0.004 A 
ATOM      4  C2  UNL d   1      -2.238  -6.000  -3.652  0.00  0.00    -0.047 A 
ATOM      5  C3  UNL d   1      -1.245  -5.990  -2.645  0.00  0.00    -0.047 A 
ATOM      6  C4  UNL d   1      -0.019  -5.983  -3.277  0.00  0.00    -0.004 A 
ENDROOT
TORSDOF 0
ENDMDL
