MODEL 1
REMARK minimizedAffinity -0.271802217
REMARK minimizedRMSD -1
REMARK  0 active torsions:
REMARK  status: ('A' for Active; 'I' for Inactive)
ROOT
ATOM      1  C   UNL d   1       1.869  -5.967  -4.095  0.00  0.00     0.172 C 
ATOM      2  N   UNL d   1       0.518  -5.980  -4.604  0.00  0.00    -0.070 N 
ATOM      3  C1  UNL d   1       0.163  -5.987  -5.927  0.00  0.00    -0.004 A 
ATOM      4  C2  UNL d   1      -1.213  -5.998  -5.995  0.00  0.00    -0.047 A 
ATOM      5  C3  UNL d   1      -1.703  -5.998  -4.667  0.00  0.00    -0.047 A 
ATOM      6  C4  UNL d   1      -0.610  -5.986  -3.827  0.00  0.00    -0.004 A 
ENDROOT
TORSDOF 0
ENDMDL
