MODEL 1
REMARK minimizedAffinity -1.22782254
REMARK minimizedRMSD -1
REMARK  0 active torsions:
REMARK  status: ('A' for Active; 'I' for Inactive)
ROOT
ATOM      1  C   UNL d   1      -3.742  -5.991  -2.651  0.00  0.00     0.172 C 
ATOM      2  N   UNL d   1      -2.452  -5.990  -3.300  0.00  0.00    -0.070 N 
ATOM      3  C1  UNL d   1      -2.239  -5.989  -4.653  0.00  0.00    -0.004 A 
ATOM      4  C2  UNL d   1      -0.877  -5.989  -4.866  0.00  0.00    -0.047 A 
ATOM      5  C3  UNL d   1      -0.250  -5.991  -3.597  0.00  0.00    -0.047 A 
ATOM      6  C4  UNL d   1      -1.249  -5.992  -2.646  0.00  0.00    -0.004 A 
ENDROOT
TORSDOF 0
ENDMDL
