MODEL 1
REMARK minimizedAffinity 2.08714128
REMARK minimizedRMSD -1
REMARK  0 active torsions:
REMARK  status: ('A' for Active; 'I' for Inactive)
ROOT
ATOM      1  C   UNL d   1      -4.468  -1.797  -2.785  0.00  0.00     0.172 C 
ATOM      2  N   UNL d   1      -4.734  -0.680  -1.910  0.00  0.00    -0.070 N 
ATOM      3  C1  UNL d   1      -5.765   0.211  -2.044  0.00  0.00    -0.004 A 
ATOM      4  C2  UNL d   1      -5.672   1.122  -1.015  0.00  0.00    -0.047 A 
ATOM      5  C3  UNL d   1      -4.545   0.767  -0.235  0.00  0.00    -0.047 A 
ATOM      6  C4  UNL d   1      -3.983  -0.352  -0.812  0.00  0.00    -0.004 A 
ENDROOT
TORSDOF 0
ENDMDL
