MODEL 1
REMARK minimizedAffinity -4.9876709
REMARK minimizedRMSD -1
REMARK  1 active torsions:
REMARK  status: ('A' for Active; 'I' for Inactive)
REMARK    1  A    between atoms: C1_2  and  C2_3 
ROOT
ATOM      1  C2  UNL d   1       0.435  -0.154   1.292  0.00  0.00    -0.076 A 
ATOM      2  C3  UNL d   1      -0.398   0.061   2.403  0.00  0.00     0.004 A 
ATOM      3  C4  UNL d   1      -1.726   0.450   2.240  0.00  0.00    -0.003 A 
ATOM      4  C5  UNL d   1      -2.244   0.629   0.962  0.00  0.00     0.000 A 
ATOM      5  C6  UNL d   1      -1.437   0.403  -0.153  0.00  0.00     0.000 A 
ATOM      6  C7  UNL d   1      -0.100  -0.005  -0.006  0.00  0.00    -0.073 A 
ATOM      7  C8  UNL d   1       0.726  -0.229  -1.242  0.00  0.00     0.078 C 
ENDROOT
BRANCH   1   8
ATOM      8  C1  UNL d   1       1.875  -0.548   1.531  0.00  0.00     0.053 C 
ATOM      9  C   UNL d   1       2.201  -0.696   3.009  0.00  0.00     0.018 C 
ENDBRANCH   1   8
TORSDOF 1
ENDMDL
