MODEL 1
REMARK minimizedAffinity -4.18362761
REMARK minimizedRMSD -1
REMARK  1 active torsions:
REMARK  status: ('A' for Active; 'I' for Inactive)
REMARK    1  A    between atoms: C1_2  and  C2_3 
ROOT
ATOM      1  C2  UNL d   1       0.204  -0.123   0.162  0.00  0.00    -0.076 A 
ATOM      2  C3  UNL d   1      -1.164   0.119  -0.057  0.00  0.00     0.004 A 
ATOM      3  C4  UNL d   1      -1.946   0.743   0.913  0.00  0.00    -0.003 A 
ATOM      4  C5  UNL d   1      -1.374   1.136   2.118  0.00  0.00     0.000 A 
ATOM      5  C6  UNL d   1      -0.015   0.920   2.345  0.00  0.00     0.000 A 
ATOM      6  C7  UNL d   1       0.792   0.307   1.371  0.00  0.00    -0.073 A 
ATOM      7  C8  UNL d   1       2.250   0.092   1.671  0.00  0.00     0.078 C 
ENDROOT
BRANCH   1   8
ATOM      8  C1  UNL d   1       0.996  -0.828  -0.916  0.00  0.00     0.053 C 
ATOM      9  C   UNL d   1       0.619  -0.363  -2.314  0.00  0.00     0.018 C 
ENDBRANCH   1   8
TORSDOF 1
ENDMDL
