MODEL 1
REMARK minimizedAffinity -5.22355223
REMARK minimizedRMSD -1
REMARK  1 active torsions:
REMARK  status: ('A' for Active; 'I' for Inactive)
REMARK    1  A    between atoms: C1_2  and  C2_3 
ROOT
ATOM      1  C2  UNL d   1       0.545  -0.390  -0.435  0.00  0.00    -0.076 A 
ATOM      2  C3  UNL d   1      -0.831  -0.101  -0.425  0.00  0.00     0.004 A 
ATOM      3  C4  UNL d   1      -1.455   0.379   0.725  0.00  0.00    -0.003 A 
ATOM      4  C5  UNL d   1      -0.713   0.578   1.884  0.00  0.00     0.000 A 
ATOM      5  C6  UNL d   1       0.656   0.314   1.887  0.00  0.00     0.000 A 
ATOM      6  C7  UNL d   1       1.304  -0.155   0.731  0.00  0.00    -0.073 A 
ATOM      7  C8  UNL d   1       2.782  -0.429   0.793  0.00  0.00     0.078 C 
ENDROOT
BRANCH   1   8
ATOM      8  C1  UNL d   1       1.162  -0.934  -1.704  0.00  0.00     0.053 C 
ATOM      9  C   UNL d   1       0.477  -0.409  -2.956  0.00  0.00     0.018 C 
ENDBRANCH   1   8
TORSDOF 1
ENDMDL
