MODEL 1
REMARK minimizedAffinity -3.59796882
REMARK minimizedRMSD -1
REMARK  1 active torsions:
REMARK  status: ('A' for Active; 'I' for Inactive)
REMARK    1  A    between atoms: C1_2  and  C2_3 
ROOT
ATOM      1  C2  UNL d   1       0.374  -0.065  -0.219  0.00  0.00    -0.076 A 
ATOM      2  C3  UNL d   1       1.529   0.153   0.552  0.00  0.00     0.004 A 
ATOM      3  C4  UNL d   1       1.451   0.756   1.806  0.00  0.00    -0.003 A 
ATOM      4  C5  UNL d   1       0.216   1.149   2.310  0.00  0.00     0.000 A 
ATOM      5  C6  UNL d   1      -0.942   0.924   1.567  0.00  0.00     0.000 A 
ATOM      6  C7  UNL d   1      -0.883   0.303   0.307  0.00  0.00    -0.073 A 
ATOM      7  C8  UNL d   1      -2.162   0.090  -0.454  0.00  0.00     0.078 C 
ENDROOT
BRANCH   1   8
ATOM      8  C1  UNL d   1       0.523  -0.699  -1.584  0.00  0.00     0.053 C 
ATOM      9  C   UNL d   1       1.382   0.135  -2.523  0.00  0.00     0.018 C 
ENDBRANCH   1   8
TORSDOF 1
ENDMDL
