MODEL 1
REMARK minimizedAffinity -5.77854347
REMARK minimizedRMSD -1
REMARK  1 active torsions:
REMARK  status: ('A' for Active; 'I' for Inactive)
REMARK    1  A    between atoms: C1_2  and  C2_3 
ROOT
ATOM      1  C2  UNL d   1       0.865  -0.032   1.250  0.00  0.00    -0.076 A 
ATOM      2  C3  UNL d   1       1.154  -0.528  -0.033  0.00  0.00     0.004 A 
ATOM      3  C4  UNL d   1       0.161  -0.620  -1.007  0.00  0.00    -0.003 A 
ATOM      4  C5  UNL d   1      -1.137  -0.217  -0.713  0.00  0.00     0.000 A 
ATOM      5  C6  UNL d   1      -1.437   0.294   0.549  0.00  0.00     0.000 A 
ATOM      6  C7  UNL d   1      -0.444   0.409   1.537  0.00  0.00    -0.073 A 
ATOM      7  C8  UNL d   1      -0.825   0.961   2.883  0.00  0.00     0.078 C 
ENDROOT
BRANCH   1   8
ATOM      8  C1  UNL d   1       1.977   0.019   2.274  0.00  0.00     0.053 C 
ATOM      9  C   UNL d   1       3.268  -0.601   1.763  0.00  0.00     0.018 C 
ENDBRANCH   1   8
TORSDOF 1
ENDMDL
