MODEL 1
REMARK minimizedAffinity -5.0349865
REMARK minimizedRMSD -1
REMARK  0 active torsions:
REMARK  status: ('A' for Active; 'I' for Inactive)
ROOT
ATOM      1  C   UNL d   1       3.141  -0.815  -0.776  0.00  0.00     0.077 C 
ATOM      2  C1  UNL d   1       1.856  -0.916  -0.008  0.00  0.00    -0.074 A 
ATOM      3  C2  UNL d   1       1.703  -1.856   1.017  0.00  0.00    -0.005 A 
ATOM      4  C3  UNL d   1       0.506  -1.932   1.728  0.00  0.00     0.006 A 
ATOM      5  C4  UNL d   1      -0.549  -1.071   1.423  0.00  0.00    -0.005 A 
ATOM      6  C5  UNL d   1      -0.414  -0.124   0.402  0.00  0.00    -0.074 A 
ATOM      7  C6  UNL d   1      -1.534   0.815   0.067  0.00  0.00     0.077 C 
ATOM      8  C7  UNL d   1       0.795  -0.050  -0.304  0.00  0.00    -0.001 A 
ENDROOT
TORSDOF 0
ENDMDL
