MODEL 1
REMARK minimizedAffinity -4.03050661
REMARK minimizedRMSD -1
REMARK  0 active torsions:
REMARK  status: ('A' for Active; 'I' for Inactive)
ROOT
ATOM      1  C   UNL d   1      -2.150  -0.078   1.916  0.00  0.00     0.077 C 
ATOM      2  C1  UNL d   1      -0.877  -0.369   1.177  0.00  0.00    -0.074 A 
ATOM      3  C2  UNL d   1      -0.392   0.512   0.205  0.00  0.00    -0.005 A 
ATOM      4  C3  UNL d   1       0.797   0.232  -0.467  0.00  0.00     0.006 A 
ATOM      5  C4  UNL d   1       1.513  -0.930  -0.176  0.00  0.00    -0.005 A 
ATOM      6  C5  UNL d   1       1.043  -1.822   0.793  0.00  0.00    -0.074 A 
ATOM      7  C6  UNL d   1       1.805  -3.071   1.126  0.00  0.00     0.077 C 
ATOM      8  C7  UNL d   1      -0.149  -1.531   1.470  0.00  0.00    -0.001 A 
ENDROOT
TORSDOF 0
ENDMDL
