MODEL 1
REMARK minimizedAffinity -6.25041342
REMARK minimizedRMSD -1
REMARK  0 active torsions:
REMARK  status: ('A' for Active; 'I' for Inactive)
ROOT
ATOM      1  C   UNL d   1      -0.026  -2.569   3.533  0.00  0.00     0.077 C 
ATOM      2  C1  UNL d   1       0.399  -1.944   2.238  0.00  0.00    -0.074 A 
ATOM      3  C2  UNL d   1       1.578  -2.342   1.599  0.00  0.00    -0.005 A 
ATOM      4  C3  UNL d   1       1.955  -1.758   0.390  0.00  0.00     0.006 A 
ATOM      5  C4  UNL d   1       1.158  -0.771  -0.192  0.00  0.00    -0.005 A 
ATOM      6  C5  UNL d   1      -0.025  -0.361   0.431  0.00  0.00    -0.074 A 
ATOM      7  C6  UNL d   1      -0.897   0.692  -0.186  0.00  0.00     0.077 C 
ATOM      8  C7  UNL d   1      -0.400  -0.957   1.643  0.00  0.00    -0.001 A 
ENDROOT
TORSDOF 0
ENDMDL
