MODEL 1
REMARK minimizedAffinity -3.46681523
REMARK minimizedRMSD -1
REMARK  0 active torsions:
REMARK  status: ('A' for Active; 'I' for Inactive)
ROOT
ATOM      1  C   UNL d   1       1.501  -2.910   0.370  0.00  0.00     0.077 C 
ATOM      2  C1  UNL d   1       0.761  -1.626   0.599  0.00  0.00    -0.074 A 
ATOM      3  C2  UNL d   1       0.965  -0.520  -0.232  0.00  0.00    -0.005 A 
ATOM      4  C3  UNL d   1       0.263   0.664  -0.012  0.00  0.00     0.006 A 
ATOM      5  C4  UNL d   1      -0.649   0.755   1.040  0.00  0.00    -0.005 A 
ATOM      6  C5  UNL d   1      -0.868  -0.340   1.881  0.00  0.00    -0.074 A 
ATOM      7  C6  UNL d   1      -1.852  -0.263   3.010  0.00  0.00     0.077 C 
ATOM      8  C7  UNL d   1      -0.163  -1.530   1.649  0.00  0.00    -0.001 A 
ENDROOT
TORSDOF 0
ENDMDL
