MODEL 1
REMARK minimizedAffinity -4.22600698
REMARK minimizedRMSD -1
REMARK  0 active torsions:
REMARK  status: ('A' for Active; 'I' for Inactive)
ROOT
ATOM      1  C   UNL d   1       1.853  -2.065   0.748  0.00  0.00     0.077 C 
ATOM      2  C1  UNL d   1       0.629  -1.198   0.723  0.00  0.00    -0.074 A 
ATOM      3  C2  UNL d   1      -0.373  -1.341   1.688  0.00  0.00    -0.005 A 
ATOM      4  C3  UNL d   1      -1.501  -0.521   1.658  0.00  0.00     0.006 A 
ATOM      5  C4  UNL d   1      -1.638   0.449   0.665  0.00  0.00    -0.005 A 
ATOM      6  C5  UNL d   1      -0.646   0.608  -0.308  0.00  0.00    -0.074 A 
ATOM      7  C6  UNL d   1      -0.773   1.652  -1.376  0.00  0.00     0.077 C 
ATOM      8  C7  UNL d   1       0.488  -0.215  -0.267  0.00  0.00    -0.001 A 
ENDROOT
TORSDOF 0
ENDMDL
