MODEL 1
REMARK minimizedAffinity -2.96652675
REMARK minimizedRMSD -1
REMARK  0 active torsions:
REMARK  status: ('A' for Active; 'I' for Inactive)
ROOT
ATOM      1  C   UNL d   1       1.777  -2.749   1.888  0.00  0.00     0.077 C 
ATOM      2  C1  UNL d   1       1.674  -1.621   0.905  0.00  0.00    -0.074 A 
ATOM      3  C2  UNL d   1       2.591  -1.496  -0.143  0.00  0.00    -0.005 A 
ATOM      4  C3  UNL d   1       2.478  -0.447  -1.055  0.00  0.00     0.006 A 
ATOM      5  C4  UNL d   1       1.447   0.486  -0.929  0.00  0.00    -0.005 A 
ATOM      6  C5  UNL d   1       0.520   0.376   0.113  0.00  0.00    -0.074 A 
ATOM      7  C6  UNL d   1      -0.598   1.364   0.257  0.00  0.00     0.077 C 
ATOM      8  C7  UNL d   1       0.637  -0.685   1.021  0.00  0.00    -0.001 A 
ENDROOT
TORSDOF 0
ENDMDL
