MODEL 1
REMARK minimizedAffinity -2.3000586
REMARK minimizedRMSD -1
REMARK  0 active torsions:
REMARK  status: ('A' for Active; 'I' for Inactive)
ROOT
ATOM      1  C   UNL d   1       0.366  -2.982   1.587  0.00  0.00     0.077 C 
ATOM      2  C1  UNL d   1      -0.009  -1.621   1.081  0.00  0.00    -0.074 A 
ATOM      3  C2  UNL d   1      -1.175  -0.986   1.520  0.00  0.00    -0.005 A 
ATOM      4  C3  UNL d   1      -1.506   0.284   1.047  0.00  0.00     0.006 A 
ATOM      5  C4  UNL d   1      -0.675   0.931   0.132  0.00  0.00    -0.005 A 
ATOM      6  C5  UNL d   1       0.496   0.312  -0.318  0.00  0.00    -0.074 A 
ATOM      7  C6  UNL d   1       1.405   0.998  -1.294  0.00  0.00     0.077 C 
ATOM      8  C7  UNL d   1       0.825  -0.961   0.167  0.00  0.00    -0.001 A 
ENDROOT
TORSDOF 0
ENDMDL
