MODEL 1
REMARK minimizedAffinity -4.14160776
REMARK minimizedRMSD -1
REMARK  0 active torsions:
REMARK  status: ('A' for Active; 'I' for Inactive)
ROOT
ATOM      1  C   UNL d   1       1.606  -2.941   0.926  0.00  0.00     0.077 C 
ATOM      2  C1  UNL d   1       0.589  -1.839   0.954  0.00  0.00    -0.074 A 
ATOM      3  C2  UNL d   1      -0.580  -1.960   1.712  0.00  0.00    -0.005 A 
ATOM      4  C3  UNL d   1      -1.513  -0.923   1.737  0.00  0.00     0.006 A 
ATOM      5  C4  UNL d   1      -1.286   0.243   1.004  0.00  0.00    -0.005 A 
ATOM      6  C5  UNL d   1      -0.123   0.382   0.241  0.00  0.00    -0.074 A 
ATOM      7  C6  UNL d   1       0.141   1.633  -0.544  0.00  0.00     0.077 C 
ATOM      8  C7  UNL d   1       0.813  -0.661   0.227  0.00  0.00    -0.001 A 
ENDROOT
TORSDOF 0
ENDMDL
