MODEL 1
REMARK minimizedAffinity -4.67391586
REMARK minimizedRMSD -1
REMARK  0 active torsions:
REMARK  status: ('A' for Active; 'I' for Inactive)
ROOT
ATOM      1  C   UNL d   1       1.125  -2.849   0.956  0.00  0.00     0.077 C 
ATOM      2  C1  UNL d   1       0.761  -1.447   0.565  0.00  0.00    -0.074 A 
ATOM      3  C2  UNL d   1      -0.536  -0.960   0.758  0.00  0.00    -0.005 A 
ATOM      4  C3  UNL d   1      -0.856   0.349   0.398  0.00  0.00     0.006 A 
ATOM      5  C4  UNL d   1       0.115   1.183  -0.157  0.00  0.00    -0.005 A 
ATOM      6  C5  UNL d   1       1.417   0.714  -0.357  0.00  0.00    -0.074 A 
ATOM      7  C6  UNL d   1       2.476   1.600  -0.943  0.00  0.00     0.077 C 
ATOM      8  C7  UNL d   1       1.734  -0.600   0.014  0.00  0.00    -0.001 A 
ENDROOT
TORSDOF 0
ENDMDL
