MODEL 1
REMARK minimizedAffinity -4.44770861
REMARK minimizedRMSD -1
REMARK  0 active torsions:
REMARK  status: ('A' for Active; 'I' for Inactive)
ROOT
ATOM      1  C   UNL d   1       4.028  -1.104   2.310  0.00  0.00     0.077 C 
ATOM      2  C1  UNL d   1       2.686  -1.214   1.649  0.00  0.00    -0.074 A 
ATOM      3  C2  UNL d   1       1.852  -2.309   1.894  0.00  0.00    -0.005 A 
ATOM      4  C3  UNL d   1       0.603  -2.393   1.279  0.00  0.00     0.006 A 
ATOM      5  C4  UNL d   1       0.175  -1.384   0.415  0.00  0.00    -0.005 A 
ATOM      6  C5  UNL d   1       0.995  -0.281   0.159  0.00  0.00    -0.074 A 
ATOM      7  C6  UNL d   1       0.547   0.817  -0.759  0.00  0.00     0.077 C 
ATOM      8  C7  UNL d   1       2.246  -0.200   0.786  0.00  0.00    -0.001 A 
ENDROOT
TORSDOF 0
ENDMDL
