MODEL 1
REMARK minimizedAffinity -4.319736
REMARK minimizedRMSD -1
REMARK  0 active torsions:
REMARK  status: ('A' for Active; 'I' for Inactive)
ROOT
ATOM      1  C   UNL d   1       2.899  -1.655   0.508  0.00  0.00     0.077 C 
ATOM      2  C1  UNL d   1       1.421  -1.441   0.370  0.00  0.00    -0.074 A 
ATOM      3  C2  UNL d   1       0.523  -2.500   0.535  0.00  0.00    -0.005 A 
ATOM      4  C3  UNL d   1      -0.850  -2.283   0.412  0.00  0.00     0.006 A 
ATOM      5  C4  UNL d   1      -1.337  -1.008   0.123  0.00  0.00    -0.005 A 
ATOM      6  C5  UNL d   1      -0.454   0.063  -0.045  0.00  0.00    -0.074 A 
ATOM      7  C6  UNL d   1      -0.962   1.442  -0.346  0.00  0.00     0.077 C 
ATOM      8  C7  UNL d   1       0.923  -0.161   0.087  0.00  0.00    -0.001 A 
ENDROOT
TORSDOF 0
ENDMDL
