MODEL 1
REMARK minimizedAffinity -1.79718018
REMARK minimizedRMSD -1
REMARK  0 active torsions:
REMARK  status: ('A' for Active; 'I' for Inactive)
ROOT
ATOM      1  C   UNL d   1       2.518   2.025  -0.609  0.00  0.00     0.077 C 
ATOM      2  C1  UNL d   1       1.357   1.096  -0.412  0.00  0.00    -0.074 A 
ATOM      3  C2  UNL d   1       0.041   1.559  -0.507  0.00  0.00    -0.005 A 
ATOM      4  C3  UNL d   1      -1.029   0.681  -0.331  0.00  0.00     0.006 A 
ATOM      5  C4  UNL d   1      -0.793  -0.667  -0.058  0.00  0.00    -0.005 A 
ATOM      6  C5  UNL d   1       0.516  -1.149   0.039  0.00  0.00    -0.074 A 
ATOM      7  C6  UNL d   1       0.787  -2.597   0.322  0.00  0.00     0.077 C 
ATOM      8  C7  UNL d   1       1.585  -0.262  -0.146  0.00  0.00    -0.001 A 
ENDROOT
TORSDOF 0
ENDMDL
