MODEL 1
REMARK minimizedAffinity -5.07628489
REMARK minimizedRMSD -1
REMARK  0 active torsions:
REMARK  status: ('A' for Active; 'I' for Inactive)
ROOT
ATOM      1  C   UNL d   1       1.303  -2.887   1.230  0.00  0.00     0.077 C 
ATOM      2  C1  UNL d   1       0.831  -1.550   0.740  0.00  0.00    -0.074 A 
ATOM      3  C2  UNL d   1      -0.465  -1.102   1.011  0.00  0.00    -0.005 A 
ATOM      4  C3  UNL d   1      -0.887   0.148   0.557  0.00  0.00     0.006 A 
ATOM      5  C4  UNL d   1      -0.017   0.960  -0.172  0.00  0.00    -0.005 A 
ATOM      6  C5  UNL d   1       1.283   0.529  -0.453  0.00  0.00    -0.074 A 
ATOM      7  C6  UNL d   1       2.233   1.394  -1.227  0.00  0.00     0.077 C 
ATOM      8  C7  UNL d   1       1.701  -0.725   0.013  0.00  0.00    -0.001 A 
ENDROOT
TORSDOF 0
ENDMDL
