MODEL 1
REMARK minimizedAffinity -3.09548545
REMARK minimizedRMSD -1
REMARK  0 active torsions:
REMARK  status: ('A' for Active; 'I' for Inactive)
ROOT
ATOM      1  C   UNL d   1      -1.948   0.283   0.831  0.00  0.00     0.077 C 
ATOM      2  C1  UNL d   1      -0.549  -0.163   0.525  0.00  0.00    -0.074 A 
ATOM      3  C2  UNL d   1       0.249   0.543  -0.380  0.00  0.00    -0.005 A 
ATOM      4  C3  UNL d   1       1.552   0.122  -0.647  0.00  0.00     0.006 A 
ATOM      5  C4  UNL d   1       2.069  -1.008  -0.012  0.00  0.00    -0.005 A 
ATOM      6  C5  UNL d   1       1.286  -1.727   0.897  0.00  0.00    -0.074 A 
ATOM      7  C6  UNL d   1       1.829  -2.938   1.595  0.00  0.00     0.077 C 
ATOM      8  C7  UNL d   1      -0.020  -1.293   1.165  0.00  0.00    -0.001 A 
ENDROOT
TORSDOF 0
ENDMDL
