MODEL 1
REMARK minimizedAffinity -4.61190462
REMARK minimizedRMSD -1
REMARK  0 active torsions:
REMARK  status: ('A' for Active; 'I' for Inactive)
ROOT
ATOM      1  C   UNL d   1      -2.145   0.575   1.242  0.00  0.00     0.077 C 
ATOM      2  C1  UNL d   1      -0.794   0.189   0.718  0.00  0.00    -0.074 A 
ATOM      3  C2  UNL d   1      -0.026   1.091  -0.024  0.00  0.00    -0.005 A 
ATOM      4  C3  UNL d   1       1.233   0.721  -0.497  0.00  0.00     0.006 A 
ATOM      5  C4  UNL d   1       1.736  -0.553  -0.233  0.00  0.00    -0.005 A 
ATOM      6  C5  UNL d   1       0.983  -1.469   0.508  0.00  0.00    -0.074 A 
ATOM      7  C6  UNL d   1       1.513  -2.839   0.810  0.00  0.00     0.077 C 
ATOM      8  C7  UNL d   1      -0.278  -1.087   0.986  0.00  0.00    -0.001 A 
ENDROOT
TORSDOF 0
ENDMDL
