MODEL 1
REMARK minimizedAffinity -4.74590731
REMARK minimizedRMSD -1
REMARK  0 active torsions:
REMARK  status: ('A' for Active; 'I' for Inactive)
ROOT
ATOM      1  C4' PXY d   1      -2.301   0.300   1.556  0.00  0.00     0.077 C 
ATOM      2  C1' PXY d   1       1.504   0.074  -2.790  0.00  0.00     0.077 C 
ATOM      3  C1  PXY d   1       0.507   0.120  -1.649  0.00  0.00    -0.082 A 
ATOM      4  C2  PXY d   1      -0.324   1.146  -1.547  0.00  0.00     0.003 A 
ATOM      5  C3  PXY d   1      -1.210   1.219  -0.504  0.00  0.00     0.003 A 
ATOM      6  C4  PXY d   1      -1.284   0.207   0.415  0.00  0.00    -0.082 A 
ATOM      7  C5  PXY d   1      -0.448  -0.848   0.312  0.00  0.00     0.003 A 
ATOM      8  C6  PXY d   1       0.473  -0.884  -0.732  0.00  0.00     0.003 A 
ENDROOT
TORSDOF 0
ENDMDL
