MODEL 1
REMARK minimizedAffinity -4.62814903
REMARK minimizedRMSD -1
REMARK  0 active torsions:
REMARK  status: ('A' for Active; 'I' for Inactive)
ROOT
ATOM      1  C4' PXY d   1      -1.017  -0.211   1.173  0.00  0.00     0.077 C 
ATOM      2  C1' PXY d   1       2.531  -0.889  -3.340  0.00  0.00     0.077 C 
ATOM      3  C1  PXY d   1       1.596  -0.724  -2.158  0.00  0.00    -0.082 A 
ATOM      4  C2  PXY d   1       1.202   0.488  -1.801  0.00  0.00     0.003 A 
ATOM      5  C3  PXY d   1       0.382   0.658  -0.715  0.00  0.00     0.003 A 
ATOM      6  C4  PXY d   1      -0.081  -0.427  -0.020  0.00  0.00    -0.082 A 
ATOM      7  C5  PXY d   1       0.308  -1.667  -0.385  0.00  0.00     0.003 A 
ATOM      8  C6  PXY d   1       1.173  -1.815  -1.465  0.00  0.00     0.003 A 
ENDROOT
TORSDOF 0
ENDMDL
