MODEL 1
REMARK minimizedAffinity -3.7930553
REMARK minimizedRMSD -1
REMARK  0 active torsions:
REMARK  status: ('A' for Active; 'I' for Inactive)
ROOT
ATOM      1  C4' PXY d   1      -1.096   0.017   1.663  0.00  0.00     0.077 C 
ATOM      2  C1' PXY d   1       2.372  -0.019  -2.962  0.00  0.00     0.077 C 
ATOM      3  C1  PXY d   1       1.470  -0.001  -1.743  0.00  0.00    -0.082 A 
ATOM      4  C2  PXY d   1       0.687  -1.038  -1.493  0.00  0.00     0.003 A 
ATOM      5  C3  PXY d   1      -0.158  -1.025  -0.413  0.00  0.00     0.003 A 
ATOM      6  C4  PXY d   1      -0.163   0.039   0.450  0.00  0.00    -0.082 A 
ATOM      7  C5  PXY d   1       0.641   1.096   0.207  0.00  0.00     0.003 A 
ATOM      8  C6  PXY d   1       1.461   1.080  -0.917  0.00  0.00     0.003 A 
ENDROOT
TORSDOF 0
ENDMDL
