MODEL 1
REMARK minimizedAffinity -3.94539738
REMARK minimizedRMSD -1
REMARK  0 active torsions:
REMARK  status: ('A' for Active; 'I' for Inactive)
ROOT
ATOM      1  C4' PXY d   1      -3.362   0.718   1.522  0.00  0.00     0.077 C 
ATOM      2  C1' PXY d   1       1.464   0.103  -1.600  0.00  0.00     0.077 C 
ATOM      3  C1  PXY d   1       0.201   0.253  -0.776  0.00  0.00    -0.082 A 
ATOM      4  C2  PXY d   1      -0.784   1.017  -1.220  0.00  0.00     0.003 A 
ATOM      5  C3  PXY d   1      -1.920   1.189  -0.472  0.00  0.00     0.003 A 
ATOM      6  C4  PXY d   1      -2.072   0.530   0.718  0.00  0.00    -0.082 A 
ATOM      7  C5  PXY d   1      -1.076  -0.259   1.174  0.00  0.00     0.003 A 
ATOM      8  C6  PXY d   1       0.086  -0.388   0.419  0.00  0.00     0.003 A 
ENDROOT
TORSDOF 0
ENDMDL
