MODEL 1
REMARK minimizedAffinity -5.32914734
REMARK minimizedRMSD -1
REMARK  0 active torsions:
REMARK  status: ('A' for Active; 'I' for Inactive)
ROOT
ATOM      1  C4' PXY d   1       1.557   0.420  -2.505  0.00  0.00     0.077 C 
ATOM      2  C1' PXY d   1      -2.648   0.672   1.454  0.00  0.00     0.077 C 
ATOM      3  C1  PXY d   1      -1.553   0.613   0.407  0.00  0.00    -0.082 A 
ATOM      4  C2  PXY d   1      -0.678  -0.379   0.432  0.00  0.00     0.003 A 
ATOM      5  C3  PXY d   1       0.338  -0.430  -0.488  0.00  0.00     0.003 A 
ATOM      6  C4  PXY d   1       0.428   0.515  -1.474  0.00  0.00    -0.082 A 
ATOM      7  C5  PXY d   1      -0.467   1.525  -1.512  0.00  0.00     0.003 A 
ATOM      8  C6  PXY d   1      -1.466   1.581  -0.545  0.00  0.00     0.003 A 
ENDROOT
TORSDOF 0
ENDMDL
