MODEL 1
REMARK minimizedAffinity 5.52887392
REMARK minimizedRMSD -1
REMARK  0 active torsions:
REMARK  status: ('A' for Active; 'I' for Inactive)
ROOT
ATOM      1  C4' PXY d   1       1.115  -0.193   3.252  0.00  0.00     0.077 C 
ATOM      2  C1' PXY d   1      -3.765   1.253   5.993  0.00  0.00     0.077 C 
ATOM      3  C1  PXY d   1      -2.478   0.879   5.284  0.00  0.00    -0.082 A 
ATOM      4  C2  PXY d   1      -2.474   0.736   3.969  0.00  0.00     0.003 A 
ATOM      5  C3  PXY d   1      -1.327   0.367   3.315  0.00  0.00     0.003 A 
ATOM      6  C4  PXY d   1      -0.159   0.194   4.008  0.00  0.00    -0.082 A 
ATOM      7  C5  PXY d   1      -0.153   0.348   5.350  0.00  0.00     0.003 A 
ATOM      8  C6  PXY d   1      -1.337   0.683   5.999  0.00  0.00     0.003 A 
ENDROOT
TORSDOF 0
ENDMDL
