MODEL 1
REMARK minimizedAffinity -4.94613981
REMARK minimizedRMSD -1
REMARK  0 active torsions:
REMARK  status: ('A' for Active; 'I' for Inactive)
ROOT
ATOM      1  C4' PXY d   1       0.888   3.133   0.152  0.00  0.00     0.077 C 
ATOM      2  C1' PXY d   1       1.419  -2.222  -1.959  0.00  0.00     0.077 C 
ATOM      3  C1  PXY d   1       1.268  -0.821  -1.400  0.00  0.00    -0.082 A 
ATOM      4  C2  PXY d   1       1.898   0.187  -1.982  0.00  0.00     0.003 A 
ATOM      5  C3  PXY d   1       1.798   1.455  -1.470  0.00  0.00     0.003 A 
ATOM      6  C4  PXY d   1       1.003   1.704  -0.383  0.00  0.00    -0.082 A 
ATOM      7  C5  PXY d   1       0.349   0.682   0.209  0.00  0.00     0.003 A 
ATOM      8  C6  PXY d   1       0.496  -0.604  -0.300  0.00  0.00     0.003 A 
ENDROOT
TORSDOF 0
ENDMDL
