MODEL 1
REMARK minimizedAffinity -1.7689755
REMARK minimizedRMSD -1
REMARK  0 active torsions:
REMARK  status: ('A' for Active; 'I' for Inactive)
ROOT
ATOM      1  C4' PXY d   1       1.652  -0.108  -2.970  0.00  0.00     0.077 C 
ATOM      2  C1' PXY d   1      -1.668   0.208   1.752  0.00  0.00     0.077 C 
ATOM      3  C1  PXY d   1      -0.788   0.119   0.520  0.00  0.00    -0.082 A 
ATOM      4  C2  PXY d   1      -0.921   1.015  -0.445  0.00  0.00     0.003 A 
ATOM      5  C3  PXY d   1      -0.156   0.930  -1.579  0.00  0.00     0.003 A 
ATOM      6  C4  PXY d   1       0.792  -0.051  -1.704  0.00  0.00    -0.082 A 
ATOM      7  C5  PXY d   1       0.940  -0.962  -0.720  0.00  0.00     0.003 A 
ATOM      8  C6  PXY d   1       0.125  -0.883   0.406  0.00  0.00     0.003 A 
ENDROOT
TORSDOF 0
ENDMDL
