MODEL 1
REMARK minimizedAffinity -5.17403364
REMARK minimizedRMSD -1
REMARK  0 active torsions:
REMARK  status: ('A' for Active; 'I' for Inactive)
ROOT
ATOM      1  C4' PXY d   1       1.512   2.621  -1.093  0.00  0.00     0.077 C 
ATOM      2  C1' PXY d   1       1.159  -3.137  -1.452  0.00  0.00     0.077 C 
ATOM      3  C1  PXY d   1       1.240  -1.627  -1.353  0.00  0.00    -0.082 A 
ATOM      4  C2  PXY d   1       2.026  -0.958  -2.180  0.00  0.00     0.003 A 
ATOM      5  C3  PXY d   1       2.135   0.406  -2.083  0.00  0.00     0.003 A 
ATOM      6  C4  PXY d   1       1.392   1.097  -1.164  0.00  0.00    -0.082 A 
ATOM      7  C5  PXY d   1       0.580   0.422  -0.323  0.00  0.00     0.003 A 
ATOM      8  C6  PXY d   1       0.514  -0.965  -0.411  0.00  0.00     0.003 A 
ENDROOT
TORSDOF 0
ENDMDL
