MODEL 1
REMARK minimizedAffinity -3.91610456
REMARK minimizedRMSD -1
REMARK  0 active torsions:
REMARK  status: ('A' for Active; 'I' for Inactive)
ROOT
ATOM      1  C4' PXY d   1       1.169   2.413  -0.828  0.00  0.00     0.077 C 
ATOM      2  C1' PXY d   1       1.156  -3.304  -1.682  0.00  0.00     0.077 C 
ATOM      3  C1  PXY d   1       1.147  -1.805  -1.454  0.00  0.00    -0.082 A 
ATOM      4  C2  PXY d   1       2.007  -1.039  -2.106  0.00  0.00     0.003 A 
ATOM      5  C3  PXY d   1       2.034   0.314  -1.887  0.00  0.00     0.003 A 
ATOM      6  C4  PXY d   1       1.135   0.896  -1.034  0.00  0.00    -0.082 A 
ATOM      7  C5  PXY d   1       0.248   0.123  -0.373  0.00  0.00     0.003 A 
ATOM      8  C6  PXY d   1       0.264  -1.254  -0.578  0.00  0.00     0.003 A 
ENDROOT
TORSDOF 0
ENDMDL
