MODEL 1
REMARK minimizedAffinity -5.75527859
REMARK minimizedRMSD -1
REMARK  0 active torsions:
REMARK  status: ('A' for Active; 'I' for Inactive)
ROOT
ATOM      1  C4' PXY d   1       1.930   0.679  -2.031  0.00  0.00     0.077 C 
ATOM      2  C1' PXY d   1      -2.100   0.057   2.065  0.00  0.00     0.077 C 
ATOM      3  C1  PXY d   1      -1.053   0.220   0.982  0.00  0.00    -0.082 A 
ATOM      4  C2  PXY d   1       0.180  -0.213   1.193  0.00  0.00     0.003 A 
ATOM      5  C3  PXY d   1       1.147  -0.044   0.236  0.00  0.00     0.003 A 
ATOM      6  C4  PXY d   1       0.838   0.526  -0.969  0.00  0.00    -0.082 A 
ATOM      7  C5  PXY d   1      -0.420   0.962  -1.196  0.00  0.00     0.003 A 
ATOM      8  C6  PXY d   1      -1.377   0.818  -0.196  0.00  0.00     0.003 A 
ENDROOT
TORSDOF 0
ENDMDL
