MODEL 1
REMARK minimizedAffinity -5.6083746
REMARK minimizedRMSD -1
REMARK  0 active torsions:
REMARK  status: ('A' for Active; 'I' for Inactive)
ROOT
ATOM      1  C4' PXY d   1       1.203   0.861  -1.336  0.00  0.00     0.077 C 
ATOM      2  C1' PXY d   1      -3.293  -0.069   2.176  0.00  0.00     0.077 C 
ATOM      3  C1  PXY d   1      -2.122   0.174   1.244  0.00  0.00    -0.082 A 
ATOM      4  C2  PXY d   1      -0.891  -0.064   1.666  0.00  0.00     0.003 A 
ATOM      5  C3  PXY d   1       0.182   0.180   0.848  0.00  0.00     0.003 A 
ATOM      6  C4  PXY d   1      -0.010   0.622  -0.434  0.00  0.00    -0.082 A 
ATOM      7  C5  PXY d   1      -1.264   0.857  -0.875  0.00  0.00     0.003 A 
ATOM      8  C6  PXY d   1      -2.337   0.642  -0.015  0.00  0.00     0.003 A 
ENDROOT
TORSDOF 0
ENDMDL
