MODEL 1
REMARK minimizedAffinity -4.09831095
REMARK minimizedRMSD -1
REMARK  0 active torsions:
REMARK  status: ('A' for Active; 'I' for Inactive)
ROOT
ATOM      1  C4' PXY d   1       2.258  -0.016  -1.460  0.00  0.00     0.077 C 
ATOM      2  C1' PXY d   1      -2.589   0.490   1.649  0.00  0.00     0.077 C 
ATOM      3  C1  PXY d   1      -1.314   0.370   0.837  0.00  0.00    -0.082 A 
ATOM      4  C2  PXY d   1      -1.264  -0.476  -0.180  0.00  0.00     0.003 A 
ATOM      5  C3  PXY d   1      -0.109  -0.621  -0.904  0.00  0.00     0.003 A 
ATOM      6  C4  PXY d   1       0.989   0.146  -0.618  0.00  0.00    -0.082 A 
ATOM      7  C5  PXY d   1       0.942   1.018   0.411  0.00  0.00     0.003 A 
ATOM      8  C6  PXY d   1      -0.227   1.121   1.160  0.00  0.00     0.003 A 
ENDROOT
TORSDOF 0
ENDMDL
