MODEL 1
REMARK minimizedAffinity -3.6850822
REMARK minimizedRMSD -1
REMARK  0 active torsions:
REMARK  status: ('A' for Active; 'I' for Inactive)
ROOT
ATOM      1  C4' PXY d   1      -0.785   0.507   1.743  0.00  0.00     0.077 C 
ATOM      2  C1' PXY d   1       2.130  -0.525  -3.141  0.00  0.00     0.077 C 
ATOM      3  C1  PXY d   1       1.376  -0.247  -1.856  0.00  0.00    -0.082 A 
ATOM      4  C2  PXY d   1       0.434  -1.086  -1.456  0.00  0.00     0.003 A 
ATOM      5  C3  PXY d   1      -0.280  -0.833  -0.313  0.00  0.00     0.003 A 
ATOM      6  C4  PXY d   1       0.009   0.262   0.457  0.00  0.00    -0.082 A 
ATOM      7  C5  PXY d   1       0.975   1.117   0.061  0.00  0.00     0.003 A 
ATOM      8  C6  PXY d   1       1.661   0.864  -1.124  0.00  0.00     0.003 A 
ENDROOT
TORSDOF 0
ENDMDL
