MODEL 1
REMARK minimizedAffinity -4.3684082
REMARK minimizedRMSD -1
REMARK  0 active torsions:
REMARK  status: ('A' for Active; 'I' for Inactive)
ROOT
ATOM      1  C4' PXY d   1       0.860   2.907   1.184  0.00  0.00     0.077 C 
ATOM      2  C1' PXY d   1       0.501  -2.433  -1.000  0.00  0.00     0.077 C 
ATOM      3  C1  PXY d   1       0.588  -1.036  -0.417  0.00  0.00    -0.082 A 
ATOM      4  C2  PXY d   1       0.823  -0.008  -1.215  0.00  0.00     0.003 A 
ATOM      5  C3  PXY d   1       0.937   1.258  -0.701  0.00  0.00     0.003 A 
ATOM      6  C4  PXY d   1       0.755   1.480   0.638  0.00  0.00    -0.082 A 
ATOM      7  C5  PXY d   1       0.504   0.438   1.458  0.00  0.00     0.003 A 
ATOM      8  C6  PXY d   1       0.434  -0.845   0.921  0.00  0.00     0.003 A 
ENDROOT
TORSDOF 0
ENDMDL
