MODEL 1
REMARK minimizedAffinity -0.486944169
REMARK minimizedRMSD -1
REMARK  0 active torsions:
REMARK  status: ('A' for Active; 'I' for Inactive)
ROOT
ATOM      1  C4' PXY d   1      -3.860   0.576   1.552  0.00  0.00     0.077 C 
ATOM      2  C1' PXY d   1      -1.873   3.691   5.997  0.00  0.00     0.077 C 
ATOM      3  C1  PXY d   1      -2.406   2.879   4.833  0.00  0.00    -0.082 A 
ATOM      4  C2  PXY d   1      -1.774   1.778   4.461  0.00  0.00     0.003 A 
ATOM      5  C3  PXY d   1      -2.224   1.049   3.390  0.00  0.00     0.003 A 
ATOM      6  C4  PXY d   1      -3.363   1.422   2.727  0.00  0.00    -0.082 A 
ATOM      7  C5  PXY d   1      -4.019   2.538   3.108  0.00  0.00     0.003 A 
ATOM      8  C6  PXY d   1      -3.522   3.287   4.172  0.00  0.00     0.003 A 
ENDROOT
TORSDOF 0
ENDMDL
