MODEL 1
REMARK minimizedAffinity -3.01096177
REMARK minimizedRMSD -1
REMARK  0 active torsions:
REMARK  status: ('A' for Active; 'I' for Inactive)
ROOT
ATOM      1  C4' PXY d   1      -2.450   0.357   1.644  0.00  0.00     0.077 C 
ATOM      2  C1' PXY d   1       2.166   0.691  -1.819  0.00  0.00     0.077 C 
ATOM      3  C1  PXY d   1       0.958   0.591  -0.910  0.00  0.00    -0.082 A 
ATOM      4  C2  PXY d   1       0.002   1.502  -0.989  0.00  0.00     0.003 A 
ATOM      5  C3  PXY d   1      -1.083   1.444  -0.152  0.00  0.00     0.003 A 
ATOM      6  C4  PXY d   1      -1.216   0.413   0.739  0.00  0.00    -0.082 A 
ATOM      7  C5  PXY d   1      -0.250  -0.526   0.819  0.00  0.00     0.003 A 
ATOM      8  C6  PXY d   1       0.863  -0.427  -0.011  0.00  0.00     0.003 A 
ENDROOT
TORSDOF 0
ENDMDL
