MODEL 1
REMARK minimizedAffinity -4.50411987
REMARK minimizedRMSD -1
REMARK  0 active torsions:
REMARK  status: ('A' for Active; 'I' for Inactive)
ROOT
ATOM      1  C4' PXY d   1       1.936  -0.261  -2.788  0.00  0.00     0.077 C 
ATOM      2  C1' PXY d   1      -1.622   0.581   1.689  0.00  0.00     0.077 C 
ATOM      3  C1  PXY d   1      -0.687   0.373   0.515  0.00  0.00    -0.082 A 
ATOM      4  C2  PXY d   1      -0.840  -0.686  -0.264  0.00  0.00     0.003 A 
ATOM      5  C3  PXY d   1       0.017  -0.906  -1.312  0.00  0.00     0.003 A 
ATOM      6  C4  PXY d   1       1.008  -0.006  -1.597  0.00  0.00    -0.082 A 
ATOM      7  C5  PXY d   1       1.165   1.082  -0.813  0.00  0.00     0.003 A 
ATOM      8  C6  PXY d   1       0.310   1.266   0.270  0.00  0.00     0.003 A 
ENDROOT
TORSDOF 0
ENDMDL
