MODEL 1
REMARK minimizedAffinity -5.16641045
REMARK minimizedRMSD -1
REMARK  0 active torsions:
REMARK  status: ('A' for Active; 'I' for Inactive)
ROOT
ATOM      1  C4' PXY d   1      -3.776   0.206   1.480  0.00  0.00     0.077 C 
ATOM      2  C1' PXY d   1       1.312   0.531  -1.244  0.00  0.00     0.077 C 
ATOM      3  C1  PXY d   1      -0.027   0.456  -0.537  0.00  0.00    -0.082 A 
ATOM      4  C2  PXY d   1      -0.088  -0.007   0.701  0.00  0.00     0.003 A 
ATOM      5  C3  PXY d   1      -1.295  -0.113   1.343  0.00  0.00     0.003 A 
ATOM      6  C4  PXY d   1      -2.445   0.310   0.731  0.00  0.00    -0.082 A 
ATOM      7  C5  PXY d   1      -2.389   0.793  -0.528  0.00  0.00     0.003 A 
ATOM      8  C6  PXY d   1      -1.160   0.854  -1.178  0.00  0.00     0.003 A 
ENDROOT
TORSDOF 0
ENDMDL
