MODEL 1
REMARK minimizedAffinity -5.04036283
REMARK minimizedRMSD -1
REMARK  0 active torsions:
REMARK  status: ('A' for Active; 'I' for Inactive)
ROOT
ATOM      1  C4' PXY d   1      -1.542   0.039   1.397  0.00  0.00     0.077 C 
ATOM      2  C1' PXY d   1       2.518   0.037  -2.718  0.00  0.00     0.077 C 
ATOM      3  C1  PXY d   1       1.450   0.025  -1.642  0.00  0.00    -0.082 A 
ATOM      4  C2  PXY d   1       0.935   1.168  -1.220  0.00  0.00     0.003 A 
ATOM      5  C3  PXY d   1      -0.009   1.178  -0.225  0.00  0.00     0.003 A 
ATOM      6  C4  PXY d   1      -0.468   0.002   0.306  0.00  0.00    -0.082 A 
ATOM      7  C5  PXY d   1       0.045  -1.169  -0.128  0.00  0.00     0.003 A 
ATOM      8  C6  PXY d   1       1.031  -1.155  -1.109  0.00  0.00     0.003 A 
ENDROOT
TORSDOF 0
ENDMDL
