MODEL 1
REMARK minimizedAffinity 1.59264612
REMARK minimizedRMSD -1
REMARK  0 active torsions:
REMARK  status: ('A' for Active; 'I' for Inactive)
ROOT
ATOM      1  C4' PXY d   1      -0.272   1.758  -1.539  0.00  0.00     0.077 C 
ATOM      2  C1' PXY d   1       0.810  -1.826   2.866  0.00  0.00     0.077 C 
ATOM      3  C1  PXY d   1       0.537  -0.891   1.705  0.00  0.00    -0.082 A 
ATOM      4  C2  PXY d   1      -0.161   0.215   1.906  0.00  0.00     0.003 A 
ATOM      5  C3  PXY d   1      -0.445   1.056   0.860  0.00  0.00     0.003 A 
ATOM      6  C4  PXY d   1       0.036   0.789  -0.393  0.00  0.00    -0.082 A 
ATOM      7  C5  PXY d   1       0.757  -0.332  -0.604  0.00  0.00     0.003 A 
ATOM      8  C6  PXY d   1       0.999  -1.193   0.462  0.00  0.00     0.003 A 
ENDROOT
TORSDOF 0
ENDMDL
