MODEL 1
REMARK minimizedAffinity -5.9665823
REMARK minimizedRMSD -1
REMARK  0 active torsions:
REMARK  status: ('A' for Active; 'I' for Inactive)
ROOT
ATOM      1  C4' PXY d   1      -0.462   0.507  -1.962  0.00  0.00     0.077 C 
ATOM      2  C1' PXY d   1       1.678  -1.515   3.013  0.00  0.00     0.077 C 
ATOM      3  C1  PXY d   1       1.129  -0.985   1.703  0.00  0.00    -0.082 A 
ATOM      4  C2  PXY d   1      -0.002  -0.298   1.698  0.00  0.00     0.003 A 
ATOM      5  C3  PXY d   1      -0.529   0.161   0.519  0.00  0.00     0.003 A 
ATOM      6  C4  PXY d   1       0.135  -0.039  -0.661  0.00  0.00    -0.082 A 
ATOM      7  C5  PXY d   1       1.295  -0.730  -0.663  0.00  0.00     0.003 A 
ATOM      8  C6  PXY d   1       1.792  -1.223   0.539  0.00  0.00     0.003 A 
ENDROOT
TORSDOF 0
ENDMDL
