MODEL 1
REMARK minimizedAffinity -3.70429158
REMARK minimizedRMSD -1
REMARK  0 active torsions:
REMARK  status: ('A' for Active; 'I' for Inactive)
ROOT
ATOM      1  C4' PXY d   1      -0.678   1.809  -2.297  0.00  0.00     0.077 C 
ATOM      2  C1' PXY d   1       0.557  -1.115   2.534  0.00  0.00     0.077 C 
ATOM      3  C1  PXY d   1       0.242  -0.356   1.261  0.00  0.00    -0.082 A 
ATOM      4  C2  PXY d   1      -0.262   0.865   1.335  0.00  0.00     0.003 A 
ATOM      5  C3  PXY d   1      -0.583   1.554   0.194  0.00  0.00     0.003 A 
ATOM      6  C4  PXY d   1      -0.336   1.008  -1.038  0.00  0.00    -0.082 A 
ATOM      7  C5  PXY d   1       0.188  -0.233  -1.122  0.00  0.00     0.003 A 
ATOM      8  C6  PXY d   1       0.468  -0.932   0.049  0.00  0.00     0.003 A 
ENDROOT
TORSDOF 0
ENDMDL
