MODEL 1
REMARK minimizedAffinity 0.242312104
REMARK minimizedRMSD -1
REMARK  0 active torsions:
REMARK  status: ('A' for Active; 'I' for Inactive)
ROOT
ATOM      1  C4' PXY d   1      -2.297   1.837  -2.976  0.00  0.00     0.077 C 
ATOM      2  C1' PXY d   1       1.545  -0.372   0.736  0.00  0.00     0.077 C 
ATOM      3  C1  PXY d   1       0.531   0.196  -0.237  0.00  0.00    -0.082 A 
ATOM      4  C2  PXY d   1       0.879   1.189  -1.039  0.00  0.00     0.003 A 
ATOM      5  C3  PXY d   1      -0.035   1.736  -1.903  0.00  0.00     0.003 A 
ATOM      6  C4  PXY d   1      -1.303   1.226  -1.984  0.00  0.00    -0.082 A 
ATOM      7  C5  PXY d   1      -1.663   0.206  -1.176  0.00  0.00     0.003 A 
ATOM      8  C6  PXY d   1      -0.733  -0.308  -0.277  0.00  0.00     0.003 A 
ENDROOT
TORSDOF 0
ENDMDL
