MODEL 1
REMARK minimizedAffinity -4.04353619
REMARK minimizedRMSD -1
REMARK  0 active torsions:
REMARK  status: ('A' for Active; 'I' for Inactive)
ROOT
ATOM      1  C4' PXY d   1      -0.031   1.428  -2.170  0.00  0.00     0.077 C 
ATOM      2  C1' PXY d   1       0.360  -1.759   2.637  0.00  0.00     0.077 C 
ATOM      3  C1  PXY d   1       0.270  -0.925   1.374  0.00  0.00    -0.082 A 
ATOM      4  C2  PXY d   1      -0.653   0.017   1.277  0.00  0.00     0.003 A 
ATOM      5  C3  PXY d   1      -0.769   0.759   0.129  0.00  0.00     0.003 A 
ATOM      6  C4  PXY d   1       0.103   0.569  -0.910  0.00  0.00    -0.082 A 
ATOM      7  C5  PXY d   1       1.054  -0.384  -0.814  0.00  0.00     0.003 A 
ATOM      8  C6  PXY d   1       1.129  -1.153   0.343  0.00  0.00     0.003 A 
ENDROOT
TORSDOF 0
ENDMDL
