MODEL 1
REMARK minimizedAffinity -3.0933845
REMARK minimizedRMSD -1
REMARK  0 active torsions:
REMARK  status: ('A' for Active; 'I' for Inactive)
ROOT
ATOM      1  C4' PXY d   1      -0.860   1.826  -2.531  0.00  0.00     0.077 C 
ATOM      2  C1' PXY d   1      -0.119  -1.128   2.382  0.00  0.00     0.077 C 
ATOM      3  C1  PXY d   1      -0.309  -0.364   1.087  0.00  0.00    -0.082 A 
ATOM      4  C2  PXY d   1      -0.246   0.958   1.092  0.00  0.00     0.003 A 
ATOM      5  C3  PXY d   1      -0.448   1.666  -0.064  0.00  0.00     0.003 A 
ATOM      6  C4  PXY d   1      -0.664   1.013  -1.248  0.00  0.00    -0.082 A 
ATOM      7  C5  PXY d   1      -0.720  -0.336  -1.264  0.00  0.00     0.003 A 
ATOM      8  C6  PXY d   1      -0.553  -1.035  -0.071  0.00  0.00     0.003 A 
ENDROOT
TORSDOF 0
ENDMDL
