MODEL 1
REMARK minimizedAffinity -5.27366781
REMARK minimizedRMSD -1
REMARK  0 active torsions:
REMARK  status: ('A' for Active; 'I' for Inactive)
ROOT
ATOM      1  C4' PXY d   1       2.962  -2.146   2.896  0.00  0.00     0.077 C 
ATOM      2  C1' PXY d   1      -0.534   0.485  -0.881  0.00  0.00     0.077 C 
ATOM      3  C1  PXY d   1       0.385  -0.215   0.101  0.00  0.00    -0.082 A 
ATOM      4  C2  PXY d   1       0.244   0.003   1.398  0.00  0.00     0.003 A 
ATOM      5  C3  PXY d   1       1.087  -0.596   2.298  0.00  0.00     0.003 A 
ATOM      6  C4  PXY d   1       2.050  -1.469   1.869  0.00  0.00    -0.082 A 
ATOM      7  C5  PXY d   1       2.194  -1.705   0.548  0.00  0.00     0.003 A 
ATOM      8  C6  PXY d   1       1.355  -1.055  -0.352  0.00  0.00     0.003 A 
ENDROOT
TORSDOF 0
ENDMDL
