MODEL 1
REMARK minimizedAffinity -4.27985191
REMARK minimizedRMSD -1
REMARK  0 active torsions:
REMARK  status: ('A' for Active; 'I' for Inactive)
ROOT
ATOM      1  C4' PXY d   1      -1.136   0.660  -1.884  0.00  0.00     0.077 C 
ATOM      2  C1' PXY d   1       1.937  -0.564   2.857  0.00  0.00     0.077 C 
ATOM      3  C1  PXY d   1       1.142  -0.240   1.607  0.00  0.00    -0.082 A 
ATOM      4  C2  PXY d   1      -0.126   0.122   1.714  0.00  0.00     0.003 A 
ATOM      5  C3  PXY d   1      -0.868   0.387   0.592  0.00  0.00     0.003 A 
ATOM      6  C4  PXY d   1      -0.292   0.333  -0.649  0.00  0.00    -0.082 A 
ATOM      7  C5  PXY d   1       1.004  -0.025  -0.765  0.00  0.00     0.003 A 
ATOM      8  C6  PXY d   1       1.729  -0.331   0.383  0.00  0.00     0.003 A 
ENDROOT
TORSDOF 0
ENDMDL
