MODEL 1
REMARK minimizedAffinity -2.83616948
REMARK minimizedRMSD -1
REMARK  0 active torsions:
REMARK  status: ('A' for Active; 'I' for Inactive)
ROOT
ATOM      1  C4' PXY d   1      -0.446   1.726  -2.392  0.00  0.00     0.077 C 
ATOM      2  C1' PXY d   1      -0.446  -0.699   2.855  0.00  0.00     0.077 C 
ATOM      3  C1  PXY d   1      -0.441  -0.075   1.474  0.00  0.00    -0.082 A 
ATOM      4  C2  PXY d   1      -0.380   1.242   1.352  0.00  0.00     0.003 A 
ATOM      5  C3  PXY d   1      -0.408   1.825   0.111  0.00  0.00     0.003 A 
ATOM      6  C4  PXY d   1      -0.443   1.051  -1.018  0.00  0.00    -0.082 A 
ATOM      7  C5  PXY d   1      -0.495  -0.293  -0.902  0.00  0.00     0.003 A 
ATOM      8  C6  PXY d   1      -0.508  -0.864   0.368  0.00  0.00     0.003 A 
ENDROOT
TORSDOF 0
ENDMDL
