MODEL 1
REMARK minimizedAffinity -5.03167725
REMARK minimizedRMSD -1
REMARK  0 active torsions:
REMARK  status: ('A' for Active; 'I' for Inactive)
ROOT
ATOM      1  C4' PXY d   1       0.374  -1.291   2.175  0.00  0.00     0.077 C 
ATOM      2  C1' PXY d   1      -0.235   2.430  -2.207  0.00  0.00     0.077 C 
ATOM      3  C1  PXY d   1      -0.081   1.445  -1.065  0.00  0.00    -0.082 A 
ATOM      4  C2  PXY d   1       0.047   1.894   0.174  0.00  0.00     0.003 A 
ATOM      5  C3  PXY d   1       0.219   1.018   1.214  0.00  0.00     0.003 A 
ATOM      6  C4  PXY d   1       0.207  -0.333   0.992  0.00  0.00    -0.082 A 
ATOM      7  C5  PXY d   1       0.066  -0.799  -0.267  0.00  0.00     0.003 A 
ATOM      8  C6  PXY d   1      -0.066   0.107  -1.315  0.00  0.00     0.003 A 
ENDROOT
TORSDOF 0
ENDMDL
