MODEL 1
REMARK minimizedAffinity -5.43813324
REMARK minimizedRMSD -1
REMARK  0 active torsions:
REMARK  status: ('A' for Active; 'I' for Inactive)
ROOT
ATOM      1  C4' PXY d   1       3.072  -2.532  -0.453  0.00  0.00     0.077 C 
ATOM      2  C1' PXY d   1      -1.428   0.139   2.004  0.00  0.00     0.077 C 
ATOM      3  C1  PXY d   1      -0.242  -0.562   1.371  0.00  0.00    -0.082 A 
ATOM      4  C2  PXY d   1      -0.002  -0.406   0.079  0.00  0.00     0.003 A 
ATOM      5  C3  PXY d   1       1.047  -1.058  -0.515  0.00  0.00     0.003 A 
ATOM      6  C4  PXY d   1       1.891  -1.836   0.230  0.00  0.00    -0.082 A 
ATOM      7  C5  PXY d   1       1.660  -1.992   1.551  0.00  0.00     0.003 A 
ATOM      8  C6  PXY d   1       0.566  -1.354   2.128  0.00  0.00     0.003 A 
ENDROOT
TORSDOF 0
ENDMDL
