MODEL 1
REMARK minimizedAffinity 4.86645603
REMARK minimizedRMSD -1
REMARK  1 active torsions:
REMARK  status: ('A' for Active; 'I' for Inactive)
REMARK    1  A    between atoms: N_2  and  C1_3 
ROOT
ATOM      1  C1  UNL d   1       4.099  -3.860  -1.498  0.00  0.00     0.143 A 
ATOM      2  C2  UNL d   1       3.083  -3.804  -0.537  0.00  0.00    -0.057 A 
ATOM      3  C3  UNL d   1       2.147  -4.837  -0.410  0.00  0.00     0.033 A 
ATOM      4  C4  UNL d   1       2.193  -5.935  -1.263  0.00  0.00    -0.042 A 
ATOM      5  C5  UNL d   1       3.179  -6.000  -2.241  0.00  0.00     0.033 A 
ATOM      6  C6  UNL d   1       4.115  -4.968  -2.359  0.00  0.00    -0.057 A 
ENDROOT
BRANCH   1   7
ATOM      7  N   UNL d   1       5.000  -2.820  -1.739  0.00  0.00    -0.732 N 
ATOM      8  C   UNL d   1       4.531  -1.458  -1.883  0.00  0.00     0.284 C 
ATOM      9  H3  UNL d   1       5.853  -2.910  -1.192  0.00  0.00     0.395 HD
ENDBRANCH   1   7
TORSDOF 1
ENDMDL
