MODEL 1
REMARK minimizedAffinity 4.44939709
REMARK minimizedRMSD -1
REMARK  1 active torsions:
REMARK  status: ('A' for Active; 'I' for Inactive)
REMARK    1  A    between atoms: N_2  and  C1_3 
ROOT
ATOM      1  C1  UNL d   1      -0.871   0.848  -1.232  0.00  0.00     0.143 A 
ATOM      2  C2  UNL d   1      -2.196   0.435  -1.055  0.00  0.00    -0.057 A 
ATOM      3  C3  UNL d   1      -2.574  -0.898  -1.258  0.00  0.00     0.033 A 
ATOM      4  C4  UNL d   1      -1.636  -1.838  -1.672  0.00  0.00    -0.042 A 
ATOM      5  C5  UNL d   1      -0.319  -1.444  -1.879  0.00  0.00     0.033 A 
ATOM      6  C6  UNL d   1       0.054  -0.113  -1.667  0.00  0.00    -0.057 A 
ENDROOT
BRANCH   1   7
ATOM      7  N   UNL d   1      -0.453   2.178  -1.141  0.00  0.00    -0.732 N 
ATOM      8  C   UNL d   1      -0.253   2.801   0.149  0.00  0.00     0.284 C 
ATOM      9  H3  UNL d   1       0.260   2.409  -1.830  0.00  0.00     0.395 HD
ENDBRANCH   1   7
TORSDOF 1
ENDMDL
