MODEL 1
REMARK minimizedAffinity 10.2681084
REMARK minimizedRMSD -1
REMARK  1 active torsions:
REMARK  status: ('A' for Active; 'I' for Inactive)
REMARK    1  A    between atoms: N_2  and  C1_3 
ROOT
ATOM      1  C1  UNL d   1      -1.046   1.946  -1.232  0.00  0.00     0.143 A 
ATOM      2  C2  UNL d   1      -0.473   0.686  -1.027  0.00  0.00    -0.057 A 
ATOM      3  C3  UNL d   1      -1.257  -0.474  -1.006  0.00  0.00     0.033 A 
ATOM      4  C4  UNL d   1      -2.636  -0.391  -1.163  0.00  0.00    -0.042 A 
ATOM      5  C5  UNL d   1      -3.231   0.853  -1.344  0.00  0.00     0.033 A 
ATOM      6  C6  UNL d   1      -2.442   2.007  -1.370  0.00  0.00    -0.057 A 
ENDROOT
BRANCH   1   7
ATOM      7  N   UNL d   1      -0.334   3.145  -1.165  0.00  0.00    -0.732 N 
ATOM      8  C   UNL d   1       0.105   3.672   0.110  0.00  0.00     0.284 C 
ATOM      9  H3  UNL d   1       0.355   3.230  -1.909  0.00  0.00     0.395 HD
ENDBRANCH   1   7
TORSDOF 1
ENDMDL
