MODEL 1
REMARK minimizedAffinity 3.24406052
REMARK minimizedRMSD -1
REMARK  1 active torsions:
REMARK  status: ('A' for Active; 'I' for Inactive)
REMARK    1  A    between atoms: N_2  and  C1_3 
ROOT
ATOM      1  C1  UNL d   1       3.573  -3.380  -1.213  0.00  0.00     0.143 A 
ATOM      2  C2  UNL d   1       4.742  -3.467  -1.976  0.00  0.00    -0.057 A 
ATOM      3  C3  UNL d   1       5.757  -2.510  -1.862  0.00  0.00     0.033 A 
ATOM      4  C4  UNL d   1       5.608  -1.428  -1.000  0.00  0.00    -0.042 A 
ATOM      5  C5  UNL d   1       4.444  -1.308  -0.250  0.00  0.00     0.033 A 
ATOM      6  C6  UNL d   1       3.436  -2.271  -0.363  0.00  0.00    -0.057 A 
ENDROOT
BRANCH   1   7
ATOM      7  N   UNL d   1       2.486  -4.246  -1.353  0.00  0.00    -0.732 N 
ATOM      8  C   UNL d   1       2.492  -5.278  -2.367  0.00  0.00     0.284 C 
ATOM      9  H3  UNL d   1       2.111  -4.546  -0.456  0.00  0.00     0.395 HD
ENDBRANCH   1   7
TORSDOF 1
ENDMDL
