MODEL 1
REMARK minimizedAffinity 1.02329969
REMARK minimizedRMSD -1
REMARK  1 active torsions:
REMARK  status: ('A' for Active; 'I' for Inactive)
REMARK    1  A    between atoms: N_2  and  C1_3 
ROOT
ATOM      1  C1  UNL d   1      -0.627   2.456   0.961  0.00  0.00     0.143 A 
ATOM      2  C2  UNL d   1      -0.360   1.746   2.137  0.00  0.00    -0.057 A 
ATOM      3  C3  UNL d   1       0.575   2.210   3.069  0.00  0.00     0.033 A 
ATOM      4  C4  UNL d   1       1.285   3.382   2.828  0.00  0.00    -0.042 A 
ATOM      5  C5  UNL d   1       1.054   4.091   1.654  0.00  0.00     0.033 A 
ATOM      6  C6  UNL d   1       0.114   3.626   0.730  0.00  0.00    -0.057 A 
ENDROOT
BRANCH   1   7
ATOM      7  N   UNL d   1      -1.473   1.996  -0.050  0.00  0.00    -0.732 N 
ATOM      8  C   UNL d   1      -2.853   1.669   0.235  0.00  0.00     0.284 C 
ATOM      9  H3  UNL d   1      -1.337   2.495  -0.927  0.00  0.00     0.395 HD
ENDBRANCH   1   7
TORSDOF 1
ENDMDL
