MODEL 1
REMARK minimizedAffinity 6.06697083
REMARK minimizedRMSD -1
REMARK  1 active torsions:
REMARK  status: ('A' for Active; 'I' for Inactive)
REMARK    1  A    between atoms: N_2  and  C1_3 
ROOT
ATOM      1  C1  UNL d   1      -0.021   3.701   1.070  0.00  0.00     0.143 A 
ATOM      2  C2  UNL d   1      -0.745   2.549   1.394  0.00  0.00    -0.057 A 
ATOM      3  C3  UNL d   1      -0.361   1.725   2.459  0.00  0.00     0.033 A 
ATOM      4  C4  UNL d   1       0.776   2.025   3.203  0.00  0.00    -0.042 A 
ATOM      5  C5  UNL d   1       1.525   3.151   2.883  0.00  0.00     0.033 A 
ATOM      6  C6  UNL d   1       1.132   3.973   1.822  0.00  0.00    -0.057 A 
ENDROOT
BRANCH   1   7
ATOM      7  N   UNL d   1      -0.296   4.507  -0.038  0.00  0.00    -0.732 N 
ATOM      8  C   UNL d   1      -0.653   3.915  -1.309  0.00  0.00     0.284 C 
ATOM      9  H3  UNL d   1      -0.842   5.329   0.206  0.00  0.00     0.395 HD
ENDBRANCH   1   7
TORSDOF 1
ENDMDL
