MODEL 1
REMARK minimizedAffinity -0.0418041721
REMARK minimizedRMSD -1
REMARK  1 active torsions:
REMARK  status: ('A' for Active; 'I' for Inactive)
REMARK    1  A    between atoms: N_2  and  C1_3 
ROOT
ATOM      1  C1  UNL d   1      -1.320   1.309  -0.867  0.00  0.00     0.143 A 
ATOM      2  C2  UNL d   1      -2.696   1.133  -0.683  0.00  0.00    -0.057 A 
ATOM      3  C3  UNL d   1      -3.285  -0.134  -0.777  0.00  0.00     0.033 A 
ATOM      4  C4  UNL d   1      -2.509  -1.246  -1.087  0.00  0.00    -0.042 A 
ATOM      5  C5  UNL d   1      -1.144  -1.091  -1.299  0.00  0.00     0.033 A 
ATOM      6  C6  UNL d   1      -0.561   0.176  -1.197  0.00  0.00    -0.057 A 
ENDROOT
BRANCH   1   7
ATOM      7  N   UNL d   1      -0.691   2.557  -0.884  0.00  0.00    -0.732 N 
ATOM      8  C   UNL d   1      -0.401   3.252   0.352  0.00  0.00     0.284 C 
ATOM      9  H3  UNL d   1       0.055   2.606  -1.574  0.00  0.00     0.395 HD
ENDBRANCH   1   7
TORSDOF 1
ENDMDL
