MODEL 1
REMARK minimizedAffinity -2.45770574
REMARK minimizedRMSD -1
REMARK  0 active torsions:
REMARK  status: ('A' for Active; 'I' for Inactive)
ROOT
ATOM      1  C1  BNZ d   1      -2.934   1.525  -5.937  0.00  0.00     0.000 A 
ATOM      2  C2  BNZ d   1      -1.777   2.256  -5.993  0.00  0.00     0.000 A 
ATOM      3  C3  BNZ d   1      -1.812   3.622  -5.997  0.00  0.00     0.000 A 
ATOM      4  C4  BNZ d   1      -3.003   4.255  -5.986  0.00  0.00     0.000 A 
ATOM      5  C5  BNZ d   1      -4.178   3.531  -5.940  0.00  0.00     0.000 A 
ATOM      6  C6  BNZ d   1      -4.138   2.157  -5.896  0.00  0.00     0.000 A 
ENDROOT
TORSDOF 0
ENDMDL
