MODEL 1
REMARK minimizedAffinity -0.617713332
REMARK minimizedRMSD -1
REMARK  0 active torsions:
REMARK  status: ('A' for Active; 'I' for Inactive)
ROOT
ATOM      1  C1  BNZ d   1      -4.677  -4.709  -5.918  0.00  0.00     0.000 A 
ATOM      2  C2  BNZ d   1      -5.857  -4.014  -5.904  0.00  0.00     0.000 A 
ATOM      3  C3  BNZ d   1      -5.866  -2.649  -5.959  0.00  0.00     0.000 A 
ATOM      4  C4  BNZ d   1      -4.696  -1.978  -5.988  0.00  0.00     0.000 A 
ATOM      5  C5  BNZ d   1      -3.498  -2.664  -5.994  0.00  0.00     0.000 A 
ATOM      6  C6  BNZ d   1      -3.493  -4.040  -5.978  0.00  0.00     0.000 A 
ENDROOT
TORSDOF 0
ENDMDL
