MODEL 1
REMARK minimizedAffinity 3.35397553
REMARK minimizedRMSD -1
REMARK  0 active torsions:
REMARK  status: ('A' for Active; 'I' for Inactive)
ROOT
ATOM      1  C1  BNZ d   1       1.431  -0.084  -1.107  0.00  0.00     0.000 A 
ATOM      2  C2  BNZ d   1       2.175   0.947  -1.616  0.00  0.00     0.000 A 
ATOM      3  C3  BNZ d   1       2.296   2.126  -0.937  0.00  0.00     0.000 A 
ATOM      4  C4  BNZ d   1       1.641   2.289   0.231  0.00  0.00     0.000 A 
ATOM      5  C5  BNZ d   1       0.879   1.262   0.754  0.00  0.00     0.000 A 
ATOM      6  C6  BNZ d   1       0.791   0.063   0.086  0.00  0.00     0.000 A 
ENDROOT
TORSDOF 0
ENDMDL
