MODEL 1
REMARK minimizedAffinity -0.215246767
REMARK minimizedRMSD -1
REMARK  0 active torsions:
REMARK  status: ('A' for Active; 'I' for Inactive)
ROOT
ATOM      1  C1  BNZ d   1      -4.094   3.628  -6.000  0.00  0.00     0.000 A 
ATOM      2  C2  BNZ d   1      -4.551   2.337  -5.989  0.00  0.00     0.000 A 
ATOM      3  C3  BNZ d   1      -3.678   1.286  -5.958  0.00  0.00     0.000 A 
ATOM      4  C4  BNZ d   1      -2.351   1.525  -5.978  0.00  0.00     0.000 A 
ATOM      5  C5  BNZ d   1      -1.875   2.821  -5.999  0.00  0.00     0.000 A 
ATOM      6  C6  BNZ d   1      -2.757   3.877  -5.990  0.00  0.00     0.000 A 
ENDROOT
TORSDOF 0
ENDMDL
