MODEL 1
REMARK minimizedAffinity -0.0329975337
REMARK minimizedRMSD -1
REMARK  0 active torsions:
REMARK  status: ('A' for Active; 'I' for Inactive)
ROOT
ATOM      1  C1  BNZ d   1      -3.094   1.895  -6.000  0.00  0.00     0.000 A 
ATOM      2  C2  BNZ d   1      -4.282   1.214  -5.999  0.00  0.00     0.000 A 
ATOM      3  C3  BNZ d   1      -5.473   1.885  -5.998  0.00  0.00     0.000 A 
ATOM      4  C4  BNZ d   1      -5.475   3.233  -5.956  0.00  0.00     0.000 A 
ATOM      5  C5  BNZ d   1      -4.285   3.933  -5.946  0.00  0.00     0.000 A 
ATOM      6  C6  BNZ d   1      -3.088   3.256  -5.987  0.00  0.00     0.000 A 
ENDROOT
TORSDOF 0
ENDMDL
