MODEL 1
REMARK minimizedAffinity 6.18964863
REMARK minimizedRMSD -1
REMARK  0 active torsions:
REMARK  status: ('A' for Active; 'I' for Inactive)
ROOT
ATOM      1  C1  BNZ d   1       2.088  -0.590  -0.514  0.00  0.00     0.000 A 
ATOM      2  C2  BNZ d   1       3.052   0.226  -1.043  0.00  0.00     0.000 A 
ATOM      3  C3  BNZ d   1       2.999   1.580  -0.861  0.00  0.00     0.000 A 
ATOM      4  C4  BNZ d   1       1.963   2.119  -0.187  0.00  0.00     0.000 A 
ATOM      5  C5  BNZ d   1       0.978   1.310   0.344  0.00  0.00     0.000 A 
ATOM      6  C6  BNZ d   1       1.055  -0.056   0.192  0.00  0.00     0.000 A 
ENDROOT
TORSDOF 0
ENDMDL
