MODEL 1
REMARK minimizedAffinity -2.31339788
REMARK minimizedRMSD -1
REMARK  0 active torsions:
REMARK  status: ('A' for Active; 'I' for Inactive)
ROOT
ATOM      1  C1  BNZ d   1      -4.890  -2.227  -5.966  0.00  0.00     0.000 A 
ATOM      2  C2  BNZ d   1      -3.634  -2.772  -5.960  0.00  0.00     0.000 A 
ATOM      3  C3  BNZ d   1      -3.460  -4.128  -5.998  0.00  0.00     0.000 A 
ATOM      4  C4  BNZ d   1      -4.540  -4.935  -6.000  0.00  0.00     0.000 A 
ATOM      5  C5  BNZ d   1      -5.813  -4.401  -5.996  0.00  0.00     0.000 A 
ATOM      6  C6  BNZ d   1      -5.984  -3.035  -5.998  0.00  0.00     0.000 A 
ENDROOT
TORSDOF 0
ENDMDL
