MODEL 1
REMARK minimizedAffinity -2.76164627
REMARK minimizedRMSD -1
REMARK  0 active torsions:
REMARK  status: ('A' for Active; 'I' for Inactive)
ROOT
ATOM      1  C1  BNZ d   1      -4.268   3.427  -5.931  0.00  0.00     0.000 A 
ATOM      2  C2  BNZ d   1      -5.218   2.443  -6.000  0.00  0.00     0.000 A 
ATOM      3  C3  BNZ d   1      -4.859   1.124  -6.000  0.00  0.00     0.000 A 
ATOM      4  C4  BNZ d   1      -3.552   0.792  -5.971  0.00  0.00     0.000 A 
ATOM      5  C5  BNZ d   1      -2.583   1.773  -5.911  0.00  0.00     0.000 A 
ATOM      6  C6  BNZ d   1      -2.949   3.099  -5.872  0.00  0.00     0.000 A 
ENDROOT
TORSDOF 0
ENDMDL
