MODEL 1
REMARK minimizedAffinity -2.51734543
REMARK minimizedRMSD -1
REMARK  0 active torsions:
REMARK  status: ('A' for Active; 'I' for Inactive)
ROOT
ATOM      1  C1  BNZ d   1      -4.178   2.299  -5.999  0.00  0.00     0.000 A 
ATOM      2  C2  BNZ d   1      -5.324   3.048  -5.981  0.00  0.00     0.000 A 
ATOM      3  C3  BNZ d   1      -5.267   4.414  -5.973  0.00  0.00     0.000 A 
ATOM      4  C4  BNZ d   1      -4.067   5.028  -5.942  0.00  0.00     0.000 A 
ATOM      5  C5  BNZ d   1      -2.902   4.286  -5.950  0.00  0.00     0.000 A 
ATOM      6  C6  BNZ d   1      -2.963   2.912  -5.998  0.00  0.00     0.000 A 
ENDROOT
TORSDOF 0
ENDMDL
