MODEL 1
REMARK minimizedAffinity 1.74271953
REMARK minimizedRMSD -1
REMARK  0 active torsions:
REMARK  status: ('A' for Active; 'I' for Inactive)
ROOT
ATOM      1  C1  BNZ d   1      -0.435   0.780  -0.995  0.00  0.00     0.000 A 
ATOM      2  C2  BNZ d   1      -0.776   0.341  -2.247  0.00  0.00     0.000 A 
ATOM      3  C3  BNZ d   1       0.077  -0.445  -2.969  0.00  0.00     0.000 A 
ATOM      4  C4  BNZ d   1       1.285  -0.759  -2.457  0.00  0.00     0.000 A 
ATOM      5  C5  BNZ d   1       1.647  -0.317  -1.200  0.00  0.00     0.000 A 
ATOM      6  C6  BNZ d   1       0.770   0.442  -0.460  0.00  0.00     0.000 A 
ENDROOT
TORSDOF 0
ENDMDL
