MODEL 1
REMARK minimizedAffinity -1.85282755
REMARK minimizedRMSD -1
REMARK  0 active torsions:
REMARK  status: ('A' for Active; 'I' for Inactive)
ROOT
ATOM      1  C1  BNZ d   1      -2.682   2.927  -5.999  0.00  0.00     0.000 A 
ATOM      2  C2  BNZ d   1      -2.737   1.559  -5.999  0.00  0.00     0.000 A 
ATOM      3  C3  BNZ d   1      -3.938   0.906  -6.000  0.00  0.00     0.000 A 
ATOM      4  C4  BNZ d   1      -5.081   1.621  -5.961  0.00  0.00     0.000 A 
ATOM      5  C5  BNZ d   1      -5.043   3.001  -5.952  0.00  0.00     0.000 A 
ATOM      6  C6  BNZ d   1      -3.832   3.655  -5.990  0.00  0.00     0.000 A 
ENDROOT
TORSDOF 0
ENDMDL
