MODEL 1
REMARK minimizedAffinity -2.96612954
REMARK minimizedRMSD -1
REMARK  0 active torsions:
REMARK  status: ('A' for Active; 'I' for Inactive)
ROOT
ATOM      1  C1  BNZ d   1      -2.552   2.351  -5.638  0.00  0.00     0.000 A 
ATOM      2  C2  BNZ d   1      -2.590   1.031  -6.000  0.00  0.00     0.000 A 
ATOM      3  C3  BNZ d   1      -3.769   0.339  -6.000  0.00  0.00     0.000 A 
ATOM      4  C4  BNZ d   1      -4.900   0.955  -5.600  0.00  0.00     0.000 A 
ATOM      5  C5  BNZ d   1      -4.876   2.283  -5.223  0.00  0.00     0.000 A 
ATOM      6  C6  BNZ d   1      -3.695   2.987  -5.261  0.00  0.00     0.000 A 
ENDROOT
TORSDOF 0
ENDMDL
