MODEL 1
REMARK minimizedAffinity -0.900071025
REMARK minimizedRMSD -1
REMARK  0 active torsions:
REMARK  status: ('A' for Active; 'I' for Inactive)
ROOT
ATOM      1  C1  BNZ d   1      -2.392   1.739  -5.970  0.00  0.00     0.000 A 
ATOM      2  C2  BNZ d   1      -3.746   1.534  -5.965  0.00  0.00     0.000 A 
ATOM      3  C3  BNZ d   1      -4.613   2.590  -6.000  0.00  0.00     0.000 A 
ATOM      4  C4  BNZ d   1      -4.127   3.848  -6.000  0.00  0.00     0.000 A 
ATOM      5  C5  BNZ d   1      -2.764   4.071  -5.996  0.00  0.00     0.000 A 
ATOM      6  C6  BNZ d   1      -1.894   3.005  -6.000  0.00  0.00     0.000 A 
ENDROOT
TORSDOF 0
ENDMDL
