MODEL 1
REMARK minimizedAffinity -0.421162754
REMARK minimizedRMSD -1
REMARK  0 active torsions:
REMARK  status: ('A' for Active; 'I' for Inactive)
ROOT
ATOM      1  C1  BNZ d   1      -3.408   1.597  -5.974  0.00  0.00     0.000 A 
ATOM      2  C2  BNZ d   1      -4.650   1.021  -5.968  0.00  0.00     0.000 A 
ATOM      3  C3  BNZ d   1      -5.779   1.790  -5.999  0.00  0.00     0.000 A 
ATOM      4  C4  BNZ d   1      -5.666   3.134  -5.994  0.00  0.00     0.000 A 
ATOM      5  C5  BNZ d   1      -4.420   3.731  -5.991  0.00  0.00     0.000 A 
ATOM      6  C6  BNZ d   1      -3.286   2.952  -5.999  0.00  0.00     0.000 A 
ENDROOT
TORSDOF 0
ENDMDL
