MODEL 1
REMARK minimizedAffinity -1.24494243
REMARK minimizedRMSD -1
REMARK  0 active torsions:
REMARK  status: ('A' for Active; 'I' for Inactive)
ROOT
ATOM      1  C1  BNZ d   1      -3.747   4.186  -5.934  0.00  0.00     0.000 A 
ATOM      2  C2  BNZ d   1      -2.957   3.067  -5.938  0.00  0.00     0.000 A 
ATOM      3  C3  BNZ d   1      -3.513   1.819  -5.991  0.00  0.00     0.000 A 
ATOM      4  C4  BNZ d   1      -4.855   1.691  -5.999  0.00  0.00     0.000 A 
ATOM      5  C5  BNZ d   1      -5.665   2.809  -5.985  0.00  0.00     0.000 A 
ATOM      6  C6  BNZ d   1      -5.101   4.065  -5.971  0.00  0.00     0.000 A 
ENDROOT
TORSDOF 0
ENDMDL
