MODEL 1
REMARK minimizedAffinity -0.847181559
REMARK minimizedRMSD -1
REMARK  0 active torsions:
REMARK  status: ('A' for Active; 'I' for Inactive)
ROOT
ATOM      1  C1  BNZ d   1      -2.624   1.224  -6.000  0.00  0.00     0.000 A 
ATOM      2  C2  BNZ d   1      -3.988   1.346  -6.000  0.00  0.00     0.000 A 
ATOM      3  C3  BNZ d   1      -4.790   0.239  -5.972  0.00  0.00     0.000 A 
ATOM      4  C4  BNZ d   1      -4.228  -0.987  -5.985  0.00  0.00     0.000 A 
ATOM      5  C5  BNZ d   1      -2.855  -1.127  -5.995  0.00  0.00     0.000 A 
ATOM      6  C6  BNZ d   1      -2.051  -0.010  -5.983  0.00  0.00     0.000 A 
ENDROOT
TORSDOF 0
ENDMDL
