MODEL 1
REMARK minimizedAffinity 3.76153064
REMARK minimizedRMSD -1
REMARK  0 active torsions:
REMARK  status: ('A' for Active; 'I' for Inactive)
ROOT
ATOM      1  C   UNL d   1       1.225   2.225   4.314  0.00  0.00     0.078 C 
ATOM      2  C1  UNL d   1       0.373   1.582   3.261  0.00  0.00    -0.077 A 
ATOM      3  C2  UNL d   1      -0.938   2.017   3.030  0.00  0.00    -0.001 A 
ATOM      4  C3  UNL d   1      -1.724   1.403   2.053  0.00  0.00     0.003 A 
ATOM      5  C4  UNL d   1      -1.208   0.349   1.301  0.00  0.00    -0.005 A 
ATOM      6  C5  UNL d   1       0.094  -0.092   1.526  0.00  0.00     0.003 A 
ATOM      7  C6  UNL d   1       0.881   0.521   2.502  0.00  0.00    -0.001 A 
ENDROOT
TORSDOF 0
ENDMDL
