MODEL 1
REMARK minimizedAffinity 2.13382697
REMARK minimizedRMSD -1
REMARK  0 active torsions:
REMARK  status: ('A' for Active; 'I' for Inactive)
ROOT
ATOM      1  C   UNL d   1      -2.919   1.120   1.858  0.00  0.00     0.078 C 
ATOM      2  C1  UNL d   1      -1.545   1.540   2.289  0.00  0.00    -0.077 A 
ATOM      3  C2  UNL d   1      -1.346   2.720   3.015  0.00  0.00    -0.001 A 
ATOM      4  C3  UNL d   1      -0.061   3.103   3.401  0.00  0.00     0.003 A 
ATOM      5  C4  UNL d   1       1.036   2.312   3.065  0.00  0.00    -0.005 A 
ATOM      6  C5  UNL d   1       0.848   1.136   2.342  0.00  0.00     0.003 A 
ATOM      7  C6  UNL d   1      -0.437   0.751   1.954  0.00  0.00    -0.001 A 
ENDROOT
TORSDOF 0
ENDMDL
