MODEL 1
REMARK minimizedAffinity 2.19212389
REMARK minimizedRMSD -1
REMARK  0 active torsions:
REMARK  status: ('A' for Active; 'I' for Inactive)
ROOT
ATOM      1  C   UNL d   1       2.143   2.698  -5.301  0.00  0.00     0.078 C 
ATOM      2  C1  UNL d   1       2.446   1.346  -4.725  0.00  0.00    -0.077 A 
ATOM      3  C2  UNL d   1       3.351   1.200  -3.666  0.00  0.00    -0.001 A 
ATOM      4  C3  UNL d   1       3.630  -0.065  -3.147  0.00  0.00     0.003 A 
ATOM      5  C4  UNL d   1       3.011  -1.193  -3.681  0.00  0.00    -0.005 A 
ATOM      6  C5  UNL d   1       2.111  -1.058  -4.736  0.00  0.00     0.003 A 
ATOM      7  C6  UNL d   1       1.830   0.207  -5.256  0.00  0.00    -0.001 A 
ENDROOT
TORSDOF 0
ENDMDL
