MODEL 1
REMARK minimizedAffinity 2.25670481
REMARK minimizedRMSD -1
REMARK  0 active torsions:
REMARK  status: ('A' for Active; 'I' for Inactive)
ROOT
ATOM      1  C   UNL d   1      -3.357   1.716   1.552  0.00  0.00     0.078 C 
ATOM      2  C1  UNL d   1      -1.910   1.680   1.945  0.00  0.00    -0.077 A 
ATOM      3  C2  UNL d   1      -1.107   0.575   1.638  0.00  0.00    -0.001 A 
ATOM      4  C3  UNL d   1       0.236   0.550   2.019  0.00  0.00     0.003 A 
ATOM      5  C4  UNL d   1       0.787   1.628   2.709  0.00  0.00    -0.005 A 
ATOM      6  C5  UNL d   1      -0.005   2.731   3.021  0.00  0.00     0.003 A 
ATOM      7  C6  UNL d   1      -1.348   2.757   2.641  0.00  0.00    -0.001 A 
ENDROOT
TORSDOF 0
ENDMDL
