MODEL 1
REMARK minimizedAffinity 2.3872335
REMARK minimizedRMSD -1
REMARK  0 active torsions:
REMARK  status: ('A' for Active; 'I' for Inactive)
ROOT
ATOM      1  C   UNL d   1      -3.365   0.785   2.670  0.00  0.00     0.078 C 
ATOM      2  C1  UNL d   1      -1.868   0.862   2.627  0.00  0.00    -0.077 A 
ATOM      3  C2  UNL d   1      -1.095  -0.269   2.336  0.00  0.00    -0.001 A 
ATOM      4  C3  UNL d   1       0.298  -0.185   2.309  0.00  0.00     0.003 A 
ATOM      5  C4  UNL d   1       0.931   1.028   2.574  0.00  0.00    -0.005 A 
ATOM      6  C5  UNL d   1       0.170   2.159   2.867  0.00  0.00     0.003 A 
ATOM      7  C6  UNL d   1      -1.223   2.076   2.894  0.00  0.00    -0.001 A 
ENDROOT
TORSDOF 0
ENDMDL
