MODEL 1
REMARK minimizedAffinity 4.16235638
REMARK minimizedRMSD -1
REMARK  0 active torsions:
REMARK  status: ('A' for Active; 'I' for Inactive)
ROOT
ATOM      1  C   UNL d   1      -1.638   0.219   0.806  0.00  0.00     0.078 C 
ATOM      2  C1  UNL d   1      -1.368   0.982   2.068  0.00  0.00    -0.077 A 
ATOM      3  C2  UNL d   1      -2.419   1.426   2.881  0.00  0.00    -0.001 A 
ATOM      4  C3  UNL d   1      -2.153   2.144   4.048  0.00  0.00     0.003 A 
ATOM      5  C4  UNL d   1      -0.837   2.424   4.413  0.00  0.00    -0.005 A 
ATOM      6  C5  UNL d   1       0.214   1.988   3.610  0.00  0.00     0.003 A 
ATOM      7  C6  UNL d   1      -0.050   1.270   2.442  0.00  0.00    -0.001 A 
ENDROOT
TORSDOF 0
ENDMDL
