MODEL 1
REMARK minimizedAffinity 1.59506488
REMARK minimizedRMSD -1
REMARK  0 active torsions:
REMARK  status: ('A' for Active; 'I' for Inactive)
ROOT
ATOM      1  C   UNL d   1      -2.274  -1.518   5.834  0.00  0.00     0.078 C 
ATOM      2  C1  UNL d   1      -3.568  -0.761   5.884  0.00  0.00    -0.077 A 
ATOM      3  C2  UNL d   1      -3.584   0.639   5.906  0.00  0.00    -0.001 A 
ATOM      4  C3  UNL d   1      -4.796   1.330   5.962  0.00  0.00     0.003 A 
ATOM      5  C4  UNL d   1      -6.000   0.629   5.999  0.00  0.00    -0.005 A 
ATOM      6  C5  UNL d   1      -5.993  -0.764   5.980  0.00  0.00     0.003 A 
ATOM      7  C6  UNL d   1      -4.783  -1.457   5.924  0.00  0.00    -0.001 A 
ENDROOT
TORSDOF 0
ENDMDL
