MODEL 1
REMARK minimizedAffinity 2.41537762
REMARK minimizedRMSD -1
REMARK  0 active torsions:
REMARK  status: ('A' for Active; 'I' for Inactive)
ROOT
ATOM      1  C   UNL d   1      -2.178   0.491   0.222  0.00  0.00     0.078 C 
ATOM      2  C1  UNL d   1      -1.259   0.813   1.362  0.00  0.00    -0.077 A 
ATOM      3  C2  UNL d   1      -1.599   1.785   2.311  0.00  0.00    -0.001 A 
ATOM      4  C3  UNL d   1      -0.729   2.081   3.361  0.00  0.00     0.003 A 
ATOM      5  C4  UNL d   1       0.487   1.410   3.473  0.00  0.00    -0.005 A 
ATOM      6  C5  UNL d   1       0.835   0.442   2.532  0.00  0.00     0.003 A 
ATOM      7  C6  UNL d   1      -0.033   0.145   1.481  0.00  0.00    -0.001 A 
ENDROOT
TORSDOF 0
ENDMDL
