MODEL 1
REMARK minimizedAffinity 9.65637589
REMARK minimizedRMSD -1
REMARK  0 active torsions:
REMARK  status: ('A' for Active; 'I' for Inactive)
ROOT
ATOM      1  C   UNL d   1       2.838   4.219  -5.994  0.00  0.00     0.078 C 
ATOM      2  C1  UNL d   1       1.470   4.369  -5.399  0.00  0.00    -0.077 A 
ATOM      3  C2  UNL d   1       1.099   3.654  -4.254  0.00  0.00    -0.001 A 
ATOM      4  C3  UNL d   1      -0.181   3.796  -3.716  0.00  0.00     0.003 A 
ATOM      5  C4  UNL d   1      -1.101   4.652  -4.318  0.00  0.00    -0.005 A 
ATOM      6  C5  UNL d   1      -0.742   5.366  -5.460  0.00  0.00     0.003 A 
ATOM      7  C6  UNL d   1       0.538   5.225  -5.998  0.00  0.00    -0.001 A 
ENDROOT
TORSDOF 0
ENDMDL
