MODEL 1
REMARK minimizedAffinity 4.24643183
REMARK minimizedRMSD -1
REMARK  0 active torsions:
REMARK  status: ('A' for Active; 'I' for Inactive)
ROOT
ATOM      1  C   UNL d   1      -2.202   0.465   0.013  0.00  0.00     0.078 C 
ATOM      2  C1  UNL d   1      -1.157   0.780   1.042  0.00  0.00    -0.077 A 
ATOM      3  C2  UNL d   1       0.090   0.144   1.020  0.00  0.00    -0.001 A 
ATOM      4  C3  UNL d   1       1.050   0.440   1.990  0.00  0.00     0.003 A 
ATOM      5  C4  UNL d   1       0.771   1.371   2.989  0.00  0.00    -0.005 A 
ATOM      6  C5  UNL d   1      -0.468   2.006   3.020  0.00  0.00     0.003 A 
ATOM      7  C6  UNL d   1      -1.429   1.712   2.051  0.00  0.00    -0.001 A 
ENDROOT
TORSDOF 0
ENDMDL
