MODEL 1
REMARK minimizedAffinity 1.81858385
REMARK minimizedRMSD -1
REMARK  0 active torsions:
REMARK  status: ('A' for Active; 'I' for Inactive)
ROOT
ATOM      1  C   UNL d   1       0.399  -0.063   1.930  0.00  0.00     0.078 C 
ATOM      2  C1  UNL d   1      -1.019   0.317   2.233  0.00  0.00    -0.077 A 
ATOM      3  C2  UNL d   1      -1.686   1.284   1.471  0.00  0.00    -0.001 A 
ATOM      4  C3  UNL d   1      -3.003   1.635   1.771  0.00  0.00     0.003 A 
ATOM      5  C4  UNL d   1      -3.665   1.025   2.834  0.00  0.00    -0.005 A 
ATOM      6  C5  UNL d   1      -3.009   0.063   3.600  0.00  0.00     0.003 A 
ATOM      7  C6  UNL d   1      -1.692  -0.290   3.301  0.00  0.00    -0.001 A 
ENDROOT
TORSDOF 0
ENDMDL
