MODEL 1
REMARK minimizedAffinity 2.8789649
REMARK minimizedRMSD -1
REMARK  0 active torsions:
REMARK  status: ('A' for Active; 'I' for Inactive)
ROOT
ATOM      1  C   UNL d   1      -5.980  -0.199   2.006  0.00  0.00     0.078 C 
ATOM      2  C1  UNL d   1      -4.576   0.151   1.612  0.00  0.00    -0.077 A 
ATOM      3  C2  UNL d   1      -3.990   1.354   2.024  0.00  0.00    -0.001 A 
ATOM      4  C3  UNL d   1      -2.686   1.671   1.642  0.00  0.00     0.003 A 
ATOM      5  C4  UNL d   1      -1.957   0.791   0.844  0.00  0.00    -0.005 A 
ATOM      6  C5  UNL d   1      -2.533  -0.407   0.426  0.00  0.00     0.003 A 
ATOM      7  C6  UNL d   1      -3.837  -0.726   0.807  0.00  0.00    -0.001 A 
ENDROOT
TORSDOF 0
ENDMDL
