MODEL 1
REMARK minimizedAffinity 2.12503219
REMARK minimizedRMSD -1
REMARK  0 active torsions:
REMARK  status: ('A' for Active; 'I' for Inactive)
ROOT
ATOM      1  C   UNL d   1      -3.771   2.136   3.479  0.00  0.00     0.078 C 
ATOM      2  C1  UNL d   1      -2.645   1.671   2.605  0.00  0.00    -0.077 A 
ATOM      3  C2  UNL d   1      -2.895   0.951   1.430  0.00  0.00    -0.001 A 
ATOM      4  C3  UNL d   1      -1.837   0.516   0.631  0.00  0.00     0.003 A 
ATOM      5  C4  UNL d   1      -0.522   0.794   0.998  0.00  0.00    -0.005 A 
ATOM      6  C5  UNL d   1      -0.264   1.508   2.167  0.00  0.00     0.003 A 
ATOM      7  C6  UNL d   1      -1.320   1.944   2.967  0.00  0.00    -0.001 A 
ENDROOT
TORSDOF 0
ENDMDL
