MODEL 1
REMARK minimizedAffinity 6.1183629
REMARK minimizedRMSD -1
REMARK  0 active torsions:
REMARK  status: ('A' for Active; 'I' for Inactive)
ROOT
ATOM      1  C   UNL d   1       2.667  -2.253  -5.998  0.00  0.00     0.078 C 
ATOM      2  C1  UNL d   1       3.372  -1.669  -4.811  0.00  0.00    -0.077 A 
ATOM      3  C2  UNL d   1       4.681  -2.050  -4.490  0.00  0.00    -0.001 A 
ATOM      4  C3  UNL d   1       5.322  -1.506  -3.376  0.00  0.00     0.003 A 
ATOM      5  C4  UNL d   1       4.661  -0.579  -2.572  0.00  0.00    -0.005 A 
ATOM      6  C5  UNL d   1       3.358  -0.196  -2.882  0.00  0.00     0.003 A 
ATOM      7  C6  UNL d   1       2.715  -0.739  -3.995  0.00  0.00    -0.001 A 
ENDROOT
TORSDOF 0
ENDMDL
