MODEL 1
REMARK minimizedAffinity 3.7847476
REMARK minimizedRMSD -1
REMARK  0 active torsions:
REMARK  status: ('A' for Active; 'I' for Inactive)
ROOT
ATOM      1  C   UNL d   1      -5.999  -1.296   2.252  0.00  0.00     0.078 C 
ATOM      2  C1  UNL d   1      -5.877  -0.577   3.563  0.00  0.00    -0.077 A 
ATOM      3  C2  UNL d   1      -5.999  -1.265   4.776  0.00  0.00    -0.001 A 
ATOM      4  C3  UNL d   1      -5.894  -0.582   5.989  0.00  0.00     0.003 A 
ATOM      5  C4  UNL d   1      -5.668   0.793   6.000  0.00  0.00    -0.005 A 
ATOM      6  C5  UNL d   1      -5.548   1.486   4.797  0.00  0.00     0.003 A 
ATOM      7  C6  UNL d   1      -5.653   0.805   3.584  0.00  0.00    -0.001 A 
ENDROOT
TORSDOF 0
ENDMDL
