MODEL 1
REMARK minimizedAffinity 0.539686143
REMARK minimizedRMSD -1
REMARK  0 active torsions:
REMARK  status: ('A' for Active; 'I' for Inactive)
ROOT
ATOM      1  C   UNL d   1       0.405   1.984   3.187  0.00  0.00     0.078 C 
ATOM      2  C1  UNL d   1      -0.696   1.497   2.293  0.00  0.00    -0.077 A 
ATOM      3  C2  UNL d   1      -0.428   0.636   1.222  0.00  0.00    -0.001 A 
ATOM      4  C3  UNL d   1      -1.461   0.198   0.392  0.00  0.00     0.003 A 
ATOM      5  C4  UNL d   1      -2.770   0.616   0.624  0.00  0.00    -0.005 A 
ATOM      6  C5  UNL d   1      -3.046   1.474   1.686  0.00  0.00     0.003 A 
ATOM      7  C6  UNL d   1      -2.014   1.914   2.517  0.00  0.00    -0.001 A 
ENDROOT
TORSDOF 0
ENDMDL
