MODEL 1
REMARK minimizedAffinity -3.97434998
REMARK minimizedRMSD -1
REMARK  0 active torsions:
REMARK  status: ('A' for Active; 'I' for Inactive)
ROOT
ATOM      1  C2' OXE d   1       0.840   1.937  -0.043  0.00  0.00     0.078 C 
ATOM      2  C1' OXE d   1       2.600  -0.134   0.658  0.00  0.00     0.078 C 
ATOM      3  C1  OXE d   1       1.119  -0.415   0.728  0.00  0.00    -0.078 A 
ATOM      4  C2  OXE d   1       0.265   0.619   0.428  0.00  0.00    -0.078 A 
ATOM      5  C3  OXE d   1      -1.109   0.398   0.424  0.00  0.00     0.003 A 
ATOM      6  C4  OXE d   1      -1.633  -0.821   0.871  0.00  0.00    -0.002 A 
ATOM      7  C5  OXE d   1      -0.781  -1.875   1.219  0.00  0.00    -0.002 A 
ATOM      8  C6  OXE d   1       0.595  -1.702   1.113  0.00  0.00     0.003 A 
ENDROOT
TORSDOF 0
ENDMDL
