MODEL 1
REMARK minimizedAffinity -6.00864792
REMARK minimizedRMSD -1
REMARK  0 active torsions:
REMARK  status: ('A' for Active; 'I' for Inactive)
ROOT
ATOM      1  C2' OXE d   1       1.196   1.995  -0.049  0.00  0.00     0.078 C 
ATOM      2  C1' OXE d   1      -0.981   0.228  -0.204  0.00  0.00     0.078 C 
ATOM      3  C1  OXE d   1       0.171  -0.151   0.694  0.00  0.00    -0.078 A 
ATOM      4  C2  OXE d   1       1.252   0.697   0.727  0.00  0.00    -0.078 A 
ATOM      5  C3  OXE d   1       2.317   0.422   1.580  0.00  0.00     0.003 A 
ATOM      6  C4  OXE d   1       2.366  -0.785   2.287  0.00  0.00    -0.002 A 
ATOM      7  C5  OXE d   1       1.293  -1.681   2.236  0.00  0.00    -0.002 A 
ATOM      8  C6  OXE d   1       0.172  -1.360   1.479  0.00  0.00     0.003 A 
ENDROOT
TORSDOF 0
ENDMDL
