MODEL 1
REMARK minimizedAffinity -1.93484378
REMARK minimizedRMSD -1
REMARK  0 active torsions:
REMARK  status: ('A' for Active; 'I' for Inactive)
ROOT
ATOM      1  C2' OXE d   1      -1.209   0.009  -0.371  0.00  0.00     0.078 C 
ATOM      2  C1' OXE d   1       0.293   2.372  -0.563  0.00  0.00     0.078 C 
ATOM      3  C1  OXE d   1       0.955   1.166   0.055  0.00  0.00    -0.078 A 
ATOM      4  C2  OXE d   1       0.197   0.028   0.187  0.00  0.00    -0.078 A 
ATOM      5  C3  OXE d   1       0.776  -1.130   0.700  0.00  0.00     0.003 A 
ATOM      6  C4  OXE d   1       2.074  -1.102   1.223  0.00  0.00    -0.002 A 
ATOM      7  C5  OXE d   1       2.850   0.059   1.134  0.00  0.00    -0.002 A 
ATOM      8  C6  OXE d   1       2.321   1.187   0.516  0.00  0.00     0.003 A 
ENDROOT
TORSDOF 0
ENDMDL
