MODEL 1
REMARK minimizedAffinity -5.74407673
REMARK minimizedRMSD -1
REMARK  0 active torsions:
REMARK  status: ('A' for Active; 'I' for Inactive)
ROOT
ATOM      1  C2' OXE d   1       0.068   2.415   0.338  0.00  0.00     0.078 C 
ATOM      2  C1' OXE d   1      -1.259  -0.058   0.308  0.00  0.00     0.078 C 
ATOM      3  C1  OXE d   1       0.238  -0.065   0.491  0.00  0.00    -0.078 A 
ATOM      4  C2  OXE d   1       0.885   1.147   0.458  0.00  0.00    -0.078 A 
ATOM      5  C3  OXE d   1       2.259   1.201   0.676  0.00  0.00     0.003 A 
ATOM      6  C4  OXE d   1       3.008   0.022   0.776  0.00  0.00    -0.002 A 
ATOM      7  C5  OXE d   1       2.373  -1.224   0.773  0.00  0.00    -0.002 A 
ATOM      8  C6  OXE d   1       0.988  -1.284   0.674  0.00  0.00     0.003 A 
ENDROOT
TORSDOF 0
ENDMDL
