MODEL 1
REMARK minimizedAffinity -3.46236372
REMARK minimizedRMSD -1
REMARK  0 active torsions:
REMARK  status: ('A' for Active; 'I' for Inactive)
ROOT
ATOM      1  C2' OXE d   1       1.458   2.239  -0.236  0.00  0.00     0.078 C 
ATOM      2  C1' OXE d   1       2.944   0.114   0.837  0.00  0.00     0.078 C 
ATOM      3  C1  OXE d   1       1.474  -0.112   0.587  0.00  0.00    -0.078 A 
ATOM      4  C2  OXE d   1       0.745   0.949   0.106  0.00  0.00    -0.078 A 
ATOM      5  C3  OXE d   1      -0.604   0.778  -0.194  0.00  0.00     0.003 A 
ATOM      6  C4  OXE d   1      -1.258  -0.415   0.134  0.00  0.00    -0.002 A 
ATOM      7  C5  OXE d   1      -0.542  -1.495   0.662  0.00  0.00    -0.002 A 
ATOM      8  C6  OXE d   1       0.830  -1.374   0.855  0.00  0.00     0.003 A 
ENDROOT
TORSDOF 0
ENDMDL
