MODEL 1
REMARK minimizedAffinity -5.36777353
REMARK minimizedRMSD -1
REMARK  0 active torsions:
REMARK  status: ('A' for Active; 'I' for Inactive)
ROOT
ATOM      1  C2' OXE d   1       0.942   1.550  -0.425  0.00  0.00     0.078 C 
ATOM      2  C1' OXE d   1      -0.978  -0.424   0.117  0.00  0.00     0.078 C 
ATOM      3  C1  OXE d   1       0.425  -0.651   0.622  0.00  0.00    -0.078 A 
ATOM      4  C2  OXE d   1       1.369   0.299   0.312  0.00  0.00    -0.078 A 
ATOM      5  C3  OXE d   1       2.666   0.166   0.799  0.00  0.00     0.003 A 
ATOM      6  C4  OXE d   1       3.055  -0.999   1.471  0.00  0.00    -0.002 A 
ATOM      7  C5  OXE d   1       2.119  -1.997   1.763  0.00  0.00    -0.002 A 
ATOM      8  C6  OXE d   1       0.793  -1.819   1.383  0.00  0.00     0.003 A 
ENDROOT
TORSDOF 0
ENDMDL
