MODEL 1
REMARK minimizedAffinity -5.89342546
REMARK minimizedRMSD -1
REMARK  0 active torsions:
REMARK  status: ('A' for Active; 'I' for Inactive)
ROOT
ATOM      1  C2' OXE d   1      -1.092  -1.738   1.528  0.00  0.00     0.078 C 
ATOM      2  C1' OXE d   1      -1.330   0.449  -0.215  0.00  0.00     0.078 C 
ATOM      3  C1  OXE d   1       0.041   0.127   0.327  0.00  0.00    -0.078 A 
ATOM      4  C2  OXE d   1       0.140  -0.916   1.216  0.00  0.00    -0.078 A 
ATOM      5  C3  OXE d   1       1.389  -1.290   1.703  0.00  0.00     0.003 A 
ATOM      6  C4  OXE d   1       2.521  -0.519   1.417  0.00  0.00    -0.002 A 
ATOM      7  C5  OXE d   1       2.436   0.572   0.545  0.00  0.00    -0.002 A 
ATOM      8  C6  OXE d   1       1.213   0.881  -0.041  0.00  0.00     0.003 A 
ENDROOT
TORSDOF 0
ENDMDL
