MODEL 1
REMARK minimizedAffinity -5.29351377
REMARK minimizedRMSD -1
REMARK  0 active torsions:
REMARK  status: ('A' for Active; 'I' for Inactive)
ROOT
ATOM      1  C2' OXE d   1       2.891   0.386   0.719  0.00  0.00     0.078 C 
ATOM      2  C1' OXE d   1       1.407  -1.966   0.335  0.00  0.00     0.078 C 
ATOM      3  C1  OXE d   1       0.670  -0.651   0.274  0.00  0.00    -0.078 A 
ATOM      4  C2  OXE d   1       1.396   0.492   0.509  0.00  0.00    -0.078 A 
ATOM      5  C3  OXE d   1       0.776   1.734   0.411  0.00  0.00     0.003 A 
ATOM      6  C4  OXE d   1      -0.609   1.823   0.227  0.00  0.00    -0.002 A 
ATOM      7  C5  OXE d   1      -1.373   0.669   0.024  0.00  0.00    -0.002 A 
ATOM      8  C6  OXE d   1      -0.744  -0.570   0.003  0.00  0.00     0.003 A 
ENDROOT
TORSDOF 0
ENDMDL
