MODEL 1
REMARK minimizedAffinity -5.01058292
REMARK minimizedRMSD -1
REMARK  0 active torsions:
REMARK  status: ('A' for Active; 'I' for Inactive)
ROOT
ATOM      1  C2' OXE d   1      -3.329   2.137  -1.309  0.00  0.00     0.078 C 
ATOM      2  C1' OXE d   1      -1.307   0.443  -0.347  0.00  0.00     0.078 C 
ATOM      3  C1  OXE d   1      -2.025   0.035  -1.609  0.00  0.00    -0.078 A 
ATOM      4  C2  OXE d   1      -3.045   0.846  -2.046  0.00  0.00    -0.078 A 
ATOM      5  C3  OXE d   1      -3.703   0.545  -3.235  0.00  0.00     0.003 A 
ATOM      6  C4  OXE d   1      -3.441  -0.656  -3.906  0.00  0.00    -0.002 A 
ATOM      7  C5  OXE d   1      -2.434  -1.515  -3.455  0.00  0.00    -0.002 A 
ATOM      8  C6  OXE d   1      -1.689  -1.165  -2.335  0.00  0.00     0.003 A 
ENDROOT
TORSDOF 0
ENDMDL
