MODEL 1
REMARK minimizedAffinity -4.73187637
REMARK minimizedRMSD -1
REMARK  0 active torsions:
REMARK  status: ('A' for Active; 'I' for Inactive)
ROOT
ATOM      1  C2' OXE d   1       0.841   1.925   0.068  0.00  0.00     0.078 C 
ATOM      2  C1' OXE d   1       2.714  -0.114   0.530  0.00  0.00     0.078 C 
ATOM      3  C1  OXE d   1       1.254  -0.449   0.698  0.00  0.00    -0.078 A 
ATOM      4  C2  OXE d   1       0.347   0.567   0.516  0.00  0.00    -0.078 A 
ATOM      5  C3  OXE d   1      -1.016   0.298   0.605  0.00  0.00     0.003 A 
ATOM      6  C4  OXE d   1      -1.465  -0.958   1.029  0.00  0.00    -0.002 A 
ATOM      7  C5  OXE d   1      -0.556  -1.996   1.258  0.00  0.00    -0.002 A 
ATOM      8  C6  OXE d   1       0.801  -1.771   1.057  0.00  0.00     0.003 A 
ENDROOT
TORSDOF 0
ENDMDL
