MODEL 1
REMARK minimizedAffinity -5.35040379
REMARK minimizedRMSD -1
REMARK  0 active torsions:
REMARK  status: ('A' for Active; 'I' for Inactive)
ROOT
ATOM      1  C2' OXE d   1       0.788   1.577  -0.388  0.00  0.00     0.078 C 
ATOM      2  C1' OXE d   1      -0.924  -0.627  -0.084  0.00  0.00     0.078 C 
ATOM      3  C1  OXE d   1       0.474  -0.740   0.471  0.00  0.00    -0.078 A 
ATOM      4  C2  OXE d   1       1.320   0.325   0.277  0.00  0.00    -0.078 A 
ATOM      5  C3  OXE d   1       2.603   0.294   0.816  0.00  0.00     0.003 A 
ATOM      6  C4  OXE d   1       3.090  -0.871   1.420  0.00  0.00    -0.002 A 
ATOM      7  C5  OXE d   1       2.258  -1.982   1.593  0.00  0.00    -0.002 A 
ATOM      8  C6  OXE d   1       0.937  -1.918   1.163  0.00  0.00     0.003 A 
ENDROOT
TORSDOF 0
ENDMDL
