MODEL 1
REMARK minimizedAffinity 4.63075209
REMARK minimizedRMSD -1
REMARK  0 active torsions:
REMARK  status: ('A' for Active; 'I' for Inactive)
ROOT
ATOM      1  C   UNL d   1       0.621   2.345   0.521  0.00  0.00     0.023 A 
ATOM      2  C1  UNL d   1      -0.049   1.529   1.432  0.00  0.00     0.003 A 
ATOM      3  C2  UNL d   1      -0.688   0.367   0.993  0.00  0.00     0.048 A 
ATOM      4  C3  UNL d   1      -0.652   0.027  -0.359  0.00  0.00     0.023 A 
ATOM      5  C4  UNL d   1       0.018   0.841  -1.274  0.00  0.00     0.048 A 
ATOM      6  C5  UNL d   1       0.655   2.001  -0.830  0.00  0.00     0.003 A 
ATOM      7  I   UNL d   1      -1.602  -1.701  -1.015  0.00  0.00    -0.146 I 
ENDROOT
TORSDOF 0
ENDMDL
