MODEL 1
REMARK minimizedAffinity -2.15954685
REMARK minimizedRMSD -1
REMARK  0 active torsions:
REMARK  status: ('A' for Active; 'I' for Inactive)
ROOT
ATOM      1  C   UNL d   1      -2.419   3.930  -5.980  0.00  0.00     0.023 A 
ATOM      2  C1  UNL d   1      -1.566   2.826  -5.970  0.00  0.00     0.003 A 
ATOM      3  C2  UNL d   1      -0.182   3.011  -5.976  0.00  0.00     0.048 A 
ATOM      4  C3  UNL d   1       0.342   4.303  -5.991  0.00  0.00     0.023 A 
ATOM      5  C4  UNL d   1      -0.507   5.411  -5.999  0.00  0.00     0.048 A 
ATOM      6  C5  UNL d   1      -1.890   5.221  -5.994  0.00  0.00     0.003 A 
ATOM      7  I   UNL d   1       2.402   4.582  -6.000  0.00  0.00    -0.146 I 
ENDROOT
TORSDOF 0
ENDMDL
