MODEL 1
REMARK minimizedAffinity 0.752473712
REMARK minimizedRMSD -1
REMARK  0 active torsions:
REMARK  status: ('A' for Active; 'I' for Inactive)
ROOT
ATOM      1  C   UNL d   1      -2.995   4.507  -5.995  0.00  0.00     0.023 A 
ATOM      2  C1  UNL d   1      -2.338   3.277  -5.994  0.00  0.00     0.003 A 
ATOM      3  C2  UNL d   1      -0.943   3.228  -5.995  0.00  0.00     0.048 A 
ATOM      4  C3  UNL d   1      -0.210   4.415  -5.996  0.00  0.00     0.023 A 
ATOM      5  C4  UNL d   1      -0.862   5.648  -5.996  0.00  0.00     0.048 A 
ATOM      6  C5  UNL d   1      -2.258   5.692  -5.996  0.00  0.00     0.003 A 
ATOM      7  I   UNL d   1       1.868   4.345  -5.997  0.00  0.00    -0.146 I 
ENDROOT
TORSDOF 0
ENDMDL
