MODEL 1
REMARK minimizedAffinity -1.70876551
REMARK minimizedRMSD -1
REMARK  0 active torsions:
REMARK  status: ('A' for Active; 'I' for Inactive)
ROOT
ATOM      1  C   UNL d   1      -1.542   3.876  -5.957  0.00  0.00     0.023 A 
ATOM      2  C1  UNL d   1      -0.531   2.915  -5.939  0.00  0.00     0.003 A 
ATOM      3  C2  UNL d   1       0.809   3.309  -5.952  0.00  0.00     0.048 A 
ATOM      4  C3  UNL d   1       1.131   4.665  -5.981  0.00  0.00     0.023 A 
ATOM      5  C4  UNL d   1       0.122   5.631  -5.999  0.00  0.00     0.048 A 
ATOM      6  C5  UNL d   1      -1.216   5.232  -5.987  0.00  0.00     0.003 A 
ATOM      7  I   UNL d   1       3.124   5.254  -6.000  0.00  0.00    -0.146 I 
ENDROOT
TORSDOF 0
ENDMDL
