MODEL 1
REMARK minimizedAffinity -2.65806246
REMARK minimizedRMSD -1
REMARK  0 active torsions:
REMARK  status: ('A' for Active; 'I' for Inactive)
ROOT
ATOM      1  C   UNL d   1      -3.849   4.152  -5.992  0.00  0.00     0.023 A 
ATOM      2  C1  UNL d   1      -3.218   5.396  -5.992  0.00  0.00     0.003 A 
ATOM      3  C2  UNL d   1      -1.824   5.474  -5.994  0.00  0.00     0.048 A 
ATOM      4  C3  UNL d   1      -1.066   4.303  -5.997  0.00  0.00     0.023 A 
ATOM      5  C4  UNL d   1      -1.693   3.056  -5.998  0.00  0.00     0.048 A 
ATOM      6  C5  UNL d   1      -3.087   2.983  -5.995  0.00  0.00     0.003 A 
ATOM      7  I   UNL d   1       1.009   4.416  -6.000  0.00  0.00    -0.146 I 
ENDROOT
TORSDOF 0
ENDMDL
