MODEL 1
REMARK minimizedAffinity -0.825874627
REMARK minimizedRMSD -1
REMARK  0 active torsions:
REMARK  status: ('A' for Active; 'I' for Inactive)
ROOT
ATOM      1  C   UNL d   1      -3.011   4.837  -5.983  0.00  0.00     0.023 A 
ATOM      2  C1  UNL d   1      -2.389   3.588  -5.994  0.00  0.00     0.003 A 
ATOM      3  C2  UNL d   1      -0.995   3.501  -5.999  0.00  0.00     0.048 A 
ATOM      4  C3  UNL d   1      -0.229   4.666  -5.993  0.00  0.00     0.023 A 
ATOM      5  C4  UNL d   1      -0.847   5.917  -5.981  0.00  0.00     0.048 A 
ATOM      6  C5  UNL d   1      -2.241   6.000  -5.977  0.00  0.00     0.003 A 
ATOM      7  I   UNL d   1       1.845   4.538  -6.000  0.00  0.00    -0.146 I 
ENDROOT
TORSDOF 0
ENDMDL
