MODEL 1
REMARK minimizedAffinity -0.845926344
REMARK minimizedRMSD -1
REMARK  0 active torsions:
REMARK  status: ('A' for Active; 'I' for Inactive)
ROOT
ATOM      1  C   UNL d   1      -3.449   4.328  -5.998  0.00  0.00     0.023 A 
ATOM      2  C1  UNL d   1      -2.719   5.517  -5.999  0.00  0.00     0.003 A 
ATOM      3  C2  UNL d   1      -1.323   5.481  -5.998  0.00  0.00     0.048 A 
ATOM      4  C3  UNL d   1      -0.663   4.252  -5.999  0.00  0.00     0.023 A 
ATOM      5  C4  UNL d   1      -1.389   3.060  -6.000  0.00  0.00     0.048 A 
ATOM      6  C5  UNL d   1      -2.785   3.101  -5.999  0.00  0.00     0.003 A 
ATOM      7  I   UNL d   1       1.415   4.195  -5.999  0.00  0.00    -0.146 I 
ENDROOT
TORSDOF 0
ENDMDL
