MODEL 1
REMARK minimizedAffinity -1.62019324
REMARK minimizedRMSD -1
REMARK  0 active torsions:
REMARK  status: ('A' for Active; 'I' for Inactive)
ROOT
ATOM      1  C   UNL d   1      -3.883   4.441  -5.806  0.00  0.00     0.023 A 
ATOM      2  C1  UNL d   1      -3.153   3.261  -5.941  0.00  0.00     0.003 A 
ATOM      3  C2  UNL d   1      -1.758   3.304  -5.996  0.00  0.00     0.048 A 
ATOM      4  C3  UNL d   1      -1.101   4.531  -5.916  0.00  0.00     0.023 A 
ATOM      5  C4  UNL d   1      -1.828   5.715  -5.780  0.00  0.00     0.048 A 
ATOM      6  C5  UNL d   1      -3.222   5.667  -5.726  0.00  0.00     0.003 A 
ATOM      7  I   UNL d   1       0.975   4.598  -5.998  0.00  0.00    -0.146 I 
ENDROOT
TORSDOF 0
ENDMDL
