MODEL 1
REMARK minimizedAffinity -2.15319061
REMARK minimizedRMSD -1
REMARK  0 active torsions:
REMARK  status: ('A' for Active; 'I' for Inactive)
ROOT
ATOM      1  C   UNL d   1      -2.626   5.211  -5.999  0.00  0.00     0.023 A 
ATOM      2  C1  UNL d   1      -1.415   5.903  -5.999  0.00  0.00     0.003 A 
ATOM      3  C2  UNL d   1      -0.208   5.200  -5.999  0.00  0.00     0.048 A 
ATOM      4  C3  UNL d   1      -0.220   3.806  -6.000  0.00  0.00     0.023 A 
ATOM      5  C4  UNL d   1      -1.430   3.109  -6.000  0.00  0.00     0.048 A 
ATOM      6  C5  UNL d   1      -2.634   3.816  -5.999  0.00  0.00     0.003 A 
ATOM      7  I   UNL d   1       1.575   2.757  -6.000  0.00  0.00    -0.146 I 
ENDROOT
TORSDOF 0
ENDMDL
