MODEL 1
REMARK minimizedAffinity -0.955944359
REMARK minimizedRMSD -1
REMARK  0 active torsions:
REMARK  status: ('A' for Active; 'I' for Inactive)
ROOT
ATOM      1  C   UNL d   1      -2.793   4.055  -5.995  0.00  0.00     0.023 A 
ATOM      2  C1  UNL d   1      -2.130   5.282  -5.995  0.00  0.00     0.003 A 
ATOM      3  C2  UNL d   1      -0.734   5.323  -5.995  0.00  0.00     0.048 A 
ATOM      4  C3  UNL d   1      -0.008   4.133  -5.996  0.00  0.00     0.023 A 
ATOM      5  C4  UNL d   1      -0.667   2.902  -5.998  0.00  0.00     0.048 A 
ATOM      6  C5  UNL d   1      -2.063   2.866  -5.997  0.00  0.00     0.003 A 
ATOM      7  I   UNL d   1       2.070   4.191  -5.997  0.00  0.00    -0.146 I 
ENDROOT
TORSDOF 0
ENDMDL
