MODEL 1
REMARK minimizedAffinity -2.84070277
REMARK minimizedRMSD -1
REMARK  0 active torsions:
REMARK  status: ('A' for Active; 'I' for Inactive)
ROOT
ATOM      1  C   UNL d   1       1.740   4.326  -5.987  0.00  0.00     0.023 A 
ATOM      2  C1  UNL d   1       0.979   5.495  -5.996  0.00  0.00     0.003 A 
ATOM      3  C2  UNL d   1      -0.415   5.423  -6.000  0.00  0.00     0.048 A 
ATOM      4  C3  UNL d   1      -1.043   4.177  -5.993  0.00  0.00     0.023 A 
ATOM      5  C4  UNL d   1      -0.286   3.005  -5.983  0.00  0.00     0.048 A 
ATOM      6  C5  UNL d   1       1.108   3.082  -5.980  0.00  0.00     0.003 A 
ATOM      7  I   UNL d   1      -3.118   4.066  -5.997  0.00  0.00    -0.146 I 
ENDROOT
TORSDOF 0
ENDMDL
