MODEL 1
REMARK minimizedAffinity 1.99123895
REMARK minimizedRMSD -1
REMARK  0 active torsions:
REMARK  status: ('A' for Active; 'I' for Inactive)
ROOT
ATOM      1  C   UNL d   1      -0.819   2.548  -5.989  0.00  0.00     0.023 A 
ATOM      2  C1  UNL d   1       0.369   1.817  -5.992  0.00  0.00     0.003 A 
ATOM      3  C2  UNL d   1       1.598   2.479  -5.996  0.00  0.00     0.048 A 
ATOM      4  C3  UNL d   1       1.632   3.873  -5.995  0.00  0.00     0.023 A 
ATOM      5  C4  UNL d   1       0.446   4.609  -5.990  0.00  0.00     0.048 A 
ATOM      6  C5  UNL d   1      -0.780   3.942  -5.988  0.00  0.00     0.003 A 
ATOM      7  I   UNL d   1       3.461   4.861  -6.000  0.00  0.00    -0.146 I 
ENDROOT
TORSDOF 0
ENDMDL
