MODEL 1
REMARK minimizedAffinity 1.57232308
REMARK minimizedRMSD -1
REMARK  0 active torsions:
REMARK  status: ('A' for Active; 'I' for Inactive)
ROOT
ATOM      1  C   UNL d   1      -0.995   4.554  -5.880  0.00  0.00     0.023 A 
ATOM      2  C1  UNL d   1      -0.430   5.830  -5.886  0.00  0.00     0.003 A 
ATOM      3  C2  UNL d   1       0.958   5.979  -5.899  0.00  0.00     0.048 A 
ATOM      4  C3  UNL d   1       1.776   4.849  -5.907  0.00  0.00     0.023 A 
ATOM      5  C4  UNL d   1       1.214   3.571  -5.902  0.00  0.00     0.048 A 
ATOM      6  C5  UNL d   1      -0.174   3.427  -5.889  0.00  0.00     0.003 A 
ATOM      7  I   UNL d   1       3.842   5.069  -5.926  0.00  0.00    -0.146 I 
ENDROOT
TORSDOF 0
ENDMDL
