MODEL 1
REMARK minimizedAffinity -0.0118755251
REMARK minimizedRMSD -1
REMARK  0 active torsions:
REMARK  status: ('A' for Active; 'I' for Inactive)
ROOT
ATOM      1  C4' PXY d   1       4.295   1.126  -1.057  0.00  0.00     0.077 C 
ATOM      2  C1' PXY d   1      -0.410  -2.216  -0.723  0.00  0.00     0.077 C 
ATOM      3  C1  PXY d   1       0.816  -1.329  -0.812  0.00  0.00    -0.082 A 
ATOM      4  C2  PXY d   1       1.961  -1.836  -1.239  0.00  0.00     0.003 A 
ATOM      5  C3  PXY d   1       3.088  -1.057  -1.295  0.00  0.00     0.003 A 
ATOM      6  C4  PXY d   1       3.029   0.270  -0.960  0.00  0.00    -0.082 A 
ATOM      7  C5  PXY d   1       1.862   0.797  -0.533  0.00  0.00     0.003 A 
ATOM      8  C6  PXY d   1       0.740  -0.021  -0.444  0.00  0.00     0.003 A 
ENDROOT
TORSDOF 0
ENDMDL
