MODEL 1
REMARK minimizedAffinity 0.443208396
REMARK minimizedRMSD -1
REMARK  0 active torsions:
REMARK  status: ('A' for Active; 'I' for Inactive)
ROOT
ATOM      1  C4' PXY d   1       0.012  -1.454  -0.216  0.00  0.00     0.077 C 
ATOM      2  C1' PXY d   1       4.094   2.638  -0.164  0.00  0.00     0.077 C 
ATOM      3  C1  PXY d   1       3.030   1.559  -0.187  0.00  0.00    -0.082 A 
ATOM      4  C2  PXY d   1       1.814   1.829   0.260  0.00  0.00     0.003 A 
ATOM      5  C3  PXY d   1       0.849   0.856   0.276  0.00  0.00     0.003 A 
ATOM      6  C4  PXY d   1       1.115  -0.392  -0.220  0.00  0.00    -0.082 A 
ATOM      7  C5  PXY d   1       2.350  -0.673  -0.688  0.00  0.00     0.003 A 
ATOM      8  C6  PXY d   1       3.328   0.318  -0.658  0.00  0.00     0.003 A 
ENDROOT
TORSDOF 0
ENDMDL
