MODEL 1
REMARK minimizedAffinity 4.17478704
REMARK minimizedRMSD -1
REMARK  0 active torsions:
REMARK  status: ('A' for Active; 'I' for Inactive)
ROOT
ATOM      1  C4' PXY d   1       4.715   2.268  -0.944  0.00  0.00     0.077 C 
ATOM      2  C1' PXY d   1       3.099  -2.889  -2.996  0.00  0.00     0.077 C 
ATOM      3  C1  PXY d   1       3.534  -1.537  -2.464  0.00  0.00    -0.082 A 
ATOM      4  C2  PXY d   1       2.987  -1.064  -1.356  0.00  0.00     0.003 A 
ATOM      5  C3  PXY d   1       3.346   0.171  -0.878  0.00  0.00     0.003 A 
ATOM      6  C4  PXY d   1       4.313   0.904  -1.512  0.00  0.00    -0.082 A 
ATOM      7  C5  PXY d   1       4.883   0.423  -2.637  0.00  0.00     0.003 A 
ATOM      8  C6  PXY d   1       4.475  -0.814  -3.128  0.00  0.00     0.003 A 
ENDROOT
TORSDOF 0
ENDMDL
