MODEL 1
REMARK minimizedAffinity -2.43550348
REMARK minimizedRMSD -1
REMARK  0 active torsions:
REMARK  status: ('A' for Active; 'I' for Inactive)
ROOT
ATOM      1  C4' PXY d   1       4.376   1.676  -0.643  0.00  0.00     0.077 C 
ATOM      2  C1' PXY d   1       0.004  -2.076  -0.173  0.00  0.00     0.077 C 
ATOM      3  C1  PXY d   1       1.142  -1.083  -0.300  0.00  0.00    -0.082 A 
ATOM      4  C2  PXY d   1       2.374  -1.522  -0.498  0.00  0.00     0.003 A 
ATOM      5  C3  PXY d   1       3.420  -0.639  -0.583  0.00  0.00     0.003 A 
ATOM      6  C4  PXY d   1       3.195   0.710  -0.518  0.00  0.00    -0.082 A 
ATOM      7  C5  PXY d   1       1.939   1.166  -0.327  0.00  0.00     0.003 A 
ATOM      8  C6  PXY d   1       0.897   0.252  -0.201  0.00  0.00     0.003 A 
ENDROOT
TORSDOF 0
ENDMDL
