MODEL 1
REMARK minimizedAffinity 2.71121669
REMARK minimizedRMSD -1
REMARK  0 active torsions:
REMARK  status: ('A' for Active; 'I' for Inactive)
ROOT
ATOM      1  C4' PXY d   1       2.769   1.868  -0.068  0.00  0.00     0.077 C 
ATOM      2  C1' PXY d   1       0.017  -3.185  -0.619  0.00  0.00     0.077 C 
ATOM      3  C1  PXY d   1       0.729  -1.854  -0.480  0.00  0.00    -0.082 A 
ATOM      4  C2  PXY d   1       2.051  -1.818  -0.459  0.00  0.00     0.003 A 
ATOM      5  C3  PXY d   1       2.710  -0.626  -0.301  0.00  0.00     0.003 A 
ATOM      6  C4  PXY d   1       2.009   0.547  -0.217  0.00  0.00    -0.082 A 
ATOM      7  C5  PXY d   1       0.660   0.520  -0.248  0.00  0.00     0.003 A 
ATOM      8  C6  PXY d   1       0.009  -0.705  -0.367  0.00  0.00     0.003 A 
ENDROOT
TORSDOF 0
ENDMDL
