MODEL 1
REMARK minimizedAffinity 4.13482714
REMARK minimizedRMSD -1
REMARK  0 active torsions:
REMARK  status: ('A' for Active; 'I' for Inactive)
ROOT
ATOM      1  C4' PXY d   1       4.221   0.087  -1.137  0.00  0.00     0.077 C 
ATOM      2  C1' PXY d   1      -1.052  -2.239  -0.701  0.00  0.00     0.077 C 
ATOM      3  C1  PXY d   1       0.336  -1.640  -0.812  0.00  0.00    -0.082 A 
ATOM      4  C2  PXY d   1       0.495  -0.331  -0.702  0.00  0.00     0.003 A 
ATOM      5  C3  PXY d   1       1.739   0.230  -0.832  0.00  0.00     0.003 A 
ATOM      6  C4  PXY d   1       2.840  -0.562  -1.023  0.00  0.00    -0.082 A 
ATOM      7  C5  PXY d   1       2.687  -1.899  -1.125  0.00  0.00     0.003 A 
ATOM      8  C6  PXY d   1       1.411  -2.446  -1.032  0.00  0.00     0.003 A 
ENDROOT
TORSDOF 0
ENDMDL
