MODEL 1
REMARK minimizedAffinity 3.31293964
REMARK minimizedRMSD -1
REMARK  0 active torsions:
REMARK  status: ('A' for Active; 'I' for Inactive)
ROOT
ATOM      1  C4' PXY d   1       4.137   1.470  -1.201  0.00  0.00     0.077 C 
ATOM      2  C1' PXY d   1      -0.072  -2.364  -0.199  0.00  0.00     0.077 C 
ATOM      3  C1  PXY d   1       1.023  -1.349  -0.462  0.00  0.00    -0.082 A 
ATOM      4  C2  PXY d   1       2.157  -1.740  -1.022  0.00  0.00     0.003 A 
ATOM      5  C3  PXY d   1       3.169  -0.841  -1.237  0.00  0.00     0.003 A 
ATOM      6  C4  PXY d   1       3.001   0.481  -0.925  0.00  0.00    -0.082 A 
ATOM      7  C5  PXY d   1       1.843   0.890  -0.363  0.00  0.00     0.003 A 
ATOM      8  C6  PXY d   1       0.843  -0.046  -0.115  0.00  0.00     0.003 A 
ENDROOT
TORSDOF 0
ENDMDL
