MODEL 1
REMARK minimizedAffinity 2.07946324
REMARK minimizedRMSD -1
REMARK  0 active torsions:
REMARK  status: ('A' for Active; 'I' for Inactive)
ROOT
ATOM      1  C4' PXY d   1       1.080   1.713   1.747  0.00  0.00     0.077 C 
ATOM      2  C1' PXY d   1      -0.735  -1.648  -2.592  0.00  0.00     0.077 C 
ATOM      3  C1  PXY d   1      -0.259  -0.756  -1.462  0.00  0.00    -0.082 A 
ATOM      4  C2  PXY d   1       0.354  -1.293  -0.419  0.00  0.00     0.003 A 
ATOM      5  C3  PXY d   1       0.762  -0.505   0.626  0.00  0.00     0.003 A 
ATOM      6  C4  PXY d   1       0.590   0.853   0.579  0.00  0.00    -0.082 A 
ATOM      7  C5  PXY d   1      -0.024   1.409  -0.487  0.00  0.00     0.003 A 
ATOM      8  C6  PXY d   1      -0.468   0.587  -1.519  0.00  0.00     0.003 A 
ENDROOT
TORSDOF 0
ENDMDL
