MODEL 1
REMARK minimizedAffinity 3.47962284
REMARK minimizedRMSD -1
REMARK  0 active torsions:
REMARK  status: ('A' for Active; 'I' for Inactive)
ROOT
ATOM      1  C4' PXY d   1       3.175  -2.646  -2.981  0.00  0.00     0.077 C 
ATOM      2  C1' PXY d   1      -1.323  -0.895   0.198  0.00  0.00     0.077 C 
ATOM      3  C1  PXY d   1      -0.136  -1.355  -0.625  0.00  0.00    -0.082 A 
ATOM      4  C2  PXY d   1      -0.079  -1.058  -1.913  0.00  0.00     0.003 A 
ATOM      5  C3  PXY d   1       0.972  -1.493  -2.679  0.00  0.00     0.003 A 
ATOM      6  C4  PXY d   1       2.001  -2.195  -2.110  0.00  0.00    -0.082 A 
ATOM      7  C5  PXY d   1       1.955  -2.492  -0.794  0.00  0.00     0.003 A 
ATOM      8  C6  PXY d   1       0.859  -2.077  -0.042  0.00  0.00     0.003 A 
ENDROOT
TORSDOF 0
ENDMDL
