MODEL 1
REMARK minimizedAffinity 0.549875736
REMARK minimizedRMSD -1
REMARK  0 active torsions:
REMARK  status: ('A' for Active; 'I' for Inactive)
ROOT
ATOM      1  C4' PXY d   1       5.861   0.230  -3.758  0.00  0.00     0.077 C 
ATOM      2  C1' PXY d   1       2.206  -2.347  -0.095  0.00  0.00     0.077 C 
ATOM      3  C1  PXY d   1       3.163  -1.660  -1.049  0.00  0.00    -0.082 A 
ATOM      4  C2  PXY d   1       3.329  -2.143  -2.270  0.00  0.00     0.003 A 
ATOM      5  C3  PXY d   1       4.214  -1.553  -3.135  0.00  0.00     0.003 A 
ATOM      6  C4  PXY d   1       4.898  -0.425  -2.764  0.00  0.00    -0.082 A 
ATOM      7  C5  PXY d   1       4.726   0.080  -1.524  0.00  0.00     0.003 A 
ATOM      8  C6  PXY d   1       3.853  -0.558  -0.647  0.00  0.00     0.003 A 
ENDROOT
TORSDOF 0
ENDMDL
