MODEL 1
REMARK minimizedAffinity 8.02160835
REMARK minimizedRMSD -1
REMARK  0 active torsions:
REMARK  status: ('A' for Active; 'I' for Inactive)
ROOT
ATOM      1  C4' PXY d   1       4.314   0.794  -0.929  0.00  0.00     0.077 C 
ATOM      2  C1' PXY d   1      -0.743  -2.007  -0.975  0.00  0.00     0.077 C 
ATOM      3  C1  PXY d   1       0.590  -1.284  -0.961  0.00  0.00    -0.082 A 
ATOM      4  C2  PXY d   1       0.633   0.002  -0.650  0.00  0.00     0.003 A 
ATOM      5  C3  PXY d   1       1.826   0.679  -0.664  0.00  0.00     0.003 A 
ATOM      6  C4  PXY d   1       2.993   0.021  -0.947  0.00  0.00    -0.082 A 
ATOM      7  C5  PXY d   1       2.958  -1.293  -1.254  0.00  0.00     0.003 A 
ATOM      8  C6  PXY d   1       1.732  -1.952  -1.275  0.00  0.00     0.003 A 
ENDROOT
TORSDOF 0
ENDMDL
