MODEL 1
REMARK minimizedAffinity 10.4426174
REMARK minimizedRMSD -1
REMARK  0 active torsions:
REMARK  status: ('A' for Active; 'I' for Inactive)
ROOT
ATOM      1  C   UNL d   1       5.809  -4.884   1.437  0.00  0.00     0.023 A 
ATOM      2  C1  UNL d   1       5.996  -3.664   0.787  0.00  0.00     0.003 A 
ATOM      3  C2  UNL d   1       5.617  -3.518  -0.549  0.00  0.00     0.048 A 
ATOM      4  C3  UNL d   1       5.051  -4.595  -1.229  0.00  0.00     0.023 A 
ATOM      5  C4  UNL d   1       4.861  -5.818  -0.583  0.00  0.00     0.048 A 
ATOM      6  C5  UNL d   1       5.243  -5.960   0.753  0.00  0.00     0.003 A 
ATOM      7  I   UNL d   1       4.486  -4.380  -3.217  0.00  0.00    -0.146 I 
ENDROOT
TORSDOF 0
ENDMDL
