MODEL 1
REMARK minimizedAffinity -1.13832831
REMARK minimizedRMSD -1
REMARK  0 active torsions:
REMARK  status: ('A' for Active; 'I' for Inactive)
ROOT
ATOM      1  C   UNL d   1      -1.351   1.798   1.609  0.00  0.00     0.023 A 
ATOM      2  C1  UNL d   1      -0.909   2.114   0.324  0.00  0.00     0.003 A 
ATOM      3  C2  UNL d   1      -0.313   1.133  -0.471  0.00  0.00     0.048 A 
ATOM      4  C3  UNL d   1      -0.162  -0.162   0.024  0.00  0.00     0.023 A 
ATOM      5  C4  UNL d   1      -0.604  -0.483   1.309  0.00  0.00     0.048 A 
ATOM      6  C5  UNL d   1      -1.199   0.501   2.100  0.00  0.00     0.003 A 
ATOM      7  I   UNL d   1       0.725  -1.623  -1.158  0.00  0.00    -0.146 I 
ENDROOT
TORSDOF 0
ENDMDL
