MODEL 1
REMARK minimizedAffinity -3.12186217
REMARK minimizedRMSD -1
REMARK  0 active torsions:
REMARK  status: ('A' for Active; 'I' for Inactive)
ROOT
ATOM      1  C   UNL d   1      -1.340   3.581  -0.328  0.00  0.00     0.023 A 
ATOM      2  C1  UNL d   1      -1.612   3.217   0.990  0.00  0.00     0.003 A 
ATOM      3  C2  UNL d   1      -1.234   1.958   1.461  0.00  0.00     0.048 A 
ATOM      4  C3  UNL d   1      -0.581   1.068   0.609  0.00  0.00     0.023 A 
ATOM      5  C4  UNL d   1      -0.305   1.428  -0.711  0.00  0.00     0.048 A 
ATOM      6  C5  UNL d   1      -0.687   2.688  -1.178  0.00  0.00     0.003 A 
ATOM      7  I   UNL d   1      -0.016  -0.806   1.308  0.00  0.00    -0.146 I 
ENDROOT
TORSDOF 0
ENDMDL
