MODEL 1
REMARK minimizedAffinity -0.738155425
REMARK minimizedRMSD -1
REMARK  0 active torsions:
REMARK  status: ('A' for Active; 'I' for Inactive)
ROOT
ATOM      1  C   UNL d   1      -1.360   0.551   2.171  0.00  0.00     0.023 A 
ATOM      2  C1  UNL d   1      -1.954   1.648   1.548  0.00  0.00     0.003 A 
ATOM      3  C2  UNL d   1      -1.475   2.096   0.315  0.00  0.00     0.048 A 
ATOM      4  C3  UNL d   1      -0.403   1.442  -0.290  0.00  0.00     0.023 A 
ATOM      5  C4  UNL d   1       0.194   0.342   0.330  0.00  0.00     0.048 A 
ATOM      6  C5  UNL d   1      -0.287  -0.101   1.563  0.00  0.00     0.003 A 
ATOM      7  I   UNL d   1       0.311   2.106  -2.125  0.00  0.00    -0.146 I 
ENDROOT
TORSDOF 0
ENDMDL
