MODEL 1
REMARK minimizedAffinity -5.02875996
REMARK minimizedRMSD -1
REMARK  0 active torsions:
REMARK  status: ('A' for Active; 'I' for Inactive)
ROOT
ATOM      1  C   UNL d   1       1.280  -0.700  -0.282  0.00  0.00     0.023 A 
ATOM      2  C1  UNL d   1       0.681  -0.663   0.977  0.00  0.00     0.003 A 
ATOM      3  C2  UNL d   1      -0.348   0.246   1.236  0.00  0.00     0.048 A 
ATOM      4  C3  UNL d   1      -0.772   1.114   0.231  0.00  0.00     0.023 A 
ATOM      5  C4  UNL d   1      -0.176   1.080  -1.031  0.00  0.00     0.048 A 
ATOM      6  C5  UNL d   1       0.853   0.170  -1.285  0.00  0.00     0.003 A 
ATOM      7  I   UNL d   1      -2.302   2.467   0.613  0.00  0.00    -0.146 I 
ENDROOT
TORSDOF 0
ENDMDL
