MODEL 1
REMARK minimizedAffinity -1.19234288
REMARK minimizedRMSD -1
REMARK  0 active torsions:
REMARK  status: ('A' for Active; 'I' for Inactive)
ROOT
ATOM      1  C   UNL d   1      -0.557   3.079   0.933  0.00  0.00     0.023 A 
ATOM      2  C1  UNL d   1       0.194   2.955  -0.236  0.00  0.00     0.003 A 
ATOM      3  C2  UNL d   1       0.572   1.690  -0.693  0.00  0.00     0.048 A 
ATOM      4  C3  UNL d   1       0.196   0.555   0.024  0.00  0.00     0.023 A 
ATOM      5  C4  UNL d   1      -0.556   0.675   1.194  0.00  0.00     0.048 A 
ATOM      6  C5  UNL d   1      -0.932   1.941   1.647  0.00  0.00     0.003 A 
ATOM      7  I   UNL d   1       0.758  -1.328  -0.653  0.00  0.00    -0.146 I 
ENDROOT
TORSDOF 0
ENDMDL
