MODEL 1
REMARK minimizedAffinity 6.07945824
REMARK minimizedRMSD -1
REMARK  0 active torsions:
REMARK  status: ('A' for Active; 'I' for Inactive)
ROOT
ATOM      1  C   UNL d   1      -0.724  -0.106   1.627  0.00  0.00     0.023 A 
ATOM      2  C1  UNL d   1      -1.128   0.739   2.661  0.00  0.00     0.003 A 
ATOM      3  C2  UNL d   1      -0.833   2.102   2.606  0.00  0.00     0.048 A 
ATOM      4  C3  UNL d   1      -0.133   2.615   1.514  0.00  0.00     0.023 A 
ATOM      5  C4  UNL d   1       0.272   1.774   0.477  0.00  0.00     0.048 A 
ATOM      6  C5  UNL d   1      -0.025   0.411   0.536  0.00  0.00     0.003 A 
ATOM      7  I   UNL d   1       0.307   4.644   1.430  0.00  0.00    -0.146 I 
ENDROOT
TORSDOF 0
ENDMDL
