MODEL 1
REMARK minimizedAffinity -3.90839958
REMARK minimizedRMSD -1
REMARK  0 active torsions:
REMARK  status: ('A' for Active; 'I' for Inactive)
ROOT
ATOM      1  C   UNL d   1       0.861  -0.575  -0.514  0.00  0.00     0.023 A 
ATOM      2  C1  UNL d   1       0.170  -0.797   0.677  0.00  0.00     0.003 A 
ATOM      3  C2  UNL d   1      -0.659   0.197   1.201  0.00  0.00     0.048 A 
ATOM      4  C3  UNL d   1      -0.793   1.411   0.528  0.00  0.00     0.023 A 
ATOM      5  C4  UNL d   1      -0.104   1.637  -0.665  0.00  0.00     0.048 A 
ATOM      6  C5  UNL d   1       0.724   0.640  -1.185  0.00  0.00     0.003 A 
ATOM      7  I   UNL d   1      -2.026   2.893   1.306  0.00  0.00    -0.146 I 
ENDROOT
TORSDOF 0
ENDMDL
