MODEL 1
REMARK minimizedAffinity -2.92474413
REMARK minimizedRMSD -1
REMARK  0 active torsions:
REMARK  status: ('A' for Active; 'I' for Inactive)
ROOT
ATOM      1  C   UNL d   1      -1.700   1.828   1.429  0.00  0.00     0.023 A 
ATOM      2  C1  UNL d   1      -1.546   1.793   0.043  0.00  0.00     0.003 A 
ATOM      3  C2  UNL d   1      -0.748   0.810  -0.547  0.00  0.00     0.048 A 
ATOM      4  C3  UNL d   1      -0.109  -0.135   0.254  0.00  0.00     0.023 A 
ATOM      5  C4  UNL d   1      -0.261  -0.104   1.642  0.00  0.00     0.048 A 
ATOM      6  C5  UNL d   1      -1.058   0.881   2.227  0.00  0.00     0.003 A 
ATOM      7  I   UNL d   1       1.078  -1.599  -0.622  0.00  0.00    -0.146 I 
ENDROOT
TORSDOF 0
ENDMDL
