MODEL 1
REMARK minimizedAffinity -2.27425122
REMARK minimizedRMSD -1
REMARK  0 active torsions:
REMARK  status: ('A' for Active; 'I' for Inactive)
ROOT
ATOM      1  C   UNL d   1      -1.357   2.909  -0.626  0.00  0.00     0.023 A 
ATOM      2  C1  UNL d   1      -0.350   2.048  -1.060  0.00  0.00     0.003 A 
ATOM      3  C2  UNL d   1       0.093   1.015  -0.232  0.00  0.00     0.048 A 
ATOM      4  C3  UNL d   1      -0.477   0.848   1.030  0.00  0.00     0.023 A 
ATOM      5  C4  UNL d   1      -1.485   1.708   1.469  0.00  0.00     0.048 A 
ATOM      6  C5  UNL d   1      -1.924   2.740   0.637  0.00  0.00     0.003 A 
ATOM      7  I   UNL d   1       0.180  -0.688   2.266  0.00  0.00    -0.146 I 
ENDROOT
TORSDOF 0
ENDMDL
