MODEL 1
REMARK minimizedAffinity -3.61522889
REMARK minimizedRMSD -1
REMARK  0 active torsions:
REMARK  status: ('A' for Active; 'I' for Inactive)
ROOT
ATOM      1  C   UNL d   1       1.693  -0.110  -1.134  0.00  0.00     0.023 A 
ATOM      2  C1  UNL d   1       1.245  -0.842  -0.034  0.00  0.00     0.003 A 
ATOM      3  C2  UNL d   1       0.296  -0.294   0.831  0.00  0.00     0.048 A 
ATOM      4  C3  UNL d   1      -0.203   0.985   0.589  0.00  0.00     0.023 A 
ATOM      5  C4  UNL d   1       0.241   1.721  -0.511  0.00  0.00     0.048 A 
ATOM      6  C5  UNL d   1       1.192   1.169  -1.372  0.00  0.00     0.003 A 
ATOM      7  I   UNL d   1      -1.617   1.803   1.874  0.00  0.00    -0.146 I 
ENDROOT
TORSDOF 0
ENDMDL
