MODEL 1
REMARK minimizedAffinity 12.264679
REMARK minimizedRMSD -1
REMARK  0 active torsions:
REMARK  status: ('A' for Active; 'I' for Inactive)
ROOT
ATOM      1  C   UNL d   1       0.440  -1.255   5.388  0.00  0.00     0.023 A 
ATOM      2  C1  UNL d   1      -0.171  -0.005   5.283  0.00  0.00     0.003 A 
ATOM      3  C2  UNL d   1       0.134   0.836   4.211  0.00  0.00     0.048 A 
ATOM      4  C3  UNL d   1       1.051   0.420   3.247  0.00  0.00     0.023 A 
ATOM      5  C4  UNL d   1       1.665  -0.829   3.346  0.00  0.00     0.048 A 
ATOM      6  C5  UNL d   1       1.357  -1.666   4.421  0.00  0.00     0.003 A 
ATOM      7  I   UNL d   1       1.508   1.670   1.650  0.00  0.00    -0.146 I 
ENDROOT
TORSDOF 0
ENDMDL
