MODEL 1
REMARK minimizedAffinity 17.5567436
REMARK minimizedRMSD -1
REMARK  0 active torsions:
REMARK  status: ('A' for Active; 'I' for Inactive)
ROOT
ATOM      1  C   UNL d   1      -0.775   3.836  -2.324  0.00  0.00     0.023 A 
ATOM      2  C1  UNL d   1      -0.153   4.524  -1.282  0.00  0.00     0.003 A 
ATOM      3  C2  UNL d   1       0.208   3.848  -0.115  0.00  0.00     0.048 A 
ATOM      4  C3  UNL d   1      -0.056   2.484   0.004  0.00  0.00     0.023 A 
ATOM      5  C4  UNL d   1      -0.677   1.791  -1.037  0.00  0.00     0.048 A 
ATOM      6  C5  UNL d   1      -1.036   2.471  -2.202  0.00  0.00     0.003 A 
ATOM      7  I   UNL d   1       0.481   1.475   1.740  0.00  0.00    -0.146 I 
ENDROOT
TORSDOF 0
ENDMDL
