MODEL 1
REMARK minimizedAffinity 17.814024
REMARK minimizedRMSD -1
REMARK  0 active torsions:
REMARK  status: ('A' for Active; 'I' for Inactive)
ROOT
ATOM      1  C   UNL d   1      -1.542   2.468   0.609  0.00  0.00     0.023 A 
ATOM      2  C1  UNL d   1      -0.497   2.671  -0.292  0.00  0.00     0.003 A 
ATOM      3  C2  UNL d   1       0.802   2.281   0.043  0.00  0.00     0.048 A 
ATOM      4  C3  UNL d   1       1.048   1.687   1.280  0.00  0.00     0.023 A 
ATOM      5  C4  UNL d   1       0.005   1.481   2.185  0.00  0.00     0.048 A 
ATOM      6  C5  UNL d   1      -1.292   1.873   1.846  0.00  0.00     0.003 A 
ATOM      7  I   UNL d   1       2.979   1.105   1.781  0.00  0.00    -0.146 I 
ENDROOT
TORSDOF 0
ENDMDL
