MODEL 1
REMARK minimizedAffinity 8.76734829
REMARK minimizedRMSD -1
REMARK  0 active torsions:
REMARK  status: ('A' for Active; 'I' for Inactive)
ROOT
ATOM      1  C   UNL d   1       5.993  -2.252  -3.690  0.00  0.00     0.023 A 
ATOM      2  C1  UNL d   1       5.296  -2.198  -2.483  0.00  0.00     0.003 A 
ATOM      3  C2  UNL d   1       3.964  -1.780  -2.462  0.00  0.00     0.048 A 
ATOM      4  C3  UNL d   1       3.335  -1.418  -3.652  0.00  0.00     0.023 A 
ATOM      5  C4  UNL d   1       4.027  -1.470  -4.862  0.00  0.00     0.048 A 
ATOM      6  C5  UNL d   1       5.359  -1.888  -4.878  0.00  0.00     0.003 A 
ATOM      7  I   UNL d   1       1.352  -0.795  -3.623  0.00  0.00    -0.146 I 
ENDROOT
TORSDOF 0
ENDMDL
