MODEL 1
REMARK minimizedAffinity 7.79088545
REMARK minimizedRMSD -1
REMARK  0 active torsions:
REMARK  status: ('A' for Active; 'I' for Inactive)
ROOT
ATOM      1  C   UNL d   1      -3.150   4.160  -3.163  0.00  0.00     0.023 A 
ATOM      2  C1  UNL d   1      -3.417   4.548  -1.850  0.00  0.00     0.003 A 
ATOM      3  C2  UNL d   1      -2.459   4.352  -0.853  0.00  0.00     0.048 A 
ATOM      4  C3  UNL d   1      -1.235   3.768  -1.177  0.00  0.00     0.023 A 
ATOM      5  C4  UNL d   1      -0.962   3.379  -2.490  0.00  0.00     0.048 A 
ATOM      6  C5  UNL d   1      -1.924   3.576  -3.482  0.00  0.00     0.003 A 
ATOM      7  I   UNL d   1       0.193   3.475   0.304  0.00  0.00    -0.146 I 
ENDROOT
TORSDOF 0
ENDMDL
