MODEL 1
REMARK minimizedAffinity -4.93115568
REMARK minimizedRMSD -1
REMARK  0 active torsions:
REMARK  status: ('A' for Active; 'I' for Inactive)
ROOT
ATOM      1  C   UNL d   1       1.334  -0.284  -1.343  0.00  0.00     0.023 A 
ATOM      2  C1  UNL d   1       0.673   0.911  -1.627  0.00  0.00     0.003 A 
ATOM      3  C2  UNL d   1       0.254   1.742  -0.586  0.00  0.00     0.048 A 
ATOM      4  C3  UNL d   1       0.500   1.374   0.736  0.00  0.00     0.023 A 
ATOM      5  C4  UNL d   1       1.163   0.179   1.025  0.00  0.00     0.048 A 
ATOM      6  C5  UNL d   1       1.579  -0.650  -0.019  0.00  0.00     0.003 A 
ATOM      7  I   UNL d   1      -0.122   2.610   2.286  0.00  0.00    -0.146 I 
ENDROOT
TORSDOF 0
ENDMDL
