MODEL 1
REMARK minimizedAffinity 11.9246674
REMARK minimizedRMSD -1
REMARK  0 active torsions:
REMARK  status: ('A' for Active; 'I' for Inactive)
ROOT
ATOM      1  C   UNL d   1       4.570   3.257   1.186  0.00  0.00     0.124 A 
ATOM      2  C1  UNL d   1       5.215   3.733   2.319  0.00  0.00     0.062 A 
ATOM      3  C2  UNL d   1       5.372   2.911   3.432  0.00  0.00     0.162 A 
ATOM      4  C3  UNL d   1       4.885   1.604   3.416  0.00  0.00    -0.034 A 
ATOM      5  C4  UNL d   1       4.236   1.133   2.273  0.00  0.00     0.162 A 
ATOM      6  C5  UNL d   1       4.081   1.958   1.164  0.00  0.00     0.062 A 
ATOM      7  F   UNL d   1       3.458   1.497   0.070  0.00  0.00    -0.097 F 
ATOM      8  F1  UNL d   1       3.755  -0.118   2.225  0.00  0.00    -0.096 F 
ATOM      9  I   UNL d   1       5.118   0.373   5.078  0.00  0.00    -0.060 I 
ATOM     10  F2  UNL d   1       6.000   3.397   4.513  0.00  0.00    -0.096 F 
ATOM     11  F3  UNL d   1       5.687   4.987   2.343  0.00  0.00    -0.097 F 
ATOM     12  F4  UNL d   1       4.419   4.050   0.117  0.00  0.00    -0.092 F 
ENDROOT
TORSDOF 0
ENDMDL
