MODEL 1
REMARK minimizedAffinity 5.18085718
REMARK minimizedRMSD -1
REMARK  0 active torsions:
REMARK  status: ('A' for Active; 'I' for Inactive)
ROOT
ATOM      1  C   UNL d   1       5.963   3.935   3.610  0.00  0.00     0.124 A 
ATOM      2  C1  UNL d   1       5.968   3.234   2.412  0.00  0.00     0.062 A 
ATOM      3  C2  UNL d   1       5.964   1.842   2.415  0.00  0.00     0.162 A 
ATOM      4  C3  UNL d   1       5.956   1.141   3.621  0.00  0.00    -0.034 A 
ATOM      5  C4  UNL d   1       5.953   1.853   4.822  0.00  0.00     0.162 A 
ATOM      6  C5  UNL d   1       5.956   3.244   4.813  0.00  0.00     0.062 A 
ATOM      7  F   UNL d   1       5.952   3.920   5.972  0.00  0.00    -0.097 F 
ATOM      8  F1  UNL d   1       5.945   1.211   6.000  0.00  0.00    -0.096 F 
ATOM      9  I   UNL d   1       5.951  -0.940   3.631  0.00  0.00    -0.060 I 
ATOM     10  F2  UNL d   1       5.968   1.191   1.243  0.00  0.00    -0.096 F 
ATOM     11  F3  UNL d   1       5.975   3.899   1.247  0.00  0.00    -0.097 F 
ATOM     12  F4  UNL d   1       5.968   5.274   3.603  0.00  0.00    -0.092 F 
ENDROOT
TORSDOF 0
ENDMDL
