MODEL 1
REMARK minimizedAffinity 2.5956018
REMARK minimizedRMSD -1
REMARK  0 active torsions:
REMARK  status: ('A' for Active; 'I' for Inactive)
ROOT
ATOM      1  C   UNL d   1       5.984   4.623   2.868  0.00  0.00     0.124 A 
ATOM      2  C1  UNL d   1       5.983   3.577   1.955  0.00  0.00     0.062 A 
ATOM      3  C2  UNL d   1       5.988   2.259   2.400  0.00  0.00     0.162 A 
ATOM      4  C3  UNL d   1       5.993   1.978   3.766  0.00  0.00    -0.034 A 
ATOM      5  C4  UNL d   1       5.995   3.034   4.679  0.00  0.00     0.162 A 
ATOM      6  C5  UNL d   1       5.990   4.350   4.228  0.00  0.00     0.062 A 
ATOM      7  F   UNL d   1       5.991   5.359   5.112  0.00  0.00    -0.097 F 
ATOM      8  F1  UNL d   1       5.999   2.800   5.999  0.00  0.00    -0.096 F 
ATOM      9  I   UNL d   1       6.000   0.007   4.437  0.00  0.00    -0.060 I 
ATOM     10  F2  UNL d   1       5.987   1.268   1.496  0.00  0.00    -0.096 F 
ATOM     11  F3  UNL d   1       5.978   3.838   0.639  0.00  0.00    -0.097 F 
ATOM     12  F4  UNL d   1       5.981   5.890   2.436  0.00  0.00    -0.092 F 
ENDROOT
TORSDOF 0
ENDMDL
