MODEL 1
REMARK minimizedAffinity 1.36202431
REMARK minimizedRMSD -1
REMARK  0 active torsions:
REMARK  status: ('A' for Active; 'I' for Inactive)
ROOT
ATOM      1  C   UNL d   1       4.640   2.308   2.641  0.00  0.00     0.124 A 
ATOM      2  C1  UNL d   1       5.136   2.733   3.866  0.00  0.00     0.062 A 
ATOM      3  C2  UNL d   1       5.524   1.803   4.825  0.00  0.00     0.162 A 
ATOM      4  C3  UNL d   1       5.420   0.437   4.564  0.00  0.00    -0.034 A 
ATOM      5  C4  UNL d   1       4.919   0.016   3.330  0.00  0.00     0.162 A 
ATOM      6  C5  UNL d   1       4.532   0.950   2.375  0.00  0.00     0.062 A 
ATOM      7  F   UNL d   1       4.053   0.537   1.192  0.00  0.00    -0.097 F 
ATOM      8  F1  UNL d   1       4.805  -1.290   3.046  0.00  0.00    -0.096 F 
ATOM      9  I   UNL d   1       6.000  -0.958   5.996  0.00  0.00    -0.060 I 
ATOM     10  F2  UNL d   1       6.000   2.243   6.000  0.00  0.00    -0.096 F 
ATOM     11  F3  UNL d   1       5.240   4.044   4.126  0.00  0.00    -0.097 F 
ATOM     12  F4  UNL d   1       4.266   3.205   1.720  0.00  0.00    -0.092 F 
ENDROOT
TORSDOF 0
ENDMDL
