MODEL 1
REMARK minimizedAffinity 6.5350976
REMARK minimizedRMSD -1
REMARK  0 active torsions:
REMARK  status: ('A' for Active; 'I' for Inactive)
ROOT
ATOM      1  C   UNL d   1       5.988   1.734   2.357  0.00  0.00     0.124 A 
ATOM      2  C1  UNL d   1       5.988   2.169   3.675  0.00  0.00     0.062 A 
ATOM      3  C2  UNL d   1       5.988   1.246   4.716  0.00  0.00     0.162 A 
ATOM      4  C3  UNL d   1       5.988  -0.122   4.444  0.00  0.00    -0.034 A 
ATOM      5  C4  UNL d   1       5.987  -0.552   3.116  0.00  0.00     0.162 A 
ATOM      6  C5  UNL d   1       5.987   0.374   2.079  0.00  0.00     0.062 A 
ATOM      7  F   UNL d   1       5.987  -0.048   0.806  0.00  0.00    -0.097 F 
ATOM      8  F1  UNL d   1       5.987  -1.860   2.819  0.00  0.00    -0.096 F 
ATOM      9  I   UNL d   1       5.987  -1.506   5.999  0.00  0.00    -0.060 I 
ATOM     10  F2  UNL d   1       5.988   1.694   5.980  0.00  0.00    -0.096 F 
ATOM     11  F3  UNL d   1       5.988   3.482   3.946  0.00  0.00    -0.097 F 
ATOM     12  F4  UNL d   1       5.988   2.624   1.356  0.00  0.00    -0.092 F 
ENDROOT
TORSDOF 0
ENDMDL
