MODEL 1
REMARK minimizedAffinity 18.7293091
REMARK minimizedRMSD -1
REMARK  0 active torsions:
REMARK  status: ('A' for Active; 'I' for Inactive)
ROOT
ATOM      1  C   UNL d   1       5.934   2.430   4.280  0.00  0.00     0.124 A 
ATOM      2  C1  UNL d   1       5.954   3.801   4.495  0.00  0.00     0.062 A 
ATOM      3  C2  UNL d   1       5.973   4.679   3.415  0.00  0.00     0.162 A 
ATOM      4  C3  UNL d   1       5.971   4.188   2.109  0.00  0.00    -0.034 A 
ATOM      5  C4  UNL d   1       5.952   2.808   1.901  0.00  0.00     0.162 A 
ATOM      6  C5  UNL d   1       5.933   1.935   2.984  0.00  0.00     0.062 A 
ATOM      7  F   UNL d   1       5.913   0.610   2.775  0.00  0.00    -0.097 F 
ATOM      8  F1  UNL d   1       5.949   2.302   0.659  0.00  0.00    -0.096 F 
ATOM      9  I   UNL d   1       5.999   5.497   0.491  0.00  0.00    -0.060 I 
ATOM     10  F2  UNL d   1       5.992   5.999   3.652  0.00  0.00    -0.096 F 
ATOM     11  F3  UNL d   1       5.956   4.282   5.747  0.00  0.00    -0.097 F 
ATOM     12  F4  UNL d   1       5.917   1.588   5.322  0.00  0.00    -0.092 F 
ENDROOT
TORSDOF 0
ENDMDL
