MODEL 1
REMARK minimizedAffinity 7.93497181
REMARK minimizedRMSD -1
REMARK  0 active torsions:
REMARK  status: ('A' for Active; 'I' for Inactive)
ROOT
ATOM      1  C   UNL d   1       5.978   2.516   2.329  0.00  0.00     0.124 A 
ATOM      2  C1  UNL d   1       5.978   2.961   3.644  0.00  0.00     0.062 A 
ATOM      3  C2  UNL d   1       5.984   2.046   4.692  0.00  0.00     0.162 A 
ATOM      4  C3  UNL d   1       5.990   0.676   4.431  0.00  0.00    -0.034 A 
ATOM      5  C4  UNL d   1       5.989   0.236   3.106  0.00  0.00     0.162 A 
ATOM      6  C5  UNL d   1       5.984   1.154   2.061  0.00  0.00     0.062 A 
ATOM      7  F   UNL d   1       5.983   0.722   0.792  0.00  0.00    -0.097 F 
ATOM      8  F1  UNL d   1       5.995  -1.075   2.819  0.00  0.00    -0.096 F 
ATOM      9  I   UNL d   1       5.998  -0.696   5.996  0.00  0.00    -0.060 I 
ATOM     10  F2  UNL d   1       5.984   2.504   5.953  0.00  0.00    -0.096 F 
ATOM     11  F3  UNL d   1       5.972   4.276   3.905  0.00  0.00    -0.097 F 
ATOM     12  F4  UNL d   1       5.972   3.398   1.322  0.00  0.00    -0.092 F 
ENDROOT
TORSDOF 0
ENDMDL
