MODEL 1
REMARK minimizedAffinity 3.48841214
REMARK minimizedRMSD -1
REMARK  0 active torsions:
REMARK  status: ('A' for Active; 'I' for Inactive)
ROOT
ATOM      1  C   UNL d   1       5.973   4.539   3.236  0.00  0.00     0.124 A 
ATOM      2  C1  UNL d   1       5.981   3.670   2.154  0.00  0.00     0.062 A 
ATOM      3  C2  UNL d   1       5.980   2.294   2.362  0.00  0.00     0.162 A 
ATOM      4  C3  UNL d   1       5.969   1.778   3.658  0.00  0.00    -0.034 A 
ATOM      5  C4  UNL d   1       5.961   2.658   4.741  0.00  0.00     0.162 A 
ATOM      6  C5  UNL d   1       5.963   4.033   4.528  0.00  0.00     0.062 A 
ATOM      7  F   UNL d   1       5.954   4.871   5.575  0.00  0.00    -0.097 F 
ATOM      8  F1  UNL d   1       5.950   2.195   6.000  0.00  0.00    -0.096 F 
ATOM      9  I   UNL d   1       5.967  -0.280   3.972  0.00  0.00    -0.060 I 
ATOM     10  F2  UNL d   1       5.989   1.478   1.298  0.00  0.00    -0.096 F 
ATOM     11  F3  UNL d   1       5.992   4.157   0.905  0.00  0.00    -0.097 F 
ATOM     12  F4  UNL d   1       5.975   5.863   3.034  0.00  0.00    -0.092 F 
ENDROOT
TORSDOF 0
ENDMDL
