MODEL 1
REMARK minimizedAffinity 26.1929798
REMARK minimizedRMSD -1
REMARK  0 active torsions:
REMARK  status: ('A' for Active; 'I' for Inactive)
ROOT
ATOM      1  C   UNL d   1       5.701   2.369   4.178  0.00  0.00     0.124 A 
ATOM      2  C1  UNL d   1       5.810   3.728   4.438  0.00  0.00     0.062 A 
ATOM      3  C2  UNL d   1       5.896   4.637   3.387  0.00  0.00     0.162 A 
ATOM      4  C3  UNL d   1       5.872   4.190   2.066  0.00  0.00    -0.034 A 
ATOM      5  C4  UNL d   1       5.763   2.821   1.813  0.00  0.00     0.162 A 
ATOM      6  C5  UNL d   1       5.678   1.917   2.866  0.00  0.00     0.062 A 
ATOM      7  F   UNL d   1       5.573   0.604   2.613  0.00  0.00    -0.097 F 
ATOM      8  F1  UNL d   1       5.737   2.358   0.554  0.00  0.00    -0.096 F 
ATOM      9  I   UNL d   1       5.999   5.546   0.493  0.00  0.00    -0.060 I 
ATOM     10  F2  UNL d   1       6.000   5.944   3.668  0.00  0.00    -0.096 F 
ATOM     11  F3  UNL d   1       5.834   4.167   5.705  0.00  0.00    -0.097 F 
ATOM     12  F4  UNL d   1       5.620   1.496   5.190  0.00  0.00    -0.092 F 
ENDROOT
TORSDOF 0
ENDMDL
