MODEL 1
REMARK minimizedAffinity 7.27129412
REMARK minimizedRMSD -1
REMARK  0 active torsions:
REMARK  status: ('A' for Active; 'I' for Inactive)
ROOT
ATOM      1  C   UNL d   1       5.960   3.085   3.433  0.00  0.00     0.124 A 
ATOM      2  C1  UNL d   1       5.956   2.306   2.284  0.00  0.00     0.062 A 
ATOM      3  C2  UNL d   1       5.967   0.918   2.379  0.00  0.00     0.162 A 
ATOM      4  C3  UNL d   1       5.981   0.298   3.629  0.00  0.00    -0.034 A 
ATOM      5  C4  UNL d   1       5.986   1.088   4.780  0.00  0.00     0.162 A 
ATOM      6  C5  UNL d   1       5.975   2.475   4.680  0.00  0.00     0.062 A 
ATOM      7  F   UNL d   1       5.979   3.226   5.791  0.00  0.00    -0.097 F 
ATOM      8  F1  UNL d   1       5.999   0.525   5.998  0.00  0.00    -0.096 F 
ATOM      9  I   UNL d   1       5.998  -1.778   3.776  0.00  0.00    -0.060 I 
ATOM     10  F2  UNL d   1       5.963   0.190   1.253  0.00  0.00    -0.096 F 
ATOM     11  F3  UNL d   1       5.943   2.893   1.079  0.00  0.00    -0.097 F 
ATOM     12  F4  UNL d   1       5.951   4.421   3.339  0.00  0.00    -0.092 F 
ENDROOT
TORSDOF 0
ENDMDL
