MODEL 1
REMARK minimizedAffinity 8.11428547
REMARK minimizedRMSD -1
REMARK  0 active torsions:
REMARK  status: ('A' for Active; 'I' for Inactive)
ROOT
ATOM      1  C   UNL d   1       5.910  -1.899   3.642  0.00  0.00     0.124 A 
ATOM      2  C1  UNL d   1       5.834  -1.253   2.416  0.00  0.00     0.062 A 
ATOM      3  C2  UNL d   1       5.772   0.136   2.360  0.00  0.00     0.162 A 
ATOM      4  C3  UNL d   1       5.787   0.889   3.534  0.00  0.00    -0.034 A 
ATOM      5  C4  UNL d   1       5.863   0.232   4.763  0.00  0.00     0.162 A 
ATOM      6  C5  UNL d   1       5.924  -1.156   4.814  0.00  0.00     0.062 A 
ATOM      7  F   UNL d   1       5.998  -1.779   5.999  0.00  0.00    -0.097 F 
ATOM      8  F1  UNL d   1       5.879   0.926   5.911  0.00  0.00    -0.096 F 
ATOM      9  I   UNL d   1       5.694   2.967   3.454  0.00  0.00    -0.060 I 
ATOM     10  F2  UNL d   1       5.699   0.734   1.161  0.00  0.00    -0.096 F 
ATOM     11  F3  UNL d   1       5.819  -1.969   1.282  0.00  0.00    -0.097 F 
ATOM     12  F4  UNL d   1       5.969  -3.236   3.693  0.00  0.00    -0.092 F 
ENDROOT
TORSDOF 0
ENDMDL
