MODEL 1
REMARK minimizedAffinity 10.3703308
REMARK minimizedRMSD -1
REMARK  0 active torsions:
REMARK  status: ('A' for Active; 'I' for Inactive)
ROOT
ATOM      1  C   UNL d   1       5.980   4.711   2.902  0.00  0.00     0.124 A 
ATOM      2  C1  UNL d   1       5.976   3.702   1.948  0.00  0.00     0.062 A 
ATOM      3  C2  UNL d   1       5.981   2.367   2.341  0.00  0.00     0.162 A 
ATOM      4  C3  UNL d   1       5.988   2.032   3.695  0.00  0.00    -0.034 A 
ATOM      5  C4  UNL d   1       5.992   3.052   4.649  0.00  0.00     0.162 A 
ATOM      6  C5  UNL d   1       5.988   4.385   4.251  0.00  0.00     0.062 A 
ATOM      7  F   UNL d   1       5.991   5.357   5.174  0.00  0.00    -0.097 F 
ATOM      8  F1  UNL d   1       5.999   2.765   5.959  0.00  0.00    -0.096 F 
ATOM      9  I   UNL d   1       5.995   0.037   4.287  0.00  0.00    -0.060 I 
ATOM     10  F2  UNL d   1       5.977   1.413   1.398  0.00  0.00    -0.096 F 
ATOM     11  F3  UNL d   1       5.969   4.015   0.644  0.00  0.00    -0.097 F 
ATOM     12  F4  UNL d   1       5.976   5.994   2.521  0.00  0.00    -0.092 F 
ENDROOT
TORSDOF 0
ENDMDL
