MODEL 1
REMARK minimizedAffinity 10.5611258
REMARK minimizedRMSD -1
REMARK  0 active torsions:
REMARK  status: ('A' for Active; 'I' for Inactive)
ROOT
ATOM      1  C   UNL d   1       5.986   4.005   3.088  0.00  0.00     0.124 A 
ATOM      2  C1  UNL d   1       5.983   3.583   4.410  0.00  0.00     0.062 A 
ATOM      3  C2  UNL d   1       5.981   2.224   4.711  0.00  0.00     0.162 A 
ATOM      4  C3  UNL d   1       5.984   1.276   3.688  0.00  0.00    -0.034 A 
ATOM      5  C4  UNL d   1       5.986   1.708   2.360  0.00  0.00     0.162 A 
ATOM      6  C5  UNL d   1       5.988   3.068   2.065  0.00  0.00     0.062 A 
ATOM      7  F   UNL d   1       5.991   3.473   0.786  0.00  0.00    -0.097 F 
ATOM      8  F1  UNL d   1       5.989   0.824   1.352  0.00  0.00    -0.096 F 
ATOM      9  I   UNL d   1       5.982  -0.757   4.134  0.00  0.00    -0.060 I 
ATOM     10  F2  UNL d   1       5.978   1.845   5.998  0.00  0.00    -0.096 F 
ATOM     11  F3  UNL d   1       5.980   4.486   5.401  0.00  0.00    -0.097 F 
ATOM     12  F4  UNL d   1       5.986   5.313   2.801  0.00  0.00    -0.092 F 
ENDROOT
TORSDOF 0
ENDMDL
