MODEL 1
REMARK minimizedAffinity 11.4646025
REMARK minimizedRMSD -1
REMARK  0 active torsions:
REMARK  status: ('A' for Active; 'I' for Inactive)
ROOT
ATOM      1  C   UNL d   1      -1.154   4.327   3.369  0.00  0.00     0.124 A 
ATOM      2  C1  UNL d   1      -1.787   3.151   3.750  0.00  0.00     0.062 A 
ATOM      3  C2  UNL d   1      -1.626   1.994   2.994  0.00  0.00     0.162 A 
ATOM      4  C3  UNL d   1      -0.829   2.005   1.849  0.00  0.00    -0.034 A 
ATOM      5  C4  UNL d   1      -0.196   3.191   1.472  0.00  0.00     0.162 A 
ATOM      6  C5  UNL d   1      -0.359   4.346   2.231  0.00  0.00     0.062 A 
ATOM      7  F   UNL d   1       0.253   5.480   1.862  0.00  0.00    -0.097 F 
ATOM      8  F1  UNL d   1       0.578   3.237   0.378  0.00  0.00    -0.096 F 
ATOM      9  I   UNL d   1      -0.587   0.276   0.716  0.00  0.00    -0.060 I 
ATOM     10  F2  UNL d   1      -2.250   0.872   3.385  0.00  0.00    -0.096 F 
ATOM     11  F3  UNL d   1      -2.555   3.131   4.848  0.00  0.00    -0.097 F 
ATOM     12  F4  UNL d   1      -1.310   5.439   4.098  0.00  0.00    -0.092 F 
ENDROOT
TORSDOF 0
ENDMDL
