MODEL 1
REMARK minimizedAffinity 4.78027582
REMARK minimizedRMSD -1
REMARK  0 active torsions:
REMARK  status: ('A' for Active; 'I' for Inactive)
ROOT
ATOM      1  C   UNL d   1       5.975  -0.049   3.397  0.00  0.00     0.124 A 
ATOM      2  C1  UNL d   1       5.984   0.747   2.260  0.00  0.00     0.062 A 
ATOM      3  C2  UNL d   1       5.991   2.133   2.376  0.00  0.00     0.162 A 
ATOM      4  C3  UNL d   1       5.990   2.734   3.635  0.00  0.00    -0.034 A 
ATOM      5  C4  UNL d   1       5.979   1.928   4.774  0.00  0.00     0.162 A 
ATOM      6  C5  UNL d   1       5.972   0.542   4.653  0.00  0.00     0.062 A 
ATOM      7  F   UNL d   1       5.963  -0.225   5.753  0.00  0.00    -0.097 F 
ATOM      8  F1  UNL d   1       5.978   2.472   6.000  0.00  0.00    -0.096 F 
ATOM      9  I   UNL d   1       6.000   4.808   3.813  0.00  0.00    -0.060 I 
ATOM     10  F2  UNL d   1       6.000   2.878   1.260  0.00  0.00    -0.096 F 
ATOM     11  F3  UNL d   1       5.985   0.178   1.046  0.00  0.00    -0.097 F 
ATOM     12  F4  UNL d   1       5.967  -1.383   3.283  0.00  0.00    -0.092 F 
ENDROOT
TORSDOF 0
ENDMDL
