MODEL 1
REMARK minimizedAffinity 2.52708507
REMARK minimizedRMSD -1
REMARK  0 active torsions:
REMARK  status: ('A' for Active; 'I' for Inactive)
ROOT
ATOM      1  C   UNL d   1       5.981   1.101   3.641  0.00  0.00     0.124 A 
ATOM      2  C1  UNL d   1       5.987   1.718   2.398  0.00  0.00     0.062 A 
ATOM      3  C2  UNL d   1       5.992   3.107   2.306  0.00  0.00     0.162 A 
ATOM      4  C3  UNL d   1       5.992   3.889   3.461  0.00  0.00    -0.034 A 
ATOM      5  C4  UNL d   1       5.985   3.261   4.708  0.00  0.00     0.162 A 
ATOM      6  C5  UNL d   1       5.980   1.873   4.795  0.00  0.00     0.062 A 
ATOM      7  F   UNL d   1       5.974   1.279   5.997  0.00  0.00    -0.097 F 
ATOM      8  F1  UNL d   1       5.985   3.983   5.838  0.00  0.00    -0.096 F 
ATOM      9  I   UNL d   1       6.000   5.966   3.327  0.00  0.00    -0.060 I 
ATOM     10  F2  UNL d   1       5.997   3.676   1.091  0.00  0.00    -0.096 F 
ATOM     11  F3  UNL d   1       5.986   0.975   1.282  0.00  0.00    -0.097 F 
ATOM     12  F4  UNL d   1       5.975  -0.235   3.727  0.00  0.00    -0.092 F 
ENDROOT
TORSDOF 0
ENDMDL
