MODEL 1
REMARK minimizedAffinity 14.8865547
REMARK minimizedRMSD -1
REMARK  0 active torsions:
REMARK  status: ('A' for Active; 'I' for Inactive)
ROOT
ATOM      1  C4' PXY d   1       1.837   0.349  -0.230  0.00  0.00     0.077 C 
ATOM      2  C1' PXY d   1      -1.086  -1.523   4.393  0.00  0.00     0.077 C 
ATOM      3  C1  PXY d   1      -0.312  -1.025   3.188  0.00  0.00    -0.082 A 
ATOM      4  C2  PXY d   1      -0.882  -1.037   1.994  0.00  0.00     0.003 A 
ATOM      5  C3  PXY d   1      -0.185  -0.620   0.889  0.00  0.00     0.003 A 
ATOM      6  C4  PXY d   1       1.090  -0.136   1.016  0.00  0.00    -0.082 A 
ATOM      7  C5  PXY d   1       1.674  -0.110   2.232  0.00  0.00     0.003 A 
ATOM      8  C6  PXY d   1       0.964  -0.576   3.335  0.00  0.00     0.003 A 
ENDROOT
TORSDOF 0
ENDMDL
