MODEL 1
REMARK minimizedAffinity 4.86700106
REMARK minimizedRMSD -1
REMARK  0 active torsions:
REMARK  status: ('A' for Active; 'I' for Inactive)
ROOT
ATOM      1  C4' PXY d   1       3.296  -0.567   1.744  0.00  0.00     0.077 C 
ATOM      2  C1' PXY d   1      -2.273  -1.978   1.104  0.00  0.00     0.077 C 
ATOM      3  C1  PXY d   1      -0.815  -1.596   1.267  0.00  0.00    -0.082 A 
ATOM      4  C2  PXY d   1       0.107  -2.543   1.317  0.00  0.00     0.003 A 
ATOM      5  C3  PXY d   1       1.427  -2.217   1.496  0.00  0.00     0.003 A 
ATOM      6  C4  PXY d   1       1.813  -0.906   1.571  0.00  0.00    -0.082 A 
ATOM      7  C5  PXY d   1       0.878   0.067   1.510  0.00  0.00     0.003 A 
ATOM      8  C6  PXY d   1      -0.461  -0.287   1.370  0.00  0.00     0.003 A 
ENDROOT
TORSDOF 0
ENDMDL
