MODEL 1
REMARK minimizedAffinity 16.6921387
REMARK minimizedRMSD -1
REMARK  0 active torsions:
REMARK  status: ('A' for Active; 'I' for Inactive)
ROOT
ATOM      1  C4' PXY d   1      -0.796  -5.999  -4.222  0.00  0.00     0.077 C 
ATOM      2  C1' PXY d   1      -3.536  -3.063  -0.064  0.00  0.00     0.077 C 
ATOM      3  C1  PXY d   1      -2.821  -3.844  -1.149  0.00  0.00    -0.082 A 
ATOM      4  C2  PXY d   1      -1.810  -3.289  -1.797  0.00  0.00     0.003 A 
ATOM      5  C3  PXY d   1      -1.173  -3.969  -2.803  0.00  0.00     0.003 A 
ATOM      6  C4  PXY d   1      -1.540  -5.251  -3.112  0.00  0.00    -0.082 A 
ATOM      7  C5  PXY d   1      -2.564  -5.829  -2.448  0.00  0.00     0.003 A 
ATOM      8  C6  PXY d   1      -3.224  -5.107  -1.459  0.00  0.00     0.003 A 
ENDROOT
TORSDOF 0
ENDMDL
