MODEL 1
REMARK minimizedAffinity 4.11770773
REMARK minimizedRMSD -1
REMARK  0 active torsions:
REMARK  status: ('A' for Active; 'I' for Inactive)
ROOT
ATOM      1  C4' PXY d   1       6.000  -0.452  -3.044  0.00  0.00     0.077 C 
ATOM      2  C1' PXY d   1       1.466   1.211   0.134  0.00  0.00     0.077 C 
ATOM      3  C1  PXY d   1       2.654   0.785  -0.707  0.00  0.00    -0.082 A 
ATOM      4  C2  PXY d   1       3.023  -0.485  -0.722  0.00  0.00     0.003 A 
ATOM      5  C3  PXY d   1       4.114  -0.882  -1.452  0.00  0.00     0.003 A 
ATOM      6  C4  PXY d   1       4.802   0.022  -2.217  0.00  0.00    -0.082 A 
ATOM      7  C5  PXY d   1       4.424   1.318  -2.215  0.00  0.00     0.003 A 
ATOM      8  C6  PXY d   1       3.340   1.707  -1.435  0.00  0.00     0.003 A 
ENDROOT
TORSDOF 0
ENDMDL
