MODEL 1
REMARK minimizedAffinity 14.9114227
REMARK minimizedRMSD -1
REMARK  0 active torsions:
REMARK  status: ('A' for Active; 'I' for Inactive)
ROOT
ATOM      1  C4' PXY d   1       2.248   0.145   0.394  0.00  0.00     0.077 C 
ATOM      2  C1' PXY d   1      -2.992  -1.945   1.657  0.00  0.00     0.077 C 
ATOM      3  C1  PXY d   1      -1.622  -1.385   1.328  0.00  0.00    -0.082 A 
ATOM      4  C2  PXY d   1      -0.790  -2.089   0.577  0.00  0.00     0.003 A 
ATOM      5  C3  PXY d   1       0.464  -1.612   0.296  0.00  0.00     0.003 A 
ATOM      6  C4  PXY d   1       0.851  -0.377   0.744  0.00  0.00    -0.082 A 
ATOM      7  C5  PXY d   1       0.005   0.352   1.501  0.00  0.00     0.003 A 
ATOM      8  C6  PXY d   1      -1.249  -0.168   1.809  0.00  0.00     0.003 A 
ENDROOT
TORSDOF 0
ENDMDL
