MODEL 1
REMARK minimizedAffinity 6.84041977
REMARK minimizedRMSD -1
REMARK  0 active torsions:
REMARK  status: ('A' for Active; 'I' for Inactive)
ROOT
ATOM      1  C4' PXY d   1      -1.024  -1.626   4.409  0.00  0.00     0.077 C 
ATOM      2  C1' PXY d   1       1.571   0.289  -0.388  0.00  0.00     0.077 C 
ATOM      3  C1  PXY d   1       0.879  -0.214   0.863  0.00  0.00    -0.082 A 
ATOM      4  C2  PXY d   1       1.398   0.055   2.050  0.00  0.00     0.003 A 
ATOM      5  C3  PXY d   1       0.803  -0.419   3.191  0.00  0.00     0.003 A 
ATOM      6  C4  PXY d   1      -0.365  -1.131   3.119  0.00  0.00    -0.082 A 
ATOM      7  C5  PXY d   1      -0.906  -1.400   1.912  0.00  0.00     0.003 A 
ATOM      8  C6  PXY d   1      -0.264  -0.944   0.764  0.00  0.00     0.003 A 
ENDROOT
TORSDOF 0
ENDMDL
