MODEL 1
REMARK minimizedAffinity 2.56590676
REMARK minimizedRMSD -1
REMARK  0 active torsions:
REMARK  status: ('A' for Active; 'I' for Inactive)
ROOT
ATOM      1  C4' PXY d   1      -3.657   2.123  -3.839  0.00  0.00     0.077 C 
ATOM      2  C1' PXY d   1       0.073   5.998  -1.722  0.00  0.00     0.077 C 
ATOM      3  C1  PXY d   1      -0.897   4.980  -2.287  0.00  0.00    -0.082 A 
ATOM      4  C2  PXY d   1      -2.175   5.038  -1.951  0.00  0.00     0.003 A 
ATOM      5  C3  PXY d   1      -3.061   4.105  -2.428  0.00  0.00     0.003 A 
ATOM      6  C4  PXY d   1      -2.643   3.136  -3.300  0.00  0.00    -0.082 A 
ATOM      7  C5  PXY d   1      -1.342   3.077  -3.656  0.00  0.00     0.003 A 
ATOM      8  C6  PXY d   1      -0.452   4.008  -3.129  0.00  0.00     0.003 A 
ENDROOT
TORSDOF 0
ENDMDL
