MODEL 1
REMARK minimizedAffinity 8.2077055
REMARK minimizedRMSD -1
REMARK  0 active torsions:
REMARK  status: ('A' for Active; 'I' for Inactive)
ROOT
ATOM      1  C4' PXY d   1       2.239  -0.017  -0.393  0.00  0.00     0.077 C 
ATOM      2  C1' PXY d   1      -2.018  -2.241   2.822  0.00  0.00     0.077 C 
ATOM      3  C1  PXY d   1      -0.904  -1.646   1.984  0.00  0.00    -0.082 A 
ATOM      4  C2  PXY d   1      -0.548  -2.236   0.855  0.00  0.00     0.003 A 
ATOM      5  C3  PXY d   1       0.479  -1.729   0.101  0.00  0.00     0.003 A 
ATOM      6  C4  PXY d   1       1.113  -0.577   0.480  0.00  0.00    -0.082 A 
ATOM      7  C5  PXY d   1       0.749   0.037   1.626  0.00  0.00     0.003 A 
ATOM      8  C6  PXY d   1      -0.268  -0.516   2.398  0.00  0.00     0.003 A 
ENDROOT
TORSDOF 0
ENDMDL
