MODEL 1
REMARK minimizedAffinity 7.50327921
REMARK minimizedRMSD -1
REMARK  0 active torsions:
REMARK  status: ('A' for Active; 'I' for Inactive)
ROOT
ATOM      1  C4' PXY d   1      -0.341   0.501  -4.598  0.00  0.00     0.077 C 
ATOM      2  C1' PXY d   1      -0.963   6.000  -2.928  0.00  0.00     0.077 C 
ATOM      3  C1  PXY d   1      -0.812   4.555  -3.363  0.00  0.00    -0.082 A 
ATOM      4  C2  PXY d   1       0.383   3.988  -3.345  0.00  0.00     0.003 A 
ATOM      5  C3  PXY d   1       0.542   2.692  -3.765  0.00  0.00     0.003 A 
ATOM      6  C4  PXY d   1      -0.542   1.954  -4.158  0.00  0.00    -0.082 A 
ATOM      7  C5  PXY d   1      -1.766   2.522  -4.170  0.00  0.00     0.003 A 
ATOM      8  C6  PXY d   1      -1.900   3.851  -3.779  0.00  0.00     0.003 A 
ENDROOT
TORSDOF 0
ENDMDL
