MODEL 1
REMARK minimizedAffinity 9.78987598
REMARK minimizedRMSD -1
REMARK  0 active torsions:
REMARK  status: ('A' for Active; 'I' for Inactive)
ROOT
ATOM      1  C4' PXY d   1       2.528  -0.038  -0.235  0.00  0.00     0.077 C 
ATOM      2  C1' PXY d   1      -1.881  -1.781   3.072  0.00  0.00     0.077 C 
ATOM      3  C1  PXY d   1      -0.723  -1.336   2.202  0.00  0.00    -0.082 A 
ATOM      4  C2  PXY d   1      -0.111  -0.192   2.461  0.00  0.00     0.003 A 
ATOM      5  C3  PXY d   1       0.917   0.241   1.664  0.00  0.00     0.003 A 
ATOM      6  C4  PXY d   1       1.360  -0.531   0.623  0.00  0.00    -0.082 A 
ATOM      7  C5  PXY d   1       0.748  -1.705   0.359  0.00  0.00     0.003 A 
ATOM      8  C6  PXY d   1      -0.321  -2.107   1.155  0.00  0.00     0.003 A 
ENDROOT
TORSDOF 0
ENDMDL
