MODEL 1
REMARK minimizedAffinity 5.7749548
REMARK minimizedRMSD -1
REMARK  0 active torsions:
REMARK  status: ('A' for Active; 'I' for Inactive)
ROOT
ATOM      1  C4' PXY d   1       5.740  -0.755  -3.037  0.00  0.00     0.077 C 
ATOM      2  C1' PXY d   1       1.588   1.831   0.044  0.00  0.00     0.077 C 
ATOM      3  C1  PXY d   1       2.675   1.142  -0.757  0.00  0.00    -0.082 A 
ATOM      4  C2  PXY d   1       3.576   1.869  -1.397  0.00  0.00     0.003 A 
ATOM      5  C3  PXY d   1       4.547   1.263  -2.152  0.00  0.00     0.003 A 
ATOM      6  C4  PXY d   1       4.629  -0.103  -2.209  0.00  0.00    -0.082 A 
ATOM      7  C5  PXY d   1       3.720  -0.852  -1.549  0.00  0.00     0.003 A 
ATOM      8  C6  PXY d   1       2.718  -0.217  -0.822  0.00  0.00     0.003 A 
ENDROOT
TORSDOF 0
ENDMDL
