MODEL 1
REMARK minimizedAffinity 3.07410312
REMARK minimizedRMSD -1
REMARK  0 active torsions:
REMARK  status: ('A' for Active; 'I' for Inactive)
ROOT
ATOM      1  C4' PXY d   1       3.422   0.158   2.399  0.00  0.00     0.077 C 
ATOM      2  C1' PXY d   1      -2.082  -1.381   1.534  0.00  0.00     0.077 C 
ATOM      3  C1  PXY d   1      -0.642  -0.971   1.772  0.00  0.00    -0.082 A 
ATOM      4  C2  PXY d   1       0.212  -0.966   0.761  0.00  0.00     0.003 A 
ATOM      5  C3  PXY d   1       1.525  -0.629   0.964  0.00  0.00     0.003 A 
ATOM      6  C4  PXY d   1       1.957  -0.240   2.204  0.00  0.00    -0.082 A 
ATOM      7  C5  PXY d   1       1.089  -0.232   3.238  0.00  0.00     0.003 A 
ATOM      8  C6  PXY d   1      -0.230  -0.617   3.020  0.00  0.00     0.003 A 
ENDROOT
TORSDOF 0
ENDMDL
