MODEL 1
REMARK minimizedAffinity 19.7496891
REMARK minimizedRMSD -1
REMARK  0 active torsions:
REMARK  status: ('A' for Active; 'I' for Inactive)
ROOT
ATOM      1  C4' PXY d   1      -0.010   0.599  -4.225  0.00  0.00     0.077 C 
ATOM      2  C1' PXY d   1      -1.526   6.000  -2.828  0.00  0.00     0.077 C 
ATOM      3  C1  PXY d   1      -1.138   4.579  -3.188  0.00  0.00    -0.082 A 
ATOM      4  C2  PXY d   1       0.119   4.301  -3.493  0.00  0.00     0.003 A 
ATOM      5  C3  PXY d   1       0.480   3.028  -3.852  0.00  0.00     0.003 A 
ATOM      6  C4  PXY d   1      -0.444   2.018  -3.847  0.00  0.00    -0.082 A 
ATOM      7  C5  PXY d   1      -1.727   2.291  -3.526  0.00  0.00     0.003 A 
ATOM      8  C6  PXY d   1      -2.081   3.598  -3.205  0.00  0.00     0.003 A 
ENDROOT
TORSDOF 0
ENDMDL
