MODEL 1
REMARK minimizedAffinity 9.88807964
REMARK minimizedRMSD -1
REMARK  0 active torsions:
REMARK  status: ('A' for Active; 'I' for Inactive)
ROOT
ATOM      1  C4' PXY d   1      -2.376   6.000  -2.225  0.00  0.00     0.077 C 
ATOM      2  C1' PXY d   1      -0.445   1.199  -4.801  0.00  0.00     0.077 C 
ATOM      3  C1  PXY d   1      -0.962   2.457  -4.132  0.00  0.00    -0.082 A 
ATOM      4  C2  PXY d   1      -0.105   3.336  -3.640  0.00  0.00     0.003 A 
ATOM      5  C3  PXY d   1      -0.556   4.464  -3.004  0.00  0.00     0.003 A 
ATOM      6  C4  PXY d   1      -1.898   4.720  -2.917  0.00  0.00    -0.082 A 
ATOM      7  C5  PXY d   1      -2.779   3.833  -3.426  0.00  0.00     0.003 A 
ATOM      8  C6  PXY d   1      -2.302   2.675  -4.031  0.00  0.00     0.003 A 
ENDROOT
TORSDOF 0
ENDMDL
