MODEL 1
REMARK minimizedAffinity 14.3776817
REMARK minimizedRMSD -1
REMARK  0 active torsions:
REMARK  status: ('A' for Active; 'I' for Inactive)
ROOT
ATOM      1  C4' PXY d   1      -1.310   5.688  -2.445  0.00  0.00     0.077 C 
ATOM      2  C1' PXY d   1      -0.206   0.967  -5.593  0.00  0.00     0.077 C 
ATOM      3  C1  PXY d   1      -0.484   2.204  -4.762  0.00  0.00    -0.082 A 
ATOM      4  C2  PXY d   1      -1.734   2.562  -4.519  0.00  0.00     0.003 A 
ATOM      5  C3  PXY d   1      -2.004   3.695  -3.796  0.00  0.00     0.003 A 
ATOM      6  C4  PXY d   1      -0.983   4.441  -3.271  0.00  0.00    -0.082 A 
ATOM      7  C5  PXY d   1       0.296   4.077  -3.506  0.00  0.00     0.003 A 
ATOM      8  C6  PXY d   1       0.548   2.946  -4.276  0.00  0.00     0.003 A 
ENDROOT
TORSDOF 0
ENDMDL
