MODEL 1
REMARK minimizedAffinity 11.2970152
REMARK minimizedRMSD -1
REMARK  0 active torsions:
REMARK  status: ('A' for Active; 'I' for Inactive)
ROOT
ATOM      1  C4' PXY d   1      -2.103  -1.245   1.258  0.00  0.00     0.077 C 
ATOM      2  C1' PXY d   1       3.342   0.076   2.680  0.00  0.00     0.077 C 
ATOM      3  C1  PXY d   1       1.912  -0.276   2.319  0.00  0.00    -0.082 A 
ATOM      4  C2  PXY d   1       1.562  -0.365   1.046  0.00  0.00     0.003 A 
ATOM      5  C3  PXY d   1       0.266  -0.651   0.701  0.00  0.00     0.003 A 
ATOM      6  C4  PXY d   1      -0.669  -0.901   1.669  0.00  0.00    -0.082 A 
ATOM      7  C5  PXY d   1      -0.317  -0.823   2.970  0.00  0.00     0.003 A 
ATOM      8  C6  PXY d   1       0.994  -0.491   3.299  0.00  0.00     0.003 A 
ENDROOT
TORSDOF 0
ENDMDL
