MODEL 1
REMARK minimizedAffinity 3.74882388
REMARK minimizedRMSD -1
REMARK  0 active torsions:
REMARK  status: ('A' for Active; 'I' for Inactive)
ROOT
ATOM      1  C4' PXY d   1       2.776  -0.157   3.085  0.00  0.00     0.077 C 
ATOM      2  C1' PXY d   1      -2.503  -1.550   1.184  0.00  0.00     0.077 C 
ATOM      3  C1  PXY d   1      -1.123  -1.184   1.695  0.00  0.00    -0.082 A 
ATOM      4  C2  PXY d   1      -0.251  -0.618   0.876  0.00  0.00     0.003 A 
ATOM      5  C3  PXY d   1       1.012  -0.310   1.312  0.00  0.00     0.003 A 
ATOM      6  C4  PXY d   1       1.368  -0.535   2.615  0.00  0.00    -0.082 A 
ATOM      7  C5  PXY d   1       0.481  -1.101   3.460  0.00  0.00     0.003 A 
ATOM      8  C6  PXY d   1      -0.782  -1.444   2.986  0.00  0.00     0.003 A 
ENDROOT
TORSDOF 0
ENDMDL
