MODEL 1
REMARK minimizedAffinity 4.9368434
REMARK minimizedRMSD -1
REMARK  0 active torsions:
REMARK  status: ('A' for Active; 'I' for Inactive)
ROOT
ATOM      1  C4' PXY d   1       1.142  -0.036  -0.262  0.00  0.00     0.077 C 
ATOM      2  C1' PXY d   1      -1.958  -2.811   3.752  0.00  0.00     0.077 C 
ATOM      3  C1  PXY d   1      -1.145  -2.094   2.692  0.00  0.00    -0.082 A 
ATOM      4  C2  PXY d   1      -0.429  -1.032   3.024  0.00  0.00     0.003 A 
ATOM      5  C3  PXY d   1       0.287  -0.352   2.072  0.00  0.00     0.003 A 
ATOM      6  C4  PXY d   1       0.313  -0.796   0.777  0.00  0.00    -0.082 A 
ATOM      7  C5  PXY d   1      -0.406  -1.885   0.432  0.00  0.00     0.003 A 
ATOM      8  C6  PXY d   1      -1.159  -2.536   1.405  0.00  0.00     0.003 A 
ENDROOT
TORSDOF 0
ENDMDL
