MODEL 1
REMARK minimizedAffinity 7.65034151
REMARK minimizedRMSD -1
REMARK  0 active torsions:
REMARK  status: ('A' for Active; 'I' for Inactive)
ROOT
ATOM      1  C4' PXY d   1      -0.086   1.134  -5.087  0.00  0.00     0.077 C 
ATOM      2  C1' PXY d   1      -1.193   5.999  -2.168  0.00  0.00     0.077 C 
ATOM      3  C1  PXY d   1      -0.915   4.719  -2.930  0.00  0.00    -0.082 A 
ATOM      4  C2  PXY d   1       0.336   4.369  -3.185  0.00  0.00     0.003 A 
ATOM      5  C3  PXY d   1       0.605   3.230  -3.901  0.00  0.00     0.003 A 
ATOM      6  C4  PXY d   1      -0.414   2.414  -4.313  0.00  0.00    -0.082 A 
ATOM      7  C5  PXY d   1      -1.692   2.759  -4.047  0.00  0.00     0.003 A 
ATOM      8  C6  PXY d   1      -1.946   3.940  -3.356  0.00  0.00     0.003 A 
ENDROOT
TORSDOF 0
ENDMDL
