MODEL 1
REMARK minimizedAffinity 10.863142
REMARK minimizedRMSD -1
REMARK  0 active torsions:
REMARK  status: ('A' for Active; 'I' for Inactive)
ROOT
ATOM      1  C4' PXY d   1       1.544   0.107   0.516  0.00  0.00     0.077 C 
ATOM      2  C1' PXY d   1      -3.538  -2.512   1.367  0.00  0.00     0.077 C 
ATOM      3  C1  PXY d   1      -2.211  -1.814   1.147  0.00  0.00    -0.082 A 
ATOM      4  C2  PXY d   1      -1.308  -2.361   0.349  0.00  0.00     0.003 A 
ATOM      5  C3  PXY d   1      -0.090  -1.759   0.164  0.00  0.00     0.003 A 
ATOM      6  C4  PXY d   1       0.187  -0.558   0.760  0.00  0.00    -0.082 A 
ATOM      7  C5  PXY d   1      -0.733   0.012   1.567  0.00  0.00     0.003 A 
ATOM      8  C6  PXY d   1      -1.947  -0.636   1.774  0.00  0.00     0.003 A 
ENDROOT
TORSDOF 0
ENDMDL
