MODEL 1
REMARK minimizedAffinity -1.82894123
REMARK minimizedRMSD -1
REMARK  0 active torsions:
REMARK  status: ('A' for Active; 'I' for Inactive)
ROOT
ATOM      1  C1  DEN d   1       0.841  -0.730   1.343  0.00  0.00     0.130 A 
ATOM      2  C2  DEN d   1       1.037  -2.093   0.857  0.00  0.00    -0.031 A 
ATOM      3  C3  DEN d   1       0.968  -2.067  -0.618  0.00  0.00     0.027 A 
ATOM      4  C4  DEN d   1       0.583  -0.058  -2.188  0.00  0.00     0.027 A 
ATOM      5  C5  DEN d   1       0.353   1.300  -2.239  0.00  0.00    -0.003 A 
ATOM      6  C6  DEN d   1       0.237   2.063  -1.108  0.00  0.00     0.001 A 
ATOM      7  C7  DEN d   1       0.395   1.482   0.122  0.00  0.00     0.017 A 
ATOM      8  C8  DEN d   1       0.620   0.113   0.182  0.00  0.00    -0.094 A 
ATOM      9  C9  DEN d   1       0.746  -0.639  -0.973  0.00  0.00    -0.072 A 
ENDROOT
TORSDOF 0
ENDMDL
