MODEL 1
REMARK minimizedAffinity -1.32519078
REMARK minimizedRMSD -1
REMARK  0 active torsions:
REMARK  status: ('A' for Active; 'I' for Inactive)
ROOT
ATOM      1  C1  DEN d   1      -0.078  -3.408  -1.197  0.00  0.00     0.130 A 
ATOM      2  C2  DEN d   1       0.107  -2.693  -2.456  0.00  0.00    -0.031 A 
ATOM      3  C3  DEN d   1       0.071  -1.245  -2.168  0.00  0.00     0.027 A 
ATOM      4  C4  DEN d   1      -0.249  -0.048   0.095  0.00  0.00     0.027 A 
ATOM      5  C5  DEN d   1      -0.457  -0.235   1.443  0.00  0.00    -0.003 A 
ATOM      6  C6  DEN d   1      -0.586  -1.481   1.997  0.00  0.00     0.001 A 
ATOM      7  C7  DEN d   1      -0.463  -2.592   1.205  0.00  0.00     0.017 A 
ATOM      8  C8  DEN d   1      -0.261  -2.412  -0.157  0.00  0.00    -0.094 A 
ATOM      9  C9  DEN d   1      -0.121  -1.144  -0.696  0.00  0.00    -0.072 A 
ENDROOT
TORSDOF 0
ENDMDL
