MODEL 1
REMARK minimizedAffinity -0.93333745
REMARK minimizedRMSD -1
REMARK  0 active torsions:
REMARK  status: ('A' for Active; 'I' for Inactive)
ROOT
ATOM      1  C1  DEN d   1       0.051  -0.691  -2.165  0.00  0.00     0.130 A 
ATOM      2  C2  DEN d   1      -0.136  -2.042  -2.689  0.00  0.00    -0.031 A 
ATOM      3  C3  DEN d   1      -0.545  -2.913  -1.570  0.00  0.00     0.027 A 
ATOM      4  C4  DEN d   1      -0.912  -2.305   0.910  0.00  0.00     0.027 A 
ATOM      5  C5  DEN d   1      -0.866  -1.285   1.834  0.00  0.00    -0.003 A 
ATOM      6  C6  DEN d   1      -0.480  -0.014   1.500  0.00  0.00     0.001 A 
ATOM      7  C7  DEN d   1      -0.170   0.281   0.199  0.00  0.00     0.017 A 
ATOM      8  C8  DEN d   1      -0.208  -0.744  -0.738  0.00  0.00    -0.094 A 
ATOM      9  C9  DEN d   1      -0.612  -2.019  -0.382  0.00  0.00    -0.072 A 
ENDROOT
TORSDOF 0
ENDMDL
