MODEL 1
REMARK minimizedAffinity -4.84572792
REMARK minimizedRMSD -1
REMARK  0 active torsions:
REMARK  status: ('A' for Active; 'I' for Inactive)
ROOT
ATOM      1  C1  DEN d   1       0.532  -2.941  -0.705  0.00  0.00     0.130 A 
ATOM      2  C2  DEN d   1       0.306  -3.253   0.704  0.00  0.00    -0.031 A 
ATOM      3  C3  DEN d   1      -0.059  -2.001   1.396  0.00  0.00     0.027 A 
ATOM      4  C4  DEN d   1      -0.301   0.377   0.428  0.00  0.00     0.027 A 
ATOM      5  C5  DEN d   1      -0.199   1.140  -0.714  0.00  0.00    -0.003 A 
ATOM      6  C6  DEN d   1       0.183   0.607  -1.916  0.00  0.00     0.001 A 
ATOM      7  C7  DEN d   1       0.435  -0.737  -2.014  0.00  0.00     0.017 A 
ATOM      8  C8  DEN d   1       0.341  -1.511  -0.865  0.00  0.00    -0.094 A 
ATOM      9  C9  DEN d   1      -0.059  -0.955   0.338  0.00  0.00    -0.072 A 
ENDROOT
TORSDOF 0
ENDMDL
