MODEL 1
REMARK minimizedAffinity -5.53223181
REMARK minimizedRMSD -1
REMARK  0 active torsions:
REMARK  status: ('A' for Active; 'I' for Inactive)
ROOT
ATOM      1  C1  DEN d   1      -0.436  -0.075   0.682  0.00  0.00     0.130 A 
ATOM      2  C2  DEN d   1      -0.094   0.931  -0.320  0.00  0.00    -0.031 A 
ATOM      3  C3  DEN d   1       0.180   0.232  -1.592  0.00  0.00     0.027 A 
ATOM      4  C4  DEN d   1       0.103  -2.294  -2.106  0.00  0.00     0.027 A 
ATOM      5  C5  DEN d   1      -0.126  -3.542  -1.570  0.00  0.00    -0.003 A 
ATOM      6  C6  DEN d   1      -0.438  -3.723  -0.249  0.00  0.00     0.001 A 
ATOM      7  C7  DEN d   1      -0.575  -2.635   0.572  0.00  0.00     0.017 A 
ATOM      8  C8  DEN d   1      -0.338  -1.374   0.040  0.00  0.00    -0.094 A 
ATOM      9  C9  DEN d   1      -0.035  -1.211  -1.301  0.00  0.00    -0.072 A 
ENDROOT
TORSDOF 0
ENDMDL
