MODEL 1
REMARK minimizedAffinity -4.24956274
REMARK minimizedRMSD -1
REMARK  0 active torsions:
REMARK  status: ('A' for Active; 'I' for Inactive)
ROOT
ATOM      1  C1  DEN d   1       1.689   0.163   0.289  0.00  0.00     0.130 A 
ATOM      2  C2  DEN d   1       1.198   1.530   0.439  0.00  0.00    -0.031 A 
ATOM      3  C3  DEN d   1      -0.254   1.467   0.700  0.00  0.00     0.027 A 
ATOM      4  C4  DEN d   1      -1.780  -0.603   0.893  0.00  0.00     0.027 A 
ATOM      5  C5  DEN d   1      -1.819  -1.978   0.829  0.00  0.00    -0.003 A 
ATOM      6  C6  DEN d   1      -0.708  -2.728   0.549  0.00  0.00     0.001 A 
ATOM      7  C7  DEN d   1       0.501  -2.109   0.368  0.00  0.00     0.017 A 
ATOM      8  C8  DEN d   1       0.547  -0.723   0.423  0.00  0.00    -0.094 A 
ATOM      9  C9  DEN d   1      -0.585   0.017   0.719  0.00  0.00    -0.072 A 
ENDROOT
TORSDOF 0
ENDMDL
