MODEL 1
REMARK minimizedAffinity -2.93588901
REMARK minimizedRMSD -1
REMARK  0 active torsions:
REMARK  status: ('A' for Active; 'I' for Inactive)
ROOT
ATOM      1  C1  DEN d   1       1.188   0.186  -0.557  0.00  0.00     0.130 A 
ATOM      2  C2  DEN d   1       0.515   1.353   0.006  0.00  0.00    -0.031 A 
ATOM      3  C3  DEN d   1      -0.627   0.877   0.813  0.00  0.00     0.027 A 
ATOM      4  C4  DEN d   1      -1.411  -1.542   1.246  0.00  0.00     0.027 A 
ATOM      5  C5  DEN d   1      -1.163  -2.868   0.971  0.00  0.00    -0.003 A 
ATOM      6  C6  DEN d   1      -0.143  -3.265   0.147  0.00  0.00     0.001 A 
ATOM      7  C7  DEN d   1       0.695  -2.327  -0.395  0.00  0.00     0.017 A 
ATOM      8  C8  DEN d   1       0.447  -0.987  -0.129  0.00  0.00    -0.094 A 
ATOM      9  C9  DEN d   1      -0.582  -0.607   0.717  0.00  0.00    -0.072 A 
ENDROOT
TORSDOF 0
ENDMDL
