MODEL 1
REMARK minimizedAffinity 2.20836043
REMARK minimizedRMSD -1
REMARK  0 active torsions:
REMARK  status: ('A' for Active; 'I' for Inactive)
ROOT
ATOM      1  C1  DEN d   1       0.024  -1.889  -1.658  0.00  0.00     0.130 A 
ATOM      2  C2  DEN d   1       0.771  -0.710  -2.088  0.00  0.00    -0.031 A 
ATOM      3  C3  DEN d   1       0.878   0.208  -0.936  0.00  0.00     0.027 A 
ATOM      4  C4  DEN d   1      -0.032  -0.082   1.460  0.00  0.00     0.027 A 
ATOM      5  C5  DEN d   1      -0.742  -0.913   2.297  0.00  0.00    -0.003 A 
ATOM      6  C6  DEN d   1      -1.272  -2.102   1.870  0.00  0.00     0.001 A 
ATOM      7  C7  DEN d   1      -1.061  -2.515   0.581  0.00  0.00     0.017 A 
ATOM      8  C8  DEN d   1      -0.352  -1.679  -0.272  0.00  0.00    -0.094 A 
ATOM      9  C9  DEN d   1       0.186  -0.487   0.183  0.00  0.00    -0.072 A 
ENDROOT
TORSDOF 0
ENDMDL
