MODEL 1
REMARK minimizedAffinity -5.50744295
REMARK minimizedRMSD -1
REMARK  0 active torsions:
REMARK  status: ('A' for Active; 'I' for Inactive)
ROOT
ATOM      1  C1  DEN d   1       0.555   0.528  -0.942  0.00  0.00     0.130 A 
ATOM      2  C2  DEN d   1       0.502   1.115   0.394  0.00  0.00    -0.031 A 
ATOM      3  C3  DEN d   1       0.250   0.027   1.361  0.00  0.00     0.027 A 
ATOM      4  C4  DEN d   1      -0.055  -2.496   0.921  0.00  0.00     0.027 A 
ATOM      5  C5  DEN d   1      -0.104  -3.468  -0.054  0.00  0.00    -0.003 A 
ATOM      6  C6  DEN d   1       0.028  -3.173  -1.385  0.00  0.00     0.001 A 
ATOM      7  C7  DEN d   1       0.261  -1.881  -1.775  0.00  0.00     0.017 A 
ATOM      8  C8  DEN d   1       0.304  -0.895  -0.798  0.00  0.00    -0.094 A 
ATOM      9  C9  DEN d   1       0.181  -1.214   0.543  0.00  0.00    -0.072 A 
ENDROOT
TORSDOF 0
ENDMDL
