MODEL 1
REMARK minimizedAffinity -3.15842819
REMARK minimizedRMSD -1
REMARK  0 active torsions:
REMARK  status: ('A' for Active; 'I' for Inactive)
ROOT
ATOM      1  C1  DEN d   1       0.559  -0.504   1.442  0.00  0.00     0.130 A 
ATOM      2  C2  DEN d   1      -0.719  -1.122   1.099  0.00  0.00    -0.031 A 
ATOM      3  C3  DEN d   1      -1.425  -0.222   0.166  0.00  0.00     0.027 A 
ATOM      4  C4  DEN d   1      -0.667   2.055  -0.780  0.00  0.00     0.027 A 
ATOM      5  C5  DEN d   1       0.339   2.996  -0.769  0.00  0.00    -0.003 A 
ATOM      6  C6  DEN d   1       1.463   2.855  -0.000  0.00  0.00     0.001 A 
ATOM      7  C7  DEN d   1       1.631   1.724   0.756  0.00  0.00     0.017 A 
ATOM      8  C8  DEN d   1       0.618   0.774   0.755  0.00  0.00    -0.094 A 
ATOM      9  C9  DEN d   1      -0.506   0.930  -0.038  0.00  0.00    -0.072 A 
ENDROOT
TORSDOF 0
ENDMDL
