MODEL 1
REMARK minimizedAffinity -4.9962039
REMARK minimizedRMSD -1
REMARK  0 active torsions:
REMARK  status: ('A' for Active; 'I' for Inactive)
ROOT
ATOM      1  C1  DEN d   1      -0.114  -3.356  -1.937  0.00  0.00     0.130 A 
ATOM      2  C2  DEN d   1      -0.020  -2.361  -3.002  0.00  0.00    -0.031 A 
ATOM      3  C3  DEN d   1       0.148  -1.035  -2.374  0.00  0.00     0.027 A 
ATOM      4  C4  DEN d   1       0.275  -0.430   0.130  0.00  0.00     0.027 A 
ATOM      5  C5  DEN d   1       0.232  -0.935   1.410  0.00  0.00    -0.003 A 
ATOM      6  C6  DEN d   1       0.037  -2.267   1.664  0.00  0.00     0.001 A 
ATOM      7  C7  DEN d   1      -0.075  -3.147   0.620  0.00  0.00     0.017 A 
ATOM      8  C8  DEN d   1      -0.040  -2.644  -0.674  0.00  0.00    -0.094 A 
ATOM      9  C9  DEN d   1       0.169  -1.296  -0.910  0.00  0.00    -0.072 A 
ENDROOT
TORSDOF 0
ENDMDL
