MODEL 1
REMARK minimizedAffinity -2.32839537
REMARK minimizedRMSD -1
REMARK  0 active torsions:
REMARK  status: ('A' for Active; 'I' for Inactive)
ROOT
ATOM      1  C1  DEN d   1       0.159   1.008  -0.938  0.00  0.00     0.130 A 
ATOM      2  C2  DEN d   1      -0.141   1.448   0.422  0.00  0.00    -0.031 A 
ATOM      3  C3  DEN d   1      -0.600   0.274   1.190  0.00  0.00     0.027 A 
ATOM      4  C4  DEN d   1      -0.868  -2.171   0.413  0.00  0.00     0.027 A 
ATOM      5  C5  DEN d   1      -0.747  -3.028  -0.659  0.00  0.00    -0.003 A 
ATOM      6  C6  DEN d   1      -0.351  -2.596  -1.898  0.00  0.00     0.001 A 
ATOM      7  C7  DEN d   1      -0.019  -1.281  -2.084  0.00  0.00     0.017 A 
ATOM      8  C8  DEN d   1      -0.146  -0.409  -1.010  0.00  0.00    -0.094 A 
ATOM      9  C9  DEN d   1      -0.536  -0.867   0.237  0.00  0.00    -0.072 A 
ENDROOT
TORSDOF 0
ENDMDL
