MODEL 1
REMARK minimizedAffinity -4.63153219
REMARK minimizedRMSD -1
REMARK  0 active torsions:
REMARK  status: ('A' for Active; 'I' for Inactive)
ROOT
ATOM      1  C1  DEN d   1       0.795   0.597  -0.503  0.00  0.00     0.130 A 
ATOM      2  C2  DEN d   1       1.099   1.126   0.823  0.00  0.00    -0.031 A 
ATOM      3  C3  DEN d   1       0.990   0.018   1.793  0.00  0.00     0.027 A 
ATOM      4  C4  DEN d   1       0.386  -2.454   1.370  0.00  0.00     0.027 A 
ATOM      5  C5  DEN d   1       0.035  -3.375   0.408  0.00  0.00    -0.003 A 
ATOM      6  C6  DEN d   1      -0.119  -3.032  -0.910  0.00  0.00     0.001 A 
ATOM      7  C7  DEN d   1       0.122  -1.744  -1.308  0.00  0.00     0.017 A 
ATOM      8  C8  DEN d   1       0.469  -0.808  -0.343  0.00  0.00    -0.094 A 
ATOM      9  C9  DEN d   1       0.632  -1.177   0.982  0.00  0.00    -0.072 A 
ENDROOT
TORSDOF 0
ENDMDL
