MODEL 1
REMARK minimizedAffinity -1.74886727
REMARK minimizedRMSD -1
REMARK  0 active torsions:
REMARK  status: ('A' for Active; 'I' for Inactive)
ROOT
ATOM      1  C1  DEN d   1       0.357  -2.401  -0.073  0.00  0.00     0.130 A 
ATOM      2  C2  DEN d   1      -0.740  -3.068   0.624  0.00  0.00    -0.031 A 
ATOM      3  C3  DEN d   1      -1.571  -2.029   1.266  0.00  0.00     0.027 A 
ATOM      4  C4  DEN d   1      -1.271   0.532   1.243  0.00  0.00     0.027 A 
ATOM      5  C5  DEN d   1      -0.479   1.566   0.793  0.00  0.00    -0.003 A 
ATOM      6  C6  DEN d   1       0.656   1.349   0.058  0.00  0.00     0.001 A 
ATOM      7  C7  DEN d   1       1.007   0.071  -0.288  0.00  0.00     0.017 A 
ATOM      8  C8  DEN d   1       0.218  -0.976   0.168  0.00  0.00    -0.094 A 
ATOM      9  C9  DEN d   1      -0.933  -0.736   0.900  0.00  0.00    -0.072 A 
ENDROOT
TORSDOF 0
ENDMDL
