MODEL 1
REMARK minimizedAffinity 29.6524467
REMARK minimizedRMSD -1
REMARK  0 active torsions:
REMARK  status: ('A' for Active; 'I' for Inactive)
ROOT
ATOM      1  C   UNL d   1      -4.786   2.494  -1.396  0.00  0.00     0.124 A 
ATOM      2  C1  UNL d   1      -3.862   2.216  -2.394  0.00  0.00     0.062 A 
ATOM      3  C2  UNL d   1      -3.010   3.215  -2.857  0.00  0.00     0.162 A 
ATOM      4  C3  UNL d   1      -3.078   4.502  -2.322  0.00  0.00    -0.034 A 
ATOM      5  C4  UNL d   1      -4.011   4.774  -1.320  0.00  0.00     0.162 A 
ATOM      6  C5  UNL d   1      -4.860   3.772  -0.861  0.00  0.00     0.062 A 
ATOM      7  F   UNL d   1      -5.752   4.042   0.103  0.00  0.00    -0.097 F 
ATOM      8  F1  UNL d   1      -4.103   6.000  -0.784  0.00  0.00    -0.096 F 
ATOM      9  I   UNL d   1      -1.806   5.998  -3.012  0.00  0.00    -0.060 I 
ATOM     10  F2  UNL d   1      -2.127   2.918  -3.822  0.00  0.00    -0.096 F 
ATOM     11  F3  UNL d   1      -3.789   0.982  -2.914  0.00  0.00    -0.097 F 
ATOM     12  F4  UNL d   1      -5.605   1.531  -0.953  0.00  0.00    -0.092 F 
ENDROOT
TORSDOF 0
ENDMDL
