MODEL 1
REMARK minimizedAffinity 22.4074898
REMARK minimizedRMSD -1
REMARK  0 active torsions:
REMARK  status: ('A' for Active; 'I' for Inactive)
ROOT
ATOM      1  C   UNL d   1      -0.821  -4.541   1.198  0.00  0.00     0.124 A 
ATOM      2  C1  UNL d   1       0.418  -4.802   1.767  0.00  0.00     0.062 A 
ATOM      3  C2  UNL d   1       1.408  -3.823   1.767  0.00  0.00     0.162 A 
ATOM      4  C3  UNL d   1       1.163  -2.574   1.198  0.00  0.00    -0.034 A 
ATOM      5  C4  UNL d   1      -0.086  -2.319   0.627  0.00  0.00     0.162 A 
ATOM      6  C5  UNL d   1      -1.072  -3.300   0.629  0.00  0.00     0.062 A 
ATOM      7  F   UNL d   1      -2.268  -3.046   0.080  0.00  0.00    -0.097 F 
ATOM      8  F1  UNL d   1      -0.355  -1.128   0.071  0.00  0.00    -0.096 F 
ATOM      9  I   UNL d   1       2.640  -1.108   1.196  0.00  0.00    -0.060 I 
ATOM     10  F2  UNL d   1       2.596  -4.103   2.323  0.00  0.00    -0.096 F 
ATOM     11  F3  UNL d   1       0.663  -6.000   2.316  0.00  0.00    -0.097 F 
ATOM     12  F4  UNL d   1      -1.771  -5.484   1.199  0.00  0.00    -0.092 F 
ENDROOT
TORSDOF 0
ENDMDL
