MODEL 1
REMARK minimizedAffinity 30.743084
REMARK minimizedRMSD -1
REMARK  0 active torsions:
REMARK  status: ('A' for Active; 'I' for Inactive)
ROOT
ATOM      1  C   UNL d   1       1.136  -0.355   2.080  0.00  0.00     0.124 A 
ATOM      2  C1  UNL d   1       2.175   0.046   1.251  0.00  0.00     0.062 A 
ATOM      3  C2  UNL d   1       2.082   1.237   0.537  0.00  0.00     0.162 A 
ATOM      4  C3  UNL d   1       0.945   2.038   0.650  0.00  0.00    -0.034 A 
ATOM      5  C4  UNL d   1      -0.096   1.628   1.485  0.00  0.00     0.162 A 
ATOM      6  C5  UNL d   1       0.002   0.436   2.196  0.00  0.00     0.062 A 
ATOM      7  F   UNL d   1      -1.003   0.051   2.996  0.00  0.00    -0.097 F 
ATOM      8  F1  UNL d   1      -1.203   2.373   1.616  0.00  0.00    -0.096 F 
ATOM      9  I   UNL d   1       0.802   3.820  -0.416  0.00  0.00    -0.060 I 
ATOM     10  F2  UNL d   1       3.101   1.599  -0.256  0.00  0.00    -0.096 F 
ATOM     11  F3  UNL d   1       3.272  -0.717   1.137  0.00  0.00    -0.097 F 
ATOM     12  F4  UNL d   1       1.228  -1.502   2.765  0.00  0.00    -0.092 F 
ENDROOT
TORSDOF 0
ENDMDL
