MODEL 1
REMARK minimizedAffinity 13.5516911
REMARK minimizedRMSD -1
REMARK  0 active torsions:
REMARK  status: ('A' for Active; 'I' for Inactive)
ROOT
ATOM      1  C   UNL d   1      -3.077  -3.007   2.692  0.00  0.00     0.124 A 
ATOM      2  C1  UNL d   1      -4.142  -3.631   3.326  0.00  0.00     0.062 A 
ATOM      3  C2  UNL d   1      -4.978  -4.485   2.613  0.00  0.00     0.162 A 
ATOM      4  C3  UNL d   1      -4.751  -4.723   1.257  0.00  0.00    -0.034 A 
ATOM      5  C4  UNL d   1      -3.678  -4.091   0.626  0.00  0.00     0.162 A 
ATOM      6  C5  UNL d   1      -2.846  -3.238   1.343  0.00  0.00     0.062 A 
ATOM      7  F   UNL d   1      -1.817  -2.636   0.728  0.00  0.00    -0.097 F 
ATOM      8  F1  UNL d   1      -3.432  -4.297  -0.676  0.00  0.00    -0.096 F 
ATOM      9  I   UNL d   1      -5.999  -6.000   0.188  0.00  0.00    -0.060 I 
ATOM     10  F2  UNL d   1      -6.000  -5.074   3.252  0.00  0.00    -0.096 F 
ATOM     11  F3  UNL d   1      -4.368  -3.409   4.629  0.00  0.00    -0.097 F 
ATOM     12  F4  UNL d   1      -2.274  -2.184   3.380  0.00  0.00    -0.092 F 
ENDROOT
TORSDOF 0
ENDMDL
