MODEL 1
REMARK minimizedAffinity 18.6973419
REMARK minimizedRMSD -1
REMARK  0 active torsions:
REMARK  status: ('A' for Active; 'I' for Inactive)
ROOT
ATOM      1  C   UNL d   1      -4.164  -3.466   4.080  0.00  0.00     0.124 A 
ATOM      2  C1  UNL d   1      -5.032  -4.509   3.788  0.00  0.00     0.062 A 
ATOM      3  C2  UNL d   1      -5.145  -4.981   2.483  0.00  0.00     0.162 A 
ATOM      4  C3  UNL d   1      -4.388  -4.409   1.460  0.00  0.00    -0.034 A 
ATOM      5  C4  UNL d   1      -3.519  -3.360   1.762  0.00  0.00     0.162 A 
ATOM      6  C5  UNL d   1      -3.409  -2.892   3.068  0.00  0.00     0.062 A 
ATOM      7  F   UNL d   1      -2.571  -1.884   3.348  0.00  0.00    -0.097 F 
ATOM      8  F1  UNL d   1      -2.776  -2.788   0.803  0.00  0.00    -0.096 F 
ATOM      9  I   UNL d   1      -4.554  -5.111  -0.492  0.00  0.00    -0.060 I 
ATOM     10  F2  UNL d   1      -5.991  -5.990   2.230  0.00  0.00    -0.096 F 
ATOM     11  F3  UNL d   1      -5.763  -5.065   4.765  0.00  0.00    -0.097 F 
ATOM     12  F4  UNL d   1      -4.058  -3.014   5.336  0.00  0.00    -0.092 F 
ENDROOT
TORSDOF 0
ENDMDL
