MODEL 1
REMARK minimizedAffinity 23.0252419
REMARK minimizedRMSD -1
REMARK  0 active torsions:
REMARK  status: ('A' for Active; 'I' for Inactive)
ROOT
ATOM      1  C   UNL d   1      -2.636   3.668  -4.707  0.00  0.00     0.124 A 
ATOM      2  C1  UNL d   1      -2.341   2.434  -4.144  0.00  0.00     0.062 A 
ATOM      3  C2  UNL d   1      -1.394   2.337  -3.129  0.00  0.00     0.162 A 
ATOM      4  C3  UNL d   1      -0.735   3.477  -2.669  0.00  0.00    -0.034 A 
ATOM      5  C4  UNL d   1      -1.037   4.715  -3.240  0.00  0.00     0.162 A 
ATOM      6  C5  UNL d   1      -1.984   4.807  -4.255  0.00  0.00     0.062 A 
ATOM      7  F   UNL d   1      -2.268   6.000  -4.798  0.00  0.00    -0.097 F 
ATOM      8  F1  UNL d   1      -0.422   5.831  -2.822  0.00  0.00    -0.096 F 
ATOM      9  I   UNL d   1       0.681   3.336  -1.151  0.00  0.00    -0.060 I 
ATOM     10  F2  UNL d   1      -1.128   1.132  -2.603  0.00  0.00    -0.096 F 
ATOM     11  F3  UNL d   1      -2.969   1.333  -4.580  0.00  0.00    -0.097 F 
ATOM     12  F4  UNL d   1      -3.547   3.759  -5.685  0.00  0.00    -0.092 F 
ENDROOT
TORSDOF 0
ENDMDL
