MODEL 1
REMARK minimizedAffinity 13.6463585
REMARK minimizedRMSD -1
REMARK  0 active torsions:
REMARK  status: ('A' for Active; 'I' for Inactive)
ROOT
ATOM      1  C   UNL d   1       2.141  -0.409   2.971  0.00  0.00     0.124 A 
ATOM      2  C1  UNL d   1       1.867  -1.148   1.828  0.00  0.00     0.062 A 
ATOM      3  C2  UNL d   1       0.621  -1.746   1.663  0.00  0.00     0.162 A 
ATOM      4  C3  UNL d   1      -0.362  -1.607   2.643  0.00  0.00    -0.034 A 
ATOM      5  C4  UNL d   1      -0.079  -0.863   3.790  0.00  0.00     0.162 A 
ATOM      6  C5  UNL d   1       1.168  -0.268   3.951  0.00  0.00     0.062 A 
ATOM      7  F   UNL d   1       1.431   0.445   5.056  0.00  0.00    -0.097 F 
ATOM      8  F1  UNL d   1      -1.001  -0.710   4.752  0.00  0.00    -0.096 F 
ATOM      9  I   UNL d   1      -2.227  -2.499   2.400  0.00  0.00    -0.060 I 
ATOM     10  F2  UNL d   1       0.384  -2.454   0.549  0.00  0.00    -0.096 F 
ATOM     11  F3  UNL d   1       2.805  -1.287   0.881  0.00  0.00    -0.097 F 
ATOM     12  F4  UNL d   1       3.341   0.164   3.128  0.00  0.00    -0.092 F 
ENDROOT
TORSDOF 0
ENDMDL
