MODEL 1
REMARK minimizedAffinity 21.6500244
REMARK minimizedRMSD -1
REMARK  0 active torsions:
REMARK  status: ('A' for Active; 'I' for Inactive)
ROOT
ATOM      1  C   UNL d   1      -3.537  -3.323   1.250  0.00  0.00     0.124 A 
ATOM      2  C1  UNL d   1      -3.352  -3.112   2.610  0.00  0.00     0.062 A 
ATOM      3  C2  UNL d   1      -4.054  -3.875   3.538  0.00  0.00     0.162 A 
ATOM      4  C3  UNL d   1      -4.948  -4.857   3.111  0.00  0.00    -0.034 A 
ATOM      5  C4  UNL d   1      -5.129  -5.063   1.742  0.00  0.00     0.162 A 
ATOM      6  C5  UNL d   1      -4.425  -4.298   0.818  0.00  0.00     0.062 A 
ATOM      7  F   UNL d   1      -4.605  -4.503  -0.495  0.00  0.00    -0.097 F 
ATOM      8  F1  UNL d   1      -5.981  -5.998   1.296  0.00  0.00    -0.096 F 
ATOM      9  I   UNL d   1      -6.000  -5.999   4.496  0.00  0.00    -0.060 I 
ATOM     10  F2  UNL d   1      -3.856  -3.649   4.846  0.00  0.00    -0.096 F 
ATOM     11  F3  UNL d   1      -2.495  -2.171   3.030  0.00  0.00    -0.097 F 
ATOM     12  F4  UNL d   1      -2.860  -2.587   0.359  0.00  0.00    -0.092 F 
ENDROOT
TORSDOF 0
ENDMDL
