MODEL 1
REMARK minimizedAffinity 11.6469975
REMARK minimizedRMSD -1
REMARK  0 active torsions:
REMARK  status: ('A' for Active; 'I' for Inactive)
ROOT
ATOM      1  C   UNL d   1      -3.717  -3.219   3.755  0.00  0.00     0.124 A 
ATOM      2  C1  UNL d   1      -4.622  -4.233   4.036  0.00  0.00     0.062 A 
ATOM      3  C2  UNL d   1      -5.124  -5.027   3.009  0.00  0.00     0.162 A 
ATOM      4  C3  UNL d   1      -4.721  -4.811   1.691  0.00  0.00    -0.034 A 
ATOM      5  C4  UNL d   1      -3.811  -3.788   1.417  0.00  0.00     0.162 A 
ATOM      6  C5  UNL d   1      -3.312  -2.998   2.446  0.00  0.00     0.062 A 
ATOM      7  F   UNL d   1      -2.437  -2.019   2.174  0.00  0.00    -0.097 F 
ATOM      8  F1  UNL d   1      -3.402  -3.554   0.161  0.00  0.00    -0.096 F 
ATOM      9  I   UNL d   1      -5.469  -5.996   0.153  0.00  0.00    -0.060 I 
ATOM     10  F2  UNL d   1      -5.998  -5.999   3.309  0.00  0.00    -0.096 F 
ATOM     11  F3  UNL d   1      -5.015  -4.448   5.299  0.00  0.00    -0.097 F 
ATOM     12  F4  UNL d   1      -3.236  -2.456   4.745  0.00  0.00    -0.092 F 
ENDROOT
TORSDOF 0
ENDMDL
