MODEL 1
REMARK minimizedAffinity 30.1411743
REMARK minimizedRMSD -1
REMARK  0 active torsions:
REMARK  status: ('A' for Active; 'I' for Inactive)
ROOT
ATOM      1  C   UNL d   1      -4.721  -4.152   1.053  0.00  0.00     0.124 A 
ATOM      2  C1  UNL d   1      -4.300  -5.076   0.107  0.00  0.00     0.062 A 
ATOM      3  C2  UNL d   1      -2.990  -5.052  -0.362  0.00  0.00     0.162 A 
ATOM      4  C3  UNL d   1      -2.089  -4.099   0.116  0.00  0.00    -0.034 A 
ATOM      5  C4  UNL d   1      -2.520  -3.172   1.067  0.00  0.00     0.162 A 
ATOM      6  C5  UNL d   1      -3.831  -3.201   1.532  0.00  0.00     0.062 A 
ATOM      7  F   UNL d   1      -4.235  -2.307   2.446  0.00  0.00    -0.097 F 
ATOM      8  F1  UNL d   1      -1.680  -2.243   1.548  0.00  0.00    -0.096 F 
ATOM      9  I   UNL d   1      -0.129  -4.059  -0.582  0.00  0.00    -0.060 I 
ATOM     10  F2  UNL d   1      -2.611  -5.957  -1.276  0.00  0.00    -0.096 F 
ATOM     11  F3  UNL d   1      -5.158  -5.995  -0.358  0.00  0.00    -0.097 F 
ATOM     12  F4  UNL d   1      -5.982  -4.178   1.501  0.00  0.00    -0.092 F 
ENDROOT
TORSDOF 0
ENDMDL
