MODEL 1
REMARK minimizedAffinity 13.2450104
REMARK minimizedRMSD -1
REMARK  0 active torsions:
REMARK  status: ('A' for Active; 'I' for Inactive)
ROOT
ATOM      1  C   UNL d   1      -4.056  -3.426   3.152  0.00  0.00     0.124 A 
ATOM      2  C1  UNL d   1      -5.022  -4.392   2.904  0.00  0.00     0.062 A 
ATOM      3  C2  UNL d   1      -5.044  -5.064   1.686  0.00  0.00     0.162 A 
ATOM      4  C3  UNL d   1      -4.096  -4.773   0.705  0.00  0.00    -0.034 A 
ATOM      5  C4  UNL d   1      -3.128  -3.801   0.960  0.00  0.00     0.162 A 
ATOM      6  C5  UNL d   1      -3.110  -3.132   2.180  0.00  0.00     0.062 A 
ATOM      7  F   UNL d   1      -2.176  -2.199   2.417  0.00  0.00    -0.097 F 
ATOM      8  F1  UNL d   1      -2.202  -3.497   0.039  0.00  0.00    -0.096 F 
ATOM      9  I   UNL d   1      -4.126  -5.776  -1.119  0.00  0.00    -0.060 I 
ATOM     10  F2  UNL d   1      -5.989  -5.992   1.474  0.00  0.00    -0.096 F 
ATOM     11  F3  UNL d   1      -5.938  -4.678   3.842  0.00  0.00    -0.097 F 
ATOM     12  F4  UNL d   1      -4.038  -2.781   4.325  0.00  0.00    -0.092 F 
ENDROOT
TORSDOF 0
ENDMDL
