MODEL 1
REMARK minimizedAffinity 26.8287277
REMARK minimizedRMSD -1
REMARK  0 active torsions:
REMARK  status: ('A' for Active; 'I' for Inactive)
ROOT
ATOM      1  C   UNL d   1      -0.825  -1.164   4.112  0.00  0.00     0.124 A 
ATOM      2  C1  UNL d   1      -0.538  -1.566   2.815  0.00  0.00     0.062 A 
ATOM      3  C2  UNL d   1      -1.386  -2.447   2.151  0.00  0.00     0.162 A 
ATOM      4  C3  UNL d   1      -2.532  -2.931   2.782  0.00  0.00    -0.034 A 
ATOM      5  C4  UNL d   1      -2.814  -2.523   4.087  0.00  0.00     0.162 A 
ATOM      6  C5  UNL d   1      -1.963  -1.643   4.747  0.00  0.00     0.062 A 
ATOM      7  F   UNL d   1      -2.242  -1.256   6.000  0.00  0.00    -0.097 F 
ATOM      8  F1  UNL d   1      -3.907  -2.970   4.724  0.00  0.00    -0.096 F 
ATOM      9  I   UNL d   1      -3.803  -4.249   1.792  0.00  0.00    -0.060 I 
ATOM     10  F2  UNL d   1      -1.083  -2.818   0.898  0.00  0.00    -0.096 F 
ATOM     11  F3  UNL d   1       0.561  -1.105   2.200  0.00  0.00    -0.097 F 
ATOM     12  F4  UNL d   1      -0.007  -0.317   4.749  0.00  0.00    -0.092 F 
ENDROOT
TORSDOF 0
ENDMDL
