MODEL 1
REMARK minimizedAffinity 22.6581745
REMARK minimizedRMSD -1
REMARK  0 active torsions:
REMARK  status: ('A' for Active; 'I' for Inactive)
ROOT
ATOM      1  C   UNL d   1      -2.227   4.685  -2.626  0.00  0.00     0.124 A 
ATOM      2  C1  UNL d   1      -3.363   4.879  -1.852  0.00  0.00     0.062 A 
ATOM      3  C2  UNL d   1      -4.365   3.914  -1.825  0.00  0.00     0.162 A 
ATOM      4  C3  UNL d   1      -4.236   2.745  -2.575  0.00  0.00    -0.034 A 
ATOM      5  C4  UNL d   1      -3.092   2.557  -3.352  0.00  0.00     0.162 A 
ATOM      6  C5  UNL d   1      -2.093   3.525  -3.375  0.00  0.00     0.062 A 
ATOM      7  F   UNL d   1      -0.996   3.335  -4.123  0.00  0.00    -0.097 F 
ATOM      8  F1  UNL d   1      -2.936   1.445  -4.085  0.00  0.00    -0.096 F 
ATOM      9  I   UNL d   1      -5.733   1.300  -2.538  0.00  0.00    -0.060 I 
ATOM     10  F2  UNL d   1      -5.452   4.128  -1.068  0.00  0.00    -0.096 F 
ATOM     11  F3  UNL d   1      -3.495   6.000  -1.128  0.00  0.00    -0.097 F 
ATOM     12  F4  UNL d   1      -1.264   5.616  -2.650  0.00  0.00    -0.092 F 
ENDROOT
TORSDOF 0
ENDMDL
