MODEL 1
REMARK minimizedAffinity 26.5382729
REMARK minimizedRMSD -1
REMARK  0 active torsions:
REMARK  status: ('A' for Active; 'I' for Inactive)
ROOT
ATOM      1  C   UNL d   1      -3.276  -3.454   1.232  0.00  0.00     0.124 A 
ATOM      2  C1  UNL d   1      -4.269  -4.386   0.960  0.00  0.00     0.062 A 
ATOM      3  C2  UNL d   1      -5.048  -4.900   1.993  0.00  0.00     0.162 A 
ATOM      4  C3  UNL d   1      -4.838  -4.484   3.307  0.00  0.00    -0.034 A 
ATOM      5  C4  UNL d   1      -3.837  -3.547   3.573  0.00  0.00     0.162 A 
ATOM      6  C5  UNL d   1      -3.061  -3.036   2.537  0.00  0.00     0.062 A 
ATOM      7  F   UNL d   1      -2.103  -2.136   2.801  0.00  0.00    -0.097 F 
ATOM      8  F1  UNL d   1      -3.608  -3.125   4.825  0.00  0.00    -0.096 F 
ATOM      9  I   UNL d   1      -6.000  -5.250   4.854  0.00  0.00    -0.060 I 
ATOM     10  F2  UNL d   1      -6.000  -5.799   1.701  0.00  0.00    -0.096 F 
ATOM     11  F3  UNL d   1      -4.478  -4.792  -0.301  0.00  0.00    -0.097 F 
ATOM     12  F4  UNL d   1      -2.528  -2.962   0.236  0.00  0.00    -0.092 F 
ENDROOT
TORSDOF 0
ENDMDL
