MODEL 1
REMARK minimizedAffinity 37.8822327
REMARK minimizedRMSD -1
REMARK  0 active torsions:
REMARK  status: ('A' for Active; 'I' for Inactive)
ROOT
ATOM      1  C   UNL d   1       1.154  -2.202   1.377  0.00  0.00     0.124 A 
ATOM      2  C1  UNL d   1       2.291  -1.498   1.007  0.00  0.00     0.062 A 
ATOM      3  C2  UNL d   1       2.241  -0.115   0.857  0.00  0.00     0.162 A 
ATOM      4  C3  UNL d   1       1.048   0.573   1.077  0.00  0.00    -0.034 A 
ATOM      5  C4  UNL d   1      -0.092  -0.142   1.448  0.00  0.00     0.162 A 
ATOM      6  C5  UNL d   1      -0.036  -1.524   1.597  0.00  0.00     0.062 A 
ATOM      7  F   UNL d   1      -1.136  -2.203   1.955  0.00  0.00    -0.097 F 
ATOM      8  F1  UNL d   1      -1.256   0.488   1.668  0.00  0.00    -0.096 F 
ATOM      9  I   UNL d   1       0.967   2.641   0.853  0.00  0.00    -0.060 I 
ATOM     10  F2  UNL d   1       3.355   0.539   0.498  0.00  0.00    -0.096 F 
ATOM     11  F3  UNL d   1       3.443  -2.151   0.793  0.00  0.00    -0.097 F 
ATOM     12  F4  UNL d   1       1.206  -3.533   1.520  0.00  0.00    -0.092 F 
ENDROOT
TORSDOF 0
ENDMDL
