MODEL 1
REMARK minimizedAffinity 17.4322567
REMARK minimizedRMSD -1
REMARK  0 active torsions:
REMARK  status: ('A' for Active; 'I' for Inactive)
ROOT
ATOM      1  C   UNL d   1       1.839  -4.667   1.048  0.00  0.00     0.124 A 
ATOM      2  C1  UNL d   1       1.550  -3.867   2.145  0.00  0.00     0.062 A 
ATOM      3  C2  UNL d   1       1.903  -2.521   2.142  0.00  0.00     0.162 A 
ATOM      4  C3  UNL d   1       2.549  -1.965   1.037  0.00  0.00    -0.034 A 
ATOM      5  C4  UNL d   1       2.838  -2.776  -0.061  0.00  0.00     0.162 A 
ATOM      6  C5  UNL d   1       2.483  -4.121  -0.054  0.00  0.00     0.062 A 
ATOM      7  F   UNL d   1       2.764  -4.893  -1.114  0.00  0.00    -0.097 F 
ATOM      8  F1  UNL d   1       3.459  -2.275  -1.140  0.00  0.00    -0.096 F 
ATOM      9  I   UNL d   1       3.079   0.047   1.029  0.00  0.00    -0.060 I 
ATOM     10  F2  UNL d   1       1.611  -1.771   3.215  0.00  0.00    -0.096 F 
ATOM     11  F3  UNL d   1       0.929  -4.392   3.211  0.00  0.00    -0.097 F 
ATOM     12  F4  UNL d   1       1.499  -5.962   1.054  0.00  0.00    -0.092 F 
ENDROOT
TORSDOF 0
ENDMDL
