MODEL 1
REMARK minimizedAffinity 12.7126408
REMARK minimizedRMSD -1
REMARK  0 active torsions:
REMARK  status: ('A' for Active; 'I' for Inactive)
ROOT
ATOM      1  C   UNL d   1      -5.030  -5.176   0.777  0.00  0.00     0.124 A 
ATOM      2  C1  UNL d   1      -4.024  -4.786  -0.097  0.00  0.00     0.062 A 
ATOM      3  C2  UNL d   1      -3.016  -3.928   0.334  0.00  0.00     0.162 A 
ATOM      4  C3  UNL d   1      -3.007  -3.456   1.646  0.00  0.00    -0.034 A 
ATOM      5  C4  UNL d   1      -4.022  -3.852   2.519  0.00  0.00     0.162 A 
ATOM      6  C5  UNL d   1      -5.027  -4.709   2.084  0.00  0.00     0.062 A 
ATOM      7  F   UNL d   1      -5.998  -5.085   2.930  0.00  0.00    -0.097 F 
ATOM      8  F1  UNL d   1      -4.043  -3.417   3.788  0.00  0.00    -0.096 F 
ATOM      9  I   UNL d   1      -1.501  -2.174   2.295  0.00  0.00    -0.060 I 
ATOM     10  F2  UNL d   1      -2.057  -3.568  -0.532  0.00  0.00    -0.096 F 
ATOM     11  F3  UNL d   1      -4.025  -5.234  -1.360  0.00  0.00    -0.097 F 
ATOM     12  F4  UNL d   1      -5.999  -6.000   0.360  0.00  0.00    -0.092 F 
ENDROOT
TORSDOF 0
ENDMDL
