MODEL 1
REMARK minimizedAffinity 6.77419519
REMARK minimizedRMSD -1
REMARK  1 active torsions:
REMARK  status: ('A' for Active; 'I' for Inactive)
REMARK    1  A    between atoms: N_2  and  C1_3 
ROOT
ATOM      1  C1  UNL d   1       3.652  -1.065  -0.069  0.00  0.00     0.143 A 
ATOM      2  C2  UNL d   1       4.793  -1.766   0.335  0.00  0.00    -0.057 A 
ATOM      3  C3  UNL d   1       5.905  -1.101   0.865  0.00  0.00     0.033 A 
ATOM      4  C4  UNL d   1       5.906   0.285   0.976  0.00  0.00    -0.042 A 
ATOM      5  C5  UNL d   1       4.793   1.006   0.558  0.00  0.00     0.033 A 
ATOM      6  C6  UNL d   1       3.683   0.335   0.035  0.00  0.00    -0.057 A 
ENDROOT
BRANCH   1   7
ATOM      7  N   UNL d   1       2.554  -1.659  -0.695  0.00  0.00    -0.732 N 
ATOM      8  C   UNL d   1       2.013  -1.105  -1.917  0.00  0.00     0.284 C 
ATOM      9  H3  UNL d   1       2.605  -2.675  -0.686  0.00  0.00     0.395 HD
ENDBRANCH   1   7
TORSDOF 1
ENDMDL
