MODEL 1
REMARK minimizedAffinity 1.58630085
REMARK minimizedRMSD -1
REMARK  1 active torsions:
REMARK  status: ('A' for Active; 'I' for Inactive)
REMARK    1  A    between atoms: N_2  and  C1_3 
ROOT
ATOM      1  C1  UNL d   1       1.377  -1.126   0.886  0.00  0.00     0.143 A 
ATOM      2  C2  UNL d   1       0.038  -1.519   0.985  0.00  0.00    -0.057 A 
ATOM      3  C3  UNL d   1      -0.619  -1.556   2.221  0.00  0.00     0.033 A 
ATOM      4  C4  UNL d   1       0.064  -1.227   3.388  0.00  0.00    -0.042 A 
ATOM      5  C5  UNL d   1       1.402  -0.858   3.317  0.00  0.00     0.033 A 
ATOM      6  C6  UNL d   1       2.050  -0.816   2.078  0.00  0.00    -0.057 A 
ENDROOT
BRANCH   1   7
ATOM      7  N   UNL d   1       2.113  -1.163  -0.301  0.00  0.00    -0.732 N 
ATOM      8  C   UNL d   1       1.454  -1.023  -1.581  0.00  0.00     0.284 C 
ATOM      9  H3  UNL d   1       2.992  -0.656  -0.228  0.00  0.00     0.395 HD
ENDBRANCH   1   7
TORSDOF 1
ENDMDL
