MODEL 1
REMARK minimizedAffinity 9.32379436
REMARK minimizedRMSD -1
REMARK  1 active torsions:
REMARK  status: ('A' for Active; 'I' for Inactive)
REMARK    1  A    between atoms: N_2  and  C1_3 
ROOT
ATOM      1  C1  UNL d   1      -3.960   2.684  -3.751  0.00  0.00     0.143 A 
ATOM      2  C2  UNL d   1      -4.091   1.408  -4.310  0.00  0.00    -0.057 A 
ATOM      3  C3  UNL d   1      -5.091   1.125  -5.248  0.00  0.00     0.033 A 
ATOM      4  C4  UNL d   1      -6.000   2.109  -5.623  0.00  0.00    -0.042 A 
ATOM      5  C5  UNL d   1      -5.904   3.378  -5.062  0.00  0.00     0.033 A 
ATOM      6  C6  UNL d   1      -4.899   3.656  -4.131  0.00  0.00    -0.057 A 
ENDROOT
BRANCH   1   7
ATOM      7  N   UNL d   1      -3.049   3.001  -2.741  0.00  0.00    -0.732 N 
ATOM      8  C   UNL d   1      -1.626   2.993  -3.002  0.00  0.00     0.284 C 
ATOM      9  H3  UNL d   1      -3.362   3.781  -2.167  0.00  0.00     0.395 HD
ENDBRANCH   1   7
TORSDOF 1
ENDMDL
