MODEL 1
REMARK minimizedAffinity 3.88443279
REMARK minimizedRMSD -1
REMARK  1 active torsions:
REMARK  status: ('A' for Active; 'I' for Inactive)
REMARK    1  A    between atoms: N_2  and  C1_3 
ROOT
ATOM      1  C1  UNL d   1      -4.692   1.392  -5.298  0.00  0.00     0.143 A 
ATOM      2  C2  UNL d   1      -5.539   0.732  -4.402  0.00  0.00    -0.057 A 
ATOM      3  C3  UNL d   1      -5.428  -0.645  -4.178  0.00  0.00     0.033 A 
ATOM      4  C4  UNL d   1      -4.483  -1.395  -4.871  0.00  0.00    -0.042 A 
ATOM      5  C5  UNL d   1      -3.647  -0.764  -5.785  0.00  0.00     0.033 A 
ATOM      6  C6  UNL d   1      -3.759   0.613  -6.000  0.00  0.00    -0.057 A 
ENDROOT
BRANCH   1   7
ATOM      7  N   UNL d   1      -4.818   2.742  -5.638  0.00  0.00    -0.732 N 
ATOM      8  C   UNL d   1      -6.000   3.489  -5.265  0.00  0.00     0.284 C 
ATOM      9  H3  UNL d   1      -3.947   3.255  -5.519  0.00  0.00     0.395 HD
ENDBRANCH   1   7
TORSDOF 1
ENDMDL
