MODEL 1
REMARK minimizedAffinity 6.22842073
REMARK minimizedRMSD -1
REMARK  1 active torsions:
REMARK  status: ('A' for Active; 'I' for Inactive)
REMARK    1  A    between atoms: N_2  and  C1_3 
ROOT
ATOM      1  C1  UNL d   1      -1.522  -0.045   2.313  0.00  0.00     0.143 A 
ATOM      2  C2  UNL d   1      -0.793  -0.483   3.424  0.00  0.00    -0.057 A 
ATOM      3  C3  UNL d   1       0.383  -1.227   3.273  0.00  0.00     0.033 A 
ATOM      4  C4  UNL d   1       0.836  -1.574   2.004  0.00  0.00    -0.042 A 
ATOM      5  C5  UNL d   1       0.114  -1.171   0.886  0.00  0.00     0.033 A 
ATOM      6  C6  UNL d   1      -1.056  -0.421   1.044  0.00  0.00    -0.057 A 
ENDROOT
BRANCH   1   7
ATOM      7  N   UNL d   1      -2.751   0.614   2.400  0.00  0.00    -0.732 N 
ATOM      8  C   UNL d   1      -3.700   0.550   1.309  0.00  0.00     0.284 C 
ATOM      9  H3  UNL d   1      -3.172   0.531   3.323  0.00  0.00     0.395 HD
ENDBRANCH   1   7
TORSDOF 1
ENDMDL
