MODEL 1
REMARK minimizedAffinity 1.57105017
REMARK minimizedRMSD -1
REMARK  1 active torsions:
REMARK  status: ('A' for Active; 'I' for Inactive)
REMARK    1  A    between atoms: N_2  and  C1_3 
ROOT
ATOM      1  C1  UNL d   1       1.482   2.217  -2.108  0.00  0.00     0.143 A 
ATOM      2  C2  UNL d   1       0.849   0.976  -1.985  0.00  0.00    -0.057 A 
ATOM      3  C3  UNL d   1      -0.487   0.801  -2.365  0.00  0.00     0.033 A 
ATOM      4  C4  UNL d   1      -1.225   1.876  -2.850  0.00  0.00    -0.042 A 
ATOM      5  C5  UNL d   1      -0.624   3.125  -2.957  0.00  0.00     0.033 A 
ATOM      6  C6  UNL d   1       0.713   3.292  -2.581  0.00  0.00    -0.057 A 
ENDROOT
BRANCH   1   7
ATOM      7  N   UNL d   1       2.778   2.478  -1.655  0.00  0.00    -0.732 N 
ATOM      8  C   UNL d   1       3.090   2.424  -0.243  0.00  0.00     0.284 C 
ATOM      9  H3  UNL d   1       3.489   2.065  -2.254  0.00  0.00     0.395 HD
ENDBRANCH   1   7
TORSDOF 1
ENDMDL
