MODEL 1
REMARK minimizedAffinity 0.00301217916
REMARK minimizedRMSD -1
REMARK  1 active torsions:
REMARK  status: ('A' for Active; 'I' for Inactive)
REMARK    1  A    between atoms: N_2  and  C1_3 
ROOT
ATOM      1  C1  UNL d   1       1.682  -0.512  -0.688  0.00  0.00     0.143 A 
ATOM      2  C2  UNL d   1       0.845   0.289  -1.473  0.00  0.00    -0.057 A 
ATOM      3  C3  UNL d   1       1.178   1.616  -1.768  0.00  0.00     0.033 A 
ATOM      4  C4  UNL d   1       2.342   2.178  -1.255  0.00  0.00    -0.042 A 
ATOM      5  C5  UNL d   1       3.176   1.409  -0.451  0.00  0.00     0.033 A 
ATOM      6  C6  UNL d   1       2.842   0.082  -0.166  0.00  0.00    -0.057 A 
ENDROOT
BRANCH   1   7
ATOM      7  N   UNL d   1       1.359  -1.808  -0.278  0.00  0.00    -0.732 N 
ATOM      8  C   UNL d   1       1.984  -2.389   0.890  0.00  0.00     0.284 C 
ATOM      9  H3  UNL d   1       0.363  -2.003  -0.358  0.00  0.00     0.395 HD
ENDBRANCH   1   7
TORSDOF 1
ENDMDL
