MODEL 1
REMARK minimizedAffinity -3.50904441
REMARK minimizedRMSD -1
REMARK  1 active torsions:
REMARK  status: ('A' for Active; 'I' for Inactive)
REMARK    1  A    between atoms: N_2  and  C1_3 
ROOT
ATOM      1  C1  UNL d   1       0.242   0.344  -0.086  0.00  0.00     0.143 A 
ATOM      2  C2  UNL d   1      -1.007   0.853  -0.460  0.00  0.00    -0.057 A 
ATOM      3  C3  UNL d   1      -2.160   0.560   0.278  0.00  0.00     0.033 A 
ATOM      4  C4  UNL d   1      -2.090  -0.273   1.390  0.00  0.00    -0.042 A 
ATOM      5  C5  UNL d   1      -0.863  -0.810   1.765  0.00  0.00     0.033 A 
ATOM      6  C6  UNL d   1       0.286  -0.509   1.028  0.00  0.00    -0.057 A 
ENDROOT
BRANCH   1   7
ATOM      7  N   UNL d   1       1.408   0.518  -0.835  0.00  0.00    -0.732 N 
ATOM      8  C   UNL d   1       2.185  -0.625  -1.265  0.00  0.00     0.284 C 
ATOM      9  H3  UNL d   1       1.312   1.245  -1.540  0.00  0.00     0.395 HD
ENDBRANCH   1   7
TORSDOF 1
ENDMDL
