MODEL 1
REMARK minimizedAffinity -2.98535371
REMARK minimizedRMSD -1
REMARK  1 active torsions:
REMARK  status: ('A' for Active; 'I' for Inactive)
REMARK    1  A    between atoms: C3_4  and  O_7 
ROOT
ATOM      1  C   UNL d   1      -1.529  -4.861  -5.954  0.00  0.00    -0.033 A 
ATOM      2  C1  UNL d   1      -2.374  -5.973  -5.946  0.00  0.00     0.039 A 
ATOM      3  C2  UNL d   1      -3.759  -5.799  -5.961  0.00  0.00    -0.080 A 
ATOM      4  C3  UNL d   1      -4.286  -4.511  -5.984  0.00  0.00     0.150 A 
ATOM      5  C4  UNL d   1      -3.450  -3.399  -5.996  0.00  0.00    -0.007 A 
ATOM      6  C5  UNL d   1      -2.067  -3.575  -5.980  0.00  0.00     0.039 A 
ENDROOT
BRANCH   4   7
ATOM      7  O   UNL d   1      -5.632  -4.291  -5.994  0.00  0.00    -0.526 OA
ATOM      8  H5  UNL d   1      -6.084  -5.150  -5.955  0.00  0.00     0.418 HD
ENDBRANCH   4   7
TORSDOF 1
ENDMDL
