MODEL 1
REMARK minimizedAffinity 3.83538437
REMARK minimizedRMSD -1
REMARK  1 active torsions:
REMARK  status: ('A' for Active; 'I' for Inactive)
REMARK    1  A    between atoms: C3_4  and  O_7 
ROOT
ATOM      1  C   UNL d   1      -0.879  -2.095  -5.643  0.00  0.00    -0.033 A 
ATOM      2  C1  UNL d   1      -2.221  -1.933  -5.992  0.00  0.00     0.039 A 
ATOM      3  C2  UNL d   1      -3.085  -3.030  -5.983  0.00  0.00    -0.080 A 
ATOM      4  C3  UNL d   1      -2.594  -4.283  -5.623  0.00  0.00     0.150 A 
ATOM      5  C4  UNL d   1      -1.260  -4.451  -5.270  0.00  0.00    -0.007 A 
ATOM      6  C5  UNL d   1      -0.399  -3.354  -5.280  0.00  0.00     0.039 A 
ENDROOT
BRANCH   4   7
ATOM      7  O   UNL d   1      -3.398  -5.384  -5.604  0.00  0.00    -0.526 OA
ATOM      8  H5  UNL d   1      -4.286  -5.122  -5.898  0.00  0.00     0.418 HD
ENDBRANCH   4   7
TORSDOF 1
ENDMDL
