MODEL 1
REMARK minimizedAffinity -0.141849041
REMARK minimizedRMSD -1
REMARK  1 active torsions:
REMARK  status: ('A' for Active; 'I' for Inactive)
REMARK    1  A    between atoms: C3_4  and  O_7 
ROOT
ATOM      1  C   UNL d   1      -6.000  -3.051   4.520  0.00  0.00    -0.033 A 
ATOM      2  C1  UNL d   1      -5.087  -2.321   3.756  0.00  0.00     0.039 A 
ATOM      3  C2  UNL d   1      -3.738  -2.294   4.114  0.00  0.00    -0.080 A 
ATOM      4  C3  UNL d   1      -3.315  -3.001   5.236  0.00  0.00     0.150 A 
ATOM      5  C4  UNL d   1      -4.217  -3.733   6.000  0.00  0.00    -0.007 A 
ATOM      6  C5  UNL d   1      -5.565  -3.758   5.642  0.00  0.00     0.039 A 
ENDROOT
BRANCH   4   7
ATOM      7  O   UNL d   1      -2.009  -3.001   5.627  0.00  0.00    -0.526 OA
ATOM      8  H5  UNL d   1      -1.506  -2.430   5.022  0.00  0.00     0.418 HD
ENDBRANCH   4   7
TORSDOF 1
ENDMDL
