MODEL 1
REMARK minimizedAffinity 4.93362427
REMARK minimizedRMSD -1
REMARK  1 active torsions:
REMARK  status: ('A' for Active; 'I' for Inactive)
REMARK    1  A    between atoms: C3_4  and  O_7 
ROOT
ATOM      1  C   UNL d   1      -2.142  -3.888  -5.839  0.00  0.00    -0.033 A 
ATOM      2  C1  UNL d   1      -3.338  -3.176  -5.940  0.00  0.00     0.039 A 
ATOM      3  C2  UNL d   1      -4.556  -3.858  -5.993  0.00  0.00    -0.080 A 
ATOM      4  C3  UNL d   1      -4.563  -5.249  -5.944  0.00  0.00     0.150 A 
ATOM      5  C4  UNL d   1      -3.375  -5.965  -5.839  0.00  0.00    -0.007 A 
ATOM      6  C5  UNL d   1      -2.160  -5.283  -5.787  0.00  0.00     0.039 A 
ENDROOT
BRANCH   4   7
ATOM      7  O   UNL d   1      -5.726  -5.958  -5.997  0.00  0.00    -0.526 OA
ATOM      8  H5  UNL d   1      -6.463  -5.333  -6.098  0.00  0.00     0.418 HD
ENDBRANCH   4   7
TORSDOF 1
ENDMDL
