MODEL 1
REMARK minimizedAffinity 13.2220945
REMARK minimizedRMSD -1
REMARK  1 active torsions:
REMARK  status: ('A' for Active; 'I' for Inactive)
REMARK    1  A    between atoms: C3_4  and  O_7 
ROOT
ATOM      1  C   UNL d   1      -5.128  -4.794  -5.998  0.00  0.00    -0.033 A 
ATOM      2  C1  UNL d   1      -4.428  -3.585  -5.986  0.00  0.00     0.039 A 
ATOM      3  C2  UNL d   1      -3.051  -3.576  -5.755  0.00  0.00    -0.080 A 
ATOM      4  C3  UNL d   1      -2.387  -4.780  -5.539  0.00  0.00     0.150 A 
ATOM      5  C4  UNL d   1      -3.076  -5.988  -5.553  0.00  0.00    -0.007 A 
ATOM      6  C5  UNL d   1      -4.452  -5.995  -5.783  0.00  0.00     0.039 A 
ENDROOT
BRANCH   4   7
ATOM      7  O   UNL d   1      -1.044  -4.821  -5.305  0.00  0.00    -0.526 OA
ATOM      8  H5  UNL d   1      -0.706  -3.910  -5.295  0.00  0.00     0.418 HD
ENDBRANCH   4   7
TORSDOF 1
ENDMDL
