MODEL 1
REMARK minimizedAffinity -0.0435823165
REMARK minimizedRMSD -1
REMARK  1 active torsions:
REMARK  status: ('A' for Active; 'I' for Inactive)
REMARK    1  A    between atoms: C3_4  and  O_7 
ROOT
ATOM      1  C   UNL d   1      -5.999  -3.350   4.890  0.00  0.00    -0.033 A 
ATOM      2  C1  UNL d   1      -5.377  -2.803   3.766  0.00  0.00     0.039 A 
ATOM      3  C2  UNL d   1      -3.993  -2.621   3.751  0.00  0.00    -0.080 A 
ATOM      4  C3  UNL d   1      -3.243  -2.991   4.865  0.00  0.00     0.150 A 
ATOM      5  C4  UNL d   1      -3.856  -3.540   5.986  0.00  0.00    -0.007 A 
ATOM      6  C5  UNL d   1      -5.239  -3.719   6.000  0.00  0.00     0.039 A 
ENDROOT
BRANCH   4   7
ATOM      7  O   UNL d   1      -1.890  -2.828   4.898  0.00  0.00    -0.526 OA
ATOM      8  H5  UNL d   1      -1.609  -2.412   4.067  0.00  0.00     0.418 HD
ENDBRANCH   4   7
TORSDOF 1
ENDMDL
