MODEL 1
REMARK minimizedAffinity 3.21682024
REMARK minimizedRMSD -1
REMARK  1 active torsions:
REMARK  status: ('A' for Active; 'I' for Inactive)
REMARK    1  A    between atoms: C3_4  and  O_7 
ROOT
ATOM      1  C   UNL d   1      -2.099   5.242  -2.248  0.00  0.00    -0.033 A 
ATOM      2  C1  UNL d   1      -1.499   6.000  -1.241  0.00  0.00     0.039 A 
ATOM      3  C2  UNL d   1      -0.252   5.629  -0.734  0.00  0.00    -0.080 A 
ATOM      4  C3  UNL d   1       0.385   4.501  -1.244  0.00  0.00     0.150 A 
ATOM      5  C4  UNL d   1      -0.205   3.743  -2.251  0.00  0.00    -0.007 A 
ATOM      6  C5  UNL d   1      -1.451   4.115  -2.754  0.00  0.00     0.039 A 
ENDROOT
BRANCH   4   7
ATOM      7  O   UNL d   1       1.601   4.097  -0.778  0.00  0.00    -0.526 OA
ATOM      8  H5  UNL d   1       1.872   4.699  -0.065  0.00  0.00     0.418 HD
ENDBRANCH   4   7
TORSDOF 1
ENDMDL
