MODEL 1
REMARK minimizedAffinity 3.45295835
REMARK minimizedRMSD -1
REMARK  1 active torsions:
REMARK  status: ('A' for Active; 'I' for Inactive)
REMARK    1  A    between atoms: C3_4  and  O_7 
ROOT
ATOM      1  C   UNL d   1      -2.079  -5.096  -5.705  0.00  0.00    -0.033 A 
ATOM      2  C1  UNL d   1      -3.162  -5.943  -5.946  0.00  0.00     0.039 A 
ATOM      3  C2  UNL d   1      -4.222  -5.999  -5.039  0.00  0.00    -0.080 A 
ATOM      4  C3  UNL d   1      -4.187  -5.203  -3.898  0.00  0.00     0.150 A 
ATOM      5  C4  UNL d   1      -3.113  -4.354  -3.653  0.00  0.00    -0.007 A 
ATOM      6  C5  UNL d   1      -2.055  -4.300  -4.560  0.00  0.00     0.039 A 
ENDROOT
BRANCH   4   7
ATOM      7  O   UNL d   1      -5.196  -5.227  -2.981  0.00  0.00    -0.526 OA
ATOM      8  H5  UNL d   1      -5.856  -5.880  -3.267  0.00  0.00     0.418 HD
ENDBRANCH   4   7
TORSDOF 1
ENDMDL
