MODEL 1
REMARK minimizedAffinity 4.42387819
REMARK minimizedRMSD -1
REMARK  1 active torsions:
REMARK  status: ('A' for Active; 'I' for Inactive)
REMARK    1  A    between atoms: C1_2  and  C2_3 
ROOT
ATOM      1  C2  UNL d   1       0.945  -1.141   2.213  0.00  0.00    -0.076 A 
ATOM      2  C3  UNL d   1      -0.049  -1.922   1.597  0.00  0.00     0.004 A 
ATOM      3  C4  UNL d   1      -1.399  -1.706   1.865  0.00  0.00    -0.003 A 
ATOM      4  C5  UNL d   1      -1.779  -0.706   2.753  0.00  0.00     0.000 A 
ATOM      5  C6  UNL d   1      -0.808   0.090   3.359  0.00  0.00     0.000 A 
ATOM      6  C7  UNL d   1       0.557  -0.103   3.088  0.00  0.00    -0.073 A 
ATOM      7  C8  UNL d   1       1.562   0.781   3.774  0.00  0.00     0.078 C 
ENDROOT
BRANCH   1   8
ATOM      8  C1  UNL d   1       2.395  -1.438   1.905  0.00  0.00     0.053 C 
ATOM      9  C   UNL d   1       2.559  -2.343   0.693  0.00  0.00     0.018 C 
ENDBRANCH   1   8
TORSDOF 1
ENDMDL
