MODEL 1
REMARK minimizedAffinity 0.295843154
REMARK minimizedRMSD -1
REMARK  1 active torsions:
REMARK  status: ('A' for Active; 'I' for Inactive)
REMARK    1  A    between atoms: C1_2  and  C2_3 
ROOT
ATOM      1  C2  UNL d   1       1.326  -1.420   0.934  0.00  0.00    -0.076 A 
ATOM      2  C3  UNL d   1       1.165  -1.609   2.318  0.00  0.00     0.004 A 
ATOM      3  C4  UNL d   1      -0.013  -1.234   2.961  0.00  0.00    -0.003 A 
ATOM      4  C5  UNL d   1      -1.050  -0.665   2.230  0.00  0.00     0.000 A 
ATOM      5  C6  UNL d   1      -0.914  -0.486   0.854  0.00  0.00     0.000 A 
ATOM      6  C7  UNL d   1       0.261  -0.874   0.188  0.00  0.00    -0.073 A 
ATOM      7  C8  UNL d   1       0.355  -0.652  -1.297  0.00  0.00     0.078 C 
ENDROOT
BRANCH   1   8
ATOM      8  C1  UNL d   1       2.637  -1.821   0.296  0.00  0.00     0.053 C 
ATOM      9  C   UNL d   1       3.214  -3.093   0.900  0.00  0.00     0.018 C 
ENDBRANCH   1   8
TORSDOF 1
ENDMDL
