MODEL 1
REMARK minimizedAffinity 3.44104791
REMARK minimizedRMSD -1
REMARK  1 active torsions:
REMARK  status: ('A' for Active; 'I' for Inactive)
REMARK    1  A    between atoms: C1_2  and  C2_3 
ROOT
ATOM      1  C2  UNL d   1       2.686   0.082  -0.953  0.00  0.00    -0.076 A 
ATOM      2  C3  UNL d   1       2.281  -0.320  -2.238  0.00  0.00     0.004 A 
ATOM      3  C4  UNL d   1       2.089   0.614  -3.254  0.00  0.00    -0.003 A 
ATOM      4  C5  UNL d   1       2.300   1.966  -3.002  0.00  0.00     0.000 A 
ATOM      5  C6  UNL d   1       2.719   2.380  -1.739  0.00  0.00     0.000 A 
ATOM      6  C7  UNL d   1       2.933   1.450  -0.707  0.00  0.00    -0.073 A 
ATOM      7  C8  UNL d   1       3.379   1.953   0.638  0.00  0.00     0.078 C 
ENDROOT
BRANCH   1   8
ATOM      8  C1  UNL d   1       2.852  -0.974   0.117  0.00  0.00     0.053 C 
ATOM      9  C   UNL d   1       1.526  -1.398   0.727  0.00  0.00     0.018 C 
ENDBRANCH   1   8
TORSDOF 1
ENDMDL
