MODEL 1
REMARK minimizedAffinity 11.3203278
REMARK minimizedRMSD -1
REMARK  1 active torsions:
REMARK  status: ('A' for Active; 'I' for Inactive)
REMARK    1  A    between atoms: C1_2  and  C2_3 
ROOT
ATOM      1  C2  UNL d   1       2.056  -0.223   0.347  0.00  0.00    -0.076 A 
ATOM      2  C3  UNL d   1       2.537   0.878   1.076  0.00  0.00     0.004 A 
ATOM      3  C4  UNL d   1       2.479   2.168   0.550  0.00  0.00    -0.003 A 
ATOM      4  C5  UNL d   1       1.938   2.377  -0.713  0.00  0.00     0.000 A 
ATOM      5  C6  UNL d   1       1.439   1.299  -1.443  0.00  0.00     0.000 A 
ATOM      6  C7  UNL d   1       1.476  -0.006  -0.921  0.00  0.00    -0.073 A 
ATOM      7  C8  UNL d   1       0.929  -1.132  -1.755  0.00  0.00     0.078 C 
ENDROOT
BRANCH   1   8
ATOM      8  C1  UNL d   1       2.170  -1.602   0.957  0.00  0.00     0.053 C 
ATOM      9  C   UNL d   1       1.656  -1.650   2.387  0.00  0.00     0.018 C 
ENDBRANCH   1   8
TORSDOF 1
ENDMDL
