MODEL 1
REMARK minimizedAffinity 10.6105185
REMARK minimizedRMSD -1
REMARK  1 active torsions:
REMARK  status: ('A' for Active; 'I' for Inactive)
REMARK    1  A    between atoms: C1_2  and  C2_3 
ROOT
ATOM      1  C2  UNL d   1       1.225  -1.760   1.415  0.00  0.00    -0.076 A 
ATOM      2  C3  UNL d   1       0.745  -0.802   0.505  0.00  0.00     0.004 A 
ATOM      3  C4  UNL d   1       1.414  -0.551  -0.692  0.00  0.00    -0.003 A 
ATOM      4  C5  UNL d   1       2.573  -1.254  -0.999  0.00  0.00     0.000 A 
ATOM      5  C6  UNL d   1       3.054  -2.221  -0.116  0.00  0.00     0.000 A 
ATOM      6  C7  UNL d   1       2.383  -2.498   1.087  0.00  0.00    -0.073 A 
ATOM      7  C8  UNL d   1       2.949  -3.546   2.005  0.00  0.00     0.078 C 
ENDROOT
BRANCH   1   8
ATOM      8  C1  UNL d   1       0.473  -1.970   2.709  0.00  0.00     0.053 C 
ATOM      9  C   UNL d   1      -0.429  -0.796   3.057  0.00  0.00     0.018 C 
ENDBRANCH   1   8
TORSDOF 1
ENDMDL
