MODEL 1
REMARK minimizedAffinity 8.10125065
REMARK minimizedRMSD -1
REMARK  1 active torsions:
REMARK  status: ('A' for Active; 'I' for Inactive)
REMARK    1  A    between atoms: C1_2  and  C2_3 
ROOT
ATOM      1  C2  UNL d   1       2.405   0.282  -0.375  0.00  0.00    -0.076 A 
ATOM      2  C3  UNL d   1       1.994   0.236  -1.719  0.00  0.00     0.004 A 
ATOM      3  C4  UNL d   1       1.697   1.403  -2.419  0.00  0.00    -0.003 A 
ATOM      4  C5  UNL d   1       1.806   2.637  -1.787  0.00  0.00     0.000 A 
ATOM      5  C6  UNL d   1       2.229   2.703  -0.460  0.00  0.00     0.000 A 
ATOM      6  C7  UNL d   1       2.549   1.536   0.255  0.00  0.00    -0.073 A 
ATOM      7  C8  UNL d   1       2.994   1.666   1.686  0.00  0.00     0.078 C 
ENDROOT
BRANCH   1   8
ATOM      8  C1  UNL d   1       2.688  -1.019   0.341  0.00  0.00     0.053 C 
ATOM      9  C   UNL d   1       3.763  -1.843  -0.350  0.00  0.00     0.018 C 
ENDBRANCH   1   8
TORSDOF 1
ENDMDL
