MODEL 1
REMARK minimizedAffinity 6.43993044
REMARK minimizedRMSD -1
REMARK  1 active torsions:
REMARK  status: ('A' for Active; 'I' for Inactive)
REMARK    1  A    between atoms: C1_2  and  C2_3 
ROOT
ATOM      1  C2  UNL d   1       1.837  -0.764  -0.113  0.00  0.00    -0.076 A 
ATOM      2  C3  UNL d   1       2.384  -1.644  -1.063  0.00  0.00     0.004 A 
ATOM      3  C4  UNL d   1       3.094  -2.776  -0.666  0.00  0.00    -0.003 A 
ATOM      4  C5  UNL d   1       3.268  -3.046   0.687  0.00  0.00     0.000 A 
ATOM      5  C6  UNL d   1       2.717  -2.193   1.642  0.00  0.00     0.000 A 
ATOM      6  C7  UNL d   1       1.984  -1.057   1.259  0.00  0.00    -0.073 A 
ATOM      7  C8  UNL d   1       1.417  -0.168   2.332  0.00  0.00     0.078 C 
ENDROOT
BRANCH   1   8
ATOM      8  C1  UNL d   1       1.100   0.463  -0.603  0.00  0.00     0.053 C 
ATOM      9  C   UNL d   1       1.945   1.724  -0.516  0.00  0.00     0.018 C 
ENDBRANCH   1   8
TORSDOF 1
ENDMDL
