MODEL 1
REMARK minimizedAffinity -1.02379596
REMARK minimizedRMSD -1
REMARK  1 active torsions:
REMARK  status: ('A' for Active; 'I' for Inactive)
REMARK    1  A    between atoms: C1_2  and  C2_3 
ROOT
ATOM      1  C2  UNL d   1       1.462  -1.285   1.702  0.00  0.00    -0.076 A 
ATOM      2  C3  UNL d   1       1.071  -1.192   0.355  0.00  0.00     0.004 A 
ATOM      3  C4  UNL d   1       2.011  -1.262  -0.672  0.00  0.00    -0.003 A 
ATOM      4  C5  UNL d   1       3.358  -1.427  -0.368  0.00  0.00     0.000 A 
ATOM      5  C6  UNL d   1       3.762  -1.538   0.962  0.00  0.00     0.000 A 
ATOM      6  C7  UNL d   1       2.825  -1.486   2.008  0.00  0.00    -0.073 A 
ATOM      7  C8  UNL d   1       3.317  -1.605   3.425  0.00  0.00     0.078 C 
ENDROOT
BRANCH   1   8
ATOM      8  C1  UNL d   1       0.401  -1.175   2.774  0.00  0.00     0.053 C 
ATOM      9  C   UNL d   1      -0.980  -0.900   2.200  0.00  0.00     0.018 C 
ENDBRANCH   1   8
TORSDOF 1
ENDMDL
