MODEL 1
REMARK minimizedAffinity 7.85772848
REMARK minimizedRMSD -1
REMARK  1 active torsions:
REMARK  status: ('A' for Active; 'I' for Inactive)
REMARK    1  A    between atoms: C1_2  and  C2_3 
ROOT
ATOM      1  C2  UNL d   1       1.123  -1.746   2.552  0.00  0.00    -0.076 A 
ATOM      2  C3  UNL d   1       0.219  -2.775   2.237  0.00  0.00     0.004 A 
ATOM      3  C4  UNL d   1      -1.152  -2.608   2.424  0.00  0.00    -0.003 A 
ATOM      4  C5  UNL d   1      -1.642  -1.407   2.927  0.00  0.00     0.000 A 
ATOM      5  C6  UNL d   1      -0.761  -0.369   3.228  0.00  0.00     0.000 A 
ATOM      6  C7  UNL d   1       0.623  -0.516   3.030  0.00  0.00    -0.073 A 
ATOM      7  C8  UNL d   1       1.528   0.635   3.377  0.00  0.00     0.078 C 
ENDROOT
BRANCH   1   8
ATOM      8  C1  UNL d   1       2.601  -1.994   2.354  0.00  0.00     0.053 C 
ATOM      9  C   UNL d   1       3.015  -1.916   0.892  0.00  0.00     0.018 C 
ENDBRANCH   1   8
TORSDOF 1
ENDMDL
