MODEL 1
REMARK minimizedAffinity -4.27677488
REMARK minimizedRMSD -1
REMARK  0 active torsions:
REMARK  status: ('A' for Active; 'I' for Inactive)
ROOT
ATOM      1  C4' PXY d   1       1.161   1.910  -1.533  0.00  0.00     0.077 C 
ATOM      2  C1' PXY d   1      -1.067  -2.525   1.429  0.00  0.00     0.077 C 
ATOM      3  C1  PXY d   1      -0.495  -1.357   0.650  0.00  0.00    -0.082 A 
ATOM      4  C2  PXY d   1       0.691  -1.473   0.074  0.00  0.00     0.003 A 
ATOM      5  C3  PXY d   1       1.238  -0.416  -0.607  0.00  0.00     0.003 A 
ATOM      6  C4  PXY d   1       0.540   0.754  -0.745  0.00  0.00    -0.082 A 
ATOM      7  C5  PXY d   1      -0.675   0.876  -0.169  0.00  0.00     0.003 A 
ATOM      8  C6  PXY d   1      -1.194  -0.194   0.552  0.00  0.00     0.003 A 
ENDROOT
TORSDOF 0
ENDMDL
