MODEL 1
REMARK minimizedAffinity -3.06826615
REMARK minimizedRMSD -1
REMARK  0 active torsions:
REMARK  status: ('A' for Active; 'I' for Inactive)
ROOT
ATOM      1  C4' PXY d   1       1.128   2.993  -2.630  0.00  0.00     0.077 C 
ATOM      2  C1' PXY d   1      -0.168  -1.215   1.115  0.00  0.00     0.077 C 
ATOM      3  C1  PXY d   1       0.167  -0.103   0.141  0.00  0.00    -0.082 A 
ATOM      4  C2  PXY d   1       0.320  -0.382  -1.143  0.00  0.00     0.003 A 
ATOM      5  C3  PXY d   1       0.654   0.607  -2.032  0.00  0.00     0.003 A 
ATOM      6  C4  PXY d   1       0.780   1.903  -1.612  0.00  0.00    -0.082 A 
ATOM      7  C5  PXY d   1       0.615   2.198  -0.305  0.00  0.00     0.003 A 
ATOM      8  C6  PXY d   1       0.317   1.173   0.589  0.00  0.00     0.003 A 
ENDROOT
TORSDOF 0
ENDMDL
