MODEL 1
REMARK minimizedAffinity -2.72386146
REMARK minimizedRMSD -1
REMARK  0 active torsions:
REMARK  status: ('A' for Active; 'I' for Inactive)
ROOT
ATOM      1  C4' PXY d   1       5.245   1.883  -2.657  0.00  0.00     0.077 C 
ATOM      2  C1' PXY d   1      -0.471   2.660  -3.034  0.00  0.00     0.077 C 
ATOM      3  C1  PXY d   1       1.027   2.445  -2.942  0.00  0.00    -0.082 A 
ATOM      4  C2  PXY d   1       1.711   3.017  -1.964  0.00  0.00     0.003 A 
ATOM      5  C3  PXY d   1       3.070   2.859  -1.885  0.00  0.00     0.003 A 
ATOM      6  C4  PXY d   1       3.730   2.065  -2.784  0.00  0.00    -0.082 A 
ATOM      7  C5  PXY d   1       3.038   1.469  -3.778  0.00  0.00     0.003 A 
ATOM      8  C6  PXY d   1       1.664   1.675  -3.866  0.00  0.00     0.003 A 
ENDROOT
TORSDOF 0
ENDMDL
