MODEL 1
REMARK minimizedAffinity -4.60978603
REMARK minimizedRMSD -1
REMARK  0 active torsions:
REMARK  status: ('A' for Active; 'I' for Inactive)
ROOT
ATOM      1  C4' PXY d   1       1.037   1.980  -0.314  0.00  0.00     0.077 C 
ATOM      2  C1' PXY d   1      -1.655  -2.850   1.374  0.00  0.00     0.077 C 
ATOM      3  C1  PXY d   1      -0.937  -1.588   0.935  0.00  0.00    -0.082 A 
ATOM      4  C2  PXY d   1      -1.587  -0.436   0.925  0.00  0.00     0.003 A 
ATOM      5  C3  PXY d   1      -0.963   0.709   0.500  0.00  0.00     0.003 A 
ATOM      6  C4  PXY d   1       0.355   0.683   0.131  0.00  0.00    -0.082 A 
ATOM      7  C5  PXY d   1       1.028  -0.487   0.148  0.00  0.00     0.003 A 
ATOM      8  C6  PXY d   1       0.365  -1.645   0.544  0.00  0.00     0.003 A 
ENDROOT
TORSDOF 0
ENDMDL
