MODEL 1
REMARK minimizedAffinity -1.84248185
REMARK minimizedRMSD -1
REMARK  0 active torsions:
REMARK  status: ('A' for Active; 'I' for Inactive)
ROOT
ATOM      1  C4' PXY d   1      -2.562  -0.680   2.935  0.00  0.00     0.077 C 
ATOM      2  C1' PXY d   1       1.295  -0.754  -1.370  0.00  0.00     0.077 C 
ATOM      3  C1  PXY d   1       0.283  -0.747  -0.241  0.00  0.00    -0.082 A 
ATOM      4  C2  PXY d   1      -0.463   0.326  -0.037  0.00  0.00     0.003 A 
ATOM      5  C3  PXY d   1      -1.361   0.361   0.999  0.00  0.00     0.003 A 
ATOM      6  C4  PXY d   1      -1.534  -0.735   1.802  0.00  0.00    -0.082 A 
ATOM      7  C5  PXY d   1      -0.784  -1.838   1.593  0.00  0.00     0.003 A 
ATOM      8  C6  PXY d   1       0.150  -1.838   0.562  0.00  0.00     0.003 A 
ENDROOT
TORSDOF 0
ENDMDL
