MODEL 1
REMARK minimizedAffinity -4.54563522
REMARK minimizedRMSD -1
REMARK  0 active torsions:
REMARK  status: ('A' for Active; 'I' for Inactive)
ROOT
ATOM      1  C4' PXY d   1      -2.217   1.123   1.709  0.00  0.00     0.077 C 
ATOM      2  C1' PXY d   1       1.758  -2.793   0.197  0.00  0.00     0.077 C 
ATOM      3  C1  PXY d   1       0.707  -1.775   0.596  0.00  0.00    -0.082 A 
ATOM      4  C2  PXY d   1       0.760  -0.551   0.099  0.00  0.00     0.003 A 
ATOM      5  C3  PXY d   1      -0.164   0.391   0.474  0.00  0.00     0.003 A 
ATOM      6  C4  PXY d   1      -1.183   0.060   1.326  0.00  0.00    -0.082 A 
ATOM      7  C5  PXY d   1      -1.250  -1.190   1.830  0.00  0.00     0.003 A 
ATOM      8  C6  PXY d   1      -0.279  -2.120   1.468  0.00  0.00     0.003 A 
ENDROOT
TORSDOF 0
ENDMDL
