MODEL 1
REMARK minimizedAffinity -3.3358078
REMARK minimizedRMSD -1
REMARK  0 active torsions:
REMARK  status: ('A' for Active; 'I' for Inactive)
ROOT
ATOM      1  C4' PXY d   1       0.837   2.051  -1.198  0.00  0.00     0.077 C 
ATOM      2  C1' PXY d   1      -1.265  -2.676   1.381  0.00  0.00     0.077 C 
ATOM      3  C1  PXY d   1      -0.726  -1.432   0.704  0.00  0.00    -0.082 A 
ATOM      4  C2  PXY d   1       0.413  -1.493   0.033  0.00  0.00     0.003 A 
ATOM      5  C3  PXY d   1       0.931  -0.370  -0.558  0.00  0.00     0.003 A 
ATOM      6  C4  PXY d   1       0.250   0.817  -0.507  0.00  0.00    -0.082 A 
ATOM      7  C5  PXY d   1      -0.918   0.885   0.166  0.00  0.00     0.003 A 
ATOM      8  C6  PXY d   1      -1.406  -0.257   0.794  0.00  0.00     0.003 A 
ENDROOT
TORSDOF 0
ENDMDL
