MODEL 1
REMARK minimizedAffinity -5.12024498
REMARK minimizedRMSD -1
REMARK  0 active torsions:
REMARK  status: ('A' for Active; 'I' for Inactive)
ROOT
ATOM      1  C4' PXY d   1       0.846   2.355  -3.547  0.00  0.00     0.077 C 
ATOM      2  C1' PXY d   1       0.581  -1.472   0.777  0.00  0.00     0.077 C 
ATOM      3  C1  PXY d   1       0.648  -0.459  -0.349  0.00  0.00    -0.082 A 
ATOM      4  C2  PXY d   1       0.430  -0.849  -1.594  0.00  0.00     0.003 A 
ATOM      5  C3  PXY d   1       0.518   0.048  -2.627  0.00  0.00     0.003 A 
ATOM      6  C4  PXY d   1       0.780   1.368  -2.378  0.00  0.00    -0.082 A 
ATOM      7  C5  PXY d   1       0.993   1.776  -1.109  0.00  0.00     0.003 A 
ATOM      8  C6  PXY d   1       0.939   0.843  -0.079  0.00  0.00     0.003 A 
ENDROOT
TORSDOF 0
ENDMDL
