MODEL 1
REMARK minimizedAffinity -3.73580742
REMARK minimizedRMSD -1
REMARK  0 active torsions:
REMARK  status: ('A' for Active; 'I' for Inactive)
ROOT
ATOM      1  C4' PXY d   1       0.335   1.909  -2.084  0.00  0.00     0.077 C 
ATOM      2  C1' PXY d   1      -0.735  -2.689   1.251  0.00  0.00     0.077 C 
ATOM      3  C1  PXY d   1      -0.449  -1.477   0.387  0.00  0.00    -0.082 A 
ATOM      4  C2  PXY d   1      -1.159  -1.274  -0.711  0.00  0.00     0.003 A 
ATOM      5  C3  PXY d   1      -0.893  -0.201  -1.521  0.00  0.00     0.003 A 
ATOM      6  C4  PXY d   1       0.075   0.704  -1.176  0.00  0.00    -0.082 A 
ATOM      7  C5  PXY d   1       0.797   0.510  -0.052  0.00  0.00     0.003 A 
ATOM      8  C6  PXY d   1       0.539  -0.609   0.735  0.00  0.00     0.003 A 
ENDROOT
TORSDOF 0
ENDMDL
