MODEL 1
REMARK minimizedAffinity -3.04657006
REMARK minimizedRMSD -1
REMARK  0 active torsions:
REMARK  status: ('A' for Active; 'I' for Inactive)
ROOT
ATOM      1  C4' PXY d   1       0.134   1.026  -2.670  0.00  0.00     0.077 C 
ATOM      2  C1' PXY d   1      -0.701  -2.313   1.974  0.00  0.00     0.077 C 
ATOM      3  C1  PXY d   1      -0.473  -1.446   0.752  0.00  0.00    -0.082 A 
ATOM      4  C2  PXY d   1      -0.769  -0.157   0.800  0.00  0.00     0.003 A 
ATOM      5  C3  PXY d   1      -0.599   0.635  -0.307  0.00  0.00     0.003 A 
ATOM      6  C4  PXY d   1      -0.071   0.114  -1.457  0.00  0.00    -0.082 A 
ATOM      7  C5  PXY d   1       0.243  -1.197  -1.511  0.00  0.00     0.003 A 
ATOM      8  C6  PXY d   1       0.025  -1.993  -0.390  0.00  0.00     0.003 A 
ENDROOT
TORSDOF 0
ENDMDL
