MODEL 1
REMARK minimizedAffinity -3.18629336
REMARK minimizedRMSD -1
REMARK  0 active torsions:
REMARK  status: ('A' for Active; 'I' for Inactive)
ROOT
ATOM      1  C4' PXY d   1      -0.191  -2.563   1.479  0.00  0.00     0.077 C 
ATOM      2  C1' PXY d   1       1.434   2.056  -1.593  0.00  0.00     0.077 C 
ATOM      3  C1  PXY d   1       1.016   0.837  -0.794  0.00  0.00    -0.082 A 
ATOM      4  C2  PXY d   1      -0.153   0.830  -0.176  0.00  0.00     0.003 A 
ATOM      5  C3  PXY d   1      -0.533  -0.251   0.577  0.00  0.00     0.003 A 
ATOM      6  C4  PXY d   1       0.269  -1.358   0.654  0.00  0.00    -0.082 A 
ATOM      7  C5  PXY d   1       1.459  -1.363   0.016  0.00  0.00     0.003 A 
ATOM      8  C6  PXY d   1       1.844  -0.239  -0.709  0.00  0.00     0.003 A 
ENDROOT
TORSDOF 0
ENDMDL
