MODEL 1
REMARK minimizedAffinity -3.93356419
REMARK minimizedRMSD -1
REMARK  0 active torsions:
REMARK  status: ('A' for Active; 'I' for Inactive)
ROOT
ATOM      1  C4' PXY d   1       1.346   2.082  -2.577  0.00  0.00     0.077 C 
ATOM      2  C1' PXY d   1      -0.152  -1.878   1.359  0.00  0.00     0.077 C 
ATOM      3  C1  PXY d   1       0.232  -0.832   0.332  0.00  0.00    -0.082 A 
ATOM      4  C2  PXY d   1       0.790  -1.207  -0.808  0.00  0.00     0.003 A 
ATOM      5  C3  PXY d   1       1.172  -0.271  -1.734  0.00  0.00     0.003 A 
ATOM      6  C4  PXY d   1       0.933   1.059  -1.515  0.00  0.00    -0.082 A 
ATOM      7  C5  PXY d   1       0.355   1.449  -0.359  0.00  0.00     0.003 A 
ATOM      8  C6  PXY d   1       0.011   0.487   0.586  0.00  0.00     0.003 A 
ENDROOT
TORSDOF 0
ENDMDL
