MODEL 1
REMARK minimizedAffinity -5.23199511
REMARK minimizedRMSD -1
REMARK  0 active torsions:
REMARK  status: ('A' for Active; 'I' for Inactive)
ROOT
ATOM      1  C4' PXY d   1      -0.392  -1.990   0.882  0.00  0.00     0.077 C 
ATOM      2  C1' PXY d   1       1.048   2.032  -3.012  0.00  0.00     0.077 C 
ATOM      3  C1  PXY d   1       0.674   0.985  -1.981  0.00  0.00    -0.082 A 
ATOM      4  C2  PXY d   1       0.603  -0.287  -2.338  0.00  0.00     0.003 A 
ATOM      5  C3  PXY d   1       0.235  -1.243  -1.426  0.00  0.00     0.003 A 
ATOM      6  C4  PXY d   1      -0.009  -0.900  -0.123  0.00  0.00    -0.082 A 
ATOM      7  C5  PXY d   1       0.072   0.394   0.251  0.00  0.00     0.003 A 
ATOM      8  C6  PXY d   1       0.406   1.355  -0.700  0.00  0.00     0.003 A 
ENDROOT
TORSDOF 0
ENDMDL
