MODEL 1
REMARK minimizedAffinity -5.07771254
REMARK minimizedRMSD -1
REMARK  0 active torsions:
REMARK  status: ('A' for Active; 'I' for Inactive)
ROOT
ATOM      1  C4' PXY d   1      -1.524  -3.140   1.099  0.00  0.00     0.077 C 
ATOM      2  C1' PXY d   1       0.982   1.907  -0.192  0.00  0.00     0.077 C 
ATOM      3  C1  PXY d   1       0.334   0.577   0.140  0.00  0.00    -0.082 A 
ATOM      4  C2  PXY d   1      -0.964   0.526   0.392  0.00  0.00     0.003 A 
ATOM      5  C3  PXY d   1      -1.560  -0.663   0.725  0.00  0.00     0.003 A 
ATOM      6  C4  PXY d   1      -0.829  -1.821   0.750  0.00  0.00    -0.082 A 
ATOM      7  C5  PXY d   1       0.493  -1.779   0.484  0.00  0.00     0.003 A 
ATOM      8  C6  PXY d   1       1.087  -0.556   0.188  0.00  0.00     0.003 A 
ENDROOT
TORSDOF 0
ENDMDL
