MODEL 1
REMARK minimizedAffinity -5.14424658
REMARK minimizedRMSD -1
REMARK  0 active torsions:
REMARK  status: ('A' for Active; 'I' for Inactive)
ROOT
ATOM      1  C4' PXY d   1       0.557   1.920  -2.605  0.00  0.00     0.077 C 
ATOM      2  C1' PXY d   1      -0.168  -2.179   1.406  0.00  0.00     0.077 C 
ATOM      3  C1  PXY d   1       0.014  -1.096   0.361  0.00  0.00    -0.082 A 
ATOM      4  C2  PXY d   1       0.357  -1.429  -0.873  0.00  0.00     0.003 A 
ATOM      5  C3  PXY d   1       0.557  -0.460  -1.822  0.00  0.00     0.003 A 
ATOM      6  C4  PXY d   1       0.353   0.859  -1.519  0.00  0.00    -0.082 A 
ATOM      7  C5  PXY d   1      -0.007   1.206  -0.265  0.00  0.00     0.003 A 
ATOM      8  C6  PXY d   1      -0.165   0.211   0.695  0.00  0.00     0.003 A 
ENDROOT
TORSDOF 0
ENDMDL
