MODEL 1
REMARK minimizedAffinity -3.04552031
REMARK minimizedRMSD -1
REMARK  0 active torsions:
REMARK  status: ('A' for Active; 'I' for Inactive)
ROOT
ATOM      1  C4' PXY d   1      -0.551  -2.316   1.926  0.00  0.00     0.077 C 
ATOM      2  C1' PXY d   1       0.597   1.705  -2.065  0.00  0.00     0.077 C 
ATOM      3  C1  PXY d   1       0.285   0.657  -1.015  0.00  0.00    -0.082 A 
ATOM      4  C2  PXY d   1       1.269  -0.049  -0.483  0.00  0.00     0.003 A 
ATOM      5  C3  PXY d   1       1.002  -1.024   0.444  0.00  0.00     0.003 A 
ATOM      6  C4  PXY d   1      -0.281  -1.241   0.870  0.00  0.00    -0.082 A 
ATOM      7  C5  PXY d   1      -1.290  -0.517   0.340  0.00  0.00     0.003 A 
ATOM      8  C6  PXY d   1      -1.002   0.438  -0.630  0.00  0.00     0.003 A 
ENDROOT
TORSDOF 0
ENDMDL
