MODEL 1
REMARK minimizedAffinity -4.43948126
REMARK minimizedRMSD -1
REMARK  0 active torsions:
REMARK  status: ('A' for Active; 'I' for Inactive)
ROOT
ATOM      1  C4' PXY d   1       0.792   2.195  -2.204  0.00  0.00     0.077 C 
ATOM      2  C1' PXY d   1      -0.691  -2.245   1.187  0.00  0.00     0.077 C 
ATOM      3  C1  PXY d   1      -0.304  -1.073   0.308  0.00  0.00    -0.082 A 
ATOM      4  C2  PXY d   1      -0.445  -1.164  -1.005  0.00  0.00     0.003 A 
ATOM      5  C3  PXY d   1      -0.070  -0.125  -1.817  0.00  0.00     0.003 A 
ATOM      6  C4  PXY d   1       0.405   1.040  -1.277  0.00  0.00    -0.082 A 
ATOM      7  C5  PXY d   1       0.542   1.145   0.062  0.00  0.00     0.003 A 
ATOM      8  C6  PXY d   1       0.194   0.064   0.867  0.00  0.00     0.003 A 
ENDROOT
TORSDOF 0
ENDMDL
