MODEL 1
REMARK minimizedAffinity -3.79631257
REMARK minimizedRMSD -1
REMARK  0 active torsions:
REMARK  status: ('A' for Active; 'I' for Inactive)
ROOT
ATOM      1  C4' PXY d   1      -1.822  -2.776   1.202  0.00  0.00     0.077 C 
ATOM      2  C1' PXY d   1       0.904   1.773  -1.097  0.00  0.00     0.077 C 
ATOM      3  C1  PXY d   1       0.187   0.587  -0.484  0.00  0.00    -0.082 A 
ATOM      4  C2  PXY d   1       0.501  -0.639  -0.870  0.00  0.00     0.003 A 
ATOM      5  C3  PXY d   1      -0.161  -1.721  -0.349  0.00  0.00     0.003 A 
ATOM      6  C4  PXY d   1      -1.117  -1.550   0.616  0.00  0.00    -0.082 A 
ATOM      7  C5  PXY d   1      -1.436  -0.303   1.023  0.00  0.00     0.003 A 
ATOM      8  C6  PXY d   1      -0.781   0.785   0.452  0.00  0.00     0.003 A 
ENDROOT
TORSDOF 0
ENDMDL
