MODEL 1
REMARK minimizedAffinity -2.32780242
REMARK minimizedRMSD -1
REMARK  0 active torsions:
REMARK  status: ('A' for Active; 'I' for Inactive)
ROOT
ATOM      1  C4' PXY d   1      -0.035  -2.498   1.742  0.00  0.00     0.077 C 
ATOM      2  C1' PXY d   1       0.788   1.625  -2.224  0.00  0.00     0.077 C 
ATOM      3  C1  PXY d   1       0.573   0.535  -1.193  0.00  0.00    -0.082 A 
ATOM      4  C2  PXY d   1      -0.015   0.827  -0.045  0.00  0.00     0.003 A 
ATOM      5  C3  PXY d   1      -0.189  -0.140   0.912  0.00  0.00     0.003 A 
ATOM      6  C4  PXY d   1       0.195  -1.431   0.668  0.00  0.00    -0.082 A 
ATOM      7  C5  PXY d   1       0.785  -1.740  -0.505  0.00  0.00     0.003 A 
ATOM      8  C6  PXY d   1       0.990  -0.736  -1.447  0.00  0.00     0.003 A 
ENDROOT
TORSDOF 0
ENDMDL
