MODEL 1
REMARK minimizedAffinity -5.71363497
REMARK minimizedRMSD -1
REMARK  0 active torsions:
REMARK  status: ('A' for Active; 'I' for Inactive)
ROOT
ATOM      1  C4' PXY d   1       1.213   1.518  -2.242  0.00  0.00     0.077 C 
ATOM      2  C1' PXY d   1      -1.757  -2.254   0.978  0.00  0.00     0.077 C 
ATOM      3  C1  PXY d   1      -0.985  -1.255   0.139  0.00  0.00    -0.082 A 
ATOM      4  C2  PXY d   1      -0.368  -1.662  -0.959  0.00  0.00     0.003 A 
ATOM      5  C3  PXY d   1       0.361  -0.778  -1.713  0.00  0.00     0.003 A 
ATOM      6  C4  PXY d   1       0.415   0.546  -1.368  0.00  0.00    -0.082 A 
ATOM      7  C5  PXY d   1      -0.221   0.971  -0.256  0.00  0.00     0.003 A 
ATOM      8  C6  PXY d   1      -0.921   0.050   0.518  0.00  0.00     0.003 A 
ENDROOT
TORSDOF 0
ENDMDL
