MODEL 1
REMARK minimizedAffinity 12.1130447
REMARK minimizedRMSD -1
REMARK  0 active torsions:
REMARK  status: ('A' for Active; 'I' for Inactive)
ROOT
ATOM      1  C1  DEN d   1      -5.983  -6.000   4.648  0.00  0.00     0.130 A 
ATOM      2  C2  DEN d   1      -6.000  -5.448   6.000  0.00  0.00    -0.031 A 
ATOM      3  C3  DEN d   1      -5.298  -4.149   5.972  0.00  0.00     0.027 A 
ATOM      4  C4  DEN d   1      -4.196  -2.943   3.976  0.00  0.00     0.027 A 
ATOM      5  C5  DEN d   1      -3.916  -3.026   2.630  0.00  0.00    -0.003 A 
ATOM      6  C6  DEN d   1      -4.273  -4.112   1.876  0.00  0.00     0.001 A 
ATOM      7  C7  DEN d   1      -4.970  -5.140   2.453  0.00  0.00     0.017 A 
ATOM      8  C8  DEN d   1      -5.249  -5.067   3.811  0.00  0.00    -0.094 A 
ATOM      9  C9  DEN d   1      -4.891  -3.955   4.554  0.00  0.00    -0.072 A 
ENDROOT
TORSDOF 0
ENDMDL
