MODEL 1
REMARK minimizedAffinity 14.7825842
REMARK minimizedRMSD -1
REMARK  0 active torsions:
REMARK  status: ('A' for Active; 'I' for Inactive)
ROOT
ATOM      1  C1  DEN d   1      -4.238  -2.421   2.612  0.00  0.00     0.130 A 
ATOM      2  C2  DEN d   1      -3.989  -3.706   1.965  0.00  0.00    -0.031 A 
ATOM      3  C3  DEN d   1      -2.708  -3.610   1.237  0.00  0.00     0.027 A 
ATOM      4  C4  DEN d   1      -1.092  -1.608   1.054  0.00  0.00     0.027 A 
ATOM      5  C5  DEN d   1      -0.882  -0.297   1.423  0.00  0.00    -0.003 A 
ATOM      6  C6  DEN d   1      -1.785   0.402   2.179  0.00  0.00     0.001 A 
ATOM      7  C7  DEN d   1      -2.919  -0.220   2.629  0.00  0.00     0.017 A 
ATOM      8  C8  DEN d   1      -3.142  -1.539   2.256  0.00  0.00    -0.094 A 
ATOM      9  C9  DEN d   1      -2.211  -2.233   1.501  0.00  0.00    -0.072 A 
ENDROOT
TORSDOF 0
ENDMDL
