MODEL 1
REMARK minimizedAffinity 17.6074085
REMARK minimizedRMSD -1
REMARK  0 active torsions:
REMARK  status: ('A' for Active; 'I' for Inactive)
ROOT
ATOM      1  C1  DEN d   1      -1.398   0.018   4.832  0.00  0.00     0.130 A 
ATOM      2  C2  DEN d   1      -2.607   0.791   5.102  0.00  0.00    -0.031 A 
ATOM      3  C3  DEN d   1      -3.348   0.940   3.833  0.00  0.00     0.027 A 
ATOM      4  C4  DEN d   1      -2.745   0.049   1.489  0.00  0.00     0.027 A 
ATOM      5  C5  DEN d   1      -1.809  -0.654   0.762  0.00  0.00    -0.003 A 
ATOM      6  C6  DEN d   1      -0.664  -1.148   1.328  0.00  0.00     0.001 A 
ATOM      7  C7  DEN d   1      -0.447  -0.986   2.671  0.00  0.00     0.017 A 
ATOM      8  C8  DEN d   1      -1.381  -0.272   3.409  0.00  0.00    -0.094 A 
ATOM      9  C9  DEN d   1      -2.539   0.209   2.821  0.00  0.00    -0.072 A 
ENDROOT
TORSDOF 0
ENDMDL
