MODEL 1
REMARK minimizedAffinity 13.4080238
REMARK minimizedRMSD -1
REMARK  0 active torsions:
REMARK  status: ('A' for Active; 'I' for Inactive)
ROOT
ATOM      1  C1  DEN d   1       6.000   5.999  -2.553  0.00  0.00     0.130 A 
ATOM      2  C2  DEN d   1       5.253   5.963  -1.298  0.00  0.00    -0.031 A 
ATOM      3  C3  DEN d   1       4.283   4.853  -1.376  0.00  0.00     0.027 A 
ATOM      4  C4  DEN d   1       3.870   3.192  -3.305  0.00  0.00     0.027 A 
ATOM      5  C5  DEN d   1       4.251   2.834  -4.580  0.00  0.00    -0.003 A 
ATOM      6  C6  DEN d   1       5.211   3.521  -5.275  0.00  0.00     0.001 A 
ATOM      7  C7  DEN d   1       5.854   4.576  -4.682  0.00  0.00     0.017 A 
ATOM      8  C8  DEN d   1       5.469   4.947  -3.400  0.00  0.00    -0.094 A 
ATOM      9  C9  DEN d   1       4.506   4.232  -2.710  0.00  0.00    -0.072 A 
ENDROOT
TORSDOF 0
ENDMDL
