MODEL 1
REMARK minimizedAffinity 14.6498804
REMARK minimizedRMSD -1
REMARK  0 active torsions:
REMARK  status: ('A' for Active; 'I' for Inactive)
ROOT
ATOM      1  C1  DEN d   1       3.078   4.559  -2.041  0.00  0.00     0.130 A 
ATOM      2  C2  DEN d   1       1.947   3.663  -2.267  0.00  0.00    -0.031 A 
ATOM      3  C3  DEN d   1       2.206   2.906  -3.509  0.00  0.00     0.027 A 
ATOM      4  C4  DEN d   1       4.239   3.032  -5.091  0.00  0.00     0.027 A 
ATOM      5  C5  DEN d   1       5.446   3.654  -5.321  0.00  0.00    -0.003 A 
ATOM      6  C6  DEN d   1       5.929   4.637  -4.498  0.00  0.00     0.001 A 
ATOM      7  C7  DEN d   1       5.221   4.996  -3.382  0.00  0.00     0.017 A 
ATOM      8  C8  DEN d   1       4.000   4.379  -3.148  0.00  0.00    -0.094 A 
ATOM      9  C9  DEN d   1       3.535   3.378  -3.984  0.00  0.00    -0.072 A 
ENDROOT
TORSDOF 0
ENDMDL
