MODEL 1
REMARK minimizedAffinity 15.0498896
REMARK minimizedRMSD -1
REMARK  0 active torsions:
REMARK  status: ('A' for Active; 'I' for Inactive)
ROOT
ATOM      1  C1  DEN d   1       3.319   1.646  -3.042  0.00  0.00     0.130 A 
ATOM      2  C2  DEN d   1       2.546   2.850  -3.337  0.00  0.00    -0.031 A 
ATOM      3  C3  DEN d   1       1.900   3.296  -2.087  0.00  0.00     0.027 A 
ATOM      4  C4  DEN d   1       2.025   2.248   0.267  0.00  0.00     0.027 A 
ATOM      5  C5  DEN d   1       2.547   1.211   1.008  0.00  0.00    -0.003 A 
ATOM      6  C6  DEN d   1       3.330   0.236   0.449  0.00  0.00     0.001 A 
ATOM      7  C7  DEN d   1       3.649   0.302  -0.882  0.00  0.00     0.017 A 
ATOM      8  C8  DEN d   1       3.120   1.340  -1.637  0.00  0.00    -0.094 A 
ATOM      9  C9  DEN d   1       2.341   2.323  -1.051  0.00  0.00    -0.072 A 
ENDROOT
TORSDOF 0
ENDMDL
