MODEL 1
REMARK minimizedAffinity 13.0042744
REMARK minimizedRMSD -1
REMARK  0 active torsions:
REMARK  status: ('A' for Active; 'I' for Inactive)
ROOT
ATOM      1  C1  DEN d   1      -0.360  -5.266  -5.637  0.00  0.00     0.130 A 
ATOM      2  C2  DEN d   1      -1.570  -5.999  -5.999  0.00  0.00    -0.031 A 
ATOM      3  C3  DEN d   1      -2.478  -5.987  -4.834  0.00  0.00     0.027 A 
ATOM      4  C4  DEN d   1      -2.130  -4.906  -2.518  0.00  0.00     0.027 A 
ATOM      5  C5  DEN d   1      -1.255  -4.185  -1.735  0.00  0.00    -0.003 A 
ATOM      6  C6  DEN d   1      -0.017  -3.807  -2.183  0.00  0.00     0.001 A 
ATOM      7  C7  DEN d   1       0.363  -4.109  -3.464  0.00  0.00     0.017 A 
ATOM      8  C8  DEN d   1      -0.511  -4.842  -4.257  0.00  0.00    -0.094 A 
ATOM      9  C9  DEN d   1      -1.763  -5.204  -3.790  0.00  0.00    -0.072 A 
ENDROOT
TORSDOF 0
ENDMDL
