MODEL 1
REMARK minimizedAffinity 15.0977221
REMARK minimizedRMSD -1
REMARK  0 active torsions:
REMARK  status: ('A' for Active; 'I' for Inactive)
ROOT
ATOM      1  C1  DEN d   1      -4.223  -2.819   2.783  0.00  0.00     0.130 A 
ATOM      2  C2  DEN d   1      -4.102  -4.044   1.998  0.00  0.00    -0.031 A 
ATOM      3  C3  DEN d   1      -2.888  -3.934   1.164  0.00  0.00     0.027 A 
ATOM      4  C4  DEN d   1      -1.190  -1.998   1.018  0.00  0.00     0.027 A 
ATOM      5  C5  DEN d   1      -0.877  -0.741   1.487  0.00  0.00    -0.003 A 
ATOM      6  C6  DEN d   1      -1.670  -0.080   2.388  0.00  0.00     0.001 A 
ATOM      7  C7  DEN d   1      -2.791  -0.692   2.883  0.00  0.00     0.017 A 
ATOM      8  C8  DEN d   1      -3.116  -1.956   2.409  0.00  0.00    -0.094 A 
ATOM      9  C9  DEN d   1      -2.296  -2.613   1.508  0.00  0.00    -0.072 A 
ENDROOT
TORSDOF 0
ENDMDL
