MODEL 1
REMARK minimizedAffinity 12.682332
REMARK minimizedRMSD -1
REMARK  0 active torsions:
REMARK  status: ('A' for Active; 'I' for Inactive)
ROOT
ATOM      1  C1  DEN d   1       4.959   2.671   2.230  0.00  0.00     0.130 A 
ATOM      2  C2  DEN d   1       5.999   3.338   1.452  0.00  0.00    -0.031 A 
ATOM      3  C3  DEN d   1       5.853   2.922   0.042  0.00  0.00     0.027 A 
ATOM      4  C4  DEN d   1       4.124   1.321  -1.006  0.00  0.00     0.027 A 
ATOM      5  C5  DEN d   1       3.048   0.502  -0.742  0.00  0.00    -0.003 A 
ATOM      6  C6  DEN d   1       2.559   0.323   0.525  0.00  0.00     0.001 A 
ATOM      7  C7  DEN d   1       3.119   1.008   1.571  0.00  0.00     0.017 A 
ATOM      8  C8  DEN d   1       4.208   1.830   1.314  0.00  0.00    -0.094 A 
ATOM      9  C9  DEN d   1       4.680   2.007   0.025  0.00  0.00    -0.072 A 
ENDROOT
TORSDOF 0
ENDMDL
