MODEL 1
REMARK minimizedAffinity 20.8169193
REMARK minimizedRMSD -1
REMARK  0 active torsions:
REMARK  status: ('A' for Active; 'I' for Inactive)
ROOT
ATOM      1  C1  DEN d   1       1.561   0.983  -0.406  0.00  0.00     0.130 A 
ATOM      2  C2  DEN d   1       2.965   0.781  -0.756  0.00  0.00    -0.031 A 
ATOM      3  C3  DEN d   1       3.463  -0.380   0.008  0.00  0.00     0.027 A 
ATOM      4  C4  DEN d   1       2.203  -1.879   1.687  0.00  0.00     0.027 A 
ATOM      5  C5  DEN d   1       0.997  -2.091   2.317  0.00  0.00    -0.003 A 
ATOM      6  C6  DEN d   1      -0.087  -1.279   2.112  0.00  0.00     0.001 A 
ATOM      7  C7  DEN d   1       0.001  -0.244   1.219  0.00  0.00     0.017 A 
ATOM      8  C8  DEN d   1       1.216  -0.019   0.585  0.00  0.00    -0.094 A 
ATOM      9  C9  DEN d   1       2.296  -0.859   0.798  0.00  0.00    -0.072 A 
ENDROOT
TORSDOF 0
ENDMDL
