MODEL 1
REMARK minimizedAffinity 1.9655652
REMARK minimizedRMSD -1
REMARK  0 active torsions:
REMARK  status: ('A' for Active; 'I' for Inactive)
ROOT
ATOM      1  C1  DEN d   1      -5.640  -1.641  -2.865  0.00  0.00     0.130 A 
ATOM      2  C2  DEN d   1      -5.275  -0.555  -1.960  0.00  0.00    -0.031 A 
ATOM      3  C3  DEN d   1      -3.801  -0.480  -1.907  0.00  0.00     0.027 A 
ATOM      4  C4  DEN d   1      -2.059  -1.930  -3.137  0.00  0.00     0.027 A 
ATOM      5  C5  DEN d   1      -1.888  -2.986  -4.005  0.00  0.00    -0.003 A 
ATOM      6  C6  DEN d   1      -2.947  -3.683  -4.524  0.00  0.00     0.001 A 
ATOM      7  C7  DEN d   1      -4.227  -3.304  -4.214  0.00  0.00     0.017 A 
ATOM      8  C8  DEN d   1      -4.406  -2.245  -3.333  0.00  0.00    -0.094 A 
ATOM      9  C9  DEN d   1      -3.323  -1.546  -2.829  0.00  0.00    -0.072 A 
ENDROOT
TORSDOF 0
ENDMDL
