MODEL 1
REMARK minimizedAffinity 4.3270731
REMARK minimizedRMSD -1
REMARK  0 active torsions:
REMARK  status: ('A' for Active; 'I' for Inactive)
ROOT
ATOM      1  C1  DEN d   1      -3.795  -2.717   0.791  0.00  0.00     0.130 A 
ATOM      2  C2  DEN d   1      -3.752  -1.872   1.981  0.00  0.00    -0.031 A 
ATOM      3  C3  DEN d   1      -4.490  -2.562   3.058  0.00  0.00     0.027 A 
ATOM      4  C4  DEN d   1      -5.683  -4.848   3.001  0.00  0.00     0.027 A 
ATOM      5  C5  DEN d   1      -6.000  -5.929   2.209  0.00  0.00    -0.003 A 
ATOM      6  C6  DEN d   1      -5.636  -6.000   0.890  0.00  0.00     0.001 A 
ATOM      7  C7  DEN d   1      -4.895  -4.990   0.335  0.00  0.00     0.017 A 
ATOM      8  C8  DEN d   1      -4.578  -3.893   1.126  0.00  0.00    -0.094 A 
ATOM      9  C9  DEN d   1      -4.944  -3.846   2.460  0.00  0.00    -0.072 A 
ENDROOT
TORSDOF 0
ENDMDL
