MODEL 1
REMARK minimizedAffinity 4.70043182
REMARK minimizedRMSD -1
REMARK  0 active torsions:
REMARK  status: ('A' for Active; 'I' for Inactive)
ROOT
ATOM      1  C1  DEN d   1       0.547  -4.009   0.092  0.00  0.00     0.130 A 
ATOM      2  C2  DEN d   1      -0.258  -2.957   0.706  0.00  0.00    -0.031 A 
ATOM      3  C3  DEN d   1       0.635  -1.825   1.023  0.00  0.00     0.027 A 
ATOM      4  C4  DEN d   1       3.173  -1.599   0.622  0.00  0.00     0.027 A 
ATOM      5  C5  DEN d   1       4.294  -2.237   0.139  0.00  0.00    -0.003 A 
ATOM      6  C6  DEN d   1       4.252  -3.512  -0.358  0.00  0.00     0.001 A 
ATOM      7  C7  DEN d   1       3.055  -4.175  -0.425  0.00  0.00     0.017 A 
ATOM      8  C8  DEN d   1       1.921  -3.541   0.067  0.00  0.00    -0.094 A 
ATOM      9  C9  DEN d   1       1.982  -2.247   0.554  0.00  0.00    -0.072 A 
ENDROOT
TORSDOF 0
ENDMDL
