MODEL 1
REMARK minimizedAffinity -1.90183139
REMARK minimizedRMSD -1
REMARK  0 active torsions:
REMARK  status: ('A' for Active; 'I' for Inactive)
ROOT
ATOM      1  C1  DEN d   1      -4.798  -4.568   2.380  0.00  0.00     0.130 A 
ATOM      2  C2  DEN d   1      -5.063  -5.959   2.735  0.00  0.00    -0.031 A 
ATOM      3  C3  DEN d   1      -5.456  -5.999   4.158  0.00  0.00     0.027 A 
ATOM      4  C4  DEN d   1      -5.683  -4.053   5.835  0.00  0.00     0.027 A 
ATOM      5  C5  DEN d   1      -5.551  -2.692   5.999  0.00  0.00    -0.003 A 
ATOM      6  C6  DEN d   1      -5.130  -1.871   4.987  0.00  0.00     0.001 A 
ATOM      7  C7  DEN d   1      -4.868  -2.399   3.750  0.00  0.00     0.017 A 
ATOM      8  C8  DEN d   1      -4.992  -3.772   3.579  0.00  0.00    -0.094 A 
ATOM      9  C9  DEN d   1      -5.430  -4.583   4.612  0.00  0.00    -0.072 A 
ENDROOT
TORSDOF 0
ENDMDL
