MODEL 1
REMARK minimizedAffinity 3.60817456
REMARK minimizedRMSD -1
REMARK  0 active torsions:
REMARK  status: ('A' for Active; 'I' for Inactive)
ROOT
ATOM      1  C1  DEN d   1       3.630  -5.992   0.349  0.00  0.00     0.130 A 
ATOM      2  C2  DEN d   1       5.027  -5.575   0.261  0.00  0.00    -0.031 A 
ATOM      3  C3  DEN d   1       5.062  -4.099   0.227  0.00  0.00     0.027 A 
ATOM      4  C4  DEN d   1       3.099  -2.427   0.307  0.00  0.00     0.027 A 
ATOM      5  C5  DEN d   1       1.729  -2.308   0.370  0.00  0.00    -0.003 A 
ATOM      6  C6  DEN d   1       0.901  -3.399   0.397  0.00  0.00     0.001 A 
ATOM      7  C7  DEN d   1       1.438  -4.659   0.405  0.00  0.00     0.017 A 
ATOM      8  C8  DEN d   1       2.819  -4.787   0.334  0.00  0.00    -0.094 A 
ATOM      9  C9  DEN d   1       3.640  -3.672   0.320  0.00  0.00    -0.072 A 
ENDROOT
TORSDOF 0
ENDMDL
