MODEL 1
REMARK minimizedAffinity 11.2807331
REMARK minimizedRMSD -1
REMARK  1 active torsions:
REMARK  status: ('A' for Active; 'I' for Inactive)
REMARK    1  A    between atoms: C1_2  and  C2_3 
ROOT
ATOM      1  C2  UNL d   1       3.278  -4.524   1.091  0.00  0.00    -0.073 A 
ATOM      2  C3  UNL d   1       4.180  -3.717   1.793  0.00  0.00    -0.002 A 
ATOM      3  C4  UNL d   1       5.519  -3.655   1.406  0.00  0.00     0.004 A 
ATOM      4  C5  UNL d   1       5.968  -4.394   0.312  0.00  0.00    -0.004 A 
ATOM      5  C6  UNL d   1       5.080  -5.197  -0.410  0.00  0.00    -0.075 A 
ATOM      6  C7  UNL d   1       5.547  -6.000  -1.588  0.00  0.00     0.076 C 
ATOM      7  C8  UNL d   1       3.737  -5.256  -0.013  0.00  0.00     0.001 A 
ENDROOT
BRANCH   1   8
ATOM      8  C1  UNL d   1       1.829  -4.589   1.501  0.00  0.00     0.053 C 
ATOM      9  C   UNL d   1       1.329  -3.257   2.038  0.00  0.00     0.018 C 
ENDBRANCH   1   8
TORSDOF 1
ENDMDL
