MODEL 1
REMARK minimizedAffinity 9.08515167
REMARK minimizedRMSD -1
REMARK  1 active torsions:
REMARK  status: ('A' for Active; 'I' for Inactive)
REMARK    1  A    between atoms: C1_2  and  C2_3 
ROOT
ATOM      1  C2  UNL d   1       3.017  -3.686   0.880  0.00  0.00    -0.073 A 
ATOM      2  C3  UNL d   1       3.911  -3.472   1.935  0.00  0.00    -0.002 A 
ATOM      3  C4  UNL d   1       5.267  -3.761   1.780  0.00  0.00     0.004 A 
ATOM      4  C5  UNL d   1       5.745  -4.258   0.568  0.00  0.00    -0.004 A 
ATOM      5  C6  UNL d   1       4.870  -4.466  -0.503  0.00  0.00    -0.075 A 
ATOM      6  C7  UNL d   1       5.368  -5.002  -1.813  0.00  0.00     0.076 C 
ATOM      7  C8  UNL d   1       3.509  -4.177  -0.339  0.00  0.00     0.001 A 
ENDROOT
BRANCH   1   8
ATOM      8  C1  UNL d   1       1.553  -3.370   1.040  0.00  0.00     0.053 C 
ATOM      9  C   UNL d   1       1.299  -1.874   1.136  0.00  0.00     0.018 C 
ENDBRANCH   1   8
TORSDOF 1
ENDMDL
