MODEL 1
REMARK minimizedAffinity 8.51105118
REMARK minimizedRMSD -1
REMARK  1 active torsions:
REMARK  status: ('A' for Active; 'I' for Inactive)
REMARK    1  A    between atoms: C1_2  and  C2_3 
ROOT
ATOM      1  C2  UNL d   1      -1.181  -1.514   3.049  0.00  0.00    -0.073 A 
ATOM      2  C3  UNL d   1      -0.413  -0.512   3.654  0.00  0.00    -0.002 A 
ATOM      3  C4  UNL d   1       0.981  -0.568   3.608  0.00  0.00     0.004 A 
ATOM      4  C5  UNL d   1       1.620  -1.620   2.952  0.00  0.00    -0.004 A 
ATOM      5  C6  UNL d   1       0.870  -2.624   2.331  0.00  0.00    -0.075 A 
ATOM      6  C7  UNL d   1       1.542  -3.764   1.624  0.00  0.00     0.076 C 
ATOM      7  C8  UNL d   1      -0.529  -2.562   2.384  0.00  0.00     0.001 A 
ENDROOT
BRANCH   1   8
ATOM      8  C1  UNL d   1      -2.686  -1.454   3.091  0.00  0.00     0.053 C 
ATOM      9  C   UNL d   1      -3.196  -0.031   3.250  0.00  0.00     0.018 C 
ENDBRANCH   1   8
TORSDOF 1
ENDMDL
