MODEL 1
REMARK minimizedAffinity 5.41025972
REMARK minimizedRMSD -1
REMARK  1 active torsions:
REMARK  status: ('A' for Active; 'I' for Inactive)
REMARK    1  A    between atoms: C1_2  and  C2_3 
ROOT
ATOM      1  C2  UNL d   1       3.121  -3.954   1.383  0.00  0.00    -0.073 A 
ATOM      2  C3  UNL d   1       2.470  -4.968   2.094  0.00  0.00    -0.002 A 
ATOM      3  C4  UNL d   1       1.168  -4.778   2.560  0.00  0.00     0.004 A 
ATOM      4  C5  UNL d   1       0.503  -3.577   2.313  0.00  0.00    -0.004 A 
ATOM      5  C6  UNL d   1       1.132  -2.556   1.594  0.00  0.00    -0.075 A 
ATOM      6  C7  UNL d   1       0.431  -1.258   1.323  0.00  0.00     0.076 C 
ATOM      7  C8  UNL d   1       2.441  -2.753   1.132  0.00  0.00     0.001 A 
ENDROOT
BRANCH   1   8
ATOM      8  C1  UNL d   1       4.525  -4.156   0.873  0.00  0.00     0.053 C 
ATOM      9  C   UNL d   1       5.387  -2.919   1.070  0.00  0.00     0.018 C 
ENDBRANCH   1   8
TORSDOF 1
ENDMDL
