MODEL 1
REMARK minimizedAffinity 4.28688431
REMARK minimizedRMSD -1
REMARK  1 active torsions:
REMARK  status: ('A' for Active; 'I' for Inactive)
REMARK    1  A    between atoms: C1_2  and  C2_3 
ROOT
ATOM      1  C2  UNL d   1       1.564  -3.094   1.890  0.00  0.00    -0.073 A 
ATOM      2  C3  UNL d   1       1.168  -4.429   1.746  0.00  0.00    -0.002 A 
ATOM      3  C4  UNL d   1      -0.090  -4.843   2.187  0.00  0.00     0.004 A 
ATOM      4  C5  UNL d   1      -0.966  -3.927   2.769  0.00  0.00    -0.004 A 
ATOM      5  C6  UNL d   1      -0.593  -2.586   2.911  0.00  0.00    -0.075 A 
ATOM      6  C7  UNL d   1      -1.523  -1.589   3.537  0.00  0.00     0.076 C 
ATOM      7  C8  UNL d   1       0.672  -2.179   2.468  0.00  0.00     0.001 A 
ENDROOT
BRANCH   1   8
ATOM      8  C1  UNL d   1       2.918  -2.641   1.409  0.00  0.00     0.053 C 
ATOM      9  C   UNL d   1       3.959  -3.744   1.515  0.00  0.00     0.018 C 
ENDBRANCH   1   8
TORSDOF 1
ENDMDL
