MODEL 1
REMARK minimizedAffinity -3.63844609
REMARK minimizedRMSD -1
REMARK  1 active torsions:
REMARK  status: ('A' for Active; 'I' for Inactive)
REMARK    1  A    between atoms: C1_2  and  C2_3 
ROOT
ATOM      1  C2  UNL d   1      -4.731  -2.065   3.654  0.00  0.00    -0.077 A 
ATOM      2  C3  UNL d   1      -4.208  -1.610   4.873  0.00  0.00     0.002 A 
ATOM      3  C4  UNL d   1      -3.228  -0.616   4.895  0.00  0.00     0.002 A 
ATOM      4  C5  UNL d   1      -2.766  -0.065   3.702  0.00  0.00    -0.004 A 
ATOM      5  C6  UNL d   1      -3.278  -0.511   2.484  0.00  0.00     0.002 A 
ATOM      6  C7  UNL d   1      -4.256  -1.506   2.460  0.00  0.00     0.002 A 
ENDROOT
BRANCH   1   7
ATOM      7  C1  UNL d   1      -5.823  -3.102   3.630  0.00  0.00     0.055 C 
ATOM      8  C   UNL d   1      -5.353  -4.385   2.960  0.00  0.00     0.019 C 
ENDBRANCH   1   7
TORSDOF 1
ENDMDL
