MODEL 1
REMARK minimizedAffinity -5.42188454
REMARK minimizedRMSD -1
REMARK  1 active torsions:
REMARK  status: ('A' for Active; 'I' for Inactive)
REMARK    1  A    between atoms: C1_2  and  C2_3 
ROOT
ATOM      1  C2  UNL d   1      -3.665  -0.981   2.756  0.00  0.00    -0.077 A 
ATOM      2  C3  UNL d   1      -2.976  -0.468   1.647  0.00  0.00     0.002 A 
ATOM      3  C4  UNL d   1      -2.138   0.639   1.787  0.00  0.00     0.002 A 
ATOM      4  C5  UNL d   1      -1.977   1.241   3.034  0.00  0.00    -0.004 A 
ATOM      5  C6  UNL d   1      -2.660   0.740   4.142  0.00  0.00     0.002 A 
ATOM      6  C7  UNL d   1      -3.499  -0.367   4.004  0.00  0.00     0.002 A 
ENDROOT
BRANCH   1   7
ATOM      7  C1  UNL d   1      -4.531  -2.206   2.617  0.00  0.00     0.055 C 
ATOM      8  C   UNL d   1      -5.957  -1.930   3.072  0.00  0.00     0.019 C 
ENDBRANCH   1   7
TORSDOF 1
ENDMDL
