MODEL 1
REMARK minimizedAffinity -3.71854401
REMARK minimizedRMSD -1
REMARK  1 active torsions:
REMARK  status: ('A' for Active; 'I' for Inactive)
REMARK    1  A    between atoms: C1_2  and  C2_3 
ROOT
ATOM      1  C2  UNL d   1      -1.564   0.371   1.303  0.00  0.00    -0.077 A 
ATOM      2  C3  UNL d   1      -1.200   1.506   2.042  0.00  0.00     0.002 A 
ATOM      3  C4  UNL d   1      -1.552   1.614   3.389  0.00  0.00     0.002 A 
ATOM      4  C5  UNL d   1      -2.265   0.590   4.009  0.00  0.00    -0.004 A 
ATOM      5  C6  UNL d   1      -2.634  -0.541   3.281  0.00  0.00     0.002 A 
ATOM      6  C7  UNL d   1      -2.284  -0.650   1.935  0.00  0.00     0.002 A 
ENDROOT
BRANCH   1   7
ATOM      7  C1  UNL d   1      -1.143   0.231  -0.137  0.00  0.00     0.055 C 
ATOM      8  C   UNL d   1       0.358   0.010  -0.255  0.00  0.00     0.019 C 
ENDBRANCH   1   7
TORSDOF 1
ENDMDL
