MODEL 1
REMARK minimizedAffinity 7.20510864
REMARK minimizedRMSD -1
REMARK  1 active torsions:
REMARK  status: ('A' for Active; 'I' for Inactive)
REMARK    1  A    between atoms: C1_2  and  C2_3 
ROOT
ATOM      1  C2  UNL d   1       0.849  -0.995  -1.234  0.00  0.00    -0.077 A 
ATOM      2  C3  UNL d   1      -0.361  -0.568  -0.671  0.00  0.00     0.002 A 
ATOM      3  C4  UNL d   1      -1.508  -1.357  -0.777  0.00  0.00     0.002 A 
ATOM      4  C5  UNL d   1      -1.454  -2.581  -1.442  0.00  0.00    -0.004 A 
ATOM      5  C6  UNL d   1      -0.255  -3.014  -2.007  0.00  0.00     0.002 A 
ATOM      6  C7  UNL d   1       0.891  -2.225  -1.903  0.00  0.00     0.002 A 
ENDROOT
BRANCH   1   7
ATOM      7  C1  UNL d   1       2.099  -0.168  -1.078  0.00  0.00     0.055 C 
ATOM      8  C   UNL d   1       2.031   1.100  -1.917  0.00  0.00     0.019 C 
ENDBRANCH   1   7
TORSDOF 1
ENDMDL
