MODEL 1
REMARK minimizedAffinity -3.77885413
REMARK minimizedRMSD -1
REMARK  1 active torsions:
REMARK  status: ('A' for Active; 'I' for Inactive)
REMARK    1  A    between atoms: C1_2  and  C2_3 
ROOT
ATOM      1  C2  UNL d   1       4.888   0.200   5.520  0.00  0.00    -0.077 A 
ATOM      2  C3  UNL d   1       3.776   0.913   5.050  0.00  0.00     0.002 A 
ATOM      3  C4  UNL d   1       3.778   2.309   5.056  0.00  0.00     0.002 A 
ATOM      4  C5  UNL d   1       4.890   3.003   5.528  0.00  0.00    -0.004 A 
ATOM      5  C6  UNL d   1       6.000   2.303   6.000  0.00  0.00     0.002 A 
ATOM      6  C7  UNL d   1       5.999   0.908   5.995  0.00  0.00     0.002 A 
ENDROOT
BRANCH   1   7
ATOM      7  C1  UNL d   1       4.907  -1.306   5.468  0.00  0.00     0.055 C 
ATOM      8  C   UNL d   1       5.773  -1.809   4.323  0.00  0.00     0.019 C 
ENDBRANCH   1   7
TORSDOF 1
ENDMDL
