MODEL 1
REMARK minimizedAffinity -4.14497232
REMARK minimizedRMSD -1
REMARK  1 active torsions:
REMARK  status: ('A' for Active; 'I' for Inactive)
REMARK    1  A    between atoms: C1_2  and  C2_3 
ROOT
ATOM      1  C2  UNL d   1       0.793  -0.231  -0.514  0.00  0.00    -0.077 A 
ATOM      2  C3  UNL d   1      -0.236   0.658  -0.854  0.00  0.00     0.002 A 
ATOM      3  C4  UNL d   1      -0.029   2.037  -0.785  0.00  0.00     0.002 A 
ATOM      4  C5  UNL d   1       1.206   2.539  -0.382  0.00  0.00    -0.004 A 
ATOM      5  C6  UNL d   1       2.236   1.662  -0.040  0.00  0.00     0.002 A 
ATOM      6  C7  UNL d   1       2.030   0.284  -0.106  0.00  0.00     0.002 A 
ENDROOT
BRANCH   1   7
ATOM      7  C1  UNL d   1       0.587  -1.719  -0.634  0.00  0.00     0.055 C 
ATOM      8  C   UNL d   1       1.447  -2.309  -1.742  0.00  0.00     0.019 C 
ENDBRANCH   1   7
TORSDOF 1
ENDMDL
