MODEL 1
REMARK minimizedAffinity -2.30500746
REMARK minimizedRMSD -1
REMARK  1 active torsions:
REMARK  status: ('A' for Active; 'I' for Inactive)
REMARK    1  A    between atoms: C1_2  and  C2_3 
ROOT
ATOM      1  C2  UNL d   1       0.847  -0.199  -0.648  0.00  0.00    -0.077 A 
ATOM      2  C3  UNL d   1      -0.219  -0.801   0.036  0.00  0.00     0.002 A 
ATOM      3  C4  UNL d   1      -1.379  -0.076   0.316  0.00  0.00     0.002 A 
ATOM      4  C5  UNL d   1      -1.485   1.253  -0.088  0.00  0.00    -0.004 A 
ATOM      5  C6  UNL d   1      -0.430   1.862  -0.766  0.00  0.00     0.002 A 
ATOM      6  C7  UNL d   1       0.730   1.139  -1.046  0.00  0.00     0.002 A 
ENDROOT
BRANCH   1   7
ATOM      7  C1  UNL d   1       2.078  -0.994  -0.993  0.00  0.00     0.055 C 
ATOM      8  C   UNL d   1       1.720  -2.405  -1.437  0.00  0.00     0.019 C 
ENDBRANCH   1   7
TORSDOF 1
ENDMDL
