MODEL 1
REMARK minimizedAffinity -3.84679627
REMARK minimizedRMSD -1
REMARK  1 active torsions:
REMARK  status: ('A' for Active; 'I' for Inactive)
REMARK    1  A    between atoms: C1_2  and  C2_3 
ROOT
ATOM      1  C2  UNL d   1       0.305  -0.033  -0.472  0.00  0.00    -0.077 A 
ATOM      2  C3  UNL d   1       1.349   0.826  -0.844  0.00  0.00     0.002 A 
ATOM      3  C4  UNL d   1       2.506   0.317  -1.435  0.00  0.00     0.002 A 
ATOM      4  C5  UNL d   1       2.630  -1.052  -1.662  0.00  0.00    -0.004 A 
ATOM      5  C6  UNL d   1       1.599  -1.915  -1.294  0.00  0.00     0.002 A 
ATOM      6  C7  UNL d   1       0.441  -1.408  -0.702  0.00  0.00     0.002 A 
ENDROOT
BRANCH   1   7
ATOM      7  C1  UNL d   1      -0.965   0.520   0.120  0.00  0.00     0.055 C 
ATOM      8  C   UNL d   1      -1.566   1.599  -0.768  0.00  0.00     0.019 C 
ENDBRANCH   1   7
TORSDOF 1
ENDMDL
