MODEL 1
REMARK minimizedAffinity 1.78542042
REMARK minimizedRMSD -1
REMARK  0 active torsions:
REMARK  status: ('A' for Active; 'I' for Inactive)
ROOT
ATOM      1  C1  BNZ d   1       2.912   0.994   1.344  0.00  0.00     0.000 A 
ATOM      2  C2  BNZ d   1       2.576  -0.290   1.682  0.00  0.00     0.000 A 
ATOM      3  C3  BNZ d   1       2.269  -0.616   2.973  0.00  0.00     0.000 A 
ATOM      4  C4  BNZ d   1       2.336   0.332   3.930  0.00  0.00     0.000 A 
ATOM      5  C5  BNZ d   1       2.681   1.629   3.607  0.00  0.00     0.000 A 
ATOM      6  C6  BNZ d   1       2.952   1.962   2.300  0.00  0.00     0.000 A 
ENDROOT
TORSDOF 0
ENDMDL
