MODEL 1
REMARK minimizedAffinity 5.19185925
REMARK minimizedRMSD -1
REMARK  0 active torsions:
REMARK  status: ('A' for Active; 'I' for Inactive)
ROOT
ATOM      1  C1  BNZ d   1      -3.029   3.285   1.423  0.00  0.00     0.000 A 
ATOM      2  C2  BNZ d   1      -4.305   3.474   1.884  0.00  0.00     0.000 A 
ATOM      3  C3  BNZ d   1      -5.253   4.063   1.096  0.00  0.00     0.000 A 
ATOM      4  C4  BNZ d   1      -4.916   4.499  -0.135  0.00  0.00     0.000 A 
ATOM      5  C5  BNZ d   1      -3.631   4.324  -0.610  0.00  0.00     0.000 A 
ATOM      6  C6  BNZ d   1      -2.689   3.696   0.171  0.00  0.00     0.000 A 
ENDROOT
TORSDOF 0
ENDMDL
