MODEL 1
REMARK minimizedAffinity -1.72421706
REMARK minimizedRMSD -1
REMARK  0 active torsions:
REMARK  status: ('A' for Active; 'I' for Inactive)
ROOT
ATOM      1  C1  BNZ d   1      -0.834  -3.213  -1.601  0.00  0.00     0.000 A 
ATOM      2  C2  BNZ d   1       0.423  -3.578  -1.199  0.00  0.00     0.000 A 
ATOM      3  C3  BNZ d   1       0.978  -3.048  -0.068  0.00  0.00     0.000 A 
ATOM      4  C4  BNZ d   1       0.291  -2.126   0.638  0.00  0.00     0.000 A 
ATOM      5  C5  BNZ d   1      -0.974  -1.741   0.241  0.00  0.00     0.000 A 
ATOM      6  C6  BNZ d   1      -1.544  -2.305  -0.877  0.00  0.00     0.000 A 
ENDROOT
TORSDOF 0
ENDMDL
