MODEL 1
REMARK minimizedAffinity -1.82483077
REMARK minimizedRMSD -1
REMARK  0 active torsions:
REMARK  status: ('A' for Active; 'I' for Inactive)
ROOT
ATOM      1  C1  BNZ d   1      -0.574  -1.840   0.054  0.00  0.00     0.000 A 
ATOM      2  C2  BNZ d   1      -1.214  -1.903  -1.155  0.00  0.00     0.000 A 
ATOM      3  C3  BNZ d   1      -0.866  -2.844  -2.083  0.00  0.00     0.000 A 
ATOM      4  C4  BNZ d   1       0.147  -3.694  -1.818  0.00  0.00     0.000 A 
ATOM      5  C5  BNZ d   1       0.808  -3.637  -0.608  0.00  0.00     0.000 A 
ATOM      6  C6  BNZ d   1       0.429  -2.714   0.340  0.00  0.00     0.000 A 
ENDROOT
TORSDOF 0
ENDMDL
