MODEL 1
REMARK minimizedAffinity 1.09517515
REMARK minimizedRMSD -1
REMARK  0 active torsions:
REMARK  status: ('A' for Active; 'I' for Inactive)
ROOT
ATOM      1  C1  BNZ d   1      -0.022  -3.761  -1.141  0.00  0.00     0.000 A 
ATOM      2  C2  BNZ d   1       0.533  -3.239  -0.004  0.00  0.00     0.000 A 
ATOM      3  C3  BNZ d   1      -0.077  -2.216   0.667  0.00  0.00     0.000 A 
ATOM      4  C4  BNZ d   1      -1.219  -1.690   0.179  0.00  0.00     0.000 A 
ATOM      5  C5  BNZ d   1      -1.787  -2.200  -0.972  0.00  0.00     0.000 A 
ATOM      6  C6  BNZ d   1      -1.190  -3.255  -1.623  0.00  0.00     0.000 A 
ENDROOT
TORSDOF 0
ENDMDL
