MODEL 1
REMARK minimizedAffinity -0.307849407
REMARK minimizedRMSD -1
REMARK  0 active torsions:
REMARK  status: ('A' for Active; 'I' for Inactive)
ROOT
ATOM      1  C1  BNZ d   1       2.440   1.585   4.048  0.00  0.00     0.000 A 
ATOM      2  C2  BNZ d   1       2.090   0.330   4.471  0.00  0.00     0.000 A 
ATOM      3  C3  BNZ d   1       1.935  -0.692   3.576  0.00  0.00     0.000 A 
ATOM      4  C4  BNZ d   1       2.089  -0.449   2.259  0.00  0.00     0.000 A 
ATOM      5  C5  BNZ d   1       2.433   0.813   1.816  0.00  0.00     0.000 A 
ATOM      6  C6  BNZ d   1       2.627   1.830   2.722  0.00  0.00     0.000 A 
ENDROOT
TORSDOF 0
ENDMDL
