MODEL 1
REMARK minimizedAffinity -3.87734056
REMARK minimizedRMSD -1
REMARK  0 active torsions:
REMARK  status: ('A' for Active; 'I' for Inactive)
ROOT
ATOM      1  C1  BNZ d   1      -1.785  -2.216  -0.373  0.00  0.00     0.000 A 
ATOM      2  C2  BNZ d   1      -1.044  -3.188  -0.992  0.00  0.00     0.000 A 
ATOM      3  C3  BNZ d   1       0.169  -3.568  -0.491  0.00  0.00     0.000 A 
ATOM      4  C4  BNZ d   1       0.658  -2.950   0.603  0.00  0.00     0.000 A 
ATOM      5  C5  BNZ d   1      -0.072  -1.962   1.233  0.00  0.00     0.000 A 
ATOM      6  C6  BNZ d   1      -1.311  -1.609   0.749  0.00  0.00     0.000 A 
ENDROOT
TORSDOF 0
ENDMDL
