MODEL 1
REMARK minimizedAffinity -0.0796967149
REMARK minimizedRMSD -1
REMARK  0 active torsions:
REMARK  status: ('A' for Active; 'I' for Inactive)
ROOT
ATOM      1  C1  BNZ d   1       6.000   0.417  -4.042  0.00  0.00     0.000 A 
ATOM      2  C2  BNZ d   1       5.094  -0.605  -4.150  0.00  0.00     0.000 A 
ATOM      3  C3  BNZ d   1       4.154  -0.605  -5.142  0.00  0.00     0.000 A 
ATOM      4  C4  BNZ d   1       4.095   0.434  -6.000  0.00  0.00     0.000 A 
ATOM      5  C5  BNZ d   1       4.995   1.476  -5.899  0.00  0.00     0.000 A 
ATOM      6  C6  BNZ d   1       5.965   1.454  -4.923  0.00  0.00     0.000 A 
ENDROOT
TORSDOF 0
ENDMDL
