MODEL 1
REMARK minimizedAffinity -5.56279421
REMARK minimizedRMSD -1
REMARK  0 active torsions:
REMARK  status: ('A' for Active; 'I' for Inactive)
ROOT
ATOM      1  C   UNL d   1       0.349  -2.089   1.307  0.00  0.00     0.077 C 
ATOM      2  C1  UNL d   1      -0.833  -1.351   0.752  0.00  0.00    -0.074 A 
ATOM      3  C2  UNL d   1      -2.004  -1.202   1.501  0.00  0.00    -0.005 A 
ATOM      4  C3  UNL d   1      -3.092  -0.505   0.975  0.00  0.00     0.006 A 
ATOM      5  C4  UNL d   1      -3.020   0.048  -0.304  0.00  0.00    -0.005 A 
ATOM      6  C5  UNL d   1      -1.856  -0.090  -1.068  0.00  0.00    -0.074 A 
ATOM      7  C6  UNL d   1      -1.758   0.508  -2.440  0.00  0.00     0.077 C 
ATOM      8  C7  UNL d   1      -0.765  -0.785  -0.529  0.00  0.00    -0.001 A 
ENDROOT
TORSDOF 0
ENDMDL
