MODEL 1
REMARK minimizedAffinity -4.06227684
REMARK minimizedRMSD -1
REMARK  0 active torsions:
REMARK  status: ('A' for Active; 'I' for Inactive)
ROOT
ATOM      1  C   UNL d   1       1.497   0.470   0.389  0.00  0.00     0.077 C 
ATOM      2  C1  UNL d   1       0.115  -0.008   0.055  0.00  0.00    -0.074 A 
ATOM      3  C2  UNL d   1      -0.554   0.461  -1.080  0.00  0.00    -0.005 A 
ATOM      4  C3  UNL d   1      -1.835   0.000  -1.382  0.00  0.00     0.006 A 
ATOM      5  C4  UNL d   1      -2.460  -0.932  -0.554  0.00  0.00    -0.005 A 
ATOM      6  C5  UNL d   1      -1.807  -1.414   0.585  0.00  0.00    -0.074 A 
ATOM      7  C6  UNL d   1      -2.460  -2.424   1.481  0.00  0.00     0.077 C 
ATOM      8  C7  UNL d   1      -0.517  -0.951   0.878  0.00  0.00    -0.001 A 
ENDROOT
TORSDOF 0
ENDMDL
