MODEL 1
REMARK minimizedAffinity 2.24897885
REMARK minimizedRMSD -1
REMARK  0 active torsions:
REMARK  status: ('A' for Active; 'I' for Inactive)
ROOT
ATOM      1  C   UNL d   1      -0.903   0.324  -1.258  0.00  0.00     0.077 C 
ATOM      2  C1  UNL d   1      -0.415  -0.162   0.074  0.00  0.00    -0.074 A 
ATOM      3  C2  UNL d   1      -0.349  -1.529   0.361  0.00  0.00    -0.005 A 
ATOM      4  C3  UNL d   1       0.116  -1.966   1.601  0.00  0.00     0.006 A 
ATOM      5  C4  UNL d   1       0.519  -1.042   2.566  0.00  0.00    -0.005 A 
ATOM      6  C5  UNL d   1       0.462   0.329   2.297  0.00  0.00    -0.074 A 
ATOM      7  C6  UNL d   1       0.901   1.336   3.319  0.00  0.00     0.077 C 
ATOM      8  C7  UNL d   1      -0.000   0.760   1.046  0.00  0.00    -0.001 A 
ENDROOT
TORSDOF 0
ENDMDL
