MODEL 1
REMARK minimizedAffinity -2.46145201
REMARK minimizedRMSD -1
REMARK  0 active torsions:
REMARK  status: ('A' for Active; 'I' for Inactive)
ROOT
ATOM      1  C   UNL d   1       1.814   1.827   1.926  0.00  0.00     0.077 C 
ATOM      2  C1  UNL d   1       1.058   0.814   1.119  0.00  0.00    -0.074 A 
ATOM      3  C2  UNL d   1       1.001  -0.526   1.518  0.00  0.00    -0.005 A 
ATOM      4  C3  UNL d   1       0.286  -1.454   0.761  0.00  0.00     0.006 A 
ATOM      5  C4  UNL d   1      -0.377  -1.054  -0.399  0.00  0.00    -0.005 A 
ATOM      6  C5  UNL d   1      -0.332   0.281  -0.813  0.00  0.00    -0.074 A 
ATOM      7  C6  UNL d   1      -1.048   0.730  -2.052  0.00  0.00     0.077 C 
ATOM      8  C7  UNL d   1       0.383   1.210  -0.044  0.00  0.00    -0.001 A 
ENDROOT
TORSDOF 0
ENDMDL
