MODEL 1
REMARK minimizedAffinity 0.583025098
REMARK minimizedRMSD -1
REMARK  0 active torsions:
REMARK  status: ('A' for Active; 'I' for Inactive)
ROOT
ATOM      1  C   UNL d   1       2.673   2.022  -0.168  0.00  0.00     0.077 C 
ATOM      2  C1  UNL d   1       1.519   1.067  -0.235  0.00  0.00    -0.074 A 
ATOM      3  C2  UNL d   1       0.551   1.177  -1.239  0.00  0.00    -0.005 A 
ATOM      4  C3  UNL d   1      -0.511   0.276  -1.294  0.00  0.00     0.006 A 
ATOM      5  C4  UNL d   1      -0.618  -0.744  -0.347  0.00  0.00    -0.005 A 
ATOM      6  C5  UNL d   1       0.340  -0.871   0.664  0.00  0.00    -0.074 A 
ATOM      7  C6  UNL d   1       0.247  -1.967   1.683  0.00  0.00     0.077 C 
ATOM      8  C7  UNL d   1       1.409   0.035   0.708  0.00  0.00    -0.001 A 
ENDROOT
TORSDOF 0
ENDMDL
