MODEL 1
REMARK minimizedAffinity 0.154268667
REMARK minimizedRMSD -1
REMARK  0 active torsions:
REMARK  status: ('A' for Active; 'I' for Inactive)
ROOT
ATOM      1  C   UNL d   1      -0.048   0.612  -2.579  0.00  0.00     0.077 C 
ATOM      2  C1  UNL d   1       0.188   0.425  -1.110  0.00  0.00    -0.074 A 
ATOM      3  C2  UNL d   1      -0.316  -0.694  -0.438  0.00  0.00    -0.005 A 
ATOM      4  C3  UNL d   1      -0.080  -0.859   0.927  0.00  0.00     0.006 A 
ATOM      5  C4  UNL d   1       0.661   0.090   1.632  0.00  0.00    -0.005 A 
ATOM      6  C5  UNL d   1       1.173   1.214   0.977  0.00  0.00    -0.074 A 
ATOM      7  C6  UNL d   1       1.980   2.238   1.718  0.00  0.00     0.077 C 
ATOM      8  C7  UNL d   1       0.938   1.370  -0.396  0.00  0.00    -0.001 A 
ENDROOT
TORSDOF 0
ENDMDL
