MODEL 1
REMARK minimizedAffinity 1.32864809
REMARK minimizedRMSD -1
REMARK  0 active torsions:
REMARK  status: ('A' for Active; 'I' for Inactive)
ROOT
ATOM      1  C   UNL d   1      -2.279   1.558  -2.564  0.00  0.00     0.077 C 
ATOM      2  C1  UNL d   1      -2.309   0.370  -1.649  0.00  0.00    -0.074 A 
ATOM      3  C2  UNL d   1      -1.152  -0.376  -1.402  0.00  0.00    -0.005 A 
ATOM      4  C3  UNL d   1      -1.193  -1.473  -0.541  0.00  0.00     0.006 A 
ATOM      5  C4  UNL d   1      -2.389  -1.833   0.082  0.00  0.00    -0.005 A 
ATOM      6  C5  UNL d   1      -3.555  -1.098  -0.152  0.00  0.00    -0.074 A 
ATOM      7  C6  UNL d   1      -4.847  -1.466   0.516  0.00  0.00     0.077 C 
ATOM      8  C7  UNL d   1      -3.504   0.007  -1.014  0.00  0.00    -0.001 A 
ENDROOT
TORSDOF 0
ENDMDL
