MODEL 1
REMARK minimizedAffinity 3.22528481
REMARK minimizedRMSD -1
REMARK  0 active torsions:
REMARK  status: ('A' for Active; 'I' for Inactive)
ROOT
ATOM      1  C   UNL d   1      -0.724   0.097  -2.423  0.00  0.00     0.077 C 
ATOM      2  C1  UNL d   1      -0.831  -0.525  -1.063  0.00  0.00    -0.074 A 
ATOM      3  C2  UNL d   1      -2.061  -0.974  -0.573  0.00  0.00    -0.005 A 
ATOM      4  C3  UNL d   1      -2.143  -1.559   0.691  0.00  0.00     0.006 A 
ATOM      5  C4  UNL d   1      -0.998  -1.700   1.476  0.00  0.00    -0.005 A 
ATOM      6  C5  UNL d   1       0.241  -1.257   1.002  0.00  0.00    -0.074 A 
ATOM      7  C6  UNL d   1       1.483  -1.410   1.829  0.00  0.00     0.077 C 
ATOM      8  C7  UNL d   1       0.317  -0.677  -0.272  0.00  0.00    -0.001 A 
ENDROOT
TORSDOF 0
ENDMDL
