MODEL 1
REMARK minimizedAffinity 3.34196281
REMARK minimizedRMSD -1
REMARK  0 active torsions:
REMARK  status: ('A' for Active; 'I' for Inactive)
ROOT
ATOM      1  C   UNL d   1       0.073   1.742   2.383  0.00  0.00     0.077 C 
ATOM      2  C1  UNL d   1       1.450   2.153   1.955  0.00  0.00    -0.074 A 
ATOM      3  C2  UNL d   1       2.469   2.339   2.895  0.00  0.00    -0.005 A 
ATOM      4  C3  UNL d   1       3.748   2.712   2.481  0.00  0.00     0.006 A 
ATOM      5  C4  UNL d   1       4.021   2.902   1.126  0.00  0.00    -0.005 A 
ATOM      6  C5  UNL d   1       3.015   2.719   0.172  0.00  0.00    -0.074 A 
ATOM      7  C6  UNL d   1       3.294   2.909  -1.290  0.00  0.00     0.077 C 
ATOM      8  C7  UNL d   1       1.734   2.337   0.595  0.00  0.00    -0.001 A 
ENDROOT
TORSDOF 0
ENDMDL
