MODEL 1
REMARK minimizedAffinity 1.00613654
REMARK minimizedRMSD -1
REMARK  0 active torsions:
REMARK  status: ('A' for Active; 'I' for Inactive)
ROOT
ATOM      1  C   UNL d   1       1.113  -1.959   1.887  0.00  0.00     0.077 C 
ATOM      2  C1  UNL d   1       0.829  -0.518   2.190  0.00  0.00    -0.074 A 
ATOM      3  C2  UNL d   1      -0.466  -0.091   2.502  0.00  0.00    -0.005 A 
ATOM      4  C3  UNL d   1      -0.713   1.251   2.791  0.00  0.00     0.006 A 
ATOM      5  C4  UNL d   1       0.330   2.178   2.772  0.00  0.00    -0.005 A 
ATOM      6  C5  UNL d   1       1.631   1.769   2.463  0.00  0.00    -0.074 A 
ATOM      7  C6  UNL d   1       2.765   2.750   2.448  0.00  0.00     0.077 C 
ATOM      8  C7  UNL d   1       1.873   0.417   2.181  0.00  0.00    -0.001 A 
ENDROOT
TORSDOF 0
ENDMDL
