MODEL 1
REMARK minimizedAffinity 8.1175499
REMARK minimizedRMSD -1
REMARK  0 active torsions:
REMARK  status: ('A' for Active; 'I' for Inactive)
ROOT
ATOM      1  C   UNL d   1       1.580  -0.571   0.625  0.00  0.00     0.077 C 
ATOM      2  C1  UNL d   1       2.105   0.828   0.496  0.00  0.00    -0.074 A 
ATOM      3  C2  UNL d   1       1.943   1.755   1.531  0.00  0.00    -0.005 A 
ATOM      4  C3  UNL d   1       2.446   3.049   1.400  0.00  0.00     0.006 A 
ATOM      5  C4  UNL d   1       3.113   3.430   0.235  0.00  0.00    -0.005 A 
ATOM      6  C5  UNL d   1       3.285   2.516  -0.810  0.00  0.00    -0.074 A 
ATOM      7  C6  UNL d   1       4.009   2.906  -2.064  0.00  0.00     0.077 C 
ATOM      8  C7  UNL d   1       2.784   1.215  -0.668  0.00  0.00    -0.001 A 
ENDROOT
TORSDOF 0
ENDMDL
