MODEL 1
REMARK minimizedAffinity -0.947897851
REMARK minimizedRMSD -1
REMARK  0 active torsions:
REMARK  status: ('A' for Active; 'I' for Inactive)
ROOT
ATOM      1  C   UNL d   1       5.999   3.363  -3.093  0.00  0.00     0.077 C 
ATOM      2  C1  UNL d   1       4.716   3.383  -2.316  0.00  0.00    -0.074 A 
ATOM      3  C2  UNL d   1       3.481   3.288  -2.964  0.00  0.00    -0.005 A 
ATOM      4  C3  UNL d   1       2.297   3.299  -2.227  0.00  0.00     0.006 A 
ATOM      5  C4  UNL d   1       2.336   3.405  -0.837  0.00  0.00    -0.005 A 
ATOM      6  C5  UNL d   1       3.562   3.501  -0.171  0.00  0.00    -0.074 A 
ATOM      7  C6  UNL d   1       3.622   3.606   1.324  0.00  0.00     0.077 C 
ATOM      8  C7  UNL d   1       4.748   3.482  -0.918  0.00  0.00    -0.001 A 
ENDROOT
TORSDOF 0
ENDMDL
