MODEL 1
REMARK minimizedAffinity 2.70231581
REMARK minimizedRMSD -1
REMARK  0 active torsions:
REMARK  status: ('A' for Active; 'I' for Inactive)
ROOT
ATOM      1  C   UNL d   1      -1.812  -1.295  -1.102  0.00  0.00     0.077 C 
ATOM      2  C1  UNL d   1      -1.808  -0.058  -1.949  0.00  0.00    -0.074 A 
ATOM      3  C2  UNL d   1      -2.945   0.750  -2.047  0.00  0.00    -0.005 A 
ATOM      4  C3  UNL d   1      -2.924   1.903  -2.832  0.00  0.00     0.006 A 
ATOM      5  C4  UNL d   1      -1.767   2.260  -3.525  0.00  0.00    -0.005 A 
ATOM      6  C5  UNL d   1      -0.619   1.465  -3.438  0.00  0.00    -0.074 A 
ATOM      7  C6  UNL d   1       0.636   1.839  -4.169  0.00  0.00     0.077 C 
ATOM      8  C7  UNL d   1      -0.646   0.311  -2.642  0.00  0.00    -0.001 A 
ENDROOT
TORSDOF 0
ENDMDL
