MODEL 1
REMARK minimizedAffinity 6.05018806
REMARK minimizedRMSD -1
REMARK  0 active torsions:
REMARK  status: ('A' for Active; 'I' for Inactive)
ROOT
ATOM      1  C   UNL d   1      -1.501  -2.347  -0.353  0.00  0.00     0.077 C 
ATOM      2  C1  UNL d   1      -1.926  -1.062  -1.000  0.00  0.00    -0.074 A 
ATOM      3  C2  UNL d   1      -3.160  -0.479  -0.697  0.00  0.00    -0.005 A 
ATOM      4  C3  UNL d   1      -3.537   0.722  -1.299  0.00  0.00     0.006 A 
ATOM      5  C4  UNL d   1      -2.685   1.350  -2.208  0.00  0.00    -0.005 A 
ATOM      6  C5  UNL d   1      -1.447   0.782  -2.522  0.00  0.00    -0.074 A 
ATOM      7  C6  UNL d   1      -0.515   1.450  -3.490  0.00  0.00     0.077 C 
ATOM      8  C7  UNL d   1      -1.072  -0.420  -1.908  0.00  0.00    -0.001 A 
ENDROOT
TORSDOF 0
ENDMDL
