MODEL 1
REMARK minimizedAffinity 4.50873566
REMARK minimizedRMSD -1
REMARK  0 active torsions:
REMARK  status: ('A' for Active; 'I' for Inactive)
ROOT
ATOM      1  C   UNL d   1       0.389   0.437  -3.114  0.00  0.00     0.077 C 
ATOM      2  C1  UNL d   1      -0.562  -0.052  -2.062  0.00  0.00    -0.074 A 
ATOM      3  C2  UNL d   1      -1.944  -0.020  -2.272  0.00  0.00    -0.005 A 
ATOM      4  C3  UNL d   1      -2.816  -0.487  -1.288  0.00  0.00     0.006 A 
ATOM      5  C4  UNL d   1      -2.315  -0.991  -0.087  0.00  0.00    -0.005 A 
ATOM      6  C5  UNL d   1      -0.936  -1.032   0.140  0.00  0.00    -0.074 A 
ATOM      7  C6  UNL d   1      -0.381  -1.580   1.421  0.00  0.00     0.077 C 
ATOM      8  C7  UNL d   1      -0.066  -0.567  -0.856  0.00  0.00    -0.001 A 
ENDROOT
TORSDOF 0
ENDMDL
