MODEL 1
REMARK minimizedAffinity -1.66077304
REMARK minimizedRMSD -1
REMARK  0 active torsions:
REMARK  status: ('A' for Active; 'I' for Inactive)
ROOT
ATOM      1  C   UNL d   1       1.128   2.644  -2.755  0.00  0.00     0.077 C 
ATOM      2  C1  UNL d   1       1.047   1.599  -1.682  0.00  0.00    -0.074 A 
ATOM      3  C2  UNL d   1       1.064   0.237  -2.002  0.00  0.00    -0.005 A 
ATOM      4  C3  UNL d   1       0.997  -0.723  -0.992  0.00  0.00     0.006 A 
ATOM      5  C4  UNL d   1       0.913  -0.332   0.344  0.00  0.00    -0.005 A 
ATOM      6  C5  UNL d   1       0.896   1.025   0.683  0.00  0.00    -0.074 A 
ATOM      7  C6  UNL d   1       0.816   1.462   2.116  0.00  0.00     0.077 C 
ATOM      8  C7  UNL d   1       0.970   1.983  -0.336  0.00  0.00    -0.001 A 
ENDROOT
TORSDOF 0
ENDMDL
