MODEL 1
REMARK minimizedAffinity 0.718820155
REMARK minimizedRMSD -1
REMARK  0 active torsions:
REMARK  status: ('A' for Active; 'I' for Inactive)
ROOT
ATOM      1  C   UNL d   1       1.072   4.012  -1.745  0.00  0.00     0.077 C 
ATOM      2  C1  UNL d   1       1.110   2.763  -0.917  0.00  0.00    -0.074 A 
ATOM      3  C2  UNL d   1       1.362   2.818   0.458  0.00  0.00    -0.005 A 
ATOM      4  C3  UNL d   1       1.385   1.648   1.217  0.00  0.00     0.006 A 
ATOM      5  C4  UNL d   1       1.157   0.413   0.610  0.00  0.00    -0.005 A 
ATOM      6  C5  UNL d   1       0.903   0.337  -0.763  0.00  0.00    -0.074 A 
ATOM      7  C6  UNL d   1       0.646  -0.982  -1.430  0.00  0.00     0.077 C 
ATOM      8  C7  UNL d   1       0.874   1.518  -1.518  0.00  0.00    -0.001 A 
ENDROOT
TORSDOF 0
ENDMDL
