MODEL 1
REMARK minimizedAffinity -1.72736192
REMARK minimizedRMSD -1
REMARK  0 active torsions:
REMARK  status: ('A' for Active; 'I' for Inactive)
ROOT
ATOM      1  C   UNL d   1       0.657   4.249  -0.699  0.00  0.00     0.077 C 
ATOM      2  C1  UNL d   1       0.922   2.788  -0.484  0.00  0.00    -0.074 A 
ATOM      3  C2  UNL d   1       0.947   2.244   0.805  0.00  0.00    -0.005 A 
ATOM      4  C3  UNL d   1       1.185   0.882   0.989  0.00  0.00     0.006 A 
ATOM      5  C4  UNL d   1       1.400   0.052  -0.112  0.00  0.00    -0.005 A 
ATOM      6  C5  UNL d   1       1.377   0.577  -1.408  0.00  0.00    -0.074 A 
ATOM      7  C6  UNL d   1       1.596  -0.303  -2.602  0.00  0.00     0.077 C 
ATOM      8  C7  UNL d   1       1.130   1.946  -1.585  0.00  0.00    -0.001 A 
ENDROOT
TORSDOF 0
ENDMDL
