MODEL 1
REMARK minimizedAffinity -2.69988585
REMARK minimizedRMSD -1
REMARK  0 active torsions:
REMARK  status: ('A' for Active; 'I' for Inactive)
ROOT
ATOM      1  C   UNL d   1       1.529  -1.607  -0.376  0.00  0.00     0.077 C 
ATOM      2  C1  UNL d   1       1.451  -0.152  -0.732  0.00  0.00    -0.074 A 
ATOM      3  C2  UNL d   1       1.758   0.290  -2.023  0.00  0.00    -0.005 A 
ATOM      4  C3  UNL d   1       1.672   1.646  -2.341  0.00  0.00     0.006 A 
ATOM      5  C4  UNL d   1       1.280   2.571  -1.373  0.00  0.00    -0.005 A 
ATOM      6  C5  UNL d   1       0.969   2.148  -0.077  0.00  0.00    -0.074 A 
ATOM      7  C6  UNL d   1       0.536   3.128   0.972  0.00  0.00     0.077 C 
ATOM      8  C7  UNL d   1       1.051   0.783   0.233  0.00  0.00    -0.001 A 
ENDROOT
TORSDOF 0
ENDMDL
