MODEL 1
REMARK minimizedAffinity 0.664093494
REMARK minimizedRMSD -1
REMARK  0 active torsions:
REMARK  status: ('A' for Active; 'I' for Inactive)
ROOT
ATOM      1  C   UNL d   1       1.137   4.281   1.270  0.00  0.00     0.077 C 
ATOM      2  C1  UNL d   1       1.046   3.355   0.093  0.00  0.00    -0.074 A 
ATOM      3  C2  UNL d   1       0.922   3.856  -1.207  0.00  0.00    -0.005 A 
ATOM      4  C3  UNL d   1       0.848   2.983  -2.292  0.00  0.00     0.006 A 
ATOM      5  C4  UNL d   1       0.898   1.603  -2.089  0.00  0.00    -0.005 A 
ATOM      6  C5  UNL d   1       1.022   1.085  -0.796  0.00  0.00    -0.074 A 
ATOM      7  C6  UNL d   1       1.086  -0.395  -0.561  0.00  0.00     0.077 C 
ATOM      8  C7  UNL d   1       1.103   1.968   0.289  0.00  0.00    -0.001 A 
ENDROOT
TORSDOF 0
ENDMDL
