MODEL 1
REMARK minimizedAffinity 10.6552057
REMARK minimizedRMSD -1
REMARK  0 active torsions:
REMARK  status: ('A' for Active; 'I' for Inactive)
ROOT
ATOM      1  C   UNL d   1       3.263   0.341   1.273  0.00  0.00     0.077 C 
ATOM      2  C1  UNL d   1       2.375   0.591   0.091  0.00  0.00    -0.074 A 
ATOM      3  C2  UNL d   1       1.839  -0.472  -0.643  0.00  0.00    -0.005 A 
ATOM      4  C3  UNL d   1       1.007  -0.224  -1.734  0.00  0.00     0.006 A 
ATOM      5  C4  UNL d   1       0.701   1.087  -2.102  0.00  0.00    -0.005 A 
ATOM      6  C5  UNL d   1       1.227   2.162  -1.379  0.00  0.00    -0.074 A 
ATOM      7  C6  UNL d   1       0.901   3.577  -1.755  0.00  0.00     0.077 C 
ATOM      8  C7  UNL d   1       2.057   1.905  -0.280  0.00  0.00    -0.001 A 
ENDROOT
TORSDOF 0
ENDMDL
