MODEL 1
REMARK minimizedAffinity 4.68066978
REMARK minimizedRMSD -1
REMARK  0 active torsions:
REMARK  status: ('A' for Active; 'I' for Inactive)
ROOT
ATOM      1  C   UNL d   1       3.864   0.003   0.665  0.00  0.00     0.077 C 
ATOM      2  C1  UNL d   1       2.570   0.450   0.052  0.00  0.00    -0.074 A 
ATOM      3  C2  UNL d   1       1.370  -0.205   0.348  0.00  0.00    -0.005 A 
ATOM      4  C3  UNL d   1       0.173   0.227  -0.222  0.00  0.00     0.006 A 
ATOM      5  C4  UNL d   1       0.164   1.317  -1.094  0.00  0.00    -0.005 A 
ATOM      6  C5  UNL d   1       1.353   1.985  -1.401  0.00  0.00    -0.074 A 
ATOM      7  C6  UNL d   1       1.359   3.164  -2.328  0.00  0.00     0.077 C 
ATOM      8  C7  UNL d   1       2.551   1.549  -0.819  0.00  0.00    -0.001 A 
ENDROOT
TORSDOF 0
ENDMDL
