MODEL 1
REMARK minimizedAffinity 2.82284212
REMARK minimizedRMSD -1
REMARK  0 active torsions:
REMARK  status: ('A' for Active; 'I' for Inactive)
ROOT
ATOM      1  C   UNL d   1      -3.273  -0.745   5.998  0.00  0.00     0.077 C 
ATOM      2  C1  UNL d   1      -2.876   0.383   5.094  0.00  0.00    -0.074 A 
ATOM      3  C2  UNL d   1      -1.897   1.304   5.481  0.00  0.00    -0.005 A 
ATOM      4  C3  UNL d   1      -1.531   2.343   4.625  0.00  0.00     0.006 A 
ATOM      5  C4  UNL d   1      -2.139   2.471   3.376  0.00  0.00    -0.005 A 
ATOM      6  C5  UNL d   1      -3.119   1.560   2.971  0.00  0.00    -0.074 A 
ATOM      7  C6  UNL d   1      -3.776   1.677   1.628  0.00  0.00     0.077 C 
ATOM      8  C7  UNL d   1      -3.476   0.514   3.834  0.00  0.00    -0.001 A 
ENDROOT
TORSDOF 0
ENDMDL
