MODEL 1
REMARK minimizedAffinity -2.91080856
REMARK minimizedRMSD -1
REMARK  0 active torsions:
REMARK  status: ('A' for Active; 'I' for Inactive)
ROOT
ATOM      1  C   UNL d   1       0.834   3.958   1.520  0.00  0.00     0.077 C 
ATOM      2  C1  UNL d   1       0.919   3.041   0.337  0.00  0.00    -0.074 A 
ATOM      3  C2  UNL d   1       1.177   3.541  -0.943  0.00  0.00    -0.005 A 
ATOM      4  C3  UNL d   1       1.263   2.675  -2.033  0.00  0.00     0.006 A 
ATOM      5  C4  UNL d   1       1.090   1.302  -1.854  0.00  0.00    -0.005 A 
ATOM      6  C5  UNL d   1       0.831   0.783  -0.582  0.00  0.00    -0.074 A 
ATOM      7  C6  UNL d   1       0.653  -0.691  -0.371  0.00  0.00     0.077 C 
ATOM      8  C7  UNL d   1       0.754   1.659   0.509  0.00  0.00    -0.001 A 
ENDROOT
TORSDOF 0
ENDMDL
