MODEL 1
REMARK minimizedAffinity 1.18924654
REMARK minimizedRMSD -1
REMARK  0 active torsions:
REMARK  status: ('A' for Active; 'I' for Inactive)
ROOT
ATOM      1  C   UNL d   1       0.940   2.555  -2.874  0.00  0.00     0.077 C 
ATOM      2  C1  UNL d   1       0.975   1.689  -1.650  0.00  0.00    -0.074 A 
ATOM      3  C2  UNL d   1       1.512   0.398  -1.698  0.00  0.00    -0.005 A 
ATOM      4  C3  UNL d   1       1.546  -0.392  -0.550  0.00  0.00     0.006 A 
ATOM      5  C4  UNL d   1       1.046   0.099   0.657  0.00  0.00    -0.005 A 
ATOM      6  C5  UNL d   1       0.507   1.388   0.724  0.00  0.00    -0.074 A 
ATOM      7  C6  UNL d   1      -0.027   1.935   2.015  0.00  0.00     0.077 C 
ATOM      8  C7  UNL d   1       0.482   2.179  -0.433  0.00  0.00    -0.001 A 
ENDROOT
TORSDOF 0
ENDMDL
