MODEL 1
REMARK minimizedAffinity 2.21732259
REMARK minimizedRMSD -1
REMARK  0 active torsions:
REMARK  status: ('A' for Active; 'I' for Inactive)
ROOT
ATOM      1  C   UNL d   1       0.853   3.821  -1.929  0.00  0.00     0.077 C 
ATOM      2  C1  UNL d   1       0.900   2.547  -1.138  0.00  0.00    -0.074 A 
ATOM      3  C2  UNL d   1       0.245   2.442   0.093  0.00  0.00    -0.005 A 
ATOM      4  C3  UNL d   1       0.289   1.248   0.813  0.00  0.00     0.006 A 
ATOM      5  C4  UNL d   1       0.987   0.149   0.310  0.00  0.00    -0.005 A 
ATOM      6  C5  UNL d   1       1.648   0.236  -0.920  0.00  0.00    -0.074 A 
ATOM      7  C6  UNL d   1       2.394  -0.938  -1.480  0.00  0.00     0.077 C 
ATOM      8  C7  UNL d   1       1.593   1.437  -1.641  0.00  0.00    -0.001 A 
ENDROOT
TORSDOF 0
ENDMDL
