MODEL 1
REMARK minimizedAffinity -4.22917938
REMARK minimizedRMSD -1
REMARK  0 active torsions:
REMARK  status: ('A' for Active; 'I' for Inactive)
ROOT
ATOM      1  C   UNL d   1       1.077   4.918  -0.760  0.00  0.00     0.077 C 
ATOM      2  C1  UNL d   1       1.105   3.425  -0.619  0.00  0.00    -0.074 A 
ATOM      3  C2  UNL d   1       1.551   2.613  -1.666  0.00  0.00    -0.005 A 
ATOM      4  C3  UNL d   1       1.580   1.226  -1.517  0.00  0.00     0.006 A 
ATOM      5  C4  UNL d   1       1.165   0.639  -0.321  0.00  0.00    -0.005 A 
ATOM      6  C5  UNL d   1       0.717   1.436   0.738  0.00  0.00    -0.074 A 
ATOM      7  C6  UNL d   1       0.276   0.822   2.033  0.00  0.00     0.077 C 
ATOM      8  C7  UNL d   1       0.697   2.829   0.582  0.00  0.00    -0.001 A 
ENDROOT
TORSDOF 0
ENDMDL
