MODEL 1
REMARK minimizedAffinity 0.606465399
REMARK minimizedRMSD -1
REMARK  0 active torsions:
REMARK  status: ('A' for Active; 'I' for Inactive)
ROOT
ATOM      1  C   UNL d   1       0.607   3.566  -2.151  0.00  0.00     0.077 C 
ATOM      2  C1  UNL d   1       0.770   2.280  -1.396  0.00  0.00    -0.074 A 
ATOM      3  C2  UNL d   1       0.303   1.072  -1.924  0.00  0.00    -0.005 A 
ATOM      4  C3  UNL d   1       0.470  -0.117  -1.214  0.00  0.00     0.006 A 
ATOM      5  C4  UNL d   1       1.104  -0.110   0.029  0.00  0.00    -0.005 A 
ATOM      6  C5  UNL d   1       1.578   1.088   0.573  0.00  0.00    -0.074 A 
ATOM      7  C6  UNL d   1       2.271   1.111   1.903  0.00  0.00     0.077 C 
ATOM      8  C7  UNL d   1       1.413   2.277  -0.150  0.00  0.00    -0.001 A 
ENDROOT
TORSDOF 0
ENDMDL
