MODEL 1
REMARK minimizedAffinity 3.52361012
REMARK minimizedRMSD -1
REMARK  0 active torsions:
REMARK  status: ('A' for Active; 'I' for Inactive)
ROOT
ATOM      1  C   UNL d   1       1.326   1.629   1.703  0.00  0.00     0.077 C 
ATOM      2  C1  UNL d   1       1.167   1.559   0.214  0.00  0.00    -0.074 A 
ATOM      3  C2  UNL d   1       0.945   2.716  -0.541  0.00  0.00    -0.005 A 
ATOM      4  C3  UNL d   1       0.809   2.636  -1.927  0.00  0.00     0.006 A 
ATOM      5  C4  UNL d   1       0.893   1.401  -2.571  0.00  0.00    -0.005 A 
ATOM      6  C5  UNL d   1       1.116   0.234  -1.833  0.00  0.00    -0.074 A 
ATOM      7  C6  UNL d   1       1.220  -1.100  -2.512  0.00  0.00     0.077 C 
ATOM      8  C7  UNL d   1       1.259   0.323  -0.442  0.00  0.00    -0.001 A 
ENDROOT
TORSDOF 0
ENDMDL
