MODEL 1
REMARK minimizedAffinity -4.94806099
REMARK minimizedRMSD -1
REMARK  0 active torsions:
REMARK  status: ('A' for Active; 'I' for Inactive)
ROOT
ATOM      1  C   UNL d   1       1.195   4.309  -1.059  0.00  0.00     0.077 C 
ATOM      2  C1  UNL d   1       1.002   2.883  -0.637  0.00  0.00    -0.074 A 
ATOM      3  C2  UNL d   1       1.099   1.839  -1.564  0.00  0.00    -0.005 A 
ATOM      4  C3  UNL d   1       0.927   0.517  -1.155  0.00  0.00     0.006 A 
ATOM      5  C4  UNL d   1       0.658   0.225   0.183  0.00  0.00    -0.005 A 
ATOM      6  C5  UNL d   1       0.559   1.255   1.124  0.00  0.00    -0.074 A 
ATOM      7  C6  UNL d   1       0.279   0.957   2.567  0.00  0.00     0.077 C 
ATOM      8  C7  UNL d   1       0.739   2.580   0.706  0.00  0.00    -0.001 A 
ENDROOT
TORSDOF 0
ENDMDL
