MODEL 1
REMARK minimizedAffinity 4.03037786
REMARK minimizedRMSD -1
REMARK  0 active torsions:
REMARK  status: ('A' for Active; 'I' for Inactive)
ROOT
ATOM      1  C   UNL d   1      -5.997   0.377   3.375  0.00  0.00     0.077 C 
ATOM      2  C1  UNL d   1      -4.671   1.062   3.521  0.00  0.00    -0.074 A 
ATOM      3  C2  UNL d   1      -4.228   1.982   2.565  0.00  0.00    -0.005 A 
ATOM      4  C3  UNL d   1      -2.996   2.618   2.720  0.00  0.00     0.006 A 
ATOM      5  C4  UNL d   1      -2.197   2.341   3.829  0.00  0.00    -0.005 A 
ATOM      6  C5  UNL d   1      -2.624   1.425   4.796  0.00  0.00    -0.074 A 
ATOM      7  C6  UNL d   1      -1.781   1.124   6.000  0.00  0.00     0.077 C 
ATOM      8  C7  UNL d   1      -3.866   0.795   4.637  0.00  0.00    -0.001 A 
ENDROOT
TORSDOF 0
ENDMDL
