MODEL 1
REMARK minimizedAffinity 0.68781364
REMARK minimizedRMSD -1
REMARK  0 active torsions:
REMARK  status: ('A' for Active; 'I' for Inactive)
ROOT
ATOM      1  C   UNL d   1       1.321  -0.372   1.701  0.00  0.00     0.172 C 
ATOM      2  N   UNL d   1       0.649   0.232   0.574  0.00  0.00    -0.070 N 
ATOM      3  C1  UNL d   1       0.836  -0.103  -0.740  0.00  0.00    -0.004 A 
ATOM      4  C2  UNL d   1       0.014   0.700  -1.501  0.00  0.00    -0.047 A 
ATOM      5  C3  UNL d   1      -0.690   1.548  -0.614  0.00  0.00    -0.047 A 
ATOM      6  C4  UNL d   1      -0.277   1.237   0.665  0.00  0.00    -0.004 A 
ENDROOT
TORSDOF 0
ENDMDL
