MODEL 1
REMARK minimizedAffinity 5.89710808
REMARK minimizedRMSD -1
REMARK  0 active torsions:
REMARK  status: ('A' for Active; 'I' for Inactive)
ROOT
ATOM      1  C   UNL d   1       0.546   0.001  -1.336  0.00  0.00     0.172 C 
ATOM      2  N   UNL d   1      -0.815   0.169  -1.787  0.00  0.00    -0.070 N 
ATOM      3  C1  UNL d   1      -1.599   1.270  -1.566  0.00  0.00    -0.004 A 
ATOM      4  C2  UNL d   1      -2.824   1.041  -2.154  0.00  0.00    -0.047 A 
ATOM      5  C3  UNL d   1      -2.775  -0.243  -2.748  0.00  0.00    -0.047 A 
ATOM      6  C4  UNL d   1      -1.520  -0.760  -2.506  0.00  0.00    -0.004 A 
ENDROOT
TORSDOF 0
ENDMDL
