MODEL 1
REMARK minimizedAffinity 1.27999425
REMARK minimizedRMSD -1
REMARK  0 active torsions:
REMARK  status: ('A' for Active; 'I' for Inactive)
ROOT
ATOM      1  C   UNL d   1      -0.036   0.801  -1.529  0.00  0.00     0.172 C 
ATOM      2  N   UNL d   1       0.468   0.307  -0.269  0.00  0.00    -0.070 N 
ATOM      3  C1  UNL d   1       1.377  -0.706  -0.114  0.00  0.00    -0.004 A 
ATOM      4  C2  UNL d   1       1.596  -0.873   1.236  0.00  0.00    -0.047 A 
ATOM      5  C3  UNL d   1       0.790   0.070   1.916  0.00  0.00    -0.047 A 
ATOM      6  C4  UNL d   1       0.102   0.788   0.960  0.00  0.00    -0.004 A 
ENDROOT
TORSDOF 0
ENDMDL
