MODEL 1
REMARK minimizedAffinity 2.39210558
REMARK minimizedRMSD -1
REMARK  0 active torsions:
REMARK  status: ('A' for Active; 'I' for Inactive)
ROOT
ATOM      1  C   UNL d   1      -5.977  -2.634   5.496  0.00  0.00     0.172 C 
ATOM      2  N   UNL d   1      -5.986  -2.158   4.132  0.00  0.00    -0.070 N 
ATOM      3  C1  UNL d   1      -5.991  -2.945   3.012  0.00  0.00    -0.004 A 
ATOM      4  C2  UNL d   1      -5.999  -2.114   1.912  0.00  0.00    -0.047 A 
ATOM      5  C3  UNL d   1      -5.998  -0.782   2.389  0.00  0.00    -0.047 A 
ATOM      6  C4  UNL d   1      -5.989  -0.838   3.766  0.00  0.00    -0.004 A 
ENDROOT
TORSDOF 0
ENDMDL
