MODEL 1
REMARK minimizedAffinity 5.94977713
REMARK minimizedRMSD -1
REMARK  0 active torsions:
REMARK  status: ('A' for Active; 'I' for Inactive)
ROOT
ATOM      1  C   UNL d   1      -5.935  -0.057   5.640  0.00  0.00     0.172 C 
ATOM      2  N   UNL d   1      -5.957  -0.879   4.453  0.00  0.00    -0.070 N 
ATOM      3  C1  UNL d   1      -5.955  -2.248   4.430  0.00  0.00    -0.004 A 
ATOM      4  C2  UNL d   1      -5.981  -2.648   3.112  0.00  0.00    -0.047 A 
ATOM      5  C3  UNL d   1      -5.999  -1.479   2.315  0.00  0.00    -0.047 A 
ATOM      6  C4  UNL d   1      -5.984  -0.398   3.171  0.00  0.00    -0.004 A 
ENDROOT
TORSDOF 0
ENDMDL
