MODEL 1
REMARK minimizedAffinity 3.52147079
REMARK minimizedRMSD -1
REMARK  0 active torsions:
REMARK  status: ('A' for Active; 'I' for Inactive)
ROOT
ATOM      1  C   UNL d   1      -0.716   2.934  -1.025  0.00  0.00     0.172 C 
ATOM      2  N   UNL d   1      -0.226   1.811  -0.260  0.00  0.00    -0.070 N 
ATOM      3  C1  UNL d   1       0.335   0.675  -0.779  0.00  0.00    -0.004 A 
ATOM      4  C2  UNL d   1       0.669  -0.149   0.273  0.00  0.00    -0.047 A 
ATOM      5  C3  UNL d   1       0.295   0.514   1.466  0.00  0.00    -0.047 A 
ATOM      6  C4  UNL d   1      -0.257   1.726   1.107  0.00  0.00    -0.004 A 
ENDROOT
TORSDOF 0
ENDMDL
