MODEL 1
REMARK minimizedAffinity 0.271714717
REMARK minimizedRMSD -1
REMARK  0 active torsions:
REMARK  status: ('A' for Active; 'I' for Inactive)
ROOT
ATOM      1  C   UNL d   1       0.064   2.268  -0.723  0.00  0.00     0.172 C 
ATOM      2  N   UNL d   1       0.523   1.268   0.212  0.00  0.00    -0.070 N 
ATOM      3  C1  UNL d   1       0.280   1.263   1.560  0.00  0.00    -0.004 A 
ATOM      4  C2  UNL d   1       0.885   0.146   2.094  0.00  0.00    -0.047 A 
ATOM      5  C3  UNL d   1       1.515  -0.544   1.031  0.00  0.00    -0.047 A 
ATOM      6  C4  UNL d   1       1.275   0.172  -0.123  0.00  0.00    -0.004 A 
ENDROOT
TORSDOF 0
ENDMDL
