MODEL 1
REMARK minimizedAffinity 2.5671351
REMARK minimizedRMSD -1
REMARK  0 active torsions:
REMARK  status: ('A' for Active; 'I' for Inactive)
ROOT
ATOM      1  C   UNL d   1      -5.998   0.354   1.268  0.00  0.00     0.172 C 
ATOM      2  N   UNL d   1      -5.999  -0.768   2.177  0.00  0.00    -0.070 N 
ATOM      3  C1  UNL d   1      -5.999  -2.089   1.815  0.00  0.00    -0.004 A 
ATOM      4  C2  UNL d   1      -5.999  -2.842   2.969  0.00  0.00    -0.047 A 
ATOM      5  C3  UNL d   1      -6.000  -1.944   4.062  0.00  0.00    -0.047 A 
ATOM      6  C4  UNL d   1      -5.999  -0.666   3.543  0.00  0.00    -0.004 A 
ENDROOT
TORSDOF 0
ENDMDL
