MODEL 1
REMARK minimizedAffinity -0.515329182
REMARK minimizedRMSD -1
REMARK  0 active torsions:
REMARK  status: ('A' for Active; 'I' for Inactive)
ROOT
ATOM      1  C   UNL d   1       0.016   2.473   2.152  0.00  0.00     0.172 C 
ATOM      2  N   UNL d   1       0.068   1.529   1.062  0.00  0.00    -0.070 N 
ATOM      3  C1  UNL d   1       0.275   0.181   1.182  0.00  0.00    -0.004 A 
ATOM      4  C2  UNL d   1       0.254  -0.365  -0.083  0.00  0.00    -0.047 A 
ATOM      5  C3  UNL d   1       0.028   0.693  -0.996  0.00  0.00    -0.047 A 
ATOM      6  C4  UNL d   1      -0.084   1.854  -0.261  0.00  0.00    -0.004 A 
ENDROOT
TORSDOF 0
ENDMDL
