MODEL 1
REMARK minimizedAffinity 0.361378044
REMARK minimizedRMSD -1
REMARK  0 active torsions:
REMARK  status: ('A' for Active; 'I' for Inactive)
ROOT
ATOM      1  C   UNL d   1       1.512  -1.439  -0.529  0.00  0.00     0.172 C 
ATOM      2  N   UNL d   1       0.828  -0.209  -0.208  0.00  0.00    -0.070 N 
ATOM      3  C1  UNL d   1       0.326   0.686  -1.114  0.00  0.00    -0.004 A 
ATOM      4  C2  UNL d   1      -0.249   1.722  -0.411  0.00  0.00    -0.047 A 
ATOM      5  C3  UNL d   1      -0.085   1.441   0.966  0.00  0.00    -0.047 A 
ATOM      6  C4  UNL d   1       0.585   0.240   1.064  0.00  0.00    -0.004 A 
ENDROOT
TORSDOF 0
ENDMDL
