MODEL 1
REMARK minimizedAffinity 0.268322647
REMARK minimizedRMSD -1
REMARK  0 active torsions:
REMARK  status: ('A' for Active; 'I' for Inactive)
ROOT
ATOM      1  C   UNL d   1       1.418  -0.342   2.890  0.00  0.00     0.172 C 
ATOM      2  N   UNL d   1       0.820   0.115   1.657  0.00  0.00    -0.070 N 
ATOM      3  C1  UNL d   1       0.907  -0.518   0.446  0.00  0.00    -0.004 A 
ATOM      4  C2  UNL d   1       0.206   0.233  -0.473  0.00  0.00    -0.047 A 
ATOM      5  C3  UNL d   1      -0.320   1.356   0.209  0.00  0.00    -0.047 A 
ATOM      6  C4  UNL d   1       0.076   1.258   1.526  0.00  0.00    -0.004 A 
ENDROOT
TORSDOF 0
ENDMDL
