MODEL 1
REMARK minimizedAffinity 9.99646282
REMARK minimizedRMSD -1
REMARK  3 active torsions:
REMARK  status: ('A' for Active; 'I' for Inactive)
REMARK    1  A    between atoms: C3'_2  and  C2'_3 
REMARK    2  A    between atoms: C2'_3  and  C1'_4 
REMARK    3  A    between atoms: C1'_4  and  C1_5 
ROOT
ATOM      1  C1  N4B d   1       0.944   2.475   1.528  0.00  0.00    -0.075 A 
ATOM      2  C2  N4B d   1       2.295   2.688   1.879  0.00  0.00     0.002 A 
ATOM      3  C3  N4B d   1       2.608   3.273   3.081  0.00  0.00     0.002 A 
ATOM      4  C4  N4B d   1       1.591   3.669   3.936  0.00  0.00    -0.004 A 
ATOM      5  C5  N4B d   1       0.289   3.437   3.601  0.00  0.00     0.002 A 
ATOM      6  C6  N4B d   1      -0.040   2.846   2.398  0.00  0.00     0.002 A 
ENDROOT
BRANCH   1   7
ATOM      7  C1' N4B d   1       0.550   1.917   0.187  0.00  0.00     0.057 C 
BRANCH   7   8
ATOM      8  C2' N4B d   1       1.451   2.517  -0.889  0.00  0.00     0.009 C 
BRANCH   8   9
ATOM      9  C3' N4B d   1       0.810   3.720  -1.560  0.00  0.00     0.004 C 
ATOM     10  C4' N4B d   1      -0.451   3.373  -2.293  0.00  0.00     0.003 C 
ENDBRANCH   8   9
ENDBRANCH   7   8
ENDBRANCH   1   7
TORSDOF 3
ENDMDL
