MODEL 1
REMARK minimizedAffinity 4.25120068
REMARK minimizedRMSD -1
REMARK  3 active torsions:
REMARK  status: ('A' for Active; 'I' for Inactive)
REMARK    1  A    between atoms: C3'_2  and  C2'_3 
REMARK    2  A    between atoms: C2'_3  and  C1'_4 
REMARK    3  A    between atoms: C1'_4  and  C1_5 
ROOT
ATOM      1  C1  N4B d   1      -0.262   3.082   2.794  0.00  0.00    -0.075 A 
ATOM      2  C2  N4B d   1      -1.290   2.838   3.731  0.00  0.00     0.002 A 
ATOM      3  C3  N4B d   1      -1.488   3.708   4.776  0.00  0.00     0.002 A 
ATOM      4  C4  N4B d   1      -0.661   4.813   4.914  0.00  0.00    -0.004 A 
ATOM      5  C5  N4B d   1       0.313   5.055   3.990  0.00  0.00     0.002 A 
ATOM      6  C6  N4B d   1       0.520   4.192   2.933  0.00  0.00     0.002 A 
ENDROOT
BRANCH   1   7
ATOM      7  C1' N4B d   1       0.047   2.115   1.684  0.00  0.00     0.057 C 
BRANCH   7   8
ATOM      8  C2' N4B d   1      -1.097   1.111   1.562  0.00  0.00     0.009 C 
BRANCH   8   9
ATOM      9  C3' N4B d   1      -2.000   1.421   0.381  0.00  0.00     0.004 C 
ATOM     10  C4' N4B d   1      -3.449   1.172   0.677  0.00  0.00     0.003 C 
ENDBRANCH   8   9
ENDBRANCH   7   8
ENDBRANCH   1   7
TORSDOF 3
ENDMDL
