MODEL 1
REMARK minimizedAffinity 10.7299938
REMARK minimizedRMSD -1
REMARK  3 active torsions:
REMARK  status: ('A' for Active; 'I' for Inactive)
REMARK    1  A    between atoms: C3'_2  and  C2'_3 
REMARK    2  A    between atoms: C2'_3  and  C1'_4 
REMARK    3  A    between atoms: C1'_4  and  C1_5 
ROOT
ATOM      1  C1  N4B d   1       0.918   2.246   2.252  0.00  0.00    -0.075 A 
ATOM      2  C2  N4B d   1      -0.265   2.232   3.023  0.00  0.00     0.002 A 
ATOM      3  C3  N4B d   1      -0.352   2.997   4.160  0.00  0.00     0.002 A 
ATOM      4  C4  N4B d   1       0.733   3.767   4.553  0.00  0.00    -0.004 A 
ATOM      5  C5  N4B d   1       1.862   3.795   3.788  0.00  0.00     0.002 A 
ATOM      6  C6  N4B d   1       1.962   3.034   2.641  0.00  0.00     0.002 A 
ENDROOT
BRANCH   1   7
ATOM      7  C1' N4B d   1       1.092   1.360   1.048  0.00  0.00     0.057 C 
BRANCH   7   8
ATOM      8  C2' N4B d   1      -0.078   0.383   0.973  0.00  0.00     0.009 C 
BRANCH   8   9
ATOM      9  C3' N4B d   1       0.364  -1.052   1.207  0.00  0.00     0.004 C 
ATOM     10  C4' N4B d   1      -0.724  -1.908   1.783  0.00  0.00     0.003 C 
ENDBRANCH   8   9
ENDBRANCH   7   8
ENDBRANCH   1   7
TORSDOF 3
ENDMDL
