MODEL 1
REMARK minimizedAffinity 2.87155724
REMARK minimizedRMSD -1
REMARK  3 active torsions:
REMARK  status: ('A' for Active; 'I' for Inactive)
REMARK    1  A    between atoms: C3'_2  and  C2'_3 
REMARK    2  A    between atoms: C2'_3  and  C1'_4 
REMARK    3  A    between atoms: C1'_4  and  C1_5 
ROOT
ATOM      1  C1  N4B d   1       0.394   2.846   1.932  0.00  0.00    -0.075 A 
ATOM      2  C2  N4B d   1      -0.788   2.190   1.521  0.00  0.00     0.002 A 
ATOM      3  C3  N4B d   1      -0.742   0.873   1.134  0.00  0.00     0.002 A 
ATOM      4  C4  N4B d   1       0.471   0.201   1.131  0.00  0.00    -0.004 A 
ATOM      5  C5  N4B d   1       1.603   0.834   1.554  0.00  0.00     0.002 A 
ATOM      6  C6  N4B d   1       1.571   2.156   1.950  0.00  0.00     0.002 A 
ENDROOT
BRANCH   1   7
ATOM      7  C1' N4B d   1       0.408   4.309   2.283  0.00  0.00     0.057 C 
BRANCH   7   8
ATOM      8  C2' N4B d   1       0.216   4.465   3.789  0.00  0.00     0.009 C 
BRANCH   8   9
ATOM      9  C3' N4B d   1      -0.784   3.463   4.340  0.00  0.00     0.004 C 
ATOM     10  C4' N4B d   1      -2.044   4.111   4.833  0.00  0.00     0.003 C 
ENDBRANCH   8   9
ENDBRANCH   7   8
ENDBRANCH   1   7
TORSDOF 3
ENDMDL
