MODEL 1
REMARK minimizedAffinity 4.64727879
REMARK minimizedRMSD -1
REMARK  3 active torsions:
REMARK  status: ('A' for Active; 'I' for Inactive)
REMARK    1  A    between atoms: C3'_2  and  C2'_3 
REMARK    2  A    between atoms: C2'_3  and  C1'_4 
REMARK    3  A    between atoms: C1'_4  and  C1_5 
ROOT
ATOM      1  C1  N4B d   1      -1.306  -0.609   2.146  0.00  0.00    -0.075 A 
ATOM      2  C2  N4B d   1      -1.459  -1.861   2.780  0.00  0.00     0.002 A 
ATOM      3  C3  N4B d   1      -2.662  -2.201   3.348  0.00  0.00     0.002 A 
ATOM      4  C4  N4B d   1      -3.716  -1.301   3.311  0.00  0.00    -0.004 A 
ATOM      5  C5  N4B d   1      -3.568  -0.103   2.674  0.00  0.00     0.002 A 
ATOM      6  C6  N4B d   1      -2.366   0.250   2.096  0.00  0.00     0.002 A 
ENDROOT
BRANCH   1   7
ATOM      7  C1' N4B d   1       0.016  -0.158   1.586  0.00  0.00     0.057 C 
BRANCH   7   8
ATOM      8  C2' N4B d   1       0.061   1.367   1.575  0.00  0.00     0.009 C 
BRANCH   8   9
ATOM      9  C3' N4B d   1       1.261   1.905   2.336  0.00  0.00     0.004 C 
ATOM     10  C4' N4B d   1       0.903   3.026   3.266  0.00  0.00     0.003 C 
ENDBRANCH   8   9
ENDBRANCH   7   8
ENDBRANCH   1   7
TORSDOF 3
ENDMDL
