MODEL 1
REMARK minimizedAffinity 3.58351803
REMARK minimizedRMSD -1
REMARK  3 active torsions:
REMARK  status: ('A' for Active; 'I' for Inactive)
REMARK    1  A    between atoms: C3'_2  and  C2'_3 
REMARK    2  A    between atoms: C2'_3  and  C1'_4 
REMARK    3  A    between atoms: C1'_4  and  C1_5 
ROOT
ATOM      1  C1  N4B d   1      -0.805   1.256   2.247  0.00  0.00    -0.075 A 
ATOM      2  C2  N4B d   1      -0.963   2.057   3.399  0.00  0.00     0.002 A 
ATOM      3  C3  N4B d   1       0.078   2.834   3.843  0.00  0.00     0.002 A 
ATOM      4  C4  N4B d   1       1.288   2.812   3.165  0.00  0.00    -0.004 A 
ATOM      5  C5  N4B d   1       1.424   2.056   2.038  0.00  0.00     0.002 A 
ATOM      6  C6  N4B d   1       0.384   1.273   1.578  0.00  0.00     0.002 A 
ENDROOT
BRANCH   1   7
ATOM      7  C1' N4B d   1      -1.887   0.325   1.772  0.00  0.00     0.057 C 
BRANCH   7   8
ATOM      8  C2' N4B d   1      -3.072   0.405   2.730  0.00  0.00     0.009 C 
BRANCH   8   9
ATOM      9  C3' N4B d   1      -3.700  -0.957   2.973  0.00  0.00     0.004 C 
ATOM     10  C4' N4B d   1      -5.175  -0.879   3.231  0.00  0.00     0.003 C 
ENDBRANCH   8   9
ENDBRANCH   7   8
ENDBRANCH   1   7
TORSDOF 3
ENDMDL
