MODEL 1
REMARK minimizedAffinity 7.89921474
REMARK minimizedRMSD -1
REMARK  3 active torsions:
REMARK  status: ('A' for Active; 'I' for Inactive)
REMARK    1  A    between atoms: C3'_2  and  C2'_3 
REMARK    2  A    between atoms: C2'_3  and  C1'_4 
REMARK    3  A    between atoms: C1'_4  and  C1_5 
ROOT
ATOM      1  C1  N4B d   1      -0.991   1.613   2.511  0.00  0.00    -0.075 A 
ATOM      2  C2  N4B d   1      -1.579   2.213   3.646  0.00  0.00     0.002 A 
ATOM      3  C3  N4B d   1      -0.913   3.206   4.321  0.00  0.00     0.002 A 
ATOM      4  C4  N4B d   1       0.345   3.601   3.892  0.00  0.00    -0.004 A 
ATOM      5  C5  N4B d   1       0.896   3.035   2.780  0.00  0.00     0.002 A 
ATOM      6  C6  N4B d   1       0.236   2.038   2.090  0.00  0.00     0.002 A 
ENDROOT
BRANCH   1   7
ATOM      7  C1' N4B d   1      -1.643   0.464   1.792  0.00  0.00     0.057 C 
BRANCH   7   8
ATOM      8  C2' N4B d   1      -3.082   0.320   2.280  0.00  0.00     0.009 C 
BRANCH   8   9
ATOM      9  C3' N4B d   1      -3.326  -1.025   2.943  0.00  0.00     0.004 C 
ATOM     10  C4' N4B d   1      -4.756  -1.221   3.350  0.00  0.00     0.003 C 
ENDBRANCH   8   9
ENDBRANCH   7   8
ENDBRANCH   1   7
TORSDOF 3
ENDMDL
