MODEL 1
REMARK minimizedAffinity 4.51010466
REMARK minimizedRMSD -1
REMARK  3 active torsions:
REMARK  status: ('A' for Active; 'I' for Inactive)
REMARK    1  A    between atoms: C3'_2  and  C2'_3 
REMARK    2  A    between atoms: C2'_3  and  C1'_4 
REMARK    3  A    between atoms: C1'_4  and  C1_5 
ROOT
ATOM      1  C1  N4B d   1       2.525   4.454   4.307  0.00  0.00    -0.075 A 
ATOM      2  C2  N4B d   1       2.616   5.657   5.041  0.00  0.00     0.002 A 
ATOM      3  C3  N4B d   1       3.687   5.876   5.872  0.00  0.00     0.002 A 
ATOM      4  C4  N4B d   1       4.666   4.902   5.999  0.00  0.00    -0.004 A 
ATOM      5  C5  N4B d   1       4.585   3.754   5.268  0.00  0.00     0.002 A 
ATOM      6  C6  N4B d   1       3.516   3.522   4.426  0.00  0.00     0.002 A 
ENDROOT
BRANCH   1   7
ATOM      7  C1' N4B d   1       1.330   4.133   3.452  0.00  0.00     0.057 C 
BRANCH   7   8
ATOM      8  C2' N4B d   1       0.510   3.038   4.128  0.00  0.00     0.009 C 
BRANCH   8   9
ATOM      9  C3' N4B d   1      -0.599   2.521   3.227  0.00  0.00     0.004 C 
ATOM     10  C4' N4B d   1      -0.120   1.486   2.253  0.00  0.00     0.003 C 
ENDBRANCH   8   9
ENDBRANCH   7   8
ENDBRANCH   1   7
TORSDOF 3
ENDMDL
