MODEL 1
REMARK minimizedAffinity 4.13187408
REMARK minimizedRMSD -1
REMARK  3 active torsions:
REMARK  status: ('A' for Active; 'I' for Inactive)
REMARK    1  A    between atoms: C3'_2  and  C2'_3 
REMARK    2  A    between atoms: C2'_3  and  C1'_4 
REMARK    3  A    between atoms: C1'_4  and  C1_5 
ROOT
ATOM      1  C1  N4B d   1       2.857   4.531   3.381  0.00  0.00    -0.075 A 
ATOM      2  C2  N4B d   1       3.878   5.308   2.791  0.00  0.00     0.002 A 
ATOM      3  C3  N4B d   1       5.139   5.309   3.333  0.00  0.00     0.002 A 
ATOM      4  C4  N4B d   1       5.398   4.561   4.471  0.00  0.00    -0.004 A 
ATOM      5  C5  N4B d   1       4.413   3.793   5.021  0.00  0.00     0.002 A 
ATOM      6  C6  N4B d   1       3.141   3.779   4.484  0.00  0.00     0.002 A 
ENDROOT
BRANCH   1   7
ATOM      7  C1' N4B d   1       1.441   4.564   2.875  0.00  0.00     0.057 C 
BRANCH   7   8
ATOM      8  C2' N4B d   1       0.538   3.831   3.863  0.00  0.00     0.009 C 
BRANCH   8   9
ATOM      9  C3' N4B d   1      -0.585   3.086   3.163  0.00  0.00     0.004 C 
ATOM     10  C4' N4B d   1      -0.145   2.444   1.881  0.00  0.00     0.003 C 
ENDBRANCH   8   9
ENDBRANCH   7   8
ENDBRANCH   1   7
TORSDOF 3
ENDMDL
