MODEL 1
REMARK minimizedAffinity 6.37354994
REMARK minimizedRMSD -1
REMARK  0 active torsions:
REMARK  status: ('A' for Active; 'I' for Inactive)
ROOT
ATOM      1  C   UNL d   1      -2.180  -2.772   4.844  0.00  0.00     0.078 C 
ATOM      2  C1  UNL d   1      -2.987  -1.576   5.253  0.00  0.00    -0.077 A 
ATOM      3  C2  UNL d   1      -4.387  -1.625   5.279  0.00  0.00    -0.001 A 
ATOM      4  C3  UNL d   1      -5.126  -0.501   5.652  0.00  0.00     0.003 A 
ATOM      5  C4  UNL d   1      -4.474   0.681   6.000  0.00  0.00    -0.005 A 
ATOM      6  C5  UNL d   1      -3.082   0.740   5.975  0.00  0.00     0.003 A 
ATOM      7  C6  UNL d   1      -2.342  -0.383   5.602  0.00  0.00    -0.001 A 
ENDROOT
TORSDOF 0
ENDMDL
