MODEL 1
REMARK minimizedAffinity 13.4296684
REMARK minimizedRMSD -1
REMARK  0 active torsions:
REMARK  status: ('A' for Active; 'I' for Inactive)
ROOT
ATOM      1  C   UNL d   1       3.770   1.517   1.141  0.00  0.00     0.078 C 
ATOM      2  C1  UNL d   1       4.533   2.532   0.343  0.00  0.00    -0.077 A 
ATOM      3  C2  UNL d   1       5.287   2.152  -0.774  0.00  0.00    -0.001 A 
ATOM      4  C3  UNL d   1       6.000   3.105  -1.502  0.00  0.00     0.003 A 
ATOM      5  C4  UNL d   1       5.966   4.445  -1.121  0.00  0.00    -0.005 A 
ATOM      6  C5  UNL d   1       5.220   4.833  -0.010  0.00  0.00     0.003 A 
ATOM      7  C6  UNL d   1       4.507   3.880   0.720  0.00  0.00    -0.001 A 
ENDROOT
TORSDOF 0
ENDMDL
