MODEL 1
REMARK minimizedAffinity 3.86538768
REMARK minimizedRMSD -1
REMARK  0 active torsions:
REMARK  status: ('A' for Active; 'I' for Inactive)
ROOT
ATOM      1  C   UNL d   1      -1.977  -1.148   5.235  0.00  0.00     0.078 C 
ATOM      2  C1  UNL d   1      -3.192  -0.309   5.494  0.00  0.00    -0.077 A 
ATOM      3  C2  UNL d   1      -3.093   1.082   5.627  0.00  0.00    -0.001 A 
ATOM      4  C3  UNL d   1      -4.232   1.850   5.878  0.00  0.00     0.003 A 
ATOM      5  C4  UNL d   1      -5.477   1.236   5.998  0.00  0.00    -0.005 A 
ATOM      6  C5  UNL d   1      -5.585  -0.147   5.870  0.00  0.00     0.003 A 
ATOM      7  C6  UNL d   1      -4.448  -0.917   5.619  0.00  0.00    -0.001 A 
ENDROOT
TORSDOF 0
ENDMDL
