MODEL 1
REMARK minimizedAffinity 11.5551214
REMARK minimizedRMSD -1
REMARK  0 active torsions:
REMARK  status: ('A' for Active; 'I' for Inactive)
ROOT
ATOM      1  C   UNL d   1      -5.227  -2.670   1.264  0.00  0.00     0.078 C 
ATOM      2  C1  UNL d   1      -3.760  -2.498   1.002  0.00  0.00    -0.077 A 
ATOM      3  C2  UNL d   1      -3.306  -1.791  -0.119  0.00  0.00    -0.001 A 
ATOM      4  C3  UNL d   1      -1.938  -1.648  -0.356  0.00  0.00     0.003 A 
ATOM      5  C4  UNL d   1      -1.013  -2.208   0.522  0.00  0.00    -0.005 A 
ATOM      6  C5  UNL d   1      -1.456  -2.915   1.639  0.00  0.00     0.003 A 
ATOM      7  C6  UNL d   1      -2.823  -3.060   1.878  0.00  0.00    -0.001 A 
ENDROOT
TORSDOF 0
ENDMDL
