MODEL 1
REMARK minimizedAffinity 7.2237587
REMARK minimizedRMSD -1
REMARK  0 active torsions:
REMARK  status: ('A' for Active; 'I' for Inactive)
ROOT
ATOM      1  C   UNL d   1       2.817   2.467  -0.662  0.00  0.00     0.078 C 
ATOM      2  C1  UNL d   1       1.908   1.779  -1.637  0.00  0.00    -0.077 A 
ATOM      3  C2  UNL d   1       1.336   2.478  -2.706  0.00  0.00    -0.001 A 
ATOM      4  C3  UNL d   1       0.484   1.827  -3.600  0.00  0.00     0.003 A 
ATOM      5  C4  UNL d   1       0.196   0.474  -3.433  0.00  0.00    -0.005 A 
ATOM      6  C5  UNL d   1       0.759  -0.230  -2.371  0.00  0.00     0.003 A 
ATOM      7  C6  UNL d   1       1.611   0.420  -1.476  0.00  0.00    -0.001 A 
ENDROOT
TORSDOF 0
ENDMDL
