MODEL 1
REMARK minimizedAffinity 10.234581
REMARK minimizedRMSD -1
REMARK  0 active torsions:
REMARK  status: ('A' for Active; 'I' for Inactive)
ROOT
ATOM      1  C   UNL d   1      -2.772   2.913  -4.476  0.00  0.00     0.078 C 
ATOM      2  C1  UNL d   1      -3.878   3.886  -4.755  0.00  0.00    -0.077 A 
ATOM      3  C2  UNL d   1      -3.955   5.106  -4.072  0.00  0.00    -0.001 A 
ATOM      4  C3  UNL d   1      -4.995   5.999  -4.335  0.00  0.00     0.003 A 
ATOM      5  C4  UNL d   1      -5.968   5.680  -5.281  0.00  0.00    -0.005 A 
ATOM      6  C5  UNL d   1      -5.901   4.468  -5.964  0.00  0.00     0.003 A 
ATOM      7  C6  UNL d   1      -4.862   3.574  -5.702  0.00  0.00    -0.001 A 
ENDROOT
TORSDOF 0
ENDMDL
