MODEL 1
REMARK minimizedAffinity 4.08706951
REMARK minimizedRMSD -1
REMARK  0 active torsions:
REMARK  status: ('A' for Active; 'I' for Inactive)
ROOT
ATOM      1  C   UNL d   1      -0.024  -5.204   0.761  0.00  0.00     0.078 C 
ATOM      2  C1  UNL d   1      -0.789  -3.978   1.159  0.00  0.00    -0.077 A 
ATOM      3  C2  UNL d   1      -1.533  -3.945   2.346  0.00  0.00    -0.001 A 
ATOM      4  C3  UNL d   1      -2.248  -2.800   2.699  0.00  0.00     0.003 A 
ATOM      5  C4  UNL d   1      -2.229  -1.680   1.871  0.00  0.00    -0.005 A 
ATOM      6  C5  UNL d   1      -1.494  -1.703   0.687  0.00  0.00     0.003 A 
ATOM      7  C6  UNL d   1      -0.778  -2.848   0.332  0.00  0.00    -0.001 A 
ENDROOT
TORSDOF 0
ENDMDL
