MODEL 1
REMARK minimizedAffinity 9.64614487
REMARK minimizedRMSD -1
REMARK  0 active torsions:
REMARK  status: ('A' for Active; 'I' for Inactive)
ROOT
ATOM      1  C   UNL d   1      -5.964   3.433   6.000  0.00  0.00     0.078 C 
ATOM      2  C1  UNL d   1      -5.254   2.122   5.839  0.00  0.00    -0.077 A 
ATOM      3  C2  UNL d   1      -3.858   2.065   5.740  0.00  0.00    -0.001 A 
ATOM      4  C3  UNL d   1      -3.211   0.839   5.580  0.00  0.00     0.003 A 
ATOM      5  C4  UNL d   1      -3.952  -0.340   5.516  0.00  0.00    -0.005 A 
ATOM      6  C5  UNL d   1      -5.341  -0.293   5.611  0.00  0.00     0.003 A 
ATOM      7  C6  UNL d   1      -5.990   0.932   5.771  0.00  0.00    -0.001 A 
ENDROOT
TORSDOF 0
ENDMDL
