MODEL 1
REMARK minimizedAffinity 10.2404871
REMARK minimizedRMSD -1
REMARK  0 active torsions:
REMARK  status: ('A' for Active; 'I' for Inactive)
ROOT
ATOM      1  C   UNL d   1      -5.953  -1.416   5.628  0.00  0.00     0.078 C 
ATOM      2  C1  UNL d   1      -5.231  -0.106   5.733  0.00  0.00    -0.077 A 
ATOM      3  C2  UNL d   1      -5.933   1.092   5.913  0.00  0.00    -0.001 A 
ATOM      4  C3  UNL d   1      -5.248   2.305   6.000  0.00  0.00     0.003 A 
ATOM      5  C4  UNL d   1      -3.858   2.332   5.906  0.00  0.00    -0.005 A 
ATOM      6  C5  UNL d   1      -3.151   1.145   5.725  0.00  0.00     0.003 A 
ATOM      7  C6  UNL d   1      -3.834  -0.069   5.638  0.00  0.00    -0.001 A 
ENDROOT
TORSDOF 0
ENDMDL
