MODEL 1
REMARK minimizedAffinity 12.2727509
REMARK minimizedRMSD -1
REMARK  0 active torsions:
REMARK  status: ('A' for Active; 'I' for Inactive)
ROOT
ATOM      1  C   UNL d   1      -3.234   2.717  -4.447  0.00  0.00     0.078 C 
ATOM      2  C1  UNL d   1      -4.178   3.860  -4.675  0.00  0.00    -0.077 A 
ATOM      3  C2  UNL d   1      -4.219   4.947  -3.794  0.00  0.00    -0.001 A 
ATOM      4  C3  UNL d   1      -5.109   6.000  -4.013  0.00  0.00     0.003 A 
ATOM      5  C4  UNL d   1      -5.966   5.975  -5.112  0.00  0.00    -0.005 A 
ATOM      6  C5  UNL d   1      -5.933   4.896  -5.993  0.00  0.00     0.003 A 
ATOM      7  C6  UNL d   1      -5.044   3.843  -5.776  0.00  0.00    -0.001 A 
ENDROOT
TORSDOF 0
ENDMDL
