MODEL 1
REMARK minimizedAffinity 7.07318974
REMARK minimizedRMSD -1
REMARK  0 active torsions:
REMARK  status: ('A' for Active; 'I' for Inactive)
ROOT
ATOM      1  C   UNL d   1      -1.552  -1.593   5.046  0.00  0.00     0.078 C 
ATOM      2  C1  UNL d   1      -2.701  -0.673   5.335  0.00  0.00    -0.077 A 
ATOM      3  C2  UNL d   1      -2.554   0.716   5.240  0.00  0.00    -0.001 A 
ATOM      4  C3  UNL d   1      -3.630   1.560   5.521  0.00  0.00     0.003 A 
ATOM      5  C4  UNL d   1      -4.859   1.025   5.900  0.00  0.00    -0.005 A 
ATOM      6  C5  UNL d   1      -5.014  -0.356   6.000  0.00  0.00     0.003 A 
ATOM      7  C6  UNL d   1      -3.939  -1.202   5.719  0.00  0.00    -0.001 A 
ENDROOT
TORSDOF 0
ENDMDL
