MODEL 1
REMARK minimizedAffinity 5.22968817
REMARK minimizedRMSD -1
REMARK  0 active torsions:
REMARK  status: ('A' for Active; 'I' for Inactive)
ROOT
ATOM      1  C   UNL d   1      -4.418   4.699   5.989  0.00  0.00     0.078 C 
ATOM      2  C1  UNL d   1      -4.492   3.201   5.999  0.00  0.00    -0.077 A 
ATOM      3  C2  UNL d   1      -3.329   2.421   5.995  0.00  0.00    -0.001 A 
ATOM      4  C3  UNL d   1      -3.413   1.028   5.995  0.00  0.00     0.003 A 
ATOM      5  C4  UNL d   1      -4.658   0.402   5.998  0.00  0.00    -0.005 A 
ATOM      6  C5  UNL d   1      -5.821   1.170   6.000  0.00  0.00     0.003 A 
ATOM      7  C6  UNL d   1      -5.739   2.563   6.000  0.00  0.00    -0.001 A 
ENDROOT
TORSDOF 0
ENDMDL
