MODEL 1
REMARK minimizedAffinity -1.59674251
REMARK minimizedRMSD -1
REMARK  0 active torsions:
REMARK  status: ('A' for Active; 'I' for Inactive)
ROOT
ATOM      1  C   UNL d   1      -3.740   6.000  -2.382  0.00  0.00     0.078 C 
ATOM      2  C1  UNL d   1      -4.325   5.404  -1.136  0.00  0.00    -0.077 A 
ATOM      3  C2  UNL d   1      -3.781   4.247  -0.566  0.00  0.00    -0.001 A 
ATOM      4  C3  UNL d   1      -4.342   3.698   0.589  0.00  0.00     0.003 A 
ATOM      5  C4  UNL d   1      -5.450   4.299   1.182  0.00  0.00    -0.005 A 
ATOM      6  C5  UNL d   1      -6.000   5.449   0.620  0.00  0.00     0.003 A 
ATOM      7  C6  UNL d   1      -5.440   5.999  -0.534  0.00  0.00    -0.001 A 
ENDROOT
TORSDOF 0
ENDMDL
