MODEL 1
REMARK minimizedAffinity 7.05832577
REMARK minimizedRMSD -1
REMARK  0 active torsions:
REMARK  status: ('A' for Active; 'I' for Inactive)
ROOT
ATOM      1  C   UNL d   1      -0.648  -3.023   0.383  0.00  0.00     0.078 C 
ATOM      2  C1  UNL d   1      -1.453  -2.119  -0.502  0.00  0.00    -0.077 A 
ATOM      3  C2  UNL d   1      -2.678  -1.593  -0.073  0.00  0.00    -0.001 A 
ATOM      4  C3  UNL d   1      -3.422  -0.761  -0.910  0.00  0.00     0.003 A 
ATOM      5  C4  UNL d   1      -2.949  -0.447  -2.183  0.00  0.00    -0.005 A 
ATOM      6  C5  UNL d   1      -1.732  -0.966  -2.620  0.00  0.00     0.003 A 
ATOM      7  C6  UNL d   1      -0.988  -1.799  -1.783  0.00  0.00    -0.001 A 
ENDROOT
TORSDOF 0
ENDMDL
