MODEL 1
REMARK minimizedAffinity 9.48235226
REMARK minimizedRMSD -1
REMARK  0 active torsions:
REMARK  status: ('A' for Active; 'I' for Inactive)
ROOT
ATOM      1  C   UNL d   1      -0.168  -1.615  -1.907  0.00  0.00     0.078 C 
ATOM      2  C1  UNL d   1      -0.114  -2.985  -1.300  0.00  0.00    -0.077 A 
ATOM      3  C2  UNL d   1      -0.159  -3.161   0.088  0.00  0.00    -0.001 A 
ATOM      4  C3  UNL d   1      -0.098  -4.441   0.640  0.00  0.00     0.003 A 
ATOM      5  C4  UNL d   1       0.009  -5.556  -0.189  0.00  0.00    -0.005 A 
ATOM      6  C5  UNL d   1       0.056  -5.391  -1.572  0.00  0.00     0.003 A 
ATOM      7  C6  UNL d   1      -0.005  -4.111  -2.126  0.00  0.00    -0.001 A 
ENDROOT
TORSDOF 0
ENDMDL
