MODEL 1
REMARK minimizedAffinity 6.50135422
REMARK minimizedRMSD -1
REMARK  0 active torsions:
REMARK  status: ('A' for Active; 'I' for Inactive)
ROOT
ATOM      1  C   UNL d   1      -2.716  -3.370   3.184  0.00  0.00     0.078 C 
ATOM      2  C1  UNL d   1      -2.193  -2.957   1.841  0.00  0.00    -0.077 A 
ATOM      3  C2  UNL d   1      -1.140  -3.651   1.233  0.00  0.00    -0.001 A 
ATOM      4  C3  UNL d   1      -0.656  -3.250  -0.014  0.00  0.00     0.003 A 
ATOM      5  C4  UNL d   1      -1.219  -2.152  -0.662  0.00  0.00    -0.005 A 
ATOM      6  C5  UNL d   1      -2.266  -1.454  -0.064  0.00  0.00     0.003 A 
ATOM      7  C6  UNL d   1      -2.750  -1.854   1.182  0.00  0.00    -0.001 A 
ENDROOT
TORSDOF 0
ENDMDL
