MODEL 1
REMARK minimizedAffinity 10.623333
REMARK minimizedRMSD -1
REMARK  0 active torsions:
REMARK  status: ('A' for Active; 'I' for Inactive)
ROOT
ATOM      1  C   UNL d   1      -1.773   0.124  -2.872  0.00  0.00     0.124 A 
ATOM      2  C1  UNL d   1      -0.809   1.109  -2.710  0.00  0.00     0.062 A 
ATOM      3  C2  UNL d   1      -0.730   1.821  -1.517  0.00  0.00     0.162 A 
ATOM      4  C3  UNL d   1      -1.617   1.549  -0.475  0.00  0.00    -0.034 A 
ATOM      5  C4  UNL d   1      -2.584   0.558  -0.646  0.00  0.00     0.162 A 
ATOM      6  C5  UNL d   1      -2.659  -0.151  -1.840  0.00  0.00     0.062 A 
ATOM      7  F   UNL d   1      -3.592  -1.103  -1.995  0.00  0.00    -0.097 F 
ATOM      8  F1  UNL d   1      -3.453   0.271   0.335  0.00  0.00    -0.096 F 
ATOM      9  I   UNL d   1      -1.501   2.612   1.311  0.00  0.00    -0.060 I 
ATOM     10  F2  UNL d   1       0.212   2.767  -1.387  0.00  0.00    -0.096 F 
ATOM     11  F3  UNL d   1       0.048   1.377  -3.706  0.00  0.00    -0.097 F 
ATOM     12  F4  UNL d   1      -1.848  -0.559  -4.022  0.00  0.00    -0.092 F 
ENDROOT
TORSDOF 0
ENDMDL
