MODEL 1
REMARK minimizedAffinity 22.55439
REMARK minimizedRMSD -1
REMARK  0 active torsions:
REMARK  status: ('A' for Active; 'I' for Inactive)
ROOT
ATOM      1  C   UNL d   1      -2.570   2.499  -1.299  0.00  0.00     0.124 A 
ATOM      2  C1  UNL d   1      -3.694   1.715  -1.518  0.00  0.00     0.062 A 
ATOM      3  C2  UNL d   1      -4.664   2.120  -2.430  0.00  0.00     0.162 A 
ATOM      4  C3  UNL d   1      -4.514   3.316  -3.132  0.00  0.00    -0.034 A 
ATOM      5  C4  UNL d   1      -3.381   4.100  -2.906  0.00  0.00     0.162 A 
ATOM      6  C5  UNL d   1      -2.414   3.690  -1.993  0.00  0.00     0.062 A 
ATOM      7  F   UNL d   1      -1.329   4.450  -1.783  0.00  0.00    -0.097 F 
ATOM      8  F1  UNL d   1      -3.205   5.256  -3.564  0.00  0.00    -0.096 F 
ATOM      9  I   UNL d   1      -5.961   3.926  -4.497  0.00  0.00    -0.060 I 
ATOM     10  F2  UNL d   1      -5.740   1.342  -2.622  0.00  0.00    -0.096 F 
ATOM     11  F3  UNL d   1      -3.847   0.563  -0.848  0.00  0.00    -0.097 F 
ATOM     12  F4  UNL d   1      -1.639   2.107  -0.420  0.00  0.00    -0.092 F 
ENDROOT
TORSDOF 0
ENDMDL
