MODEL 1
REMARK minimizedAffinity 22.0307064
REMARK minimizedRMSD -1
REMARK  0 active torsions:
REMARK  status: ('A' for Active; 'I' for Inactive)
ROOT
ATOM      1  C   UNL d   1      -0.637   1.564  -2.030  0.00  0.00     0.124 A 
ATOM      2  C1  UNL d   1      -0.643   2.305  -0.857  0.00  0.00     0.062 A 
ATOM      3  C2  UNL d   1      -1.527   1.984   0.170  0.00  0.00     0.162 A 
ATOM      4  C3  UNL d   1      -2.411   0.914   0.028  0.00  0.00    -0.034 A 
ATOM      5  C4  UNL d   1      -2.400   0.174  -1.156  0.00  0.00     0.162 A 
ATOM      6  C5  UNL d   1      -1.515   0.500  -2.179  0.00  0.00     0.062 A 
ATOM      7  F   UNL d   1      -1.510  -0.218  -3.312  0.00  0.00    -0.097 F 
ATOM      8  F1  UNL d   1      -3.237  -0.860  -1.326  0.00  0.00    -0.096 F 
ATOM      9  I   UNL d   1      -3.734   0.430   1.560  0.00  0.00    -0.060 I 
ATOM     10  F2  UNL d   1      -1.511   2.717   1.293  0.00  0.00    -0.096 F 
ATOM     11  F3  UNL d   1       0.203   3.335  -0.711  0.00  0.00    -0.097 F 
ATOM     12  F4  UNL d   1       0.213   1.876  -3.016  0.00  0.00    -0.092 F 
ENDROOT
TORSDOF 0
ENDMDL
