MODEL 1
REMARK minimizedAffinity 5.00366449
REMARK minimizedRMSD -1
REMARK  0 active torsions:
REMARK  status: ('A' for Active; 'I' for Inactive)
ROOT
ATOM      1  C   UNL d   1       0.757   3.765   1.855  0.00  0.00     0.124 A 
ATOM      2  C1  UNL d   1       1.712   2.793   1.590  0.00  0.00     0.062 A 
ATOM      3  C2  UNL d   1       1.426   1.753   0.710  0.00  0.00     0.162 A 
ATOM      4  C3  UNL d   1       0.181   1.681   0.086  0.00  0.00    -0.034 A 
ATOM      5  C4  UNL d   1      -0.775   2.662   0.359  0.00  0.00     0.162 A 
ATOM      6  C5  UNL d   1      -0.485   3.699   1.239  0.00  0.00     0.062 A 
ATOM      7  F   UNL d   1      -1.408   4.637   1.494  0.00  0.00    -0.097 F 
ATOM      8  F1  UNL d   1      -1.983   2.623  -0.223  0.00  0.00    -0.096 F 
ATOM      9  I   UNL d   1      -0.250   0.128  -1.231  0.00  0.00    -0.060 I 
ATOM     10  F2  UNL d   1       2.368   0.828   0.472  0.00  0.00    -0.096 F 
ATOM     11  F3  UNL d   1       2.912   2.854   2.185  0.00  0.00    -0.097 F 
ATOM     12  F4  UNL d   1       1.034   4.764   2.704  0.00  0.00    -0.092 F 
ENDROOT
TORSDOF 0
ENDMDL
