MODEL 1
REMARK minimizedAffinity 11.2045984
REMARK minimizedRMSD -1
REMARK  0 active torsions:
REMARK  status: ('A' for Active; 'I' for Inactive)
ROOT
ATOM      1  C   UNL d   1       0.012   1.785   0.647  0.00  0.00     0.124 A 
ATOM      2  C1  UNL d   1       1.319   1.634   1.091  0.00  0.00     0.062 A 
ATOM      3  C2  UNL d   1       2.121   0.621   0.575  0.00  0.00     0.162 A 
ATOM      4  C3  UNL d   1       1.619  -0.250  -0.393  0.00  0.00    -0.034 A 
ATOM      5  C4  UNL d   1       0.304  -0.092  -0.834  0.00  0.00     0.162 A 
ATOM      6  C5  UNL d   1      -0.494   0.923  -0.315  0.00  0.00     0.062 A 
ATOM      7  F   UNL d   1      -1.755   1.067  -0.745  0.00  0.00    -0.097 F 
ATOM      8  F1  UNL d   1      -0.210  -0.911  -1.764  0.00  0.00    -0.096 F 
ATOM      9  I   UNL d   1       2.815  -1.767  -1.168  0.00  0.00    -0.060 I 
ATOM     10  F2  UNL d   1       3.379   0.498   1.022  0.00  0.00    -0.096 F 
ATOM     11  F3  UNL d   1       1.810   2.466   2.021  0.00  0.00    -0.097 F 
ATOM     12  F4  UNL d   1      -0.757   2.761   1.146  0.00  0.00    -0.092 F 
ENDROOT
TORSDOF 0
ENDMDL
