MODEL 1
REMARK minimizedAffinity 13.9424191
REMARK minimizedRMSD -1
REMARK  0 active torsions:
REMARK  status: ('A' for Active; 'I' for Inactive)
ROOT
ATOM      1  C   UNL d   1      -1.171   1.365   0.151  0.00  0.00     0.124 A 
ATOM      2  C1  UNL d   1      -2.116   0.402  -0.178  0.00  0.00     0.062 A 
ATOM      3  C2  UNL d   1      -2.141  -0.146  -1.457  0.00  0.00     0.162 A 
ATOM      4  C3  UNL d   1      -1.217   0.266  -2.417  0.00  0.00    -0.034 A 
ATOM      5  C4  UNL d   1      -0.270   1.235  -2.080  0.00  0.00     0.162 A 
ATOM      6  C5  UNL d   1      -0.250   1.780  -0.800  0.00  0.00     0.062 A 
ATOM      7  F   UNL d   1       0.664   2.710  -0.484  0.00  0.00    -0.097 F 
ATOM      8  F1  UNL d   1       0.633   1.654  -2.979  0.00  0.00    -0.096 F 
ATOM      9  I   UNL d   1      -1.250  -0.552  -4.331  0.00  0.00    -0.060 I 
ATOM     10  F2  UNL d   1      -3.064  -1.074  -1.747  0.00  0.00    -0.096 F 
ATOM     11  F3  UNL d   1      -3.008  -0.000   0.739  0.00  0.00    -0.097 F 
ATOM     12  F4  UNL d   1      -1.150   1.891   1.382  0.00  0.00    -0.092 F 
ENDROOT
TORSDOF 0
ENDMDL
