MODEL 1
REMARK minimizedAffinity -4.56301832
REMARK minimizedRMSD -1
REMARK  1 active torsions:
REMARK  status: ('A' for Active; 'I' for Inactive)
REMARK    1  A    between atoms: C1_2  and  C2_3 
ROOT
ATOM      1  C2  UNL d   1      -0.302  -1.678  -0.692  0.00  0.00    -0.081 A 
ATOM      2  C3  UNL d   1       0.086  -1.096   0.521  0.00  0.00     0.006 A 
ATOM      3  C4  UNL d   1      -0.300   0.209   0.837  0.00  0.00     0.002 A 
ATOM      4  C5  UNL d   1      -1.087   0.950  -0.051  0.00  0.00    -0.080 A 
ATOM      5  C6  UNL d   1      -1.533   2.341   0.288  0.00  0.00     0.076 C 
ATOM      6  C7  UNL d   1      -1.459   0.376  -1.271  0.00  0.00     0.002 A 
ATOM      7  C8  UNL d   1      -1.073  -0.929  -1.587  0.00  0.00     0.006 A 
ENDROOT
BRANCH   1   8
ATOM      8  C1  UNL d   1       0.059  -3.107  -1.006  0.00  0.00     0.054 C 
ATOM      9  C   UNL d   1      -0.420  -3.506  -2.395  0.00  0.00     0.018 C 
ENDBRANCH   1   8
TORSDOF 1
ENDMDL
