MODEL 1
REMARK minimizedAffinity 3.56614947
REMARK minimizedRMSD -1
REMARK  1 active torsions:
REMARK  status: ('A' for Active; 'I' for Inactive)
REMARK    1  A    between atoms: C1_2  and  C2_3 
ROOT
ATOM      1  C2  UNL d   1       0.842   1.250   1.085  0.00  0.00    -0.081 A 
ATOM      2  C3  UNL d   1       0.415  -0.040   0.747  0.00  0.00     0.006 A 
ATOM      3  C4  UNL d   1      -0.922  -0.280   0.419  0.00  0.00     0.002 A 
ATOM      4  C5  UNL d   1      -1.851   0.765   0.417  0.00  0.00    -0.080 A 
ATOM      5  C6  UNL d   1      -3.282   0.527   0.037  0.00  0.00     0.076 C 
ATOM      6  C7  UNL d   1      -1.428   2.051   0.772  0.00  0.00     0.002 A 
ATOM      7  C8  UNL d   1      -0.092   2.291   1.100  0.00  0.00     0.006 A 
ENDROOT
BRANCH   1   8
ATOM      8  C1  UNL d   1       2.295   1.524   1.377  0.00  0.00     0.054 C 
ATOM      9  C   UNL d   1       3.196   0.489   0.719  0.00  0.00     0.018 C 
ENDBRANCH   1   8
TORSDOF 1
ENDMDL
