MODEL 1
REMARK minimizedAffinity -0.925429404
REMARK minimizedRMSD -1
REMARK  1 active torsions:
REMARK  status: ('A' for Active; 'I' for Inactive)
REMARK    1  A    between atoms: C1_2  and  C2_3 
ROOT
ATOM      1  C2  UNL d   1       1.195   2.288   0.788  0.00  0.00    -0.081 A 
ATOM      2  C3  UNL d   1       2.094   1.267   0.457  0.00  0.00     0.006 A 
ATOM      3  C4  UNL d   1       1.644   0.103  -0.169  0.00  0.00     0.002 A 
ATOM      4  C5  UNL d   1       0.290  -0.057  -0.481  0.00  0.00    -0.080 A 
ATOM      5  C6  UNL d   1      -0.201  -1.290  -1.181  0.00  0.00     0.076 C 
ATOM      6  C7  UNL d   1      -0.611   0.955  -0.135  0.00  0.00     0.002 A 
ATOM      7  C8  UNL d   1      -0.162   2.119   0.492  0.00  0.00     0.006 A 
ENDROOT
BRANCH   1   8
ATOM      8  C1  UNL d   1       1.686   3.573   1.405  0.00  0.00     0.054 C 
ATOM      9  C   UNL d   1       1.480   4.752   0.466  0.00  0.00     0.018 C 
ENDBRANCH   1   8
TORSDOF 1
ENDMDL
