MODEL 1
REMARK minimizedAffinity -3.80238414
REMARK minimizedRMSD -1
REMARK  1 active torsions:
REMARK  status: ('A' for Active; 'I' for Inactive)
REMARK    1  A    between atoms: C1_2  and  C2_3 
ROOT
ATOM      1  C2  UNL d   1      -0.622   0.975   0.305  0.00  0.00    -0.081 A 
ATOM      2  C3  UNL d   1      -0.961   1.965   1.236  0.00  0.00     0.006 A 
ATOM      3  C4  UNL d   1      -0.245   3.163   1.288  0.00  0.00     0.002 A 
ATOM      4  C5  UNL d   1       0.816   3.395   0.406  0.00  0.00    -0.080 A 
ATOM      5  C6  UNL d   1       1.574   4.689   0.431  0.00  0.00     0.076 C 
ATOM      6  C7  UNL d   1       1.166   2.399  -0.512  0.00  0.00     0.002 A 
ATOM      7  C8  UNL d   1       0.451   1.201  -0.564  0.00  0.00     0.006 A 
ENDROOT
BRANCH   1   8
ATOM      8  C1  UNL d   1      -1.434  -0.291   0.203  0.00  0.00     0.054 C 
ATOM      9  C   UNL d   1      -0.556  -1.484  -0.149  0.00  0.00     0.018 C 
ENDBRANCH   1   8
TORSDOF 1
ENDMDL
