MODEL 1
REMARK minimizedAffinity -5.04537487
REMARK minimizedRMSD -1
REMARK  1 active torsions:
REMARK  status: ('A' for Active; 'I' for Inactive)
REMARK    1  A    between atoms: C1_2  and  C2_3 
ROOT
ATOM      1  C2  UNL d   1       0.480   0.202  -0.109  0.00  0.00    -0.081 A 
ATOM      2  C3  UNL d   1      -0.479   1.203  -0.312  0.00  0.00     0.006 A 
ATOM      3  C4  UNL d   1      -0.145   2.548  -0.139  0.00  0.00     0.002 A 
ATOM      4  C5  UNL d   1       1.152   2.916   0.232  0.00  0.00    -0.080 A 
ATOM      5  C6  UNL d   1       1.531   4.358   0.392  0.00  0.00     0.076 C 
ATOM      6  C7  UNL d   1       2.105   1.916   0.452  0.00  0.00     0.002 A 
ATOM      7  C8  UNL d   1       1.773   0.570   0.280  0.00  0.00     0.006 A 
ENDROOT
BRANCH   1   8
ATOM      8  C1  UNL d   1       0.141  -1.245  -0.358  0.00  0.00     0.054 C 
ATOM      9  C   UNL d   1       0.316  -2.079   0.903  0.00  0.00     0.018 C 
ENDBRANCH   1   8
TORSDOF 1
ENDMDL
