MODEL 1
REMARK minimizedAffinity -5.43276596
REMARK minimizedRMSD -1
REMARK  1 active torsions:
REMARK  status: ('A' for Active; 'I' for Inactive)
REMARK    1  A    between atoms: C1_2  and  C2_3 
ROOT
ATOM      1  C2  UNL d   1       0.654  -0.416   0.281  0.00  0.00    -0.081 A 
ATOM      2  C3  UNL d   1      -0.562   0.266   0.407  0.00  0.00     0.006 A 
ATOM      3  C4  UNL d   1      -0.602   1.661   0.340  0.00  0.00     0.002 A 
ATOM      4  C5  UNL d   1       0.571   2.396   0.137  0.00  0.00    -0.080 A 
ATOM      5  C6  UNL d   1       0.538   3.892   0.032  0.00  0.00     0.076 C 
ATOM      6  C7  UNL d   1       1.789   1.715   0.028  0.00  0.00     0.002 A 
ATOM      7  C8  UNL d   1       1.829   0.321   0.096  0.00  0.00     0.006 A 
ENDROOT
BRANCH   1   8
ATOM      8  C1  UNL d   1       0.692  -1.923   0.288  0.00  0.00     0.054 C 
ATOM      9  C   UNL d   1      -0.064  -2.501  -0.899  0.00  0.00     0.018 C 
ENDBRANCH   1   8
TORSDOF 1
ENDMDL
