MODEL 1
REMARK minimizedAffinity -2.55142999
REMARK minimizedRMSD -1
REMARK  1 active torsions:
REMARK  status: ('A' for Active; 'I' for Inactive)
REMARK    1  A    between atoms: C1_2  and  C2_3 
ROOT
ATOM      1  C2  UNL d   1      -0.604  -1.394  -1.513  0.00  0.00    -0.081 A 
ATOM      2  C3  UNL d   1      -0.072  -1.408  -0.218  0.00  0.00     0.006 A 
ATOM      3  C4  UNL d   1      -0.231  -0.306   0.625  0.00  0.00     0.002 A 
ATOM      4  C5  UNL d   1      -0.932   0.824   0.191  0.00  0.00    -0.080 A 
ATOM      5  C6  UNL d   1      -1.137   2.002   1.097  0.00  0.00     0.076 C 
ATOM      6  C7  UNL d   1      -1.449   0.846  -1.109  0.00  0.00     0.002 A 
ATOM      7  C8  UNL d   1      -1.290  -0.256  -1.952  0.00  0.00     0.006 A 
ENDROOT
BRANCH   1   8
ATOM      8  C1  UNL d   1      -0.490  -2.606  -2.402  0.00  0.00     0.054 C 
ATOM      9  C   UNL d   1      -1.511  -3.669  -2.023  0.00  0.00     0.018 C 
ENDBRANCH   1   8
TORSDOF 1
ENDMDL
