MODEL 1
REMARK minimizedAffinity -5.48891592
REMARK minimizedRMSD -1
REMARK  1 active torsions:
REMARK  status: ('A' for Active; 'I' for Inactive)
REMARK    1  A    between atoms: C1_2  and  C2_3 
ROOT
ATOM      1  C2  UNL d   1       0.050  -0.324   0.280  0.00  0.00    -0.081 A 
ATOM      2  C3  UNL d   1      -0.892   0.712   0.291  0.00  0.00     0.006 A 
ATOM      3  C4  UNL d   1      -0.477   2.046   0.305  0.00  0.00     0.002 A 
ATOM      4  C5  UNL d   1       0.884   2.366   0.299  0.00  0.00    -0.080 A 
ATOM      5  C6  UNL d   1       1.343   3.795   0.283  0.00  0.00     0.076 C 
ATOM      6  C7  UNL d   1       1.826   1.331   0.305  0.00  0.00     0.002 A 
ATOM      7  C8  UNL d   1       1.412  -0.002   0.293  0.00  0.00     0.006 A 
ENDROOT
BRANCH   1   8
ATOM      8  C1  UNL d   1      -0.393  -1.762   0.200  0.00  0.00     0.054 C 
ATOM      9  C   UNL d   1      -0.343  -2.278  -1.231  0.00  0.00     0.018 C 
ENDBRANCH   1   8
TORSDOF 1
ENDMDL
