MODEL 1
REMARK minimizedAffinity -4.09692669
REMARK minimizedRMSD -1
REMARK  1 active torsions:
REMARK  status: ('A' for Active; 'I' for Inactive)
REMARK    1  A    between atoms: C1_2  and  C2_3 
ROOT
ATOM      1  C2  UNL d   1      -0.303  -1.509  -0.760  0.00  0.00    -0.081 A 
ATOM      2  C3  UNL d   1      -1.505  -0.792  -0.803  0.00  0.00     0.006 A 
ATOM      3  C4  UNL d   1      -1.622   0.433  -0.143  0.00  0.00     0.002 A 
ATOM      4  C5  UNL d   1      -0.539   0.966   0.564  0.00  0.00    -0.080 A 
ATOM      5  C6  UNL d   1      -0.642   2.295   1.252  0.00  0.00     0.076 C 
ATOM      6  C7  UNL d   1       0.657   0.241   0.622  0.00  0.00     0.002 A 
ATOM      7  C8  UNL d   1       0.775  -0.984  -0.038  0.00  0.00     0.006 A 
ENDROOT
BRANCH   1   8
ATOM      8  C1  UNL d   1      -0.152  -2.799  -1.524  0.00  0.00     0.054 C 
ATOM      9  C   UNL d   1      -1.507  -3.364  -1.928  0.00  0.00     0.018 C 
ENDBRANCH   1   8
TORSDOF 1
ENDMDL
