MODEL 1
REMARK minimizedAffinity -3.43649101
REMARK minimizedRMSD -1
REMARK  1 active torsions:
REMARK  status: ('A' for Active; 'I' for Inactive)
REMARK    1  A    between atoms: C1_2  and  C2_3 
ROOT
ATOM      1  C2  UNL d   1      -0.389   0.929   0.632  0.00  0.00    -0.081 A 
ATOM      2  C3  UNL d   1       0.585   0.947  -0.374  0.00  0.00     0.006 A 
ATOM      3  C4  UNL d   1       1.388   2.075  -0.561  0.00  0.00     0.002 A 
ATOM      4  C5  UNL d   1       1.237   3.198   0.258  0.00  0.00    -0.080 A 
ATOM      5  C6  UNL d   1       2.113   4.403   0.087  0.00  0.00     0.076 C 
ATOM      6  C7  UNL d   1       0.252   3.187   1.252  0.00  0.00     0.002 A 
ATOM      7  C8  UNL d   1      -0.552   2.060   1.439  0.00  0.00     0.006 A 
ENDROOT
BRANCH   1   8
ATOM      8  C1  UNL d   1      -1.213  -0.309   0.878  0.00  0.00     0.054 C 
ATOM      9  C   UNL d   1      -0.598  -1.526   0.203  0.00  0.00     0.018 C 
ENDBRANCH   1   8
TORSDOF 1
ENDMDL
