MODEL 1
REMARK minimizedAffinity -3.39087176
REMARK minimizedRMSD -1
REMARK  1 active torsions:
REMARK  status: ('A' for Active; 'I' for Inactive)
REMARK    1  A    between atoms: C1_2  and  C2_3 
ROOT
ATOM      1  C2  UNL d   1      -0.362  -0.142  -0.008  0.00  0.00    -0.081 A 
ATOM      2  C3  UNL d   1      -1.139   0.923   0.464  0.00  0.00     0.006 A 
ATOM      3  C4  UNL d   1      -0.566   2.179   0.675  0.00  0.00     0.002 A 
ATOM      4  C5  UNL d   1       0.791   2.394   0.410  0.00  0.00    -0.080 A 
ATOM      5  C6  UNL d   1       1.412   3.746   0.602  0.00  0.00     0.076 C 
ATOM      6  C7  UNL d   1       1.572   1.326  -0.045  0.00  0.00     0.002 A 
ATOM      7  C8  UNL d   1       0.999   0.069  -0.255  0.00  0.00     0.006 A 
ENDROOT
BRANCH   1   8
ATOM      8  C1  UNL d   1      -0.991  -1.481  -0.297  0.00  0.00     0.054 C 
ATOM      9  C   UNL d   1       0.067  -2.551  -0.526  0.00  0.00     0.018 C 
ENDBRANCH   1   8
TORSDOF 1
ENDMDL
