MODEL 1
REMARK minimizedAffinity 0.758921802
REMARK minimizedRMSD -1
REMARK  1 active torsions:
REMARK  status: ('A' for Active; 'I' for Inactive)
REMARK    1  A    between atoms: C1_2  and  C2_3 
ROOT
ATOM      1  C2  UNL d   1      -1.171  -1.579  -0.267  0.00  0.00    -0.081 A 
ATOM      2  C3  UNL d   1       0.100  -1.102   0.077  0.00  0.00     0.006 A 
ATOM      3  C4  UNL d   1       0.253   0.173   0.625  0.00  0.00     0.002 A 
ATOM      4  C5  UNL d   1      -0.861   0.989   0.847  0.00  0.00    -0.080 A 
ATOM      5  C6  UNL d   1      -0.714   2.349   1.463  0.00  0.00     0.076 C 
ATOM      6  C7  UNL d   1      -2.129   0.520   0.487  0.00  0.00     0.002 A 
ATOM      7  C8  UNL d   1      -2.283  -0.755  -0.062  0.00  0.00     0.006 A 
ENDROOT
BRANCH   1   8
ATOM      8  C1  UNL d   1      -1.346  -2.979  -0.798  0.00  0.00     0.054 C 
ATOM      9  C   UNL d   1      -0.861  -3.090  -2.236  0.00  0.00     0.018 C 
ENDBRANCH   1   8
TORSDOF 1
ENDMDL
