MODEL 1
REMARK minimizedAffinity -4.32169819
REMARK minimizedRMSD -1
REMARK  0 active torsions:
REMARK  status: ('A' for Active; 'I' for Inactive)
ROOT
ATOM      1  C   UNL d   1       2.224   0.409  -0.418  0.00  0.00     0.078 C 
ATOM      2  C1  UNL d   1       1.216  -0.152   0.539  0.00  0.00    -0.077 A 
ATOM      3  C2  UNL d   1       1.618  -0.828   1.698  0.00  0.00    -0.001 A 
ATOM      4  C3  UNL d   1       0.668  -1.353   2.575  0.00  0.00     0.003 A 
ATOM      5  C4  UNL d   1      -0.691  -1.210   2.302  0.00  0.00    -0.005 A 
ATOM      6  C5  UNL d   1      -1.101  -0.541   1.151  0.00  0.00     0.003 A 
ATOM      7  C6  UNL d   1      -0.153  -0.014   0.273  0.00  0.00    -0.001 A 
ENDROOT
TORSDOF 0
ENDMDL
