MODEL 1
REMARK minimizedAffinity -5.522861
REMARK minimizedRMSD -1
REMARK  0 active torsions:
REMARK  status: ('A' for Active; 'I' for Inactive)
ROOT
ATOM      1  C   UNL d   1       1.507  -1.082   3.663  0.00  0.00     0.078 C 
ATOM      2  C1  UNL d   1       1.217  -1.079   2.191  0.00  0.00    -0.077 A 
ATOM      3  C2  UNL d   1       2.119  -1.638   1.277  0.00  0.00    -0.001 A 
ATOM      4  C3  UNL d   1       1.840  -1.620  -0.090  0.00  0.00     0.003 A 
ATOM      5  C4  UNL d   1       0.660  -1.043  -0.556  0.00  0.00    -0.005 A 
ATOM      6  C5  UNL d   1      -0.243  -0.483   0.346  0.00  0.00     0.003 A 
ATOM      7  C6  UNL d   1       0.034  -0.501   1.713  0.00  0.00    -0.001 A 
ENDROOT
TORSDOF 0
ENDMDL
