MODEL 1
REMARK minimizedAffinity -3.86502957
REMARK minimizedRMSD -1
REMARK  0 active torsions:
REMARK  status: ('A' for Active; 'I' for Inactive)
ROOT
ATOM      1  C   UNL d   1       1.699  -0.544   2.831  0.00  0.00     0.078 C 
ATOM      2  C1  UNL d   1       0.789  -0.319   1.661  0.00  0.00    -0.077 A 
ATOM      3  C2  UNL d   1      -0.599  -0.446   1.792  0.00  0.00    -0.001 A 
ATOM      4  C3  UNL d   1      -1.433  -0.242   0.692  0.00  0.00     0.003 A 
ATOM      5  C4  UNL d   1      -0.889   0.089  -0.548  0.00  0.00    -0.005 A 
ATOM      6  C5  UNL d   1       0.492   0.216  -0.688  0.00  0.00     0.003 A 
ATOM      7  C6  UNL d   1       1.328   0.012   0.411  0.00  0.00    -0.001 A 
ENDROOT
TORSDOF 0
ENDMDL
