MODEL 1
REMARK minimizedAffinity -2.70586252
REMARK minimizedRMSD -1
REMARK  0 active torsions:
REMARK  status: ('A' for Active; 'I' for Inactive)
ROOT
ATOM      1  C   UNL d   1      -0.441   3.320  -2.415  0.00  0.00     0.078 C 
ATOM      2  C1  UNL d   1      -0.587   1.956  -1.810  0.00  0.00    -0.077 A 
ATOM      3  C2  UNL d   1       0.461   1.372  -1.087  0.00  0.00    -0.001 A 
ATOM      4  C3  UNL d   1       0.315   0.097  -0.538  0.00  0.00     0.003 A 
ATOM      5  C4  UNL d   1      -0.876  -0.605  -0.706  0.00  0.00    -0.005 A 
ATOM      6  C5  UNL d   1      -1.924  -0.033  -1.425  0.00  0.00     0.003 A 
ATOM      7  C6  UNL d   1      -1.780   1.241  -1.975  0.00  0.00    -0.001 A 
ENDROOT
TORSDOF 0
ENDMDL
