MODEL 1
REMARK minimizedAffinity -2.25110555
REMARK minimizedRMSD -1
REMARK  0 active torsions:
REMARK  status: ('A' for Active; 'I' for Inactive)
ROOT
ATOM      1  C   UNL d   1      -0.760   0.514  -1.241  0.00  0.00     0.078 C 
ATOM      2  C1  UNL d   1      -0.298  -0.184   0.003  0.00  0.00    -0.077 A 
ATOM      3  C2  UNL d   1      -0.987  -0.032   1.213  0.00  0.00    -0.001 A 
ATOM      4  C3  UNL d   1      -0.540  -0.680   2.366  0.00  0.00     0.003 A 
ATOM      5  C4  UNL d   1       0.597  -1.484   2.320  0.00  0.00    -0.005 A 
ATOM      6  C5  UNL d   1       1.290  -1.639   1.122  0.00  0.00     0.003 A 
ATOM      7  C6  UNL d   1       0.845  -0.992  -0.032  0.00  0.00    -0.001 A 
ENDROOT
TORSDOF 0
ENDMDL
