MODEL 1
REMARK minimizedAffinity -4.055233
REMARK minimizedRMSD -1
REMARK  0 active torsions:
REMARK  status: ('A' for Active; 'I' for Inactive)
ROOT
ATOM      1  C   UNL d   1      -1.888  -0.333   0.385  0.00  0.00     0.078 C 
ATOM      2  C1  UNL d   1      -0.489  -0.741   0.738  0.00  0.00    -0.077 A 
ATOM      3  C2  UNL d   1      -0.216  -1.422   1.931  0.00  0.00    -0.001 A 
ATOM      4  C3  UNL d   1       1.092  -1.787   2.252  0.00  0.00     0.003 A 
ATOM      5  C4  UNL d   1       2.138  -1.475   1.386  0.00  0.00    -0.005 A 
ATOM      6  C5  UNL d   1       1.877  -0.795   0.198  0.00  0.00     0.003 A 
ATOM      7  C6  UNL d   1       0.569  -0.429  -0.125  0.00  0.00    -0.001 A 
ENDROOT
TORSDOF 0
ENDMDL
