MODEL 1
REMARK minimizedAffinity -1.99442327
REMARK minimizedRMSD -1
REMARK  0 active torsions:
REMARK  status: ('A' for Active; 'I' for Inactive)
ROOT
ATOM      1  C   UNL d   1       2.617  -0.705   0.747  0.00  0.00     0.078 C 
ATOM      2  C1  UNL d   1       1.191  -0.887   1.173  0.00  0.00    -0.077 A 
ATOM      3  C2  UNL d   1       0.870  -1.610   2.329  0.00  0.00    -0.001 A 
ATOM      4  C3  UNL d   1      -0.462  -1.779   2.708  0.00  0.00     0.003 A 
ATOM      5  C4  UNL d   1      -1.485  -1.230   1.937  0.00  0.00    -0.005 A 
ATOM      6  C5  UNL d   1      -1.176  -0.511   0.785  0.00  0.00     0.003 A 
ATOM      7  C6  UNL d   1       0.156  -0.340   0.403  0.00  0.00    -0.001 A 
ENDROOT
TORSDOF 0
ENDMDL
