MODEL 1
REMARK minimizedAffinity -2.47124505
REMARK minimizedRMSD -1
REMARK  0 active torsions:
REMARK  status: ('A' for Active; 'I' for Inactive)
ROOT
ATOM      1  C   UNL d   1      -0.203   0.422  -1.348  0.00  0.00     0.078 C 
ATOM      2  C1  UNL d   1      -0.796   1.516  -2.185  0.00  0.00    -0.077 A 
ATOM      3  C2  UNL d   1      -1.690   2.442  -1.634  0.00  0.00    -0.001 A 
ATOM      4  C3  UNL d   1      -2.242   3.449  -2.427  0.00  0.00     0.003 A 
ATOM      5  C4  UNL d   1      -1.907   3.539  -3.777  0.00  0.00    -0.005 A 
ATOM      6  C5  UNL d   1      -1.020   2.620  -4.335  0.00  0.00     0.003 A 
ATOM      7  C6  UNL d   1      -0.467   1.613  -3.543  0.00  0.00    -0.001 A 
ENDROOT
TORSDOF 0
ENDMDL
