MODEL 1
REMARK minimizedAffinity -5.49983311
REMARK minimizedRMSD -1
REMARK  0 active torsions:
REMARK  status: ('A' for Active; 'I' for Inactive)
ROOT
ATOM      1  C   UNL d   1       1.793  -0.326   2.690  0.00  0.00     0.078 C 
ATOM      2  C1  UNL d   1       0.998  -0.618   1.452  0.00  0.00    -0.077 A 
ATOM      3  C2  UNL d   1      -0.400  -0.682   1.491  0.00  0.00    -0.001 A 
ATOM      4  C3  UNL d   1      -1.126  -0.965   0.333  0.00  0.00     0.003 A 
ATOM      5  C4  UNL d   1      -0.463  -1.187  -0.872  0.00  0.00    -0.005 A 
ATOM      6  C5  UNL d   1       0.929  -1.128  -0.920  0.00  0.00     0.003 A 
ATOM      7  C6  UNL d   1       1.656  -0.845   0.237  0.00  0.00    -0.001 A 
ENDROOT
TORSDOF 0
ENDMDL
