MODEL 1
REMARK minimizedAffinity 11.7825775
REMARK minimizedRMSD -1
REMARK  1 active torsions:
REMARK  status: ('A' for Active; 'I' for Inactive)
REMARK    1  A    between atoms: C1_2  and  C2_3 
ROOT
ATOM      1  C2  UNL d   1      -1.563   1.126   2.597  0.00  0.00    -0.081 A 
ATOM      2  C3  UNL d   1      -1.158   2.174   3.432  0.00  0.00     0.006 A 
ATOM      3  C4  UNL d   1       0.182   2.565   3.479  0.00  0.00     0.002 A 
ATOM      4  C5  UNL d   1       1.138   1.920   2.687  0.00  0.00    -0.080 A 
ATOM      5  C6  UNL d   1       2.575   2.350   2.705  0.00  0.00     0.076 C 
ATOM      6  C7  UNL d   1       0.737   0.861   1.866  0.00  0.00     0.002 A 
ATOM      7  C8  UNL d   1      -0.603   0.469   1.819  0.00  0.00     0.006 A 
ENDROOT
BRANCH   1   8
ATOM      8  C1  UNL d   1      -3.018   0.744   2.496  0.00  0.00     0.054 C 
ATOM      9  C   UNL d   1      -3.842   1.413   3.586  0.00  0.00     0.018 C 
ENDBRANCH   1   8
TORSDOF 1
ENDMDL
