MODEL 1
REMARK minimizedAffinity 5.57929564
REMARK minimizedRMSD -1
REMARK  1 active torsions:
REMARK  status: ('A' for Active; 'I' for Inactive)
REMARK    1  A    between atoms: C1_2  and  C2_3 
ROOT
ATOM      1  C2  UNL d   1       2.704  -2.824  -1.728  0.00  0.00    -0.081 A 
ATOM      2  C3  UNL d   1       3.340  -2.780  -0.481  0.00  0.00     0.006 A 
ATOM      3  C4  UNL d   1       4.212  -3.800  -0.095  0.00  0.00     0.002 A 
ATOM      4  C5  UNL d   1       4.469  -4.877  -0.950  0.00  0.00    -0.080 A 
ATOM      5  C6  UNL d   1       5.426  -5.963  -0.560  0.00  0.00     0.076 C 
ATOM      6  C7  UNL d   1       3.820  -4.930  -2.189  0.00  0.00     0.002 A 
ATOM      7  C8  UNL d   1       2.948  -3.910  -2.576  0.00  0.00     0.006 A 
ENDROOT
BRANCH   1   8
ATOM      8  C1  UNL d   1       1.814  -1.693  -2.175  0.00  0.00     0.054 C 
ATOM      9  C   UNL d   1       2.182  -0.390  -1.478  0.00  0.00     0.018 C 
ENDBRANCH   1   8
TORSDOF 1
ENDMDL
