MODEL 1
REMARK minimizedAffinity 4.83133507
REMARK minimizedRMSD -1
REMARK  1 active torsions:
REMARK  status: ('A' for Active; 'I' for Inactive)
REMARK    1  A    between atoms: C1_2  and  C2_3 
ROOT
ATOM      1  C2  UNL d   1       4.056  -4.504  -1.045  0.00  0.00    -0.081 A 
ATOM      2  C3  UNL d   1       4.789  -4.448  -2.236  0.00  0.00     0.006 A 
ATOM      3  C4  UNL d   1       4.140  -4.270  -3.460  0.00  0.00     0.002 A 
ATOM      4  C5  UNL d   1       2.748  -4.137  -3.512  0.00  0.00    -0.080 A 
ATOM      5  C6  UNL d   1       2.042  -3.916  -4.817  0.00  0.00     0.076 C 
ATOM      6  C7  UNL d   1       2.014  -4.211  -2.324  0.00  0.00     0.002 A 
ATOM      7  C8  UNL d   1       2.662  -4.389  -1.100  0.00  0.00     0.006 A 
ENDROOT
BRANCH   1   8
ATOM      8  C1  UNL d   1       4.758  -4.630   0.283  0.00  0.00     0.054 C 
ATOM      9  C   UNL d   1       5.751  -3.496   0.494  0.00  0.00     0.018 C 
ENDBRANCH   1   8
TORSDOF 1
ENDMDL
