MODEL 1
REMARK minimizedAffinity -0.0918334424
REMARK minimizedRMSD -1
REMARK  1 active torsions:
REMARK  status: ('A' for Active; 'I' for Inactive)
REMARK    1  A    between atoms: C1_2  and  C2_3 
ROOT
ATOM      1  C2  UNL d   1       3.734  -4.115  -3.029  0.00  0.00    -0.081 A 
ATOM      2  C3  UNL d   1       2.987  -3.135  -3.693  0.00  0.00     0.006 A 
ATOM      3  C4  UNL d   1       2.454  -2.052  -2.988  0.00  0.00     0.002 A 
ATOM      4  C5  UNL d   1       2.667  -1.928  -1.611  0.00  0.00    -0.080 A 
ATOM      5  C6  UNL d   1       2.126  -0.755  -0.848  0.00  0.00     0.076 C 
ATOM      6  C7  UNL d   1       3.399  -2.917  -0.945  0.00  0.00     0.002 A 
ATOM      7  C8  UNL d   1       3.931  -4.000  -1.649  0.00  0.00     0.006 A 
ENDROOT
BRANCH   1   8
ATOM      8  C1  UNL d   1       4.364  -5.249  -3.797  0.00  0.00     0.054 C 
ATOM      9  C   UNL d   1       5.761  -4.882  -4.279  0.00  0.00     0.018 C 
ENDBRANCH   1   8
TORSDOF 1
ENDMDL
