MODEL 1
REMARK minimizedAffinity 7.73112917
REMARK minimizedRMSD -1
REMARK  1 active torsions:
REMARK  status: ('A' for Active; 'I' for Inactive)
REMARK    1  A    between atoms: C1_2  and  C2_3 
ROOT
ATOM      1  C2  UNL d   1       3.607  -3.892  -1.378  0.00  0.00    -0.081 A 
ATOM      2  C3  UNL d   1       4.547  -4.318  -2.323  0.00  0.00     0.006 A 
ATOM      3  C4  UNL d   1       4.339  -4.084  -3.684  0.00  0.00     0.002 A 
ATOM      4  C5  UNL d   1       3.192  -3.413  -4.122  0.00  0.00    -0.080 A 
ATOM      5  C6  UNL d   1       2.971  -3.128  -5.578  0.00  0.00     0.076 C 
ATOM      6  C7  UNL d   1       2.244  -3.003  -3.179  0.00  0.00     0.002 A 
ATOM      7  C8  UNL d   1       2.451  -3.237  -1.818  0.00  0.00     0.006 A 
ENDROOT
BRANCH   1   8
ATOM      8  C1  UNL d   1       3.859  -4.086   0.096  0.00  0.00     0.054 C 
ATOM      9  C   UNL d   1       4.941  -3.143   0.601  0.00  0.00     0.018 C 
ENDBRANCH   1   8
TORSDOF 1
ENDMDL
