MODEL 1
REMARK minimizedAffinity -3.15666175
REMARK minimizedRMSD -1
REMARK  1 active torsions:
REMARK  status: ('A' for Active; 'I' for Inactive)
REMARK    1  A    between atoms: C1_2  and  C2_3 
ROOT
ATOM      1  C2  UNL d   1       3.283  -3.987  -1.937  0.00  0.00    -0.081 A 
ATOM      2  C3  UNL d   1       2.807  -3.077  -2.889  0.00  0.00     0.006 A 
ATOM      3  C4  UNL d   1       2.553  -1.749  -2.535  0.00  0.00     0.002 A 
ATOM      4  C5  UNL d   1       2.778  -1.309  -1.226  0.00  0.00    -0.080 A 
ATOM      5  C6  UNL d   1       2.538   0.121  -0.840  0.00  0.00     0.076 C 
ATOM      6  C7  UNL d   1       3.236  -2.222  -0.271  0.00  0.00     0.002 A 
ATOM      7  C8  UNL d   1       3.490  -3.549  -0.624  0.00  0.00     0.006 A 
ENDROOT
BRANCH   1   8
ATOM      8  C1  UNL d   1       3.619  -5.402  -2.331  0.00  0.00     0.054 C 
ATOM      9  C   UNL d   1       3.664  -5.560  -3.844  0.00  0.00     0.018 C 
ENDBRANCH   1   8
TORSDOF 1
ENDMDL
