MODEL 1
REMARK minimizedAffinity 3.19870329
REMARK minimizedRMSD -1
REMARK  1 active torsions:
REMARK  status: ('A' for Active; 'I' for Inactive)
REMARK    1  A    between atoms: C1_2  and  C2_3 
ROOT
ATOM      1  C2  UNL d   1       3.689  -4.134  -1.127  0.00  0.00    -0.081 A 
ATOM      2  C3  UNL d   1       4.312  -4.747  -2.222  0.00  0.00     0.006 A 
ATOM      3  C4  UNL d   1       3.828  -4.544  -3.516  0.00  0.00     0.002 A 
ATOM      4  C5  UNL d   1       2.720  -3.719  -3.739  0.00  0.00    -0.080 A 
ATOM      5  C6  UNL d   1       2.209  -3.468  -5.127  0.00  0.00     0.076 C 
ATOM      6  C7  UNL d   1       2.087  -3.121  -2.644  0.00  0.00     0.002 A 
ATOM      7  C8  UNL d   1       2.570  -3.325  -1.349  0.00  0.00     0.006 A 
ENDROOT
BRANCH   1   8
ATOM      8  C1  UNL d   1       4.247  -4.300   0.263  0.00  0.00     0.054 C 
ATOM      9  C   UNL d   1       5.106  -3.107   0.660  0.00  0.00     0.018 C 
ENDBRANCH   1   8
TORSDOF 1
ENDMDL
