MODEL 1
REMARK minimizedAffinity 1.5738554
REMARK minimizedRMSD -1
REMARK  1 active torsions:
REMARK  status: ('A' for Active; 'I' for Inactive)
REMARK    1  A    between atoms: C1_2  and  C2_3 
ROOT
ATOM      1  C2  UNL d   1      -0.980  -1.834   4.437  0.00  0.00    -0.081 A 
ATOM      2  C3  UNL d   1      -1.996  -1.031   3.905  0.00  0.00     0.006 A 
ATOM      3  C4  UNL d   1      -2.225   0.251   4.411  0.00  0.00     0.002 A 
ATOM      4  C5  UNL d   1      -1.437   0.753   5.452  0.00  0.00    -0.080 A 
ATOM      5  C6  UNL d   1      -1.651   2.139   5.984  0.00  0.00     0.076 C 
ATOM      6  C7  UNL d   1      -0.433  -0.055   5.996  0.00  0.00     0.002 A 
ATOM      7  C8  UNL d   1      -0.205  -1.337   5.491  0.00  0.00     0.006 A 
ENDROOT
BRANCH   1   8
ATOM      8  C1  UNL d   1      -0.690  -3.192   3.851  0.00  0.00     0.054 C 
ATOM      9  C   UNL d   1      -1.412  -3.388   2.525  0.00  0.00     0.018 C 
ENDBRANCH   1   8
TORSDOF 1
ENDMDL
