MODEL 1
REMARK minimizedAffinity 0.00918199308
REMARK minimizedRMSD -1
REMARK  1 active torsions:
REMARK  status: ('A' for Active; 'I' for Inactive)
REMARK    1  A    between atoms: C1_2  and  C2_3 
ROOT
ATOM      1  C2  UNL d   1      -2.015  -3.486   2.208  0.00  0.00    -0.081 A 
ATOM      2  C3  UNL d   1      -2.019  -3.806   0.845  0.00  0.00     0.006 A 
ATOM      3  C4  UNL d   1      -0.958  -3.420   0.024  0.00  0.00     0.002 A 
ATOM      4  C5  UNL d   1       0.128  -2.714   0.553  0.00  0.00    -0.080 A 
ATOM      5  C6  UNL d   1       1.289  -2.319  -0.312  0.00  0.00     0.076 C 
ATOM      6  C7  UNL d   1       0.124  -2.378   1.911  0.00  0.00     0.002 A 
ATOM      7  C8  UNL d   1      -0.937  -2.764   2.733  0.00  0.00     0.006 A 
ENDROOT
BRANCH   1   8
ATOM      8  C1  UNL d   1      -3.128  -3.957   3.110  0.00  0.00     0.054 C 
ATOM      9  C   UNL d   1      -2.839  -5.344   3.666  0.00  0.00     0.018 C 
ENDBRANCH   1   8
TORSDOF 1
ENDMDL
