MODEL 1
REMARK minimizedAffinity 2.73491502
REMARK minimizedRMSD -1
REMARK  1 active torsions:
REMARK  status: ('A' for Active; 'I' for Inactive)
REMARK    1  A    between atoms: C1_2  and  C2_3 
ROOT
ATOM      1  C2  UNL d   1      -0.323   1.825   2.536  0.00  0.00    -0.081 A 
ATOM      2  C3  UNL d   1      -1.623   2.269   2.809  0.00  0.00     0.006 A 
ATOM      3  C4  UNL d   1      -2.319   1.781   3.917  0.00  0.00     0.002 A 
ATOM      4  C5  UNL d   1      -1.726   0.849   4.774  0.00  0.00    -0.080 A 
ATOM      5  C6  UNL d   1      -2.451   0.340   5.985  0.00  0.00     0.076 C 
ATOM      6  C7  UNL d   1      -0.434   0.392   4.492  0.00  0.00     0.002 A 
ATOM      7  C8  UNL d   1       0.263   0.879   3.384  0.00  0.00     0.006 A 
ENDROOT
BRANCH   1   8
ATOM      8  C1  UNL d   1       0.455   2.397   1.378  0.00  0.00     0.054 C 
ATOM      9  C   UNL d   1       1.873   1.846   1.339  0.00  0.00     0.018 C 
ENDBRANCH   1   8
TORSDOF 1
ENDMDL
