MODEL 1
REMARK minimizedAffinity 4.82346487
REMARK minimizedRMSD -1
REMARK  1 active torsions:
REMARK  status: ('A' for Active; 'I' for Inactive)
REMARK    1  A    between atoms: C1_2  and  C2_3 
ROOT
ATOM      1  C2  UNL d   1       1.728   3.842  -1.021  0.00  0.00    -0.081 A 
ATOM      2  C3  UNL d   1       1.688   2.870  -0.015  0.00  0.00     0.006 A 
ATOM      3  C4  UNL d   1       1.742   1.512  -0.339  0.00  0.00     0.002 A 
ATOM      4  C5  UNL d   1       1.844   1.105  -1.674  0.00  0.00    -0.080 A 
ATOM      5  C6  UNL d   1       1.933  -0.348  -2.034  0.00  0.00     0.076 C 
ATOM      6  C7  UNL d   1       1.866   2.076  -2.681  0.00  0.00     0.002 A 
ATOM      7  C8  UNL d   1       1.812   3.433  -2.357  0.00  0.00     0.006 A 
ENDROOT
BRANCH   1   8
ATOM      8  C1  UNL d   1       1.736   5.308  -0.671  0.00  0.00     0.054 C 
ATOM      9  C   UNL d   1       2.994   5.993  -1.184  0.00  0.00     0.018 C 
ENDBRANCH   1   8
TORSDOF 1
ENDMDL
