MODEL 1
REMARK minimizedAffinity 1.69458699
REMARK minimizedRMSD -1
REMARK  1 active torsions:
REMARK  status: ('A' for Active; 'I' for Inactive)
REMARK    1  A    between atoms: C1_2  and  C2_3 
ROOT
ATOM      1  C2  UNL d   1       1.562   4.213  -1.531  0.00  0.00    -0.081 A 
ATOM      2  C3  UNL d   1       0.614   4.175  -2.561  0.00  0.00     0.006 A 
ATOM      3  C4  UNL d   1       0.334   2.977  -3.222  0.00  0.00     0.002 A 
ATOM      4  C5  UNL d   1       0.990   1.796  -2.859  0.00  0.00    -0.080 A 
ATOM      5  C6  UNL d   1       0.677   0.496  -3.540  0.00  0.00     0.076 C 
ATOM      6  C7  UNL d   1       1.950   1.837  -1.842  0.00  0.00     0.002 A 
ATOM      7  C8  UNL d   1       2.231   3.034  -1.181  0.00  0.00     0.006 A 
ENDROOT
BRANCH   1   8
ATOM      8  C1  UNL d   1       1.820   5.490  -0.773  0.00  0.00     0.054 C 
ATOM      9  C   UNL d   1       3.234   6.000  -1.012  0.00  0.00     0.018 C 
ENDBRANCH   1   8
TORSDOF 1
ENDMDL
