MODEL 1
REMARK minimizedAffinity 5.51830482
REMARK minimizedRMSD -1
REMARK  0 active torsions:
REMARK  status: ('A' for Active; 'I' for Inactive)
ROOT
ATOM      1  C   UNL d   1      -3.372   1.243   3.717  0.00  0.00     0.020 A 
ATOM      2  C1  UNL d   1      -2.979   0.950   2.412  0.00  0.00     0.020 A 
ATOM      3  C2  UNL d   1      -1.663   1.188   2.009  0.00  0.00     0.034 A 
ATOM      4  C3  UNL d   1      -0.735   1.719   2.912  0.00  0.00     0.017 A 
ATOM      5  C4  UNL d   1      -1.131   2.012   4.222  0.00  0.00     0.017 A 
ATOM      6  C5  UNL d   1      -2.449   1.773   4.621  0.00  0.00     0.034 A 
ATOM      7 Cl   UNL d   1      -0.043   2.670   5.394  0.00  0.00    -0.070 Cl
ATOM      8 Cl1  UNL d   1       0.875   1.987   2.346  0.00  0.00    -0.070 Cl
ENDROOT
TORSDOF 0
ENDMDL
