MODEL 1
REMARK minimizedAffinity 17.4339657
REMARK minimizedRMSD -1
REMARK  0 active torsions:
REMARK  status: ('A' for Active; 'I' for Inactive)
ROOT
ATOM      1  C   UNL d   1      -3.675  -2.719  -5.114  0.00  0.00     0.020 A 
ATOM      2  C1  UNL d   1      -4.593  -3.680  -4.692  0.00  0.00     0.020 A 
ATOM      3  C2  UNL d   1      -4.259  -4.558  -3.658  0.00  0.00     0.034 A 
ATOM      4  C3  UNL d   1      -3.004  -4.477  -3.044  0.00  0.00     0.017 A 
ATOM      5  C4  UNL d   1      -2.083  -3.512  -3.469  0.00  0.00     0.017 A 
ATOM      6  C5  UNL d   1      -2.423  -2.636  -4.504  0.00  0.00     0.034 A 
ATOM      7 Cl   UNL d   1      -0.515  -3.351  -2.760  0.00  0.00    -0.070 Cl
ATOM      8 Cl1  UNL d   1      -2.658  -5.594  -1.772  0.00  0.00    -0.070 Cl
ENDROOT
TORSDOF 0
ENDMDL
