MODEL 1
REMARK minimizedAffinity 18.3446789
REMARK minimizedRMSD -1
REMARK  0 active torsions:
REMARK  status: ('A' for Active; 'I' for Inactive)
ROOT
ATOM      1  C   UNL d   1       1.113   1.420   6.000  0.00  0.00     0.020 A 
ATOM      2  C1  UNL d   1       2.443   1.792   5.808  0.00  0.00     0.020 A 
ATOM      3  C2  UNL d   1       2.961   1.893   4.515  0.00  0.00     0.034 A 
ATOM      4  C3  UNL d   1       2.148   1.622   3.409  0.00  0.00     0.017 A 
ATOM      5  C4  UNL d   1       0.813   1.248   3.602  0.00  0.00     0.017 A 
ATOM      6  C5  UNL d   1       0.300   1.149   4.899  0.00  0.00     0.034 A 
ATOM      7 Cl   UNL d   1      -0.252   0.898   2.286  0.00  0.00    -0.070 Cl
ATOM      8 Cl1  UNL d   1       2.853   1.768   1.838  0.00  0.00    -0.070 Cl
ENDROOT
TORSDOF 0
ENDMDL
