MODEL 1
REMARK minimizedAffinity 15.8418808
REMARK minimizedRMSD -1
REMARK  0 active torsions:
REMARK  status: ('A' for Active; 'I' for Inactive)
ROOT
ATOM      1  C   UNL d   1      -1.405  -3.044  -3.768  0.00  0.00     0.020 A 
ATOM      2  C1  UNL d   1      -2.581  -2.425  -4.190  0.00  0.00     0.020 A 
ATOM      3  C2  UNL d   1      -2.701  -1.036  -4.124  0.00  0.00     0.034 A 
ATOM      4  C3  UNL d   1      -1.643  -0.260  -3.636  0.00  0.00     0.017 A 
ATOM      5  C4  UNL d   1      -0.463  -0.882  -3.213  0.00  0.00     0.017 A 
ATOM      6  C5  UNL d   1      -0.348  -2.274  -3.281  0.00  0.00     0.034 A 
ATOM      7 Cl   UNL d   1       0.885   0.009  -2.600  0.00  0.00    -0.070 Cl
ATOM      8 Cl1  UNL d   1      -1.861   1.453  -3.584  0.00  0.00    -0.070 Cl
ENDROOT
TORSDOF 0
ENDMDL
