MODEL 1
REMARK minimizedAffinity 12.4781132
REMARK minimizedRMSD -1
REMARK  0 active torsions:
REMARK  status: ('A' for Active; 'I' for Inactive)
ROOT
ATOM      1  C   UNL d   1       2.970   1.247  -0.606  0.00  0.00     0.020 A 
ATOM      2  C1  UNL d   1       2.248   0.194  -0.045  0.00  0.00     0.020 A 
ATOM      3  C2  UNL d   1       1.336  -0.521  -0.825  0.00  0.00     0.034 A 
ATOM      4  C3  UNL d   1       1.143  -0.183  -2.169  0.00  0.00     0.017 A 
ATOM      5  C4  UNL d   1       1.868   0.874  -2.731  0.00  0.00     0.017 A 
ATOM      6  C5  UNL d   1       2.780   1.586  -1.946  0.00  0.00     0.034 A 
ATOM      7 Cl   UNL d   1       1.685   1.348  -4.383  0.00  0.00    -0.070 Cl
ATOM      8 Cl1  UNL d   1      -0.000  -1.110  -3.074  0.00  0.00    -0.070 Cl
ENDROOT
TORSDOF 0
ENDMDL
