MODEL 1
REMARK minimizedAffinity 4.56049538
REMARK minimizedRMSD -1
REMARK  0 active torsions:
REMARK  status: ('A' for Active; 'I' for Inactive)
ROOT
ATOM      1  C   UNL d   1      -3.699   5.680  -5.576  0.00  0.00     0.020 A 
ATOM      2  C1  UNL d   1      -2.735   6.000  -4.620  0.00  0.00     0.020 A 
ATOM      3  C2  UNL d   1      -1.932   4.996  -4.075  0.00  0.00     0.034 A 
ATOM      4  C3  UNL d   1      -2.091   3.667  -4.485  0.00  0.00     0.017 A 
ATOM      5  C4  UNL d   1      -3.059   3.347  -5.444  0.00  0.00     0.017 A 
ATOM      6  C5  UNL d   1      -3.860   4.356  -5.987  0.00  0.00     0.034 A 
ATOM      7 Cl   UNL d   1      -3.314   1.730  -5.999  0.00  0.00    -0.070 Cl
ATOM      8 Cl1  UNL d   1      -1.064   2.477  -3.769  0.00  0.00    -0.070 Cl
ENDROOT
TORSDOF 0
ENDMDL
