MODEL 1
REMARK minimizedAffinity 17.1227531
REMARK minimizedRMSD -1
REMARK  0 active torsions:
REMARK  status: ('A' for Active; 'I' for Inactive)
ROOT
ATOM      1  C   UNL d   1       4.578   2.028  -0.314  0.00  0.00     0.020 A 
ATOM      2  C1  UNL d   1       4.357   2.669   0.904  0.00  0.00     0.020 A 
ATOM      3  C2  UNL d   1       3.239   2.338   1.674  0.00  0.00     0.034 A 
ATOM      4  C3  UNL d   1       2.339   1.365   1.226  0.00  0.00     0.017 A 
ATOM      5  C4  UNL d   1       2.562   0.722   0.003  0.00  0.00     0.017 A 
ATOM      6  C5  UNL d   1       3.683   1.056  -0.764  0.00  0.00     0.034 A 
ATOM      7 Cl   UNL d   1       1.496  -0.490  -0.616  0.00  0.00    -0.070 Cl
ATOM      8 Cl1  UNL d   1       0.978   1.006   2.229  0.00  0.00    -0.070 Cl
ENDROOT
TORSDOF 0
ENDMDL
