MODEL 1
REMARK minimizedAffinity 13.7556658
REMARK minimizedRMSD -1
REMARK  0 active torsions:
REMARK  status: ('A' for Active; 'I' for Inactive)
ROOT
ATOM      1  C   UNL d   1       0.534   5.832  -1.534  0.00  0.00     0.020 A 
ATOM      2  C1  UNL d   1       1.769   5.189  -1.463  0.00  0.00     0.020 A 
ATOM      3  C2  UNL d   1       1.998   4.033  -2.212  0.00  0.00     0.034 A 
ATOM      4  C3  UNL d   1       0.992   3.516  -3.036  0.00  0.00     0.017 A 
ATOM      5  C4  UNL d   1      -0.248   4.162  -3.107  0.00  0.00     0.017 A 
ATOM      6  C5  UNL d   1      -0.472   5.320  -2.355  0.00  0.00     0.034 A 
ATOM      7 Cl   UNL d   1      -1.539   3.585  -4.101  0.00  0.00    -0.070 Cl
ATOM      8 Cl1  UNL d   1       1.345   2.084  -3.935  0.00  0.00    -0.070 Cl
ENDROOT
TORSDOF 0
ENDMDL
