MODEL 1
REMARK minimizedAffinity 12.1183634
REMARK minimizedRMSD -1
REMARK  0 active torsions:
REMARK  status: ('A' for Active; 'I' for Inactive)
ROOT
ATOM      1  C   UNL d   1      -1.907   1.851  -5.469  0.00  0.00     0.020 A 
ATOM      2  C1  UNL d   1      -1.288   1.869  -4.220  0.00  0.00     0.020 A 
ATOM      3  C2  UNL d   1      -1.204   3.063  -3.500  0.00  0.00     0.034 A 
ATOM      4  C3  UNL d   1      -1.740   4.243  -4.028  0.00  0.00     0.017 A 
ATOM      5  C4  UNL d   1      -2.361   4.224  -5.282  0.00  0.00     0.017 A 
ATOM      6  C5  UNL d   1      -2.443   3.026  -5.999  0.00  0.00     0.034 A 
ATOM      7 Cl   UNL d   1      -3.046   5.639  -6.000  0.00  0.00    -0.070 Cl
ATOM      8 Cl1  UNL d   1      -1.600   5.683  -3.083  0.00  0.00    -0.070 Cl
ENDROOT
TORSDOF 0
ENDMDL
