MODEL 1
REMARK minimizedAffinity 21.3631592
REMARK minimizedRMSD -1
REMARK  0 active torsions:
REMARK  status: ('A' for Active; 'I' for Inactive)
ROOT
ATOM      1  C   UNL d   1       1.626   5.501  -1.788  0.00  0.00     0.020 A 
ATOM      2  C1  UNL d   1       1.257   5.546  -0.444  0.00  0.00     0.020 A 
ATOM      3  C2  UNL d   1       1.578   4.485   0.404  0.00  0.00     0.034 A 
ATOM      4  C3  UNL d   1       2.271   3.374  -0.089  0.00  0.00     0.017 A 
ATOM      5  C4  UNL d   1       2.642   3.329  -1.438  0.00  0.00     0.017 A 
ATOM      6  C5  UNL d   1       2.318   4.394  -2.284  0.00  0.00     0.034 A 
ATOM      7 Cl   UNL d   1       3.499   1.992  -2.120  0.00  0.00    -0.070 Cl
ATOM      8 Cl1  UNL d   1       2.636   2.097   1.017  0.00  0.00    -0.070 Cl
ENDROOT
TORSDOF 0
ENDMDL
