MODEL 1
REMARK minimizedAffinity 21.5515461
REMARK minimizedRMSD -1
REMARK  0 active torsions:
REMARK  status: ('A' for Active; 'I' for Inactive)
ROOT
ATOM      1  C   UNL d   1       3.969   2.441  -1.007  0.00  0.00     0.020 A 
ATOM      2  C1  UNL d   1       4.187   1.737   0.177  0.00  0.00     0.020 A 
ATOM      3  C2  UNL d   1       3.633   0.466   0.346  0.00  0.00     0.034 A 
ATOM      4  C3  UNL d   1       2.857  -0.104  -0.670  0.00  0.00     0.017 A 
ATOM      5  C4  UNL d   1       2.638   0.604  -1.858  0.00  0.00     0.017 A 
ATOM      6  C5  UNL d   1       3.196   1.876  -2.022  0.00  0.00     0.034 A 
ATOM      7 Cl   UNL d   1       1.693  -0.034  -3.156  0.00  0.00    -0.070 Cl
ATOM      8 Cl1  UNL d   1       2.203  -1.679  -0.394  0.00  0.00    -0.070 Cl
ENDROOT
TORSDOF 0
ENDMDL
