MODEL 1
REMARK minimizedAffinity 4.66714668
REMARK minimizedRMSD -1
REMARK  0 active torsions:
REMARK  status: ('A' for Active; 'I' for Inactive)
ROOT
ATOM      1  C   UNL d   1      -3.905   4.019  -6.000  0.00  0.00     0.020 A 
ATOM      2  C1  UNL d   1      -3.894   5.403  -5.825  0.00  0.00     0.020 A 
ATOM      3  C2  UNL d   1      -2.938   5.993  -4.995  0.00  0.00     0.034 A 
ATOM      4  C3  UNL d   1      -1.990   5.201  -4.338  0.00  0.00     0.017 A 
ATOM      5  C4  UNL d   1      -2.002   3.813  -4.515  0.00  0.00     0.017 A 
ATOM      6  C5  UNL d   1      -2.961   3.226  -5.347  0.00  0.00     0.034 A 
ATOM      7 Cl   UNL d   1      -0.864   2.770  -3.738  0.00  0.00    -0.070 Cl
ATOM      8 Cl1  UNL d   1      -0.837   5.999  -3.329  0.00  0.00    -0.070 Cl
ENDROOT
TORSDOF 0
ENDMDL
