MODEL 1
REMARK minimizedAffinity 12.573576
REMARK minimizedRMSD -1
REMARK  0 active torsions:
REMARK  status: ('A' for Active; 'I' for Inactive)
ROOT
ATOM      1  C   UNL d   1       0.719  -1.565  -1.378  0.00  0.00     0.020 A 
ATOM      2  C1  UNL d   1       1.199  -2.831  -1.046  0.00  0.00     0.020 A 
ATOM      3  C2  UNL d   1       2.518  -2.986  -0.613  0.00  0.00     0.034 A 
ATOM      4  C3  UNL d   1       3.361  -1.873  -0.511  0.00  0.00     0.017 A 
ATOM      5  C4  UNL d   1       2.877  -0.602  -0.844  0.00  0.00     0.017 A 
ATOM      6  C5  UNL d   1       1.556  -0.453  -1.277  0.00  0.00     0.034 A 
ATOM      7 Cl   UNL d   1       3.857   0.818  -0.742  0.00  0.00    -0.070 Cl
ATOM      8 Cl1  UNL d   1       4.979  -2.138   0.032  0.00  0.00    -0.070 Cl
ENDROOT
TORSDOF 0
ENDMDL
