MODEL 1
REMARK minimizedAffinity 26.9973869
REMARK minimizedRMSD -1
REMARK  0 active torsions:
REMARK  status: ('A' for Active; 'I' for Inactive)
ROOT
ATOM      1  C   UNL d   1      -2.664  -5.984   1.105  0.00  0.00     0.020 A 
ATOM      2  C1  UNL d   1      -3.741  -5.839   0.232  0.00  0.00     0.020 A 
ATOM      3  C2  UNL d   1      -4.760  -4.930   0.524  0.00  0.00     0.034 A 
ATOM      4  C3  UNL d   1      -4.703  -4.162   1.693  0.00  0.00     0.017 A 
ATOM      5  C4  UNL d   1      -3.621  -4.308   2.569  0.00  0.00     0.017 A 
ATOM      6  C5  UNL d   1      -2.604  -5.220   2.271  0.00  0.00     0.034 A 
ATOM      7 Cl   UNL d   1      -3.481  -3.395   4.030  0.00  0.00    -0.070 Cl
ATOM      8 Cl1  UNL d   1      -5.997  -3.057   1.992  0.00  0.00    -0.070 Cl
ENDROOT
TORSDOF 0
ENDMDL
