MODEL 1
REMARK minimizedAffinity 16.0928936
REMARK minimizedRMSD -1
REMARK  0 active torsions:
REMARK  status: ('A' for Active; 'I' for Inactive)
ROOT
ATOM      1  C   UNL d   1      -1.257   1.503   2.273  0.00  0.00     0.020 A 
ATOM      2  C1  UNL d   1      -2.573   1.042   2.273  0.00  0.00     0.020 A 
ATOM      3  C2  UNL d   1      -3.343   1.130   3.434  0.00  0.00     0.034 A 
ATOM      4  C3  UNL d   1      -2.799   1.680   4.601  0.00  0.00     0.017 A 
ATOM      5  C4  UNL d   1      -1.478   2.142   4.600  0.00  0.00     0.017 A 
ATOM      6  C5  UNL d   1      -0.711   2.052   3.434  0.00  0.00     0.034 A 
ATOM      7 Cl   UNL d   1      -0.737   2.833   6.000  0.00  0.00    -0.070 Cl
ATOM      8 Cl1  UNL d   1      -3.809   1.757   6.000  0.00  0.00    -0.070 Cl
ENDROOT
TORSDOF 0
ENDMDL
