MODEL 1
REMARK minimizedAffinity 22.4159737
REMARK minimizedRMSD -1
REMARK  0 active torsions:
REMARK  status: ('A' for Active; 'I' for Inactive)
ROOT
ATOM      1  C   UNL d   1       1.837  -0.939  -0.449  0.00  0.00     0.020 A 
ATOM      2  C1  UNL d   1       2.949  -0.224  -0.893  0.00  0.00     0.020 A 
ATOM      3  C2  UNL d   1       3.363   0.919  -0.205  0.00  0.00     0.034 A 
ATOM      4  C3  UNL d   1       2.666   1.349   0.930  0.00  0.00     0.017 A 
ATOM      5  C4  UNL d   1       1.550   0.631   1.374  0.00  0.00     0.017 A 
ATOM      6  C5  UNL d   1       1.139  -0.513   0.682  0.00  0.00     0.034 A 
ATOM      7 Cl   UNL d   1       0.639   1.100   2.766  0.00  0.00    -0.070 Cl
ATOM      8 Cl1  UNL d   1       3.235   2.770   1.731  0.00  0.00    -0.070 Cl
ENDROOT
TORSDOF 0
ENDMDL
