MODEL 1
REMARK minimizedAffinity 13.9135504
REMARK minimizedRMSD -1
REMARK  0 active torsions:
REMARK  status: ('A' for Active; 'I' for Inactive)
ROOT
ATOM      1  C   UNL d   1      -5.996   2.248   4.104  0.00  0.00     0.020 A 
ATOM      2  C1  UNL d   1      -4.996   3.205   3.932  0.00  0.00     0.020 A 
ATOM      3  C2  UNL d   1      -3.704   2.808   3.582  0.00  0.00     0.034 A 
ATOM      4  C3  UNL d   1      -3.407   1.452   3.402  0.00  0.00     0.017 A 
ATOM      5  C4  UNL d   1      -4.412   0.493   3.574  0.00  0.00     0.017 A 
ATOM      6  C5  UNL d   1      -5.704   0.895   3.925  0.00  0.00     0.034 A 
ATOM      7 Cl   UNL d   1      -4.123  -1.199   3.369  0.00  0.00    -0.070 Cl
ATOM      8 Cl1  UNL d   1      -1.788   1.034   2.968  0.00  0.00    -0.070 Cl
ENDROOT
TORSDOF 0
ENDMDL
