MODEL 1
REMARK minimizedAffinity 14.9363136
REMARK minimizedRMSD -1
REMARK  0 active torsions:
REMARK  status: ('A' for Active; 'I' for Inactive)
ROOT
ATOM      1  C   UNL d   1       0.595   0.926   5.883  0.00  0.00     0.020 A 
ATOM      2  C1  UNL d   1       1.894   1.428   5.950  0.00  0.00     0.020 A 
ATOM      3  C2  UNL d   1       2.560   1.798   4.779  0.00  0.00     0.034 A 
ATOM      4  C3  UNL d   1       1.928   1.667   3.538  0.00  0.00     0.017 A 
ATOM      5  C4  UNL d   1       0.624   1.163   3.472  0.00  0.00     0.017 A 
ATOM      6  C5  UNL d   1      -0.039   0.794   4.647  0.00  0.00     0.034 A 
ATOM      7 Cl   UNL d   1      -0.222   0.972   1.977  0.00  0.00    -0.070 Cl
ATOM      8 Cl1  UNL d   1       2.811   2.145   2.132  0.00  0.00    -0.070 Cl
ENDROOT
TORSDOF 0
ENDMDL
