MODEL 1
REMARK minimizedAffinity 23.3181782
REMARK minimizedRMSD -1
REMARK  0 active torsions:
REMARK  status: ('A' for Active; 'I' for Inactive)
ROOT
ATOM      1  C   UNL d   1      -4.511   1.911   5.998  0.00  0.00     0.020 A 
ATOM      2  C1  UNL d   1      -4.578   2.613   4.795  0.00  0.00     0.020 A 
ATOM      3  C2  UNL d   1      -4.278   1.969   3.593  0.00  0.00     0.034 A 
ATOM      4  C3  UNL d   1      -3.909   0.619   3.591  0.00  0.00     0.017 A 
ATOM      5  C4  UNL d   1      -3.842  -0.085   4.799  0.00  0.00     0.017 A 
ATOM      6  C5  UNL d   1      -4.143   0.565   6.000  0.00  0.00     0.034 A 
ATOM      7 Cl   UNL d   1      -3.394  -1.752   4.876  0.00  0.00    -0.070 Cl
ATOM      8 Cl1  UNL d   1      -3.552  -0.114   2.068  0.00  0.00    -0.070 Cl
ENDROOT
TORSDOF 0
ENDMDL
