MODEL 1
REMARK minimizedAffinity 9.89713478
REMARK minimizedRMSD -1
REMARK  0 active torsions:
REMARK  status: ('A' for Active; 'I' for Inactive)
ROOT
ATOM      1  C   UNL d   1      -1.006   1.386   2.753  0.00  0.00     0.020 A 
ATOM      2  C1  UNL d   1      -0.841   0.051   2.384  0.00  0.00     0.020 A 
ATOM      3  C2  UNL d   1      -1.922  -0.831   2.453  0.00  0.00     0.034 A 
ATOM      4  C3  UNL d   1      -3.172  -0.379   2.890  0.00  0.00     0.017 A 
ATOM      5  C4  UNL d   1      -3.337   0.961   3.260  0.00  0.00     0.017 A 
ATOM      6  C5  UNL d   1      -2.251   1.839   3.190  0.00  0.00     0.034 A 
ATOM      7 Cl   UNL d   1      -4.849   1.591   3.810  0.00  0.00    -0.070 Cl
ATOM      8 Cl1  UNL d   1      -4.464  -1.525   2.950  0.00  0.00    -0.070 Cl
ENDROOT
TORSDOF 0
ENDMDL
