MODEL 1
REMARK minimizedAffinity 11.6459808
REMARK minimizedRMSD -1
REMARK  0 active torsions:
REMARK  status: ('A' for Active; 'I' for Inactive)
ROOT
ATOM      1  C   UNL d   1      -3.749  -2.991   5.209  0.00  0.00     0.077 C 
ATOM      2  C1  UNL d   1      -3.723  -1.596   4.660  0.00  0.00    -0.074 A 
ATOM      3  C2  UNL d   1      -3.722  -1.366   3.280  0.00  0.00    -0.005 A 
ATOM      4  C3  UNL d   1      -3.708  -0.063   2.784  0.00  0.00     0.006 A 
ATOM      5  C4  UNL d   1      -3.694   1.023   3.661  0.00  0.00    -0.005 A 
ATOM      6  C5  UNL d   1      -3.696   0.813   5.043  0.00  0.00    -0.074 A 
ATOM      7  C6  UNL d   1      -3.691   1.968   5.999  0.00  0.00     0.077 C 
ATOM      8  C7  UNL d   1      -3.717  -0.500   5.534  0.00  0.00    -0.001 A 
ENDROOT
TORSDOF 0
ENDMDL
