MODEL 1
REMARK minimizedAffinity 10.3459654
REMARK minimizedRMSD -1
REMARK  0 active torsions:
REMARK  status: ('A' for Active; 'I' for Inactive)
ROOT
ATOM      1  C   UNL d   1       3.322  -3.697  -0.172  0.00  0.00     0.077 C 
ATOM      2  C1  UNL d   1       2.989  -2.267  -0.479  0.00  0.00    -0.074 A 
ATOM      3  C2  UNL d   1       1.944  -1.943  -1.350  0.00  0.00    -0.005 A 
ATOM      4  C3  UNL d   1       1.639  -0.609  -1.618  0.00  0.00     0.006 A 
ATOM      5  C4  UNL d   1       2.376   0.414  -1.019  0.00  0.00    -0.005 A 
ATOM      6  C5  UNL d   1       3.424   0.109  -0.144  0.00  0.00    -0.074 A 
ATOM      7  C6  UNL d   1       4.219   1.196   0.516  0.00  0.00     0.077 C 
ATOM      8  C7  UNL d   1       3.719  -1.234   0.125  0.00  0.00    -0.001 A 
ENDROOT
TORSDOF 0
ENDMDL
