MODEL 1
REMARK minimizedAffinity 10.4989166
REMARK minimizedRMSD -1
REMARK  0 active torsions:
REMARK  status: ('A' for Active; 'I' for Inactive)
ROOT
ATOM      1  C   UNL d   1      -3.837  -2.532   5.001  0.00  0.00     0.077 C 
ATOM      2  C1  UNL d   1      -3.697  -1.140   4.461  0.00  0.00    -0.074 A 
ATOM      3  C2  UNL d   1      -3.940  -0.866   3.111  0.00  0.00    -0.005 A 
ATOM      4  C3  UNL d   1      -3.815   0.436   2.624  0.00  0.00     0.006 A 
ATOM      5  C4  UNL d   1      -3.446   1.474   3.481  0.00  0.00    -0.005 A 
ATOM      6  C5  UNL d   1      -3.201   1.218   4.834  0.00  0.00    -0.074 A 
ATOM      7  C6  UNL d   1      -2.814   2.324   5.771  0.00  0.00     0.077 C 
ATOM      8  C7  UNL d   1      -3.335  -0.091   5.317  0.00  0.00    -0.001 A 
ENDROOT
TORSDOF 0
ENDMDL
