MODEL 1
REMARK minimizedAffinity 7.15445185
REMARK minimizedRMSD -1
REMARK  0 active torsions:
REMARK  status: ('A' for Active; 'I' for Inactive)
ROOT
ATOM      1  C   UNL d   1       4.969   2.238   0.870  0.00  0.00     0.077 C 
ATOM      2  C1  UNL d   1       4.055   1.244   0.216  0.00  0.00    -0.074 A 
ATOM      3  C2  UNL d   1       3.125   1.648  -0.748  0.00  0.00    -0.005 A 
ATOM      4  C3  UNL d   1       2.289   0.711  -1.354  0.00  0.00     0.006 A 
ATOM      5  C4  UNL d   1       2.374  -0.637  -1.004  0.00  0.00    -0.005 A 
ATOM      6  C5  UNL d   1       3.299  -1.060  -0.044  0.00  0.00    -0.074 A 
ATOM      7  C6  UNL d   1       3.410  -2.507   0.337  0.00  0.00     0.077 C 
ATOM      8  C7  UNL d   1       4.140  -0.113   0.556  0.00  0.00    -0.001 A 
ENDROOT
TORSDOF 0
ENDMDL
