MODEL 1
REMARK minimizedAffinity 12.8160191
REMARK minimizedRMSD -1
REMARK  0 active torsions:
REMARK  status: ('A' for Active; 'I' for Inactive)
ROOT
ATOM      1  C   UNL d   1       5.998   2.251  -0.741  0.00  0.00     0.077 C 
ATOM      2  C1  UNL d   1       4.660   1.767  -0.268  0.00  0.00    -0.074 A 
ATOM      3  C2  UNL d   1       4.072   2.295   0.886  0.00  0.00    -0.005 A 
ATOM      4  C3  UNL d   1       2.822   1.842   1.309  0.00  0.00     0.006 A 
ATOM      5  C4  UNL d   1       2.149   0.858   0.583  0.00  0.00    -0.005 A 
ATOM      6  C5  UNL d   1       2.721   0.320  -0.574  0.00  0.00    -0.074 A 
ATOM      7  C6  UNL d   1       2.006  -0.731  -1.371  0.00  0.00     0.077 C 
ATOM      8  C7  UNL d   1       3.974   0.785  -0.996  0.00  0.00    -0.001 A 
ENDROOT
TORSDOF 0
ENDMDL
