MODEL 1
REMARK minimizedAffinity 8.25482559
REMARK minimizedRMSD -1
REMARK  0 active torsions:
REMARK  status: ('A' for Active; 'I' for Inactive)
ROOT
ATOM      1  C   UNL d   1      -4.582   5.508  -6.000  0.00  0.00     0.077 C 
ATOM      2  C1  UNL d   1      -3.375   5.077  -5.220  0.00  0.00    -0.074 A 
ATOM      3  C2  UNL d   1      -2.632   6.000  -4.477  0.00  0.00    -0.005 A 
ATOM      4  C3  UNL d   1      -1.518   5.583  -3.749  0.00  0.00     0.006 A 
ATOM      5  C4  UNL d   1      -1.136   4.240  -3.757  0.00  0.00    -0.005 A 
ATOM      6  C5  UNL d   1      -1.867   3.303  -4.494  0.00  0.00    -0.074 A 
ATOM      7  C6  UNL d   1      -1.476   1.855  -4.505  0.00  0.00     0.077 C 
ATOM      8  C7  UNL d   1      -2.989   3.729  -5.217  0.00  0.00    -0.001 A 
ENDROOT
TORSDOF 0
ENDMDL
