MODEL 1
REMARK minimizedAffinity 24.4508152
REMARK minimizedRMSD -1
REMARK  0 active torsions:
REMARK  status: ('A' for Active; 'I' for Inactive)
ROOT
ATOM      1  C   UNL d   1       4.267   1.868   0.639  0.00  0.00     0.077 C 
ATOM      2  C1  UNL d   1       3.588   0.599   0.219  0.00  0.00    -0.074 A 
ATOM      3  C2  UNL d   1       2.341   0.626  -0.414  0.00  0.00    -0.005 A 
ATOM      4  C3  UNL d   1       1.726  -0.563  -0.808  0.00  0.00     0.006 A 
ATOM      5  C4  UNL d   1       2.351  -1.788  -0.574  0.00  0.00    -0.005 A 
ATOM      6  C5  UNL d   1       3.599  -1.835   0.056  0.00  0.00    -0.074 A 
ATOM      7  C6  UNL d   1       4.289  -3.143   0.306  0.00  0.00     0.077 C 
ATOM      8  C7  UNL d   1       4.213  -0.636   0.443  0.00  0.00    -0.001 A 
ENDROOT
TORSDOF 0
ENDMDL
