MODEL 1
REMARK minimizedAffinity 6.83538198
REMARK minimizedRMSD -1
REMARK  0 active torsions:
REMARK  status: ('A' for Active; 'I' for Inactive)
ROOT
ATOM      1  C   UNL d   1       3.155  -3.340   0.325  0.00  0.00     0.077 C 
ATOM      2  C1  UNL d   1       3.080  -1.953  -0.242  0.00  0.00    -0.074 A 
ATOM      3  C2  UNL d   1       2.411  -1.703  -1.445  0.00  0.00    -0.005 A 
ATOM      4  C3  UNL d   1       2.342  -0.407  -1.954  0.00  0.00     0.006 A 
ATOM      5  C4  UNL d   1       2.939   0.651  -1.268  0.00  0.00    -0.005 A 
ATOM      6  C5  UNL d   1       3.610   0.421  -0.063  0.00  0.00    -0.074 A 
ATOM      7  C6  UNL d   1       4.249   1.548   0.693  0.00  0.00     0.077 C 
ATOM      8  C7  UNL d   1       3.670  -0.884   0.446  0.00  0.00    -0.001 A 
ENDROOT
TORSDOF 0
ENDMDL
