MODEL 1
REMARK minimizedAffinity 19.5848598
REMARK minimizedRMSD -1
REMARK  0 active torsions:
REMARK  status: ('A' for Active; 'I' for Inactive)
ROOT
ATOM      1  C   UNL d   1      -3.107  -1.070   4.119  0.00  0.00     0.077 C 
ATOM      2  C1  UNL d   1      -2.426  -0.000   3.318  0.00  0.00    -0.074 A 
ATOM      3  C2  UNL d   1      -3.168   0.906   2.554  0.00  0.00    -0.005 A 
ATOM      4  C3  UNL d   1      -2.521   1.902   1.821  0.00  0.00     0.006 A 
ATOM      5  C4  UNL d   1      -1.129   2.001   1.846  0.00  0.00    -0.005 A 
ATOM      6  C5  UNL d   1      -0.372   1.104   2.606  0.00  0.00    -0.074 A 
ATOM      7  C6  UNL d   1       1.124   1.202   2.651  0.00  0.00     0.077 C 
ATOM      8  C7  UNL d   1      -1.029   0.110   3.344  0.00  0.00    -0.001 A 
ENDROOT
TORSDOF 0
ENDMDL
