MODEL 1
REMARK minimizedAffinity 19.1017437
REMARK minimizedRMSD -1
REMARK  0 active torsions:
REMARK  status: ('A' for Active; 'I' for Inactive)
ROOT
ATOM      1  C   UNL d   1      -3.264   0.543   2.491  0.00  0.00     0.077 C 
ATOM      2  C1  UNL d   1      -1.767   0.501   2.582  0.00  0.00    -0.074 A 
ATOM      3  C2  UNL d   1      -0.993   0.077   1.497  0.00  0.00    -0.005 A 
ATOM      4  C3  UNL d   1       0.398   0.052   1.593  0.00  0.00     0.006 A 
ATOM      5  C4  UNL d   1       1.029   0.449   2.773  0.00  0.00    -0.005 A 
ATOM      6  C5  UNL d   1       0.271   0.877   3.868  0.00  0.00    -0.074 A 
ATOM      7  C6  UNL d   1       0.932   1.318   5.140  0.00  0.00     0.077 C 
ATOM      8  C7  UNL d   1      -1.126   0.906   3.761  0.00  0.00    -0.001 A 
ENDROOT
TORSDOF 0
ENDMDL
