MODEL 1
REMARK minimizedAffinity 15.3807888
REMARK minimizedRMSD -1
REMARK  0 active torsions:
REMARK  status: ('A' for Active; 'I' for Inactive)
ROOT
ATOM      1  C   UNL d   1      -0.472   1.019   2.169  0.00  0.00     0.077 C 
ATOM      2  C1  UNL d   1       0.078   1.413   3.507  0.00  0.00    -0.074 A 
ATOM      3  C2  UNL d   1       1.032   0.620   4.154  0.00  0.00    -0.005 A 
ATOM      4  C3  UNL d   1       1.541   1.004   5.395  0.00  0.00     0.006 A 
ATOM      5  C4  UNL d   1       1.103   2.182   6.000  0.00  0.00    -0.005 A 
ATOM      6  C5  UNL d   1       0.151   2.988   5.368  0.00  0.00    -0.074 A 
ATOM      7  C6  UNL d   1      -0.324   4.263   5.999  0.00  0.00     0.077 C 
ATOM      8  C7  UNL d   1      -0.351   2.599   4.118  0.00  0.00    -0.001 A 
ENDROOT
TORSDOF 0
ENDMDL
