MODEL 1
REMARK minimizedAffinity 3.91595984
REMARK minimizedRMSD -1
REMARK  0 active torsions:
REMARK  status: ('A' for Active; 'I' for Inactive)
ROOT
ATOM      1  C   UNL d   1       4.110  -3.847   0.194  0.00  0.00     0.077 C 
ATOM      2  C1  UNL d   1       3.649  -2.489  -0.246  0.00  0.00    -0.074 A 
ATOM      3  C2  UNL d   1       2.775  -2.342  -1.328  0.00  0.00    -0.005 A 
ATOM      4  C3  UNL d   1       2.347  -1.074  -1.719  0.00  0.00     0.006 A 
ATOM      5  C4  UNL d   1       2.788   0.059  -1.034  0.00  0.00    -0.005 A 
ATOM      6  C5  UNL d   1       3.661  -0.068   0.051  0.00  0.00    -0.074 A 
ATOM      7  C6  UNL d   1       4.137   1.138   0.804  0.00  0.00     0.077 C 
ATOM      8  C7  UNL d   1       4.081  -1.347   0.442  0.00  0.00    -0.001 A 
ENDROOT
TORSDOF 0
ENDMDL
