MODEL 1
REMARK minimizedAffinity 12.3612366
REMARK minimizedRMSD -1
REMARK  0 active torsions:
REMARK  status: ('A' for Active; 'I' for Inactive)
ROOT
ATOM      1  C   UNL d   1      -6.000  -2.257   1.368  0.00  0.00     0.077 C 
ATOM      2  C1  UNL d   1      -5.143  -1.646   2.436  0.00  0.00    -0.074 A 
ATOM      3  C2  UNL d   1      -4.916  -2.313   3.644  0.00  0.00    -0.005 A 
ATOM      4  C3  UNL d   1      -4.109  -1.736   4.625  0.00  0.00     0.006 A 
ATOM      5  C4  UNL d   1      -3.522  -0.489   4.408  0.00  0.00    -0.005 A 
ATOM      6  C5  UNL d   1      -3.737   0.192   3.205  0.00  0.00    -0.074 A 
ATOM      7  C6  UNL d   1      -3.106   1.529   2.952  0.00  0.00     0.077 C 
ATOM      8  C7  UNL d   1      -4.544  -0.397   2.222  0.00  0.00    -0.001 A 
ENDROOT
TORSDOF 0
ENDMDL
