MODEL 1
REMARK minimizedAffinity 4.62493038
REMARK minimizedRMSD -1
REMARK  0 active torsions:
REMARK  status: ('A' for Active; 'I' for Inactive)
ROOT
ATOM      1  C   UNL d   1      -2.264  -5.463  -1.437  0.00  0.00     0.077 C 
ATOM      2  C1  UNL d   1      -1.908  -4.861  -2.764  0.00  0.00    -0.074 A 
ATOM      3  C2  UNL d   1      -0.573  -4.714  -3.152  0.00  0.00    -0.005 A 
ATOM      4  C3  UNL d   1      -0.258  -4.161  -4.394  0.00  0.00     0.006 A 
ATOM      5  C4  UNL d   1      -1.273  -3.750  -5.258  0.00  0.00    -0.005 A 
ATOM      6  C5  UNL d   1      -2.615  -3.890  -4.887  0.00  0.00    -0.074 A 
ATOM      7  C6  UNL d   1      -3.719  -3.463  -5.808  0.00  0.00     0.077 C 
ATOM      8  C7  UNL d   1      -2.923  -4.453  -3.641  0.00  0.00    -0.001 A 
ENDROOT
TORSDOF 0
ENDMDL
