MODEL 1
REMARK minimizedAffinity 9.95101261
REMARK minimizedRMSD -1
REMARK  0 active torsions:
REMARK  status: ('A' for Active; 'I' for Inactive)
ROOT
ATOM      1  C   UNL d   1       0.961   1.536   5.766  0.00  0.00     0.077 C 
ATOM      2  C1  UNL d   1       0.195   1.209   4.519  0.00  0.00    -0.074 A 
ATOM      3  C2  UNL d   1       0.838   0.667   3.401  0.00  0.00    -0.005 A 
ATOM      4  C3  UNL d   1       0.110   0.360   2.252  0.00  0.00     0.006 A 
ATOM      5  C4  UNL d   1      -1.265   0.590   2.208  0.00  0.00    -0.005 A 
ATOM      6  C5  UNL d   1      -1.925   1.131   3.315  0.00  0.00    -0.074 A 
ATOM      7  C6  UNL d   1      -3.405   1.376   3.288  0.00  0.00     0.077 C 
ATOM      8  C7  UNL d   1      -1.189   1.431   4.470  0.00  0.00    -0.001 A 
ENDROOT
TORSDOF 0
ENDMDL
