MODEL 1
REMARK minimizedAffinity 4.50978136
REMARK minimizedRMSD -1
REMARK  3 active torsions:
REMARK  status: ('A' for Active; 'I' for Inactive)
REMARK    1  A    between atoms: C3'_2  and  C2'_3 
REMARK    2  A    between atoms: C2'_3  and  C1'_4 
REMARK    3  A    between atoms: C1'_4  and  C1_5 
ROOT
ATOM      1  C1  N4B d   1      -3.746  -0.978   1.099  0.00  0.00    -0.075 A 
ATOM      2  C2  N4B d   1      -4.445   0.189   1.480  0.00  0.00     0.002 A 
ATOM      3  C3  N4B d   1      -4.137   0.819   2.661  0.00  0.00     0.002 A 
ATOM      4  C4  N4B d   1      -3.152   0.293   3.482  0.00  0.00    -0.004 A 
ATOM      5  C5  N4B d   1      -2.464  -0.820   3.095  0.00  0.00     0.002 A 
ATOM      6  C6  N4B d   1      -2.759  -1.461   1.909  0.00  0.00     0.002 A 
ENDROOT
BRANCH   1   7
ATOM      7  C1' N4B d   1      -4.105  -1.750  -0.141  0.00  0.00     0.057 C 
BRANCH   7   8
ATOM      8  C2' N4B d   1      -3.669  -0.957  -1.369  0.00  0.00     0.009 C 
BRANCH   8   9
ATOM      9  C3' N4B d   1      -3.735  -1.791  -2.637  0.00  0.00     0.004 C 
ATOM     10  C4' N4B d   1      -5.141  -2.103  -3.055  0.00  0.00     0.003 C 
ENDBRANCH   8   9
ENDBRANCH   7   8
ENDBRANCH   1   7
TORSDOF 3
ENDMDL
