MODEL 1
REMARK minimizedAffinity 6.73097324
REMARK minimizedRMSD -1
REMARK  3 active torsions:
REMARK  status: ('A' for Active; 'I' for Inactive)
REMARK    1  A    between atoms: C3'_2  and  C2'_3 
REMARK    2  A    between atoms: C2'_3  and  C1'_4 
REMARK    3  A    between atoms: C1'_4  and  C1_5 
ROOT
ATOM      1  C1  N4B d   1       0.040   0.988  -1.769  0.00  0.00    -0.075 A 
ATOM      2  C2  N4B d   1      -1.357   0.969  -1.565  0.00  0.00     0.002 A 
ATOM      3  C3  N4B d   1      -2.123   2.039  -1.957  0.00  0.00     0.002 A 
ATOM      4  C4  N4B d   1      -1.515   3.142  -2.536  0.00  0.00    -0.004 A 
ATOM      5  C5  N4B d   1      -0.168   3.143  -2.754  0.00  0.00     0.002 A 
ATOM      6  C6  N4B d   1       0.614   2.072  -2.368  0.00  0.00     0.002 A 
ENDROOT
BRANCH   1   7
ATOM      7  C1' N4B d   1       0.930  -0.121  -1.279  0.00  0.00     0.057 C 
BRANCH   7   8
ATOM      8  C2' N4B d   1       0.104  -1.091  -0.440  0.00  0.00     0.009 C 
BRANCH   8   9
ATOM      9  C3' N4B d   1       0.867  -1.577   0.781  0.00  0.00     0.004 C 
ATOM     10  C4' N4B d   1      -0.038  -2.017   1.894  0.00  0.00     0.003 C 
ENDBRANCH   8   9
ENDBRANCH   7   8
ENDBRANCH   1   7
TORSDOF 3
ENDMDL
