MODEL 1
REMARK minimizedAffinity 11.5900936
REMARK minimizedRMSD -1
REMARK  3 active torsions:
REMARK  status: ('A' for Active; 'I' for Inactive)
REMARK    1  A    between atoms: C3'_2  and  C2'_3 
REMARK    2  A    between atoms: C2'_3  and  C1'_4 
REMARK    3  A    between atoms: C1'_4  and  C1_5 
ROOT
ATOM      1  C1  N4B d   1       2.338   1.083  -0.486  0.00  0.00    -0.075 A 
ATOM      2  C2  N4B d   1       1.040   1.291  -1.003  0.00  0.00     0.002 A 
ATOM      3  C3  N4B d   1       0.800   1.120  -2.344  0.00  0.00     0.002 A 
ATOM      4  C4  N4B d   1       1.841   0.762  -3.187  0.00  0.00    -0.004 A 
ATOM      5  C5  N4B d   1       3.086   0.538  -2.676  0.00  0.00     0.002 A 
ATOM      6  C6  N4B d   1       3.341   0.702  -1.330  0.00  0.00     0.002 A 
ENDROOT
BRANCH   1   7
ATOM      7  C1' N4B d   1       2.668   1.341   0.959  0.00  0.00     0.057 C 
BRANCH   7   8
ATOM      8  C2' N4B d   1       1.513   2.096   1.609  0.00  0.00     0.009 C 
BRANCH   8   9
ATOM      9  C3' N4B d   1       1.497   1.920   3.118  0.00  0.00     0.004 C 
ATOM     10  C4' N4B d   1       1.036   0.556   3.538  0.00  0.00     0.003 C 
ENDBRANCH   8   9
ENDBRANCH   7   8
ENDBRANCH   1   7
TORSDOF 3
ENDMDL
