MODEL 1
REMARK minimizedAffinity 3.99882579
REMARK minimizedRMSD -1
REMARK  3 active torsions:
REMARK  status: ('A' for Active; 'I' for Inactive)
REMARK    1  A    between atoms: C3'_2  and  C2'_3 
REMARK    2  A    between atoms: C2'_3  and  C1'_4 
REMARK    3  A    between atoms: C1'_4  and  C1_5 
ROOT
ATOM      1  C1  N4B d   1      -1.643  -0.834   3.370  0.00  0.00    -0.075 A 
ATOM      2  C2  N4B d   1      -3.015  -0.766   3.042  0.00  0.00     0.002 A 
ATOM      3  C3  N4B d   1      -3.648   0.452   2.987  0.00  0.00     0.002 A 
ATOM      4  C4  N4B d   1      -2.937   1.608   3.272  0.00  0.00    -0.004 A 
ATOM      5  C5  N4B d   1      -1.606   1.536   3.563  0.00  0.00     0.002 A 
ATOM      6  C6  N4B d   1      -0.956   0.319   3.618  0.00  0.00     0.002 A 
ENDROOT
BRANCH   1   7
ATOM      7  C1' N4B d   1      -0.928  -2.148   3.526  0.00  0.00     0.057 C 
BRANCH   7   8
ATOM      8  C2' N4B d   1       0.578  -1.911   3.457  0.00  0.00     0.009 C 
BRANCH   8   9
ATOM      9  C3' N4B d   1       1.215  -2.643   2.289  0.00  0.00     0.004 C 
ATOM     10  C4' N4B d   1       1.094  -1.892   0.997  0.00  0.00     0.003 C 
ENDBRANCH   8   9
ENDBRANCH   7   8
ENDBRANCH   1   7
TORSDOF 3
ENDMDL
