MODEL 1
REMARK minimizedAffinity 4.33740473
REMARK minimizedRMSD -1
REMARK  3 active torsions:
REMARK  status: ('A' for Active; 'I' for Inactive)
REMARK    1  A    between atoms: C3'_2  and  C2'_3 
REMARK    2  A    between atoms: C2'_3  and  C1'_4 
REMARK    3  A    between atoms: C1'_4  and  C1_5 
ROOT
ATOM      1  C1  N4B d   1       2.691  -3.804   1.120  0.00  0.00    -0.075 A 
ATOM      2  C2  N4B d   1       3.086  -3.602   2.461  0.00  0.00     0.002 A 
ATOM      3  C3  N4B d   1       2.299  -2.856   3.303  0.00  0.00     0.002 A 
ATOM      4  C4  N4B d   1       1.127  -2.289   2.825  0.00  0.00    -0.004 A 
ATOM      5  C5  N4B d   1       0.740  -2.510   1.536  0.00  0.00     0.002 A 
ATOM      6  C6  N4B d   1       1.519  -3.261   0.679  0.00  0.00     0.002 A 
ENDROOT
BRANCH   1   7
ATOM      7  C1' N4B d   1       3.561  -4.540   0.138  0.00  0.00     0.057 C 
BRANCH   7   8
ATOM      8  C2' N4B d   1       5.021  -4.174   0.390  0.00  0.00     0.009 C 
BRANCH   8   9
ATOM      9  C3' N4B d   1       5.970  -5.254  -0.099  0.00  0.00     0.004 C 
ATOM     10  C4' N4B d   1       5.994  -5.373  -1.594  0.00  0.00     0.003 C 
ENDBRANCH   8   9
ENDBRANCH   7   8
ENDBRANCH   1   7
TORSDOF 3
ENDMDL
