MODEL 1
REMARK minimizedAffinity -4.64557838
REMARK minimizedRMSD -1
REMARK  1 active torsions:
REMARK  status: ('A' for Active; 'I' for Inactive)
REMARK    1  A    between atoms: C3_4  and  O_7 
ROOT
ATOM      1  C   UNL d   1      -1.333   2.828   0.452  0.00  0.00    -0.033 A 
ATOM      2  C1  UNL d   1      -0.811   2.839   1.747  0.00  0.00     0.039 A 
ATOM      3  C2  UNL d   1      -0.107   1.733   2.227  0.00  0.00    -0.080 A 
ATOM      4  C3  UNL d   1       0.069   0.624   1.403  0.00  0.00     0.150 A 
ATOM      5  C4  UNL d   1      -0.446   0.608   0.110  0.00  0.00    -0.007 A 
ATOM      6  C5  UNL d   1      -1.149   1.714  -0.367  0.00  0.00     0.039 A 
ENDROOT
BRANCH   4   7
ATOM      7  O   UNL d   1       0.744  -0.480   1.829  0.00  0.00    -0.526 OA
ATOM      8  H5  UNL d   1       1.017  -0.338   2.750  0.00  0.00     0.418 HD
ENDBRANCH   4   7
TORSDOF 1
ENDMDL
