MODEL 1
REMARK minimizedAffinity -3.12244463
REMARK minimizedRMSD -1
REMARK  1 active torsions:
REMARK  status: ('A' for Active; 'I' for Inactive)
REMARK    1  A    between atoms: C3_4  and  O_7 
ROOT
ATOM      1  C   UNL d   1       0.353  -0.471   1.487  0.00  0.00    -0.033 A 
ATOM      2  C1  UNL d   1       0.539  -0.539   0.105  0.00  0.00     0.039 A 
ATOM      3  C2  UNL d   1       0.268   0.574  -0.693  0.00  0.00    -0.080 A 
ATOM      4  C3  UNL d   1      -0.188   1.747  -0.098  0.00  0.00     0.150 A 
ATOM      5  C4  UNL d   1      -0.372   1.823   1.279  0.00  0.00    -0.007 A 
ATOM      6  C5  UNL d   1      -0.101   0.711   2.074  0.00  0.00     0.039 A 
ENDROOT
BRANCH   4   7
ATOM      7  O   UNL d   1      -0.471   2.857  -0.837  0.00  0.00    -0.526 OA
ATOM      8  H5  UNL d   1      -0.325   2.649  -1.775  0.00  0.00     0.418 HD
ENDBRANCH   4   7
TORSDOF 1
ENDMDL
