MODEL 1
REMARK minimizedAffinity -2.12119889
REMARK minimizedRMSD -1
REMARK  1 active torsions:
REMARK  status: ('A' for Active; 'I' for Inactive)
REMARK    1  A    between atoms: C3_4  and  O_7 
ROOT
ATOM      1  C   UNL d   1      -1.546   2.649  -0.786  0.00  0.00    -0.033 A 
ATOM      2  C1  UNL d   1      -0.679   2.304  -1.825  0.00  0.00     0.039 A 
ATOM      3  C2  UNL d   1       0.035   1.106  -1.772  0.00  0.00    -0.080 A 
ATOM      4  C3  UNL d   1      -0.127   0.262  -0.677  0.00  0.00     0.150 A 
ATOM      5  C4  UNL d   1      -0.992   0.597   0.360  0.00  0.00    -0.007 A 
ATOM      6  C5  UNL d   1      -1.703   1.795   0.305  0.00  0.00     0.039 A 
ENDROOT
BRANCH   4   7
ATOM      7  O   UNL d   1       0.552  -0.916  -0.578  0.00  0.00    -0.526 OA
ATOM      8  H5  UNL d   1       1.133  -1.002  -1.352  0.00  0.00     0.418 HD
ENDBRANCH   4   7
TORSDOF 1
ENDMDL
