MODEL 1
REMARK minimizedAffinity -3.56837535
REMARK minimizedRMSD -1
REMARK  1 active torsions:
REMARK  status: ('A' for Active; 'I' for Inactive)
REMARK    1  A    between atoms: C3_4  and  O_7 
ROOT
ATOM      1  C   UNL d   1       0.624  -0.579  -1.184  0.00  0.00    -0.033 A 
ATOM      2  C1  UNL d   1       1.200  -1.069  -0.010  0.00  0.00     0.039 A 
ATOM      3  C2  UNL d   1       0.967  -0.424   1.206  0.00  0.00    -0.080 A 
ATOM      4  C3  UNL d   1       0.155   0.707   1.235  0.00  0.00     0.150 A 
ATOM      5  C4  UNL d   1      -0.426   1.197   0.070  0.00  0.00    -0.007 A 
ATOM      6  C5  UNL d   1      -0.190   0.553  -1.144  0.00  0.00     0.039 A 
ENDROOT
BRANCH   4   7
ATOM      7  O   UNL d   1      -0.098   1.372   2.397  0.00  0.00    -0.526 OA
ATOM      8  H5  UNL d   1       0.392   0.937   3.114  0.00  0.00     0.418 HD
ENDBRANCH   4   7
TORSDOF 1
ENDMDL
