MODEL 1
REMARK minimizedAffinity -1.43519115
REMARK minimizedRMSD -1
REMARK  1 active torsions:
REMARK  status: ('A' for Active; 'I' for Inactive)
REMARK    1  A    between atoms: C3_4  and  O_7 
ROOT
ATOM      1  C   UNL d   1       0.128  -0.209  -1.443  0.00  0.00    -0.033 A 
ATOM      2  C1  UNL d   1       0.399  -0.773  -0.195  0.00  0.00     0.039 A 
ATOM      3  C2  UNL d   1       0.358   0.019   0.955  0.00  0.00    -0.080 A 
ATOM      4  C3  UNL d   1       0.044   1.370   0.843  0.00  0.00     0.150 A 
ATOM      5  C4  UNL d   1      -0.232   1.938  -0.397  0.00  0.00    -0.007 A 
ATOM      6  C5  UNL d   1      -0.189   1.146  -1.544  0.00  0.00     0.039 A 
ENDROOT
BRANCH   4   7
ATOM      7  O   UNL d   1      -0.004   2.184   1.936  0.00  0.00    -0.526 OA
ATOM      8  H5  UNL d   1       0.236   1.661   2.719  0.00  0.00     0.418 HD
ENDBRANCH   4   7
TORSDOF 1
ENDMDL
