MODEL 1
REMARK minimizedAffinity -3.40909457
REMARK minimizedRMSD -1
REMARK  1 active torsions:
REMARK  status: ('A' for Active; 'I' for Inactive)
REMARK    1  A    between atoms: C3_4  and  O_7 
ROOT
ATOM      1  C   UNL d   1       0.345  -0.726  -0.132  0.00  0.00    -0.033 A 
ATOM      2  C1  UNL d   1       0.260   0.391   0.701  0.00  0.00     0.039 A 
ATOM      3  C2  UNL d   1       0.074   1.661   0.151  0.00  0.00    -0.080 A 
ATOM      4  C3  UNL d   1      -0.025   1.800  -1.230  0.00  0.00     0.150 A 
ATOM      5  C4  UNL d   1       0.055   0.691  -2.066  0.00  0.00    -0.007 A 
ATOM      6  C5  UNL d   1       0.241  -0.576  -1.516  0.00  0.00     0.039 A 
ENDROOT
BRANCH   4   7
ATOM      7  O   UNL d   1      -0.201   3.020  -1.813  0.00  0.00    -0.526 OA
ATOM      8  H5  UNL d   1      -0.210   3.696  -1.115  0.00  0.00     0.418 HD
ENDBRANCH   4   7
TORSDOF 1
ENDMDL
