MODEL 1
REMARK minimizedAffinity -4.76245832
REMARK minimizedRMSD -1
REMARK  1 active torsions:
REMARK  status: ('A' for Active; 'I' for Inactive)
REMARK    1  A    between atoms: C3_4  and  O_7 
ROOT
ATOM      1  C   UNL d   1      -0.559   2.729   1.403  0.00  0.00    -0.033 A 
ATOM      2  C1  UNL d   1      -0.822   2.618   0.036  0.00  0.00     0.039 A 
ATOM      3  C2  UNL d   1      -0.343   1.521  -0.682  0.00  0.00    -0.080 A 
ATOM      4  C3  UNL d   1       0.397   0.543  -0.023  0.00  0.00     0.150 A 
ATOM      5  C4  UNL d   1       0.660   0.645   1.339  0.00  0.00    -0.007 A 
ATOM      6  C5  UNL d   1       0.181   1.742   2.054  0.00  0.00     0.039 A 
ENDROOT
BRANCH   4   7
ATOM      7  O   UNL d   1       0.890  -0.543  -0.683  0.00  0.00    -0.526 OA
ATOM      8  H5  UNL d   1       0.655  -0.466  -1.623  0.00  0.00     0.418 HD
ENDBRANCH   4   7
TORSDOF 1
ENDMDL
