MODEL 1
REMARK minimizedAffinity -4.46084881
REMARK minimizedRMSD -1
REMARK  1 active torsions:
REMARK  status: ('A' for Active; 'I' for Inactive)
REMARK    1  A    between atoms: C3_4  and  O_7 
ROOT
ATOM      1  C   UNL d   1       0.236  -0.184  -0.698  0.00  0.00    -0.033 A 
ATOM      2  C1  UNL d   1      -0.670   0.804  -1.091  0.00  0.00     0.039 A 
ATOM      3  C2  UNL d   1      -1.143   1.730  -0.160  0.00  0.00    -0.080 A 
ATOM      4  C3  UNL d   1      -0.703   1.659   1.159  0.00  0.00     0.150 A 
ATOM      5  C4  UNL d   1       0.202   0.681   1.557  0.00  0.00    -0.007 A 
ATOM      6  C5  UNL d   1       0.673  -0.244   0.626  0.00  0.00     0.039 A 
ENDROOT
BRANCH   4   7
ATOM      7  O   UNL d   1      -1.141   2.539   2.104  0.00  0.00    -0.526 OA
ATOM      8  H5  UNL d   1      -1.784   3.139   1.691  0.00  0.00     0.418 HD
ENDBRANCH   4   7
TORSDOF 1
ENDMDL
