MODEL 1
REMARK minimizedAffinity -4.46784496
REMARK minimizedRMSD -1
REMARK  1 active torsions:
REMARK  status: ('A' for Active; 'I' for Inactive)
REMARK    1  A    between atoms: C3_4  and  O_7 
ROOT
ATOM      1  C   UNL d   1      -1.228   2.174   1.823  0.00  0.00    -0.033 A 
ATOM      2  C1  UNL d   1      -0.986   1.006   1.098  0.00  0.00     0.039 A 
ATOM      3  C2  UNL d   1      -0.710   1.075  -0.269  0.00  0.00    -0.080 A 
ATOM      4  C3  UNL d   1      -0.679   2.316  -0.898  0.00  0.00     0.150 A 
ATOM      5  C4  UNL d   1      -0.915   3.485  -0.181  0.00  0.00    -0.007 A 
ATOM      6  C5  UNL d   1      -1.191   3.414   1.184  0.00  0.00     0.039 A 
ENDROOT
BRANCH   4   7
ATOM      7  O   UNL d   1      -0.419   2.433  -2.231  0.00  0.00    -0.526 OA
ATOM      8  H5  UNL d   1      -0.304   1.542  -2.601  0.00  0.00     0.418 HD
ENDBRANCH   4   7
TORSDOF 1
ENDMDL
