MODEL 1
REMARK minimizedAffinity -4.80008364
REMARK minimizedRMSD -1
REMARK  1 active torsions:
REMARK  status: ('A' for Active; 'I' for Inactive)
REMARK    1  A    between atoms: C3_4  and  O_7 
ROOT
ATOM      1  C   UNL d   1       0.377  -0.102   0.012  0.00  0.00    -0.033 A 
ATOM      2  C1  UNL d   1      -0.715   0.544  -0.572  0.00  0.00     0.039 A 
ATOM      3  C2  UNL d   1      -1.411   1.523   0.139  0.00  0.00    -0.080 A 
ATOM      4  C3  UNL d   1      -1.006   1.847   1.431  0.00  0.00     0.150 A 
ATOM      5  C4  UNL d   1       0.083   1.210   2.017  0.00  0.00    -0.007 A 
ATOM      6  C5  UNL d   1       0.777   0.232   1.306  0.00  0.00     0.039 A 
ENDROOT
BRANCH   4   7
ATOM      7  O   UNL d   1      -1.657   2.792   2.167  0.00  0.00    -0.526 OA
ATOM      8  H5  UNL d   1      -2.406   3.126   1.645  0.00  0.00     0.418 HD
ENDBRANCH   4   7
TORSDOF 1
ENDMDL
