MODEL 1
REMARK minimizedAffinity -0.308907479
REMARK minimizedRMSD -1
REMARK  1 active torsions:
REMARK  status: ('A' for Active; 'I' for Inactive)
REMARK    1  A    between atoms: C3_4  and  O_7 
ROOT
ATOM      1  C   UNL d   1      -2.099  -3.240  -2.704  0.00  0.00    -0.033 A 
ATOM      2  C1  UNL d   1      -1.792  -3.006  -1.362  0.00  0.00     0.039 A 
ATOM      3  C2  UNL d   1      -0.743  -3.698  -0.753  0.00  0.00    -0.080 A 
ATOM      4  C3  UNL d   1      -0.010  -4.619  -1.496  0.00  0.00     0.150 A 
ATOM      5  C4  UNL d   1      -0.308  -4.855  -2.834  0.00  0.00    -0.007 A 
ATOM      6  C5  UNL d   1      -1.357  -4.163  -3.440  0.00  0.00     0.039 A 
ENDROOT
BRANCH   4   7
ATOM      7  O   UNL d   1       1.019  -5.322  -0.944  0.00  0.00    -0.526 OA
ATOM      8  H5  UNL d   1       1.092  -5.077  -0.006  0.00  0.00     0.418 HD
ENDBRANCH   4   7
TORSDOF 1
ENDMDL
