MODEL 1
REMARK minimizedAffinity -5.55818558
REMARK minimizedRMSD -1
REMARK  0 active torsions:
REMARK  status: ('A' for Active; 'I' for Inactive)
ROOT
ATOM      1  C2' OXE d   1       2.421  -1.107  -0.719  0.00  0.00     0.078 C 
ATOM      2  C1' OXE d   1      -0.028  -0.206  -1.755  0.00  0.00     0.078 C 
ATOM      3  C1  OXE d   1       0.117  -0.280  -0.256  0.00  0.00    -0.078 A 
ATOM      4  C2  OXE d   1       1.302  -0.766   0.242  0.00  0.00    -0.078 A 
ATOM      5  C3  OXE d   1       1.509  -0.804   1.618  0.00  0.00     0.003 A 
ATOM      6  C4  OXE d   1       0.465  -0.497   2.500  0.00  0.00    -0.002 A 
ATOM      7  C5  OXE d   1      -0.763  -0.038   2.013  0.00  0.00    -0.002 A 
ATOM      8  C6  OXE d   1      -0.939   0.117   0.643  0.00  0.00     0.003 A 
ENDROOT
TORSDOF 0
ENDMDL
