MODEL 1
REMARK minimizedAffinity -4.70752144
REMARK minimizedRMSD -1
REMARK  0 active torsions:
REMARK  status: ('A' for Active; 'I' for Inactive)
ROOT
ATOM      1  C2' OXE d   1      -1.305   0.787   1.812  0.00  0.00     0.078 C 
ATOM      2  C1' OXE d   1       0.984  -0.494   2.810  0.00  0.00     0.078 C 
ATOM      3  C1  OXE d   1       0.788  -0.469   1.315  0.00  0.00    -0.078 A 
ATOM      4  C2  OXE d   1      -0.358   0.119   0.838  0.00  0.00    -0.078 A 
ATOM      5  C3  OXE d   1      -0.562   0.219  -0.535  0.00  0.00     0.003 A 
ATOM      6  C4  OXE d   1       0.313  -0.410  -1.429  0.00  0.00    -0.002 A 
ATOM      7  C5  OXE d   1       1.467  -1.049  -0.962  0.00  0.00    -0.002 A 
ATOM      8  C6  OXE d   1       1.740  -1.050   0.402  0.00  0.00     0.003 A 
ENDROOT
TORSDOF 0
ENDMDL
