MODEL 1
REMARK minimizedAffinity -4.71288824
REMARK minimizedRMSD -1
REMARK  0 active torsions:
REMARK  status: ('A' for Active; 'I' for Inactive)
ROOT
ATOM      1  C2' OXE d   1      -1.644   0.867   1.829  0.00  0.00     0.078 C 
ATOM      2  C1' OXE d   1       0.790  -0.166   2.772  0.00  0.00     0.078 C 
ATOM      3  C1  OXE d   1       0.568  -0.138   1.281  0.00  0.00    -0.078 A 
ATOM      4  C2  OXE d   1      -0.644   0.326   0.830  0.00  0.00    -0.078 A 
ATOM      5  C3  OXE d   1      -0.880   0.424  -0.538  0.00  0.00     0.003 A 
ATOM      6  C4  OXE d   1       0.046  -0.089  -1.455  0.00  0.00    -0.002 A 
ATOM      7  C5  OXE d   1       1.271  -0.603  -1.016  0.00  0.00    -0.002 A 
ATOM      8  C6  OXE d   1       1.564  -0.595   0.344  0.00  0.00     0.003 A 
ENDROOT
TORSDOF 0
ENDMDL
