MODEL 1
REMARK minimizedAffinity -3.51720023
REMARK minimizedRMSD -1
REMARK  0 active torsions:
REMARK  status: ('A' for Active; 'I' for Inactive)
ROOT
ATOM      1  C2' OXE d   1      -4.444   1.523  -3.331  0.00  0.00     0.078 C 
ATOM      2  C1' OXE d   1      -4.068   4.268  -2.875  0.00  0.00     0.078 C 
ATOM      3  C1  OXE d   1      -2.875   3.358  -2.717  0.00  0.00    -0.078 A 
ATOM      4  C2  OXE d   1      -3.079   2.011  -2.896  0.00  0.00    -0.078 A 
ATOM      5  C3  OXE d   1      -2.001   1.134  -2.816  0.00  0.00     0.003 A 
ATOM      6  C4  OXE d   1      -0.744   1.592  -2.404  0.00  0.00    -0.002 A 
ATOM      7  C5  OXE d   1      -0.524   2.955  -2.177  0.00  0.00    -0.002 A 
ATOM      8  C6  OXE d   1      -1.566   3.855  -2.371  0.00  0.00     0.003 A 
ENDROOT
TORSDOF 0
ENDMDL
