MODEL 1
REMARK minimizedAffinity -5.06609392
REMARK minimizedRMSD -1
REMARK  0 active torsions:
REMARK  status: ('A' for Active; 'I' for Inactive)
ROOT
ATOM      1  C2' OXE d   1      -1.447  -0.127   2.499  0.00  0.00     0.078 C 
ATOM      2  C1' OXE d   1       1.336  -0.394   2.743  0.00  0.00     0.078 C 
ATOM      3  C1  OXE d   1       0.750  -0.381   1.354  0.00  0.00    -0.078 A 
ATOM      4  C2  OXE d   1      -0.617  -0.297   1.245  0.00  0.00    -0.078 A 
ATOM      5  C3  OXE d   1      -1.206  -0.226  -0.014  0.00  0.00     0.003 A 
ATOM      6  C4  OXE d   1      -0.432  -0.394  -1.169  0.00  0.00    -0.002 A 
ATOM      7  C5  OXE d   1       0.958  -0.521  -1.079  0.00  0.00    -0.002 A 
ATOM      8  C6  OXE d   1       1.568  -0.474   0.169  0.00  0.00     0.003 A 
ENDROOT
TORSDOF 0
ENDMDL
