MODEL 1
REMARK minimizedAffinity -3.06944823
REMARK minimizedRMSD -1
REMARK  0 active torsions:
REMARK  status: ('A' for Active; 'I' for Inactive)
ROOT
ATOM      1  C2' OXE d   1       0.610  -1.224  -2.510  0.00  0.00     0.078 C 
ATOM      2  C1' OXE d   1      -1.011   1.060  -2.320  0.00  0.00     0.078 C 
ATOM      3  C1  OXE d   1      -0.342   0.566  -1.062  0.00  0.00    -0.078 A 
ATOM      4  C2  OXE d   1       0.412  -0.579  -1.155  0.00  0.00    -0.078 A 
ATOM      5  C3  OXE d   1       1.096  -1.047  -0.036  0.00  0.00     0.003 A 
ATOM      6  C4  OXE d   1       0.900  -0.450   1.215  0.00  0.00    -0.002 A 
ATOM      7  C5  OXE d   1       0.104   0.693   1.340  0.00  0.00    -0.002 A 
ATOM      8  C6  OXE d   1      -0.488   1.238   0.206  0.00  0.00     0.003 A 
ENDROOT
TORSDOF 0
ENDMDL
