MODEL 1
REMARK minimizedAffinity -4.86515379
REMARK minimizedRMSD -1
REMARK  0 active torsions:
REMARK  status: ('A' for Active; 'I' for Inactive)
ROOT
ATOM      1  C2' OXE d   1       1.287  -1.512   2.493  0.00  0.00     0.078 C 
ATOM      2  C1' OXE d   1       2.465  -1.638  -0.052  0.00  0.00     0.078 C 
ATOM      3  C1  OXE d   1       1.094  -1.018   0.059  0.00  0.00    -0.078 A 
ATOM      4  C2  OXE d   1       0.506  -1.004   1.301  0.00  0.00    -0.078 A 
ATOM      5  C3  OXE d   1      -0.735  -0.395   1.469  0.00  0.00     0.003 A 
ATOM      6  C4  OXE d   1      -1.455   0.064   0.359  0.00  0.00    -0.002 A 
ATOM      7  C5  OXE d   1      -0.891   0.022  -0.920  0.00  0.00    -0.002 A 
ATOM      8  C6  OXE d   1       0.397  -0.476  -1.081  0.00  0.00     0.003 A 
ENDROOT
TORSDOF 0
ENDMDL
