MODEL 1
REMARK minimizedAffinity -5.08342648
REMARK minimizedRMSD -1
REMARK  0 active torsions:
REMARK  status: ('A' for Active; 'I' for Inactive)
ROOT
ATOM      1  C2' OXE d   1      -1.249  -0.298   0.659  0.00  0.00     0.078 C 
ATOM      2  C1' OXE d   1       0.600  -1.096  -1.296  0.00  0.00     0.078 C 
ATOM      3  C1  OXE d   1       0.999  -1.242   0.151  0.00  0.00    -0.078 A 
ATOM      4  C2  OXE d   1       0.107  -0.806   1.100  0.00  0.00    -0.078 A 
ATOM      5  C3  OXE d   1       0.402  -0.968   2.450  0.00  0.00     0.003 A 
ATOM      6  C4  OXE d   1       1.663  -1.429   2.850  0.00  0.00    -0.002 A 
ATOM      7  C5  OXE d   1       2.602  -1.842   1.898  0.00  0.00    -0.002 A 
ATOM      8  C6  OXE d   1       2.270  -1.795   0.549  0.00  0.00     0.003 A 
ENDROOT
TORSDOF 0
ENDMDL
