MODEL 1
REMARK minimizedAffinity -3.30197382
REMARK minimizedRMSD -1
REMARK  0 active torsions:
REMARK  status: ('A' for Active; 'I' for Inactive)
ROOT
ATOM      1  C2' OXE d   1      -2.428   0.215   0.578  0.00  0.00     0.078 C 
ATOM      2  C1' OXE d   1      -0.882   1.020  -1.623  0.00  0.00     0.078 C 
ATOM      3  C1  OXE d   1      -0.189   0.268  -0.514  0.00  0.00    -0.078 A 
ATOM      4  C2  OXE d   1      -0.943  -0.081   0.581  0.00  0.00    -0.078 A 
ATOM      5  C3  OXE d   1      -0.366  -0.824   1.607  0.00  0.00     0.003 A 
ATOM      6  C4  OXE d   1       1.009  -1.085   1.606  0.00  0.00    -0.002 A 
ATOM      7  C5  OXE d   1       1.804  -0.704   0.519  0.00  0.00    -0.002 A 
ATOM      8  C6  OXE d   1       1.213  -0.065  -0.566  0.00  0.00     0.003 A 
ENDROOT
TORSDOF 0
ENDMDL
