MODEL 1
REMARK minimizedAffinity -1.14998364
REMARK minimizedRMSD -1
REMARK  0 active torsions:
REMARK  status: ('A' for Active; 'I' for Inactive)
ROOT
ATOM      1  C2' OXE d   1       2.459  -2.278   2.621  0.00  0.00     0.078 C 
ATOM      2  C1' OXE d   1       2.687  -1.899  -0.151  0.00  0.00     0.078 C 
ATOM      3  C1  OXE d   1       1.485  -1.309   0.543  0.00  0.00    -0.078 A 
ATOM      4  C2  OXE d   1       1.358  -1.539   1.892  0.00  0.00    -0.078 A 
ATOM      5  C3  OXE d   1       0.297  -0.970   2.591  0.00  0.00     0.003 A 
ATOM      6  C4  OXE d   1      -0.723  -0.296   1.907  0.00  0.00    -0.002 A 
ATOM      7  C5  OXE d   1      -0.633  -0.085   0.527  0.00  0.00    -0.002 A 
ATOM      8  C6  OXE d   1       0.483  -0.547  -0.161  0.00  0.00     0.003 A 
ENDROOT
TORSDOF 0
ENDMDL
