MODEL 1
REMARK minimizedAffinity -1.54342365
REMARK minimizedRMSD -1
REMARK  0 active torsions:
REMARK  status: ('A' for Active; 'I' for Inactive)
ROOT
ATOM      1  C   UNL d   1       1.565  -0.680   0.680  0.00  0.00     0.023 A 
ATOM      2  C1  UNL d   1       0.498  -0.800  -0.210  0.00  0.00     0.003 A 
ATOM      3  C2  UNL d   1      -0.023   0.334  -0.835  0.00  0.00     0.048 A 
ATOM      4  C3  UNL d   1       0.529   1.586  -0.566  0.00  0.00     0.023 A 
ATOM      5  C4  UNL d   1       1.598   1.712   0.323  0.00  0.00     0.048 A 
ATOM      6  C5  UNL d   1       2.114   0.574   0.947  0.00  0.00     0.003 A 
ATOM      7  I   UNL d   1      -0.244   3.277  -1.496  0.00  0.00    -0.146 I 
ENDROOT
TORSDOF 0
ENDMDL
