MODEL 1
REMARK minimizedAffinity -3.79773855
REMARK minimizedRMSD -1
REMARK  0 active torsions:
REMARK  status: ('A' for Active; 'I' for Inactive)
ROOT
ATOM      1  C   UNL d   1       1.138   0.214   1.187  0.00  0.00     0.023 A 
ATOM      2  C1  UNL d   1       0.398  -0.253   2.273  0.00  0.00     0.003 A 
ATOM      3  C2  UNL d   1      -0.906  -0.715   2.085  0.00  0.00     0.048 A 
ATOM      4  C3  UNL d   1      -1.464  -0.709   0.807  0.00  0.00     0.023 A 
ATOM      5  C4  UNL d   1      -0.727  -0.244  -0.283  0.00  0.00     0.048 A 
ATOM      6  C5  UNL d   1       0.576   0.218  -0.090  0.00  0.00     0.003 A 
ATOM      7  I   UNL d   1      -3.405  -1.398   0.524  0.00  0.00    -0.146 I 
ENDROOT
TORSDOF 0
ENDMDL
