MODEL 1
REMARK minimizedAffinity -4.70782423
REMARK minimizedRMSD -1
REMARK  0 active torsions:
REMARK  status: ('A' for Active; 'I' for Inactive)
ROOT
ATOM      1  C   UNL d   1       1.741   0.065   2.082  0.00  0.00     0.023 A 
ATOM      2  C1  UNL d   1       1.322   0.886   1.035  0.00  0.00     0.003 A 
ATOM      3  C2  UNL d   1       0.138   0.600   0.353  0.00  0.00     0.048 A 
ATOM      4  C3  UNL d   1      -0.623  -0.508   0.723  0.00  0.00     0.023 A 
ATOM      5  C4  UNL d   1      -0.208  -1.332   1.770  0.00  0.00     0.048 A 
ATOM      6  C5  UNL d   1       0.977  -1.043   2.449  0.00  0.00     0.003 A 
ATOM      7  I   UNL d   1      -2.386  -0.935  -0.291  0.00  0.00    -0.146 I 
ENDROOT
TORSDOF 0
ENDMDL
