MODEL 1
REMARK minimizedAffinity -1.10980308
REMARK minimizedRMSD -1
REMARK  0 active torsions:
REMARK  status: ('A' for Active; 'I' for Inactive)
ROOT
ATOM      1  C   UNL d   1       0.568  -0.772   1.810  0.00  0.00     0.023 A 
ATOM      2  C1  UNL d   1      -0.716  -0.346   1.469  0.00  0.00     0.003 A 
ATOM      3  C2  UNL d   1      -0.915   0.427   0.324  0.00  0.00     0.048 A 
ATOM      4  C3  UNL d   1       0.173   0.771  -0.477  0.00  0.00     0.023 A 
ATOM      5  C4  UNL d   1       1.460   0.346  -0.141  0.00  0.00     0.048 A 
ATOM      6  C5  UNL d   1       1.655  -0.426   1.006  0.00  0.00     0.003 A 
ATOM      7  I   UNL d   1      -0.121   1.922  -2.183  0.00  0.00    -0.146 I 
ENDROOT
TORSDOF 0
ENDMDL
