MODEL 1
REMARK minimizedAffinity -2.23285341
REMARK minimizedRMSD -1
REMARK  0 active torsions:
REMARK  status: ('A' for Active; 'I' for Inactive)
ROOT
ATOM      1  C   UNL d   1      -0.018   3.682  -3.940  0.00  0.00     0.023 A 
ATOM      2  C1  UNL d   1      -0.253   3.977  -2.597  0.00  0.00     0.003 A 
ATOM      3  C2  UNL d   1      -0.255   2.954  -1.645  0.00  0.00     0.048 A 
ATOM      4  C3  UNL d   1      -0.020   1.639  -2.044  0.00  0.00     0.023 A 
ATOM      5  C4  UNL d   1       0.216   1.339  -3.387  0.00  0.00     0.048 A 
ATOM      6  C5  UNL d   1       0.215   2.364  -4.334  0.00  0.00     0.003 A 
ATOM      7  I   UNL d   1      -0.022   0.115  -0.631  0.00  0.00    -0.146 I 
ENDROOT
TORSDOF 0
ENDMDL
