MODEL 1
REMARK minimizedAffinity -3.66837239
REMARK minimizedRMSD -1
REMARK  0 active torsions:
REMARK  status: ('A' for Active; 'I' for Inactive)
ROOT
ATOM      1  C1  BNZ d   1       0.617   1.348  -0.579  0.00  0.00     0.000 A 
ATOM      2  C2  BNZ d   1      -0.173   2.345  -0.071  0.00  0.00     0.000 A 
ATOM      3  C3  BNZ d   1      -1.247   2.051   0.722  0.00  0.00     0.000 A 
ATOM      4  C4  BNZ d   1      -1.552   0.762   0.974  0.00  0.00     0.000 A 
ATOM      5  C5  BNZ d   1      -0.770  -0.254   0.462  0.00  0.00     0.000 A 
ATOM      6  C6  BNZ d   1       0.332   0.046  -0.304  0.00  0.00     0.000 A 
ENDROOT
TORSDOF 0
ENDMDL
