MODEL 1
REMARK minimizedAffinity -3.88040972
REMARK minimizedRMSD -1
REMARK  0 active torsions:
REMARK  status: ('A' for Active; 'I' for Inactive)
ROOT
ATOM      1  C1  BNZ d   1       0.040  -0.115   0.272  0.00  0.00     0.000 A 
ATOM      2  C2  BNZ d   1       0.432   1.191   0.393  0.00  0.00     0.000 A 
ATOM      3  C3  BNZ d   1      -0.477   2.207   0.294  0.00  0.00     0.000 A 
ATOM      4  C4  BNZ d   1      -1.768   1.918   0.035  0.00  0.00     0.000 A 
ATOM      5  C5  BNZ d   1      -2.178   0.606  -0.099  0.00  0.00     0.000 A 
ATOM      6  C6  BNZ d   1      -1.267  -0.416   0.041  0.00  0.00     0.000 A 
ENDROOT
TORSDOF 0
ENDMDL
