MODEL 1
REMARK minimizedAffinity -4.26970863
REMARK minimizedRMSD -1
REMARK  0 active torsions:
REMARK  status: ('A' for Active; 'I' for Inactive)
ROOT
ATOM      1  C1  BNZ d   1      -0.655   2.653   1.409  0.00  0.00     0.000 A 
ATOM      2  C2  BNZ d   1       0.523   3.312   1.176  0.00  0.00     0.000 A 
ATOM      3  C3  BNZ d   1       1.404   2.859   0.234  0.00  0.00     0.000 A 
ATOM      4  C4  BNZ d   1       1.125   1.727  -0.445  0.00  0.00     0.000 A 
ATOM      5  C5  BNZ d   1      -0.054   1.047  -0.215  0.00  0.00     0.000 A 
ATOM      6  C6  BNZ d   1      -0.956   1.527   0.706  0.00  0.00     0.000 A 
ENDROOT
TORSDOF 0
ENDMDL
