MODEL 1
REMARK minimizedAffinity -4.09587765
REMARK minimizedRMSD -1
REMARK  0 active torsions:
REMARK  status: ('A' for Active; 'I' for Inactive)
ROOT
ATOM      1  C1  BNZ d   1      -1.121   0.499   0.843  0.00  0.00     0.000 A 
ATOM      2  C2  BNZ d   1      -0.023  -0.260   0.536  0.00  0.00     0.000 A 
ATOM      3  C3  BNZ d   1       1.071   0.302  -0.062  0.00  0.00     0.000 A 
ATOM      4  C4  BNZ d   1       1.049   1.610  -0.388  0.00  0.00     0.000 A 
ATOM      5  C5  BNZ d   1      -0.054   2.386  -0.094  0.00  0.00     0.000 A 
ATOM      6  C6  BNZ d   1      -1.138   1.826   0.543  0.00  0.00     0.000 A 
ENDROOT
TORSDOF 0
ENDMDL
