MODEL 1
REMARK minimizedAffinity -2.77288556
REMARK minimizedRMSD -1
REMARK  0 active torsions:
REMARK  status: ('A' for Active; 'I' for Inactive)
ROOT
ATOM      1  C1  BNZ d   1       0.912   1.564   0.437  0.00  0.00     0.000 A 
ATOM      2  C2  BNZ d   1      -0.426   1.853   0.472  0.00  0.00     0.000 A 
ATOM      3  C3  BNZ d   1      -1.356   0.854   0.552  0.00  0.00     0.000 A 
ATOM      4  C4  BNZ d   1      -0.950  -0.431   0.557  0.00  0.00     0.000 A 
ATOM      5  C5  BNZ d   1       0.395  -0.739   0.513  0.00  0.00     0.000 A 
ATOM      6  C6  BNZ d   1       1.330   0.269   0.472  0.00  0.00     0.000 A 
ENDROOT
TORSDOF 0
ENDMDL
