MODEL 1
REMARK minimizedAffinity -4.40919018
REMARK minimizedRMSD -1
REMARK  0 active torsions:
REMARK  status: ('A' for Active; 'I' for Inactive)
ROOT
ATOM      1  C1  BNZ d   1      -0.921  -0.193   0.553  0.00  0.00     0.000 A 
ATOM      2  C2  BNZ d   1      -1.594   0.999   0.600  0.00  0.00     0.000 A 
ATOM      3  C3  BNZ d   1      -0.961   2.173   0.300  0.00  0.00     0.000 A 
ATOM      4  C4  BNZ d   1       0.352   2.158  -0.007  0.00  0.00     0.000 A 
ATOM      5  C5  BNZ d   1       1.047   0.966  -0.050  0.00  0.00     0.000 A 
ATOM      6  C6  BNZ d   1       0.397  -0.218   0.215  0.00  0.00     0.000 A 
ENDROOT
TORSDOF 0
ENDMDL
