MODEL 1
REMARK minimizedAffinity -4.30808496
REMARK minimizedRMSD -1
REMARK  0 active torsions:
REMARK  status: ('A' for Active; 'I' for Inactive)
ROOT
ATOM      1  C1  BNZ d   1      -1.248   1.593   0.231  0.00  0.00     0.000 A 
ATOM      2  C2  BNZ d   1      -1.717   0.326   0.457  0.00  0.00     0.000 A 
ATOM      3  C3  BNZ d   1      -0.866  -0.743   0.470  0.00  0.00     0.000 A 
ATOM      4  C4  BNZ d   1       0.445  -0.550   0.218  0.00  0.00     0.000 A 
ATOM      5  C5  BNZ d   1       0.931   0.719  -0.021  0.00  0.00     0.000 A 
ATOM      6  C6  BNZ d   1       0.078   1.798   0.005  0.00  0.00     0.000 A 
ENDROOT
TORSDOF 0
ENDMDL
