MODEL 1
REMARK minimizedAffinity -3.38573956
REMARK minimizedRMSD -1
REMARK  0 active torsions:
REMARK  status: ('A' for Active; 'I' for Inactive)
ROOT
ATOM      1  C1  BNZ d   1      -0.415  -0.837   0.371  0.00  0.00     0.000 A 
ATOM      2  C2  BNZ d   1      -1.541  -0.162   0.759  0.00  0.00     0.000 A 
ATOM      3  C3  BNZ d   1      -1.573   1.205   0.758  0.00  0.00     0.000 A 
ATOM      4  C4  BNZ d   1      -0.467   1.893   0.408  0.00  0.00     0.000 A 
ATOM      5  C5  BNZ d   1       0.679   1.227   0.024  0.00  0.00     0.000 A 
ATOM      6  C6  BNZ d   1       0.695  -0.149  -0.011  0.00  0.00     0.000 A 
ENDROOT
TORSDOF 0
ENDMDL
