MODEL 1
REMARK minimizedAffinity -2.72887516
REMARK minimizedRMSD -1
REMARK  0 active torsions:
REMARK  status: ('A' for Active; 'I' for Inactive)
ROOT
ATOM      1  C1  BNZ d   1       0.596  -1.198  -0.806  0.00  0.00     0.000 A 
ATOM      2  C2  BNZ d   1       0.662  -0.338   0.257  0.00  0.00     0.000 A 
ATOM      3  C3  BNZ d   1      -0.430   0.393   0.635  0.00  0.00     0.000 A 
ATOM      4  C4  BNZ d   1      -1.572   0.293  -0.075  0.00  0.00     0.000 A 
ATOM      5  C5  BNZ d   1      -1.651  -0.563  -1.156  0.00  0.00     0.000 A 
ATOM      6  C6  BNZ d   1      -0.562  -1.326  -1.509  0.00  0.00     0.000 A 
ENDROOT
TORSDOF 0
ENDMDL
