MODEL 1
REMARK minimizedAffinity -4.22324657
REMARK minimizedRMSD -1
REMARK  0 active torsions:
REMARK  status: ('A' for Active; 'I' for Inactive)
ROOT
ATOM      1  C1  BNZ d   1       1.360   1.314   0.165  0.00  0.00     0.000 A 
ATOM      2  C2  BNZ d   1       0.066   0.866   0.151  0.00  0.00     0.000 A 
ATOM      3  C3  BNZ d   1      -0.226  -0.440   0.426  0.00  0.00     0.000 A 
ATOM      4  C4  BNZ d   1       0.779  -1.305   0.674  0.00  0.00     0.000 A 
ATOM      5  C5  BNZ d   1       2.089  -0.871   0.683  0.00  0.00     0.000 A 
ATOM      6  C6  BNZ d   1       2.376   0.454   0.445  0.00  0.00     0.000 A 
ENDROOT
TORSDOF 0
ENDMDL
