MODEL 1
REMARK minimizedAffinity -5.01277494
REMARK minimizedRMSD -1
REMARK  0 active torsions:
REMARK  status: ('A' for Active; 'I' for Inactive)
ROOT
ATOM      1  C1  BNZ d   1      -0.713   2.151   0.511  0.00  0.00     0.000 A 
ATOM      2  C2  BNZ d   1       0.162   2.993  -0.122  0.00  0.00     0.000 A 
ATOM      3  C3  BNZ d   1       1.263   2.503  -0.767  0.00  0.00     0.000 A 
ATOM      4  C4  BNZ d   1       1.509   1.177  -0.744  0.00  0.00     0.000 A 
ATOM      5  C5  BNZ d   1       0.641   0.316  -0.103  0.00  0.00     0.000 A 
ATOM      6  C6  BNZ d   1      -0.487   0.809   0.512  0.00  0.00     0.000 A 
ENDROOT
TORSDOF 0
ENDMDL
