MODEL 1
REMARK minimizedAffinity -4.81705093
REMARK minimizedRMSD -1
REMARK  0 active torsions:
REMARK  status: ('A' for Active; 'I' for Inactive)
ROOT
ATOM      1  C1  BNZ d   1      -0.919   1.176   0.464  0.00  0.00     0.000 A 
ATOM      2  C2  BNZ d   1      -0.682   2.523   0.534  0.00  0.00     0.000 A 
ATOM      3  C3  BNZ d   1       0.522   3.042   0.148  0.00  0.00     0.000 A 
ATOM      4  C4  BNZ d   1       1.500   2.212  -0.268  0.00  0.00     0.000 A 
ATOM      5  C5  BNZ d   1       1.279   0.851  -0.335  0.00  0.00     0.000 A 
ATOM      6  C6  BNZ d   1       0.053   0.335   0.017  0.00  0.00     0.000 A 
ENDROOT
TORSDOF 0
ENDMDL
