MODEL 1
REMARK minimizedAffinity -3.06872106
REMARK minimizedRMSD -1
REMARK  0 active torsions:
REMARK  status: ('A' for Active; 'I' for Inactive)
ROOT
ATOM      1  C1  BNZ d   1       1.377   1.614  -0.744  0.00  0.00     0.000 A 
ATOM      2  C2  BNZ d   1       0.756   0.396  -0.816  0.00  0.00     0.000 A 
ATOM      3  C3  BNZ d   1      -0.425   0.173  -0.165  0.00  0.00     0.000 A 
ATOM      4  C4  BNZ d   1      -0.962   1.153   0.590  0.00  0.00     0.000 A 
ATOM      5  C5  BNZ d   1      -0.343   2.384   0.681  0.00  0.00     0.000 A 
ATOM      6  C6  BNZ d   1       0.825   2.618  -0.008  0.00  0.00     0.000 A 
ENDROOT
TORSDOF 0
ENDMDL
