MODEL 1
REMARK minimizedAffinity -2.43005443
REMARK minimizedRMSD -1
REMARK  0 active torsions:
REMARK  status: ('A' for Active; 'I' for Inactive)
ROOT
ATOM      1  C1  BNZ d   1      -0.783  -1.110   0.093  0.00  0.00     0.000 A 
ATOM      2  C2  BNZ d   1       0.382  -1.385  -0.572  0.00  0.00     0.000 A 
ATOM      3  C3  BNZ d   1       1.384  -0.458  -0.641  0.00  0.00     0.000 A 
ATOM      4  C4  BNZ d   1       1.204   0.755  -0.081  0.00  0.00     0.000 A 
ATOM      5  C5  BNZ d   1       0.031   1.051   0.586  0.00  0.00     0.000 A 
ATOM      6  C6  BNZ d   1      -0.959   0.101   0.687  0.00  0.00     0.000 A 
ENDROOT
TORSDOF 0
ENDMDL
