MODEL 1
REMARK minimizedAffinity -4.67740393
REMARK minimizedRMSD -1
REMARK  0 active torsions:
REMARK  status: ('A' for Active; 'I' for Inactive)
ROOT
ATOM      1  C1  BNZ d   1       1.127   2.818  -0.407  0.00  0.00     0.000 A 
ATOM      2  C2  BNZ d   1       0.666   1.576  -0.755  0.00  0.00     0.000 A 
ATOM      3  C3  BNZ d   1      -0.449   1.052  -0.163  0.00  0.00     0.000 A 
ATOM      4  C4  BNZ d   1      -1.077   1.752   0.803  0.00  0.00     0.000 A 
ATOM      5  C5  BNZ d   1      -0.620   3.001   1.172  0.00  0.00     0.000 A 
ATOM      6  C6  BNZ d   1       0.480   3.542   0.546  0.00  0.00     0.000 A 
ENDROOT
TORSDOF 0
ENDMDL
