MODEL 1
REMARK minimizedAffinity 1.40018952
REMARK minimizedRMSD -1
REMARK  1 active torsions:
REMARK  status: ('A' for Active; 'I' for Inactive)
REMARK    1  A    between atoms: C3_4  and  O_7 
ROOT
ATOM      1  C   UNL d   1      -1.706  -5.789  -4.789  0.00  0.00    -0.033 A 
ATOM      2  C1  UNL d   1      -2.262  -5.367  -5.998  0.00  0.00     0.039 A 
ATOM      3  C2  UNL d   1      -3.379  -4.529  -6.000  0.00  0.00    -0.080 A 
ATOM      4  C3  UNL d   1      -3.928  -4.120  -4.788  0.00  0.00     0.150 A 
ATOM      5  C4  UNL d   1      -3.377  -4.534  -3.580  0.00  0.00    -0.007 A 
ATOM      6  C5  UNL d   1      -2.262  -5.371  -3.580  0.00  0.00     0.039 A 
ENDROOT
BRANCH   4   7
ATOM      7  O   UNL d   1      -5.021  -3.306  -4.739  0.00  0.00    -0.526 OA
ATOM      8  H5  UNL d   1      -5.311  -3.125  -5.649  0.00  0.00     0.418 HD
ENDBRANCH   4   7
TORSDOF 1
ENDMDL
