MODEL 1
REMARK minimizedAffinity -2.4422462
REMARK minimizedRMSD -1
REMARK  1 active torsions:
REMARK  status: ('A' for Active; 'I' for Inactive)
REMARK    1  A    between atoms: C3_4  and  O_7 
ROOT
ATOM      1  C   UNL d   1      -6.000  -0.566  -4.481  0.00  0.00    -0.033 A 
ATOM      2  C1  UNL d   1      -5.635  -1.049  -5.739  0.00  0.00     0.039 A 
ATOM      3  C2  UNL d   1      -5.266  -2.387  -5.896  0.00  0.00    -0.080 A 
ATOM      4  C3  UNL d   1      -5.267  -3.230  -4.789  0.00  0.00     0.150 A 
ATOM      5  C4  UNL d   1      -5.633  -2.757  -3.533  0.00  0.00    -0.007 A 
ATOM      6  C5  UNL d   1      -6.000  -1.421  -3.378  0.00  0.00     0.039 A 
ENDROOT
BRANCH   4   7
ATOM      7  O   UNL d   1      -4.910  -4.542  -4.891  0.00  0.00    -0.526 OA
ATOM      8  H5  UNL d   1      -4.655  -4.720  -5.812  0.00  0.00     0.418 HD
ENDBRANCH   4   7
TORSDOF 1
ENDMDL
