MODEL 1
REMARK minimizedAffinity -3.20335722
REMARK minimizedRMSD -1
REMARK  1 active torsions:
REMARK  status: ('A' for Active; 'I' for Inactive)
REMARK    1  A    between atoms: C3_4  and  O_7 
ROOT
ATOM      1  C   UNL d   1      -4.887  -3.698  -4.282  0.00  0.00    -0.033 A 
ATOM      2  C1  UNL d   1      -5.153  -4.470  -5.415  0.00  0.00     0.039 A 
ATOM      3  C2  UNL d   1      -4.144  -5.249  -5.983  0.00  0.00    -0.080 A 
ATOM      4  C3  UNL d   1      -2.875  -5.250  -5.410  0.00  0.00     0.150 A 
ATOM      5  C4  UNL d   1      -2.604  -4.486  -4.279  0.00  0.00    -0.007 A 
ATOM      6  C5  UNL d   1      -3.613  -3.707  -3.713  0.00  0.00     0.039 A 
ENDROOT
BRANCH   4   7
ATOM      7  O   UNL d   1      -1.857  -5.991  -5.931  0.00  0.00    -0.526 OA
ATOM      8  H5  UNL d   1      -2.183  -6.444  -6.727  0.00  0.00     0.418 HD
ENDBRANCH   4   7
TORSDOF 1
ENDMDL
