MODEL 1
REMARK minimizedAffinity -3.23411465
REMARK minimizedRMSD -1
REMARK  1 active torsions:
REMARK  status: ('A' for Active; 'I' for Inactive)
REMARK    1  A    between atoms: C3_4  and  O_7 
ROOT
ATOM      1  C   UNL d   1      -5.092  -4.746  -5.726  0.00  0.00    -0.033 A 
ATOM      2  C1  UNL d   1      -4.405  -5.936  -5.970  0.00  0.00     0.039 A 
ATOM      3  C2  UNL d   1      -3.009  -5.944  -6.000  0.00  0.00    -0.080 A 
ATOM      4  C3  UNL d   1      -2.313  -4.758  -5.783  0.00  0.00     0.150 A 
ATOM      5  C4  UNL d   1      -2.992  -3.569  -5.535  0.00  0.00    -0.007 A 
ATOM      6  C5  UNL d   1      -4.386  -3.563  -5.507  0.00  0.00     0.039 A 
ENDROOT
BRANCH   4   7
ATOM      7  O   UNL d   1      -0.951  -4.716  -5.807  0.00  0.00    -0.526 OA
ATOM      8  H5  UNL d   1      -0.619  -5.604  -6.018  0.00  0.00     0.418 HD
ENDBRANCH   4   7
TORSDOF 1
ENDMDL
