MODEL 1
REMARK minimizedAffinity -3.02014637
REMARK minimizedRMSD -1
REMARK  1 active torsions:
REMARK  status: ('A' for Active; 'I' for Inactive)
REMARK    1  A    between atoms: C3_4  and  O_7 
ROOT
ATOM      1  C   UNL d   1      -5.205  -4.579  -5.262  0.00  0.00    -0.033 A 
ATOM      2  C1  UNL d   1      -4.308  -3.712  -4.633  0.00  0.00     0.039 A 
ATOM      3  C2  UNL d   1      -2.939  -3.983  -4.659  0.00  0.00    -0.080 A 
ATOM      4  C3  UNL d   1      -2.480  -5.122  -5.317  0.00  0.00     0.150 A 
ATOM      5  C4  UNL d   1      -3.367  -5.987  -5.948  0.00  0.00    -0.007 A 
ATOM      6  C5  UNL d   1      -4.735  -5.715  -5.920  0.00  0.00     0.039 A 
ENDROOT
BRANCH   4   7
ATOM      7  O   UNL d   1      -1.153  -5.430  -5.365  0.00  0.00    -0.526 OA
ATOM      8  H5  UNL d   1      -0.662  -4.759  -4.862  0.00  0.00     0.418 HD
ENDBRANCH   4   7
TORSDOF 1
ENDMDL
