MODEL 1
REMARK minimizedAffinity -2.91141963
REMARK minimizedRMSD -1
REMARK  1 active torsions:
REMARK  status: ('A' for Active; 'I' for Inactive)
REMARK    1  A    between atoms: C3_4  and  O_7 
ROOT
ATOM      1  C   UNL d   1      -5.670  -4.469  -5.334  0.00  0.00    -0.033 A 
ATOM      2  C1  UNL d   1      -5.172  -5.591  -6.000  0.00  0.00     0.039 A 
ATOM      3  C2  UNL d   1      -3.853  -6.000  -5.792  0.00  0.00    -0.080 A 
ATOM      4  C3  UNL d   1      -3.044  -5.281  -4.916  0.00  0.00     0.150 A 
ATOM      5  C4  UNL d   1      -3.535  -4.164  -4.247  0.00  0.00    -0.007 A 
ATOM      6  C5  UNL d   1      -4.852  -3.757  -4.457  0.00  0.00     0.039 A 
ENDROOT
BRANCH   4   7
ATOM      7  O   UNL d   1      -1.750  -5.639  -4.684  0.00  0.00    -0.526 OA
ATOM      8  H5  UNL d   1      -1.540  -6.410  -5.237  0.00  0.00     0.418 HD
ENDBRANCH   4   7
TORSDOF 1
ENDMDL
