MODEL 1
REMARK minimizedAffinity -3.46081734
REMARK minimizedRMSD -1
REMARK  1 active torsions:
REMARK  status: ('A' for Active; 'I' for Inactive)
REMARK    1  A    between atoms: C3_4  and  O_7 
ROOT
ATOM      1  C   UNL d   1      -5.976  -3.808  -5.014  0.00  0.00    -0.033 A 
ATOM      2  C1  UNL d   1      -5.498  -4.674  -6.000  0.00  0.00     0.039 A 
ATOM      3  C2  UNL d   1      -4.218  -5.221  -5.890  0.00  0.00    -0.080 A 
ATOM      4  C3  UNL d   1      -3.428  -4.896  -4.790  0.00  0.00     0.150 A 
ATOM      5  C4  UNL d   1      -3.900  -4.038  -3.803  0.00  0.00    -0.007 A 
ATOM      6  C5  UNL d   1      -5.178  -3.491  -3.915  0.00  0.00     0.039 A 
ENDROOT
BRANCH   4   7
ATOM      7  O   UNL d   1      -2.171  -5.402  -4.642  0.00  0.00    -0.526 OA
ATOM      8  H5  UNL d   1      -1.969  -5.956  -5.414  0.00  0.00     0.418 HD
ENDBRANCH   4   7
TORSDOF 1
ENDMDL
