MODEL 1
REMARK minimizedAffinity -3.53369188
REMARK minimizedRMSD -1
REMARK  1 active torsions:
REMARK  status: ('A' for Active; 'I' for Inactive)
REMARK    1  A    between atoms: C3_4  and  O_7 
ROOT
ATOM      1  C   UNL d   1      -4.589  -4.037  -5.075  0.00  0.00    -0.033 A 
ATOM      2  C1  UNL d   1      -3.635  -3.592  -5.992  0.00  0.00     0.039 A 
ATOM      3  C2  UNL d   1      -2.332  -4.091  -5.945  0.00  0.00    -0.080 A 
ATOM      4  C3  UNL d   1      -1.996  -5.035  -4.978  0.00  0.00     0.150 A 
ATOM      5  C4  UNL d   1      -2.943  -5.486  -4.063  0.00  0.00    -0.007 A 
ATOM      6  C5  UNL d   1      -4.243  -4.985  -4.111  0.00  0.00     0.039 A 
ENDROOT
BRANCH   4   7
ATOM      7  O   UNL d   1      -0.736  -5.547  -4.889  0.00  0.00    -0.526 OA
ATOM      8  H5  UNL d   1      -0.183  -5.123  -5.566  0.00  0.00     0.418 HD
ENDBRANCH   4   7
TORSDOF 1
ENDMDL
