MODEL 1
REMARK minimizedAffinity -2.92027688
REMARK minimizedRMSD -1
REMARK  1 active torsions:
REMARK  status: ('A' for Active; 'I' for Inactive)
REMARK    1  A    between atoms: C3_4  and  O_7 
ROOT
ATOM      1  C   UNL d   1      -5.015  -4.815  -5.940  0.00  0.00    -0.033 A 
ATOM      2  C1  UNL d   1      -4.386  -3.569  -5.934  0.00  0.00     0.039 A 
ATOM      3  C2  UNL d   1      -2.992  -3.488  -5.952  0.00  0.00    -0.080 A 
ATOM      4  C3  UNL d   1      -2.241  -4.659  -5.977  0.00  0.00     0.150 A 
ATOM      5  C4  UNL d   1      -2.861  -5.904  -5.988  0.00  0.00    -0.007 A 
ATOM      6  C5  UNL d   1      -4.253  -5.983  -5.969  0.00  0.00     0.039 A 
ENDROOT
BRANCH   4   7
ATOM      7  O   UNL d   1      -0.878  -4.631  -5.990  0.00  0.00    -0.526 OA
ATOM      8  H5  UNL d   1      -0.589  -3.704  -5.952  0.00  0.00     0.418 HD
ENDBRANCH   4   7
TORSDOF 1
ENDMDL
