MODEL 1
REMARK minimizedAffinity -3.05805278
REMARK minimizedRMSD -1
REMARK  1 active torsions:
REMARK  status: ('A' for Active; 'I' for Inactive)
REMARK    1  A    between atoms: C3_4  and  O_7 
ROOT
ATOM      1  C   UNL d   1      -5.995  -3.539  -4.941  0.00  0.00    -0.033 A 
ATOM      2  C1  UNL d   1      -4.875  -3.318  -4.137  0.00  0.00     0.039 A 
ATOM      3  C2  UNL d   1      -3.751  -4.137  -4.261  0.00  0.00    -0.080 A 
ATOM      4  C3  UNL d   1      -3.760  -5.171  -5.193  0.00  0.00     0.150 A 
ATOM      5  C4  UNL d   1      -4.870  -5.395  -6.000  0.00  0.00    -0.007 A 
ATOM      6  C5  UNL d   1      -5.992  -4.577  -5.874  0.00  0.00     0.039 A 
ENDROOT
BRANCH   4   7
ATOM      7  O   UNL d   1      -2.688  -6.000  -5.347  0.00  0.00    -0.526 OA
ATOM      8  H5  UNL d   1      -2.006  -5.744  -4.704  0.00  0.00     0.418 HD
ENDBRANCH   4   7
TORSDOF 1
ENDMDL
