MODEL 1
REMARK minimizedAffinity -0.445620835
REMARK minimizedRMSD -1
REMARK  1 active torsions:
REMARK  status: ('A' for Active; 'I' for Inactive)
REMARK    1  A    between atoms: C3_4  and  O_7 
ROOT
ATOM      1  C   UNL d   1      -3.817  -5.943  -5.923  0.00  0.00    -0.033 A 
ATOM      2  C1  UNL d   1      -3.143  -4.720  -5.898  0.00  0.00     0.039 A 
ATOM      3  C2  UNL d   1      -3.863  -3.524  -5.922  0.00  0.00    -0.080 A 
ATOM      4  C3  UNL d   1      -5.253  -3.564  -5.969  0.00  0.00     0.150 A 
ATOM      5  C4  UNL d   1      -5.931  -4.778  -5.989  0.00  0.00    -0.007 A 
ATOM      6  C5  UNL d   1      -5.211  -5.972  -5.966  0.00  0.00     0.039 A 
ENDROOT
BRANCH   4   7
ATOM      7  O   UNL d   1      -5.999  -2.423  -5.998  0.00  0.00    -0.526 OA
ATOM      8  H5  UNL d   1      -5.395  -1.661  -6.008  0.00  0.00     0.418 HD
ENDBRANCH   4   7
TORSDOF 1
ENDMDL
