MODEL 1
REMARK minimizedAffinity -0.615446508
REMARK minimizedRMSD -1
REMARK  1 active torsions:
REMARK  status: ('A' for Active; 'I' for Inactive)
REMARK    1  A    between atoms: C3_4  and  O_7 
ROOT
ATOM      1  C   UNL d   1      -1.176  -5.485  -3.379  0.00  0.00    -0.033 A 
ATOM      2  C1  UNL d   1      -1.380  -4.877  -4.619  0.00  0.00     0.039 A 
ATOM      3  C2  UNL d   1      -2.668  -4.781  -5.148  0.00  0.00    -0.080 A 
ATOM      4  C3  UNL d   1      -3.743  -5.296  -4.428  0.00  0.00     0.150 A 
ATOM      5  C4  UNL d   1      -3.547  -5.899  -3.190  0.00  0.00    -0.007 A 
ATOM      6  C5  UNL d   1      -2.260  -5.994  -2.663  0.00  0.00     0.039 A 
ENDROOT
BRANCH   4   7
ATOM      7  O   UNL d   1      -5.018  -5.230  -4.906  0.00  0.00    -0.526 OA
ATOM      8  H5  UNL d   1      -4.996  -4.813  -5.783  0.00  0.00     0.418 HD
ENDBRANCH   4   7
TORSDOF 1
ENDMDL
