MODEL 1
REMARK minimizedAffinity -3.36796188
REMARK minimizedRMSD -1
REMARK  1 active torsions:
REMARK  status: ('A' for Active; 'I' for Inactive)
REMARK    1  A    between atoms: C3_4  and  O_7 
ROOT
ATOM      1  C   UNL d   1      -5.039  -2.614  -5.009  0.00  0.00    -0.033 A 
ATOM      2  C1  UNL d   1      -5.983  -3.519  -4.520  0.00  0.00     0.039 A 
ATOM      3  C2  UNL d   1      -5.568  -4.665  -3.839  0.00  0.00    -0.080 A 
ATOM      4  C3  UNL d   1      -4.207  -4.893  -3.653  0.00  0.00     0.150 A 
ATOM      5  C4  UNL d   1      -3.261  -3.994  -4.134  0.00  0.00    -0.007 A 
ATOM      6  C5  UNL d   1      -3.678  -2.851  -4.815  0.00  0.00     0.039 A 
ENDROOT
BRANCH   4   7
ATOM      7  O   UNL d   1      -3.753  -6.000  -2.999  0.00  0.00    -0.526 OA
ATOM      8  H5  UNL d   1      -4.518  -6.545  -2.748  0.00  0.00     0.418 HD
ENDBRANCH   4   7
TORSDOF 1
ENDMDL
