MODEL 1
REMARK minimizedAffinity -0.758888841
REMARK minimizedRMSD -1
REMARK  1 active torsions:
REMARK  status: ('A' for Active; 'I' for Inactive)
REMARK    1  A    between atoms: C3_4  and  O_7 
ROOT
ATOM      1  C   UNL d   1      -6.000  -3.106  -4.800  0.00  0.00    -0.033 A 
ATOM      2  C1  UNL d   1      -5.546  -3.657  -6.000  0.00  0.00     0.039 A 
ATOM      3  C2  UNL d   1      -4.549  -4.634  -5.988  0.00  0.00    -0.080 A 
ATOM      4  C3  UNL d   1      -4.015  -5.051  -4.772  0.00  0.00     0.150 A 
ATOM      5  C4  UNL d   1      -4.465  -4.509  -3.573  0.00  0.00    -0.007 A 
ATOM      6  C5  UNL d   1      -5.460  -3.533  -3.586  0.00  0.00     0.039 A 
ENDROOT
BRANCH   4   7
ATOM      7  O   UNL d   1      -3.036  -5.999  -4.711  0.00  0.00    -0.526 OA
ATOM      8  H5  UNL d   1      -2.805  -6.261  -5.617  0.00  0.00     0.418 HD
ENDBRANCH   4   7
TORSDOF 1
ENDMDL
