MODEL 1
REMARK minimizedAffinity -1.88802314
REMARK minimizedRMSD -1
REMARK  1 active torsions:
REMARK  status: ('A' for Active; 'I' for Inactive)
REMARK    1  A    between atoms: C3_4  and  O_7 
ROOT
ATOM      1  C   UNL d   1      -1.542  -6.000  -4.950  0.00  0.00    -0.033 A 
ATOM      2  C1  UNL d   1      -1.507  -5.080  -3.900  0.00  0.00     0.039 A 
ATOM      3  C2  UNL d   1      -2.374  -3.986  -3.899  0.00  0.00    -0.080 A 
ATOM      4  C3  UNL d   1      -3.271  -3.823  -4.952  0.00  0.00     0.150 A 
ATOM      5  C4  UNL d   1      -3.313  -4.738  -5.999  0.00  0.00    -0.007 A 
ATOM      6  C5  UNL d   1      -2.446  -5.829  -5.999  0.00  0.00     0.039 A 
ENDROOT
BRANCH   4   7
ATOM      7  O   UNL d   1      -4.133  -2.769  -4.997  0.00  0.00    -0.526 OA
ATOM      8  H5  UNL d   1      -3.970  -2.205  -4.222  0.00  0.00     0.418 HD
ENDBRANCH   4   7
TORSDOF 1
ENDMDL
