MODEL 1
REMARK minimizedAffinity 0.978471994
REMARK minimizedRMSD -1
REMARK  1 active torsions:
REMARK  status: ('A' for Active; 'I' for Inactive)
REMARK    1  A    between atoms: C3_4  and  O_7 
ROOT
ATOM      1  C   UNL d   1      -6.000  -2.377  -4.793  0.00  0.00    -0.033 A 
ATOM      2  C1  UNL d   1      -5.424  -2.777  -3.585  0.00  0.00     0.039 A 
ATOM      3  C2  UNL d   1      -4.360  -3.682  -3.583  0.00  0.00    -0.080 A 
ATOM      4  C3  UNL d   1      -3.882  -4.177  -4.793  0.00  0.00     0.150 A 
ATOM      5  C4  UNL d   1      -4.449  -3.780  -6.000  0.00  0.00    -0.007 A 
ATOM      6  C5  UNL d   1      -5.511  -2.877  -6.000  0.00  0.00     0.039 A 
ENDROOT
BRANCH   4   7
ATOM      7  O   UNL d   1      -2.849  -5.066  -4.841  0.00  0.00    -0.526 OA
ATOM      8  H5  UNL d   1      -2.578  -5.271  -3.931  0.00  0.00     0.418 HD
ENDBRANCH   4   7
TORSDOF 1
ENDMDL
