MODEL 1
REMARK minimizedAffinity -0.789451957
REMARK minimizedRMSD -1
REMARK  1 active torsions:
REMARK  status: ('A' for Active; 'I' for Inactive)
REMARK    1  A    between atoms: C3_4  and  O_7 
ROOT
ATOM      1  C   UNL d   1      -2.116  -5.610  -4.750  0.00  0.00    -0.033 A 
ATOM      2  C1  UNL d   1      -2.540  -4.984  -3.576  0.00  0.00     0.039 A 
ATOM      3  C2  UNL d   1      -3.593  -4.068  -3.613  0.00  0.00    -0.080 A 
ATOM      4  C3  UNL d   1      -4.213  -3.787  -4.827  0.00  0.00     0.150 A 
ATOM      5  C4  UNL d   1      -3.798  -4.410  -6.000  0.00  0.00    -0.007 A 
ATOM      6  C5  UNL d   1      -2.746  -5.324  -5.962  0.00  0.00     0.039 A 
ENDROOT
BRANCH   4   7
ATOM      7  O   UNL d   1      -5.241  -2.897  -4.913  0.00  0.00    -0.526 OA
ATOM      8  H5  UNL d   1      -5.400  -2.524  -4.030  0.00  0.00     0.418 HD
ENDBRANCH   4   7
TORSDOF 1
ENDMDL
