MODEL 1
REMARK minimizedAffinity 5.34420395
REMARK minimizedRMSD -1
REMARK  0 active torsions:
REMARK  status: ('A' for Active; 'I' for Inactive)
ROOT
ATOM      1  O1  BZF d   1       1.503  -0.379   2.505  0.00  0.00    -0.204 OA
ATOM      2  C2  BZF d   1       1.129   0.108   3.742  0.00  0.00     0.174 A 
ATOM      3  C3  BZF d   1       0.240   1.114   3.612  0.00  0.00    -0.012 A 
ATOM      4  C3A BZF d   1      -0.023   1.204   2.209  0.00  0.00    -0.107 A 
ATOM      5  C4  BZF d   1      -0.835   2.003   1.455  0.00  0.00     0.055 A 
ATOM      6  C5  BZF d   1      -0.806   1.884   0.102  0.00  0.00    -0.016 A 
ATOM      7  C6  BZF d   1       0.025   0.983  -0.531  0.00  0.00     0.022 A 
ATOM      8  C7  BZF d   1       0.844   0.166   0.175  0.00  0.00     0.029 A 
ATOM      9  C7A BZF d   1       0.793   0.260   1.544  0.00  0.00     0.058 A 
ENDROOT
TORSDOF 0
ENDMDL
