MODEL 1
REMARK minimizedAffinity 4.04907942
REMARK minimizedRMSD -1
REMARK  0 active torsions:
REMARK  status: ('A' for Active; 'I' for Inactive)
ROOT
ATOM      1  O1  BZF d   1       1.315   4.445   0.823  0.00  0.00    -0.204 OA
ATOM      2  C2  BZF d   1       0.802   4.990  -0.338  0.00  0.00     0.174 A 
ATOM      3  C3  BZF d   1      -0.304   4.325  -0.730  0.00  0.00    -0.012 A 
ATOM      4  C3A BZF d   1      -0.546   3.359   0.298  0.00  0.00    -0.107 A 
ATOM      5  C4  BZF d   1      -1.510   2.410   0.486  0.00  0.00     0.055 A 
ATOM      6  C5  BZF d   1      -1.419   1.579   1.557  0.00  0.00    -0.016 A 
ATOM      7  C6  BZF d   1      -0.375   1.664   2.455  0.00  0.00     0.022 A 
ATOM      8  C7  BZF d   1       0.602   2.593   2.313  0.00  0.00     0.029 A 
ATOM      9  C7A BZF d   1       0.495   3.456   1.250  0.00  0.00     0.058 A 
ENDROOT
TORSDOF 0
ENDMDL
