MODEL 1
REMARK minimizedAffinity 6.37817049
REMARK minimizedRMSD -1
REMARK  0 active torsions:
REMARK  status: ('A' for Active; 'I' for Inactive)
ROOT
ATOM      1  O1  BZF d   1       6.000  -4.933  -2.252  0.00  0.00    -0.204 OA
ATOM      2  C2  BZF d   1       5.962  -4.138  -3.381  0.00  0.00     0.174 A 
ATOM      3  C3  BZF d   1       4.861  -3.359  -3.381  0.00  0.00    -0.012 A 
ATOM      4  C3A BZF d   1       4.214  -3.621  -2.132  0.00  0.00    -0.107 A 
ATOM      5  C4  BZF d   1       3.081  -3.140  -1.542  0.00  0.00     0.055 A 
ATOM      6  C5  BZF d   1       2.687  -3.656  -0.348  0.00  0.00    -0.016 A 
ATOM      7  C6  BZF d   1       3.398  -4.657   0.280  0.00  0.00     0.022 A 
ATOM      8  C7  BZF d   1       4.532  -5.163  -0.264  0.00  0.00     0.029 A 
ATOM      9  C7A BZF d   1       4.951  -4.620  -1.454  0.00  0.00     0.058 A 
ENDROOT
TORSDOF 0
ENDMDL
