MODEL 1
REMARK minimizedAffinity 1.17798209
REMARK minimizedRMSD -1
REMARK  0 active torsions:
REMARK  status: ('A' for Active; 'I' for Inactive)
ROOT
ATOM      1  O1  BZF d   1      -0.304   0.900  -0.081  0.00  0.00    -0.204 OA
ATOM      2  C2  BZF d   1      -1.088   1.033   1.049  0.00  0.00     0.174 A 
ATOM      3  C3  BZF d   1      -1.358   2.331   1.294  0.00  0.00    -0.012 A 
ATOM      4  C3A BZF d   1      -0.778   3.049   0.200  0.00  0.00    -0.107 A 
ATOM      5  C4  BZF d   1      -0.725   4.373  -0.132  0.00  0.00     0.055 A 
ATOM      6  C5  BZF d   1      -0.017   4.751  -1.228  0.00  0.00    -0.016 A 
ATOM      7  C6  BZF d   1       0.653   3.834  -2.012  0.00  0.00     0.022 A 
ATOM      8  C7  BZF d   1       0.625   2.510  -1.726  0.00  0.00     0.029 A 
ATOM      9  C7A BZF d   1      -0.116   2.121  -0.637  0.00  0.00     0.058 A 
ENDROOT
TORSDOF 0
ENDMDL
