MODEL 1
REMARK minimizedAffinity -0.139665291
REMARK minimizedRMSD -1
REMARK  0 active torsions:
REMARK  status: ('A' for Active; 'I' for Inactive)
ROOT
ATOM      1  O1  BZF d   1      -2.225   2.374   1.849  0.00  0.00    -0.204 OA
ATOM      2  C2  BZF d   1      -2.033   1.010   1.956  0.00  0.00     0.174 A 
ATOM      3  C3  BZF d   1      -1.100   0.587   1.080  0.00  0.00    -0.012 A 
ATOM      4  C3A BZF d   1      -0.615   1.774   0.445  0.00  0.00    -0.107 A 
ATOM      5  C4  BZF d   1       0.333   2.008  -0.510  0.00  0.00     0.055 A 
ATOM      6  C5  BZF d   1       0.514   3.276  -0.965  0.00  0.00    -0.016 A 
ATOM      7  C6  BZF d   1      -0.239   4.331  -0.493  0.00  0.00     0.022 A 
ATOM      8  C7  BZF d   1      -1.188   4.149   0.458  0.00  0.00     0.029 A 
ATOM      9  C7A BZF d   1      -1.350   2.875   0.944  0.00  0.00     0.058 A 
ENDROOT
TORSDOF 0
ENDMDL
