MODEL 1
REMARK minimizedAffinity 4.08500242
REMARK minimizedRMSD -1
REMARK  0 active torsions:
REMARK  status: ('A' for Active; 'I' for Inactive)
ROOT
ATOM      1  O1  BZF d   1       2.228   0.581   0.524  0.00  0.00    -0.204 OA
ATOM      2  C2  BZF d   1       2.281   0.989  -0.795  0.00  0.00     0.174 A 
ATOM      3  C3  BZF d   1       1.105   1.529  -1.176  0.00  0.00    -0.012 A 
ATOM      4  C3A BZF d   1       0.295   1.537   0.003  0.00  0.00    -0.107 A 
ATOM      5  C4  BZF d   1      -0.975   1.965   0.267  0.00  0.00     0.055 A 
ATOM      6  C5  BZF d   1      -1.496   1.761   1.506  0.00  0.00    -0.016 A 
ATOM      7  C6  BZF d   1      -0.779   1.129   2.501  0.00  0.00     0.022 A 
ATOM      8  C7  BZF d   1       0.486   0.692   2.288  0.00  0.00     0.029 A 
ATOM      9  C7A BZF d   1       1.027   0.925   1.047  0.00  0.00     0.058 A 
ENDROOT
TORSDOF 0
ENDMDL
