MODEL 1
REMARK minimizedAffinity 0.456381142
REMARK minimizedRMSD -1
REMARK  0 active torsions:
REMARK  status: ('A' for Active; 'I' for Inactive)
ROOT
ATOM      1  O1  BZF d   1      -0.273   0.309   1.530  0.00  0.00    -0.204 OA
ATOM      2  C2  BZF d   1      -1.111  -0.202   2.502  0.00  0.00     0.174 A 
ATOM      3  C3  BZF d   1      -2.198   0.582   2.658  0.00  0.00    -0.012 A 
ATOM      4  C3A BZF d   1      -2.073   1.600   1.660  0.00  0.00    -0.107 A 
ATOM      5  C4  BZF d   1      -2.850   2.665   1.302  0.00  0.00     0.055 A 
ATOM      6  C5  BZF d   1      -2.408   3.509   0.333  0.00  0.00    -0.016 A 
ATOM      7  C6  BZF d   1      -1.194   3.322  -0.295  0.00  0.00     0.022 A 
ATOM      8  C7  BZF d   1      -0.391   2.277   0.023  0.00  0.00     0.029 A 
ATOM      9  C7A BZF d   1      -0.850   1.404   0.978  0.00  0.00     0.058 A 
ENDROOT
TORSDOF 0
ENDMDL
