MODEL 1
REMARK minimizedAffinity 2.5217936
REMARK minimizedRMSD -1
REMARK  0 active torsions:
REMARK  status: ('A' for Active; 'I' for Inactive)
ROOT
ATOM      1  O1  BZF d   1      -1.457   2.053   2.021  0.00  0.00    -0.204 OA
ATOM      2  C2  BZF d   1      -1.327   0.741   2.434  0.00  0.00     0.174 A 
ATOM      3  C3  BZF d   1      -0.630   0.022   1.530  0.00  0.00    -0.012 A 
ATOM      4  C3A BZF d   1      -0.225   0.964   0.532  0.00  0.00    -0.107 A 
ATOM      5  C4  BZF d   1       0.508   0.858  -0.615  0.00  0.00     0.055 A 
ATOM      6  C5  BZF d   1       0.660   1.954  -1.405  0.00  0.00    -0.016 A 
ATOM      7  C6  BZF d   1       0.090   3.168  -1.080  0.00  0.00     0.022 A 
ATOM      8  C7  BZF d   1      -0.641   3.322   0.050  0.00  0.00     0.029 A 
ATOM      9  C7A BZF d   1      -0.769   2.225   0.867  0.00  0.00     0.058 A 
ENDROOT
TORSDOF 0
ENDMDL
