MODEL 1
REMARK minimizedAffinity 8.82038021
REMARK minimizedRMSD -1
REMARK  0 active torsions:
REMARK  status: ('A' for Active; 'I' for Inactive)
ROOT
ATOM      1  O1  BZF d   1      -1.973   2.580   1.978  0.00  0.00    -0.204 OA
ATOM      2  C2  BZF d   1      -2.182   1.219   1.863  0.00  0.00     0.174 A 
ATOM      3  C3  BZF d   1      -1.653   0.750   0.714  0.00  0.00    -0.012 A 
ATOM      4  C3A BZF d   1      -0.998   1.872   0.116  0.00  0.00    -0.107 A 
ATOM      5  C4  BZF d   1      -0.276   2.035  -1.032  0.00  0.00     0.055 A 
ATOM      6  C5  BZF d   1       0.166   3.276  -1.364  0.00  0.00    -0.016 A 
ATOM      7  C6  BZF d   1      -0.100   4.376  -0.575  0.00  0.00     0.022 A 
ATOM      8  C7  BZF d   1      -0.808   4.263   0.575  0.00  0.00     0.029 A 
ATOM      9  C7A BZF d   1      -1.227   3.005   0.930  0.00  0.00     0.058 A 
ENDROOT
TORSDOF 0
ENDMDL
