MODEL 1
REMARK minimizedAffinity 7.77389717
REMARK minimizedRMSD -1
REMARK  0 active torsions:
REMARK  status: ('A' for Active; 'I' for Inactive)
ROOT
ATOM      1  O1  BZF d   1      -1.282  -4.606   5.997  0.00  0.00    -0.204 OA
ATOM      2  C2  BZF d   1      -0.183  -4.631   5.161  0.00  0.00     0.174 A 
ATOM      3  C3  BZF d   1      -0.361  -3.801   4.112  0.00  0.00    -0.012 A 
ATOM      4  C3A BZF d   1      -1.613  -3.153   4.354  0.00  0.00    -0.107 A 
ATOM      5  C4  BZF d   1      -2.327  -2.207   3.675  0.00  0.00     0.055 A 
ATOM      6  C5  BZF d   1      -3.550  -1.841   4.142  0.00  0.00    -0.016 A 
ATOM      7  C6  BZF d   1      -4.090  -2.403   5.280  0.00  0.00     0.022 A 
ATOM      8  C7  BZF d   1      -3.417  -3.341   5.990  0.00  0.00     0.029 A 
ATOM      9  C7A BZF d   1      -2.168  -3.689   5.539  0.00  0.00     0.058 A 
ENDROOT
TORSDOF 0
ENDMDL
