MODEL 1
REMARK minimizedAffinity 7.24142075
REMARK minimizedRMSD -1
REMARK  0 active torsions:
REMARK  status: ('A' for Active; 'I' for Inactive)
ROOT
ATOM      1  O1  BZF d   1      -2.673  -0.712   3.093  0.00  0.00    -0.204 OA
ATOM      2  C2  BZF d   1      -1.498  -0.266   2.521  0.00  0.00     0.174 A 
ATOM      3  C3  BZF d   1      -0.468  -1.072   2.852  0.00  0.00    -0.012 A 
ATOM      4  C3A BZF d   1      -1.053  -2.138   3.607  0.00  0.00    -0.107 A 
ATOM      5  C4  BZF d   1      -0.543  -3.258   4.200  0.00  0.00     0.055 A 
ATOM      6  C5  BZF d   1      -1.371  -4.056   4.924  0.00  0.00    -0.016 A 
ATOM      7  C6  BZF d   1      -2.709  -3.762   5.081  0.00  0.00     0.022 A 
ATOM      8  C7  BZF d   1      -3.261  -2.665   4.507  0.00  0.00     0.029 A 
ATOM      9  C7A BZF d   1      -2.435  -1.874   3.747  0.00  0.00     0.058 A 
ENDROOT
TORSDOF 0
ENDMDL
