MODEL 1
REMARK minimizedAffinity 7.21967602
REMARK minimizedRMSD -1
REMARK  0 active torsions:
REMARK  status: ('A' for Active; 'I' for Inactive)
ROOT
ATOM      1  O1  BZF d   1       0.421   1.739   2.673  0.00  0.00    -0.204 OA
ATOM      2  C2  BZF d   1      -0.628   2.634   2.756  0.00  0.00     0.174 A 
ATOM      3  C3  BZF d   1      -1.133   2.894   1.533  0.00  0.00    -0.012 A 
ATOM      4  C3A BZF d   1      -0.411   2.042   0.639  0.00  0.00    -0.107 A 
ATOM      5  C4  BZF d   1      -0.469   1.832  -0.709  0.00  0.00     0.055 A 
ATOM      6  C5  BZF d   1       0.425   0.984  -1.284  0.00  0.00    -0.016 A 
ATOM      7  C6  BZF d   1       1.391   0.336  -0.544  0.00  0.00     0.022 A 
ATOM      8  C7  BZF d   1       1.485   0.509   0.797  0.00  0.00     0.029 A 
ATOM      9  C7A BZF d   1       0.562   1.339   1.386  0.00  0.00     0.058 A 
ENDROOT
TORSDOF 0
ENDMDL
