MODEL 1
REMARK minimizedAffinity 7.46618462
REMARK minimizedRMSD -1
REMARK  0 active torsions:
REMARK  status: ('A' for Active; 'I' for Inactive)
ROOT
ATOM      1  O1  BZF d   1       1.251   0.710  -1.205  0.00  0.00    -0.204 OA
ATOM      2  C2  BZF d   1       0.409   1.557  -1.899  0.00  0.00     0.174 A 
ATOM      3  C3  BZF d   1      -0.440   2.183  -1.058  0.00  0.00    -0.012 A 
ATOM      4  C3A BZF d   1      -0.045   1.767   0.253  0.00  0.00    -0.107 A 
ATOM      5  C4  BZF d   1      -0.498   2.061   1.507  0.00  0.00     0.055 A 
ATOM      6  C5  BZF d   1       0.058   1.429   2.575  0.00  0.00    -0.016 A 
ATOM      7  C6  BZF d   1       1.062   0.496   2.425  0.00  0.00     0.022 A 
ATOM      8  C7  BZF d   1       1.548   0.175   1.201  0.00  0.00     0.029 A 
ATOM      9  C7A BZF d   1       1.011   0.836   0.123  0.00  0.00     0.058 A 
ENDROOT
TORSDOF 0
ENDMDL
