MODEL 1
REMARK minimizedAffinity 14.7743025
REMARK minimizedRMSD -1
REMARK  0 active torsions:
REMARK  status: ('A' for Active; 'I' for Inactive)
ROOT
ATOM      1  O1  BZF d   1       2.244   1.433   1.785  0.00  0.00    -0.204 OA
ATOM      2  C2  BZF d   1       2.269   0.183   1.197  0.00  0.00     0.174 A 
ATOM      3  C3  BZF d   1       1.051  -0.394   1.248  0.00  0.00    -0.012 A 
ATOM      4  C3A BZF d   1       0.191   0.592   1.827  0.00  0.00    -0.107 A 
ATOM      5  C4  BZF d   1      -1.142   0.618   2.123  0.00  0.00     0.055 A 
ATOM      6  C5  BZF d   1      -1.657   1.707   2.752  0.00  0.00    -0.016 A 
ATOM      7  C6  BZF d   1      -0.870   2.784   3.103  0.00  0.00     0.022 A 
ATOM      8  C7  BZF d   1       0.457   2.806   2.825  0.00  0.00     0.029 A 
ATOM      9  C7A BZF d   1       0.975   1.721   2.161  0.00  0.00     0.058 A 
ENDROOT
TORSDOF 0
ENDMDL
