MODEL 1
REMARK minimizedAffinity 7.23503447
REMARK minimizedRMSD -1
REMARK  0 active torsions:
REMARK  status: ('A' for Active; 'I' for Inactive)
ROOT
ATOM      1  O1  BZF d   1       0.775   0.078   0.293  0.00  0.00    -0.204 OA
ATOM      2  C2  BZF d   1       1.945  -0.431   0.823  0.00  0.00     0.174 A 
ATOM      3  C3  BZF d   1       2.177   0.081   2.048  0.00  0.00    -0.012 A 
ATOM      4  C3A BZF d   1       1.037   0.895   2.339  0.00  0.00    -0.107 A 
ATOM      5  C4  BZF d   1       0.674   1.655   3.414  0.00  0.00     0.055 A 
ATOM      6  C5  BZF d   1      -0.470   2.386   3.351  0.00  0.00    -0.016 A 
ATOM      7  C6  BZF d   1      -1.271   2.385   2.229  0.00  0.00     0.022 A 
ATOM      8  C7  BZF d   1      -0.956   1.643   1.139  0.00  0.00     0.029 A 
ATOM      9  C7A BZF d   1       0.183   0.878   1.212  0.00  0.00     0.058 A 
ENDROOT
TORSDOF 0
ENDMDL
