MODEL 1
REMARK minimizedAffinity -2.02880502
REMARK minimizedRMSD -1
REMARK  0 active torsions:
REMARK  status: ('A' for Active; 'I' for Inactive)
ROOT
ATOM      1  C4' PXY d   1       2.923   1.532   1.130  0.00  0.00     0.077 C 
ATOM      2  C1' PXY d   1      -1.221  -0.779   4.432  0.00  0.00     0.077 C 
ATOM      3  C1  PXY d   1      -0.136  -0.183   3.558  0.00  0.00    -0.082 A 
ATOM      4  C2  PXY d   1       0.744   0.653   4.086  0.00  0.00     0.003 A 
ATOM      5  C3  PXY d   1       1.713   1.226   3.303  0.00  0.00     0.003 A 
ATOM      6  C4  PXY d   1       1.815   0.899   1.977  0.00  0.00    -0.082 A 
ATOM      7  C5  PXY d   1       0.928   0.039   1.433  0.00  0.00     0.003 A 
ATOM      8  C6  PXY d   1      -0.073  -0.500   2.236  0.00  0.00     0.003 A 
ENDROOT
TORSDOF 0
ENDMDL
