MODEL 1
REMARK minimizedAffinity -2.48594308
REMARK minimizedRMSD -1
REMARK  0 active torsions:
REMARK  status: ('A' for Active; 'I' for Inactive)
ROOT
ATOM      1  C4' PXY d   1      -0.475   1.204   4.174  0.00  0.00     0.077 C 
ATOM      2  C1' PXY d   1      -0.177  -0.994  -1.164  0.00  0.00     0.077 C 
ATOM      3  C1  PXY d   1      -0.244  -0.424   0.239  0.00  0.00    -0.082 A 
ATOM      4  C2  PXY d   1      -1.411  -0.051   0.739  0.00  0.00     0.003 A 
ATOM      5  C3  PXY d   1      -1.486   0.496   1.994  0.00  0.00     0.003 A 
ATOM      6  C4  PXY d   1      -0.361   0.614   2.766  0.00  0.00    -0.082 A 
ATOM      7  C5  PXY d   1       0.832   0.226   2.268  0.00  0.00     0.003 A 
ATOM      8  C6  PXY d   1       0.892  -0.289   0.976  0.00  0.00     0.003 A 
ENDROOT
TORSDOF 0
ENDMDL
