MODEL 1
REMARK minimizedAffinity -5.83539963
REMARK minimizedRMSD -1
REMARK  0 active torsions:
REMARK  status: ('A' for Active; 'I' for Inactive)
ROOT
ATOM      1  C4' PXY d   1       0.687  -0.675  -2.301  0.00  0.00     0.077 C 
ATOM      2  C1' PXY d   1      -0.400   0.811   3.178  0.00  0.00     0.077 C 
ATOM      3  C1  PXY d   1      -0.103   0.428   1.742  0.00  0.00    -0.082 A 
ATOM      4  C2  PXY d   1      -1.103   0.177   0.912  0.00  0.00     0.003 A 
ATOM      5  C3  PXY d   1      -0.852  -0.203  -0.381  0.00  0.00     0.003 A 
ATOM      6  C4  PXY d   1       0.435  -0.275  -0.845  0.00  0.00    -0.082 A 
ATOM      7  C5  PXY d   1       1.460  -0.010  -0.008  0.00  0.00     0.003 A 
ATOM      8  C6  PXY d   1       1.185   0.334   1.313  0.00  0.00     0.003 A 
ENDROOT
TORSDOF 0
ENDMDL
