MODEL 1
REMARK minimizedAffinity -3.23846507
REMARK minimizedRMSD -1
REMARK  0 active torsions:
REMARK  status: ('A' for Active; 'I' for Inactive)
ROOT
ATOM      1  C4' PXY d   1      -0.962   0.024   1.004  0.00  0.00     0.077 C 
ATOM      2  C1' PXY d   1       2.872   0.079  -3.323  0.00  0.00     0.077 C 
ATOM      3  C1  PXY d   1       1.870   0.052  -2.185  0.00  0.00    -0.082 A 
ATOM      4  C2  PXY d   1       0.836   0.878  -2.205  0.00  0.00     0.003 A 
ATOM      5  C3  PXY d   1      -0.062   0.890  -1.169  0.00  0.00     0.003 A 
ATOM      6  C4  PXY d   1       0.070   0.010  -0.128  0.00  0.00    -0.082 A 
ATOM      7  C5  PXY d   1       1.116  -0.843  -0.106  0.00  0.00     0.003 A 
ATOM      8  C6  PXY d   1       2.039  -0.811  -1.147  0.00  0.00     0.003 A 
ENDROOT
TORSDOF 0
ENDMDL
