MODEL 1
REMARK minimizedAffinity -3.31524634
REMARK minimizedRMSD -1
REMARK  0 active torsions:
REMARK  status: ('A' for Active; 'I' for Inactive)
ROOT
ATOM      1  C4' PXY d   1       0.252   0.477  -4.578  0.00  0.00     0.077 C 
ATOM      2  C1' PXY d   1       1.697  -0.828   0.864  0.00  0.00     0.077 C 
ATOM      3  C1  PXY d   1       1.325  -0.476  -0.562  0.00  0.00    -0.082 A 
ATOM      4  C2  PXY d   1       0.179  -0.904  -1.065  0.00  0.00     0.003 A 
ATOM      5  C3  PXY d   1      -0.158  -0.622  -2.364  0.00  0.00     0.003 A 
ATOM      6  C4  PXY d   1       0.663   0.153  -3.140  0.00  0.00    -0.082 A 
ATOM      7  C5  PXY d   1       1.829   0.603  -2.630  0.00  0.00     0.003 A 
ATOM      8  C6  PXY d   1       2.172   0.270  -1.323  0.00  0.00     0.003 A 
ENDROOT
TORSDOF 0
ENDMDL
