MODEL 1
REMARK minimizedAffinity -2.33555675
REMARK minimizedRMSD -1
REMARK  0 active torsions:
REMARK  status: ('A' for Active; 'I' for Inactive)
ROOT
ATOM      1  C4' PXY d   1       0.718  -1.883   4.814  0.00  0.00     0.077 C 
ATOM      2  C1' PXY d   1      -2.076   0.597   0.403  0.00  0.00     0.077 C 
ATOM      3  C1  PXY d   1      -1.335  -0.060   1.551  0.00  0.00    -0.082 A 
ATOM      4  C2  PXY d   1      -1.944  -0.224   2.714  0.00  0.00     0.003 A 
ATOM      5  C3  PXY d   1      -1.279  -0.786   3.773  0.00  0.00     0.003 A 
ATOM      6  C4  PXY d   1       0.006  -1.234   3.624  0.00  0.00    -0.082 A 
ATOM      7  C5  PXY d   1       0.632  -1.080   2.437  0.00  0.00     0.003 A 
ATOM      8  C6  PXY d   1      -0.048  -0.469   1.387  0.00  0.00     0.003 A 
ENDROOT
TORSDOF 0
ENDMDL
