MODEL 1
REMARK minimizedAffinity 0.807611227
REMARK minimizedRMSD -1
REMARK  0 active torsions:
REMARK  status: ('A' for Active; 'I' for Inactive)
ROOT
ATOM      1  C4' PXY d   1       2.461   0.020  -0.015  0.00  0.00     0.077 C 
ATOM      2  C1' PXY d   1      -2.006  -0.047   3.653  0.00  0.00     0.077 C 
ATOM      3  C1  PXY d   1      -0.842  -0.034   2.682  0.00  0.00    -0.082 A 
ATOM      4  C2  PXY d   1       0.397  -0.028   3.146  0.00  0.00     0.003 A 
ATOM      5  C3  PXY d   1       1.461   0.015   2.282  0.00  0.00     0.003 A 
ATOM      6  C4  PXY d   1       1.256  -0.002   0.928  0.00  0.00    -0.082 A 
ATOM      7  C5  PXY d   1      -0.005  -0.019   0.447  0.00  0.00     0.003 A 
ATOM      8  C6  PXY d   1      -1.072  -0.021   1.341  0.00  0.00     0.003 A 
ENDROOT
TORSDOF 0
ENDMDL
