MODEL 1
REMARK minimizedAffinity 2.8070538
REMARK minimizedRMSD -1
REMARK  0 active torsions:
REMARK  status: ('A' for Active; 'I' for Inactive)
ROOT
ATOM      1  C   UNL d   1       1.442  -2.586  -1.652  0.00  0.00     0.077 C 
ATOM      2  C1  UNL d   1       1.016  -1.368  -0.887  0.00  0.00    -0.074 A 
ATOM      3  C2  UNL d   1       0.612  -1.464   0.448  0.00  0.00    -0.005 A 
ATOM      4  C3  UNL d   1       0.228  -0.321   1.151  0.00  0.00     0.006 A 
ATOM      5  C4  UNL d   1       0.245   0.927   0.526  0.00  0.00    -0.005 A 
ATOM      6  C5  UNL d   1       0.648   1.042  -0.809  0.00  0.00    -0.074 A 
ATOM      7  C6  UNL d   1       0.682   2.376  -1.492  0.00  0.00     0.077 C 
ATOM      8  C7  UNL d   1       1.039  -0.110  -1.505  0.00  0.00    -0.001 A 
ENDROOT
TORSDOF 0
ENDMDL
