MODEL 1
REMARK minimizedAffinity -3.22316098
REMARK minimizedRMSD -1
REMARK  0 active torsions:
REMARK  status: ('A' for Active; 'I' for Inactive)
ROOT
ATOM      1  C   UNL d   1      -0.816   0.347   1.817  0.00  0.00     0.077 C 
ATOM      2  C1  UNL d   1      -0.167  -0.273   0.615  0.00  0.00    -0.074 A 
ATOM      3  C2  UNL d   1       0.678   0.475  -0.211  0.00  0.00    -0.005 A 
ATOM      4  C3  UNL d   1       1.282  -0.118  -1.320  0.00  0.00     0.006 A 
ATOM      5  C4  UNL d   1       1.047  -1.461  -1.614  0.00  0.00    -0.005 A 
ATOM      6  C5  UNL d   1       0.205  -2.225  -0.799  0.00  0.00    -0.074 A 
ATOM      7  C6  UNL d   1      -0.050  -3.673  -1.095  0.00  0.00     0.077 C 
ATOM      8  C7  UNL d   1      -0.392  -1.624   0.317  0.00  0.00    -0.001 A 
ENDROOT
TORSDOF 0
ENDMDL
