MODEL 1
REMARK minimizedAffinity -3.89420462
REMARK minimizedRMSD -1
REMARK  0 active torsions:
REMARK  status: ('A' for Active; 'I' for Inactive)
ROOT
ATOM      1  C   UNL d   1       1.109  -5.460  -0.392  0.00  0.00     0.077 C 
ATOM      2  C1  UNL d   1       0.873  -4.169  -1.118  0.00  0.00    -0.074 A 
ATOM      3  C2  UNL d   1       0.304  -4.157  -2.395  0.00  0.00    -0.005 A 
ATOM      4  C3  UNL d   1       0.081  -2.948  -3.054  0.00  0.00     0.006 A 
ATOM      5  C4  UNL d   1       0.423  -1.741  -2.443  0.00  0.00    -0.005 A 
ATOM      6  C5  UNL d   1       0.992  -1.734  -1.165  0.00  0.00    -0.074 A 
ATOM      7  C6  UNL d   1       1.356  -0.445  -0.490  0.00  0.00     0.077 C 
ATOM      8  C7  UNL d   1       1.206  -2.952  -0.507  0.00  0.00    -0.001 A 
ENDROOT
TORSDOF 0
ENDMDL
