MODEL 1
REMARK minimizedAffinity -2.71307039
REMARK minimizedRMSD -1
REMARK  0 active torsions:
REMARK  status: ('A' for Active; 'I' for Inactive)
ROOT
ATOM      1  C   UNL d   1       2.096  -5.040   0.262  0.00  0.00     0.077 C 
ATOM      2  C1  UNL d   1       1.337  -4.094  -0.621  0.00  0.00    -0.074 A 
ATOM      3  C2  UNL d   1       0.709  -4.546  -1.786  0.00  0.00    -0.005 A 
ATOM      4  C3  UNL d   1      -0.001  -3.656  -2.592  0.00  0.00     0.006 A 
ATOM      5  C4  UNL d   1      -0.090  -2.308  -2.242  0.00  0.00    -0.005 A 
ATOM      6  C5  UNL d   1       0.531  -1.839  -1.080  0.00  0.00    -0.074 A 
ATOM      7  C6  UNL d   1       0.437  -0.395  -0.684  0.00  0.00     0.077 C 
ATOM      8  C7  UNL d   1       1.237  -2.740  -0.271  0.00  0.00    -0.001 A 
ENDROOT
TORSDOF 0
ENDMDL
