MODEL 1
REMARK minimizedAffinity -5.40884399
REMARK minimizedRMSD -1
REMARK  0 active torsions:
REMARK  status: ('A' for Active; 'I' for Inactive)
ROOT
ATOM      1  C   UNL d   1       0.832  -0.642  -0.280  0.00  0.00     0.077 C 
ATOM      2  C1  UNL d   1       0.030   0.527   0.210  0.00  0.00    -0.074 A 
ATOM      3  C2  UNL d   1      -0.700   0.449   1.400  0.00  0.00    -0.005 A 
ATOM      4  C3  UNL d   1      -1.433   1.547   1.849  0.00  0.00     0.006 A 
ATOM      5  C4  UNL d   1      -1.445   2.733   1.112  0.00  0.00    -0.005 A 
ATOM      6  C5  UNL d   1      -0.720   2.829  -0.080  0.00  0.00    -0.074 A 
ATOM      7  C6  UNL d   1      -0.714   4.099  -0.878  0.00  0.00     0.077 C 
ATOM      8  C7  UNL d   1       0.020   1.724  -0.520  0.00  0.00    -0.001 A 
ENDROOT
TORSDOF 0
ENDMDL
