MODEL 1
REMARK minimizedAffinity -2.19026113
REMARK minimizedRMSD -1
REMARK  0 active torsions:
REMARK  status: ('A' for Active; 'I' for Inactive)
ROOT
ATOM      1  C   UNL d   1       1.745  -0.262  -0.556  0.00  0.00     0.077 C 
ATOM      2  C1  UNL d   1       0.293  -0.087  -0.221  0.00  0.00    -0.074 A 
ATOM      3  C2  UNL d   1      -0.647  -1.063  -0.569  0.00  0.00    -0.005 A 
ATOM      4  C3  UNL d   1      -1.992  -0.891  -0.243  0.00  0.00     0.006 A 
ATOM      5  C4  UNL d   1      -2.410   0.255   0.434  0.00  0.00    -0.005 A 
ATOM      6  C5  UNL d   1      -1.484   1.241   0.791  0.00  0.00    -0.074 A 
ATOM      7  C6  UNL d   1      -1.915   2.474   1.528  0.00  0.00     0.077 C 
ATOM      8  C7  UNL d   1      -0.133   1.058   0.466  0.00  0.00    -0.001 A 
ENDROOT
TORSDOF 0
ENDMDL
