MODEL 1
REMARK minimizedAffinity 0.113405891
REMARK minimizedRMSD -1
REMARK  0 active torsions:
REMARK  status: ('A' for Active; 'I' for Inactive)
ROOT
ATOM      1  C   UNL d   1       0.720   1.600  -1.386  0.00  0.00     0.077 C 
ATOM      2  C1  UNL d   1       0.307   1.549   0.054  0.00  0.00    -0.074 A 
ATOM      3  C2  UNL d   1       0.309   2.703   0.844  0.00  0.00    -0.005 A 
ATOM      4  C3  UNL d   1      -0.087   2.641   2.180  0.00  0.00     0.006 A 
ATOM      5  C4  UNL d   1      -0.489   1.428   2.739  0.00  0.00    -0.005 A 
ATOM      6  C5  UNL d   1      -0.499   0.263   1.964  0.00  0.00    -0.074 A 
ATOM      7  C6  UNL d   1      -0.937  -1.047   2.547  0.00  0.00     0.077 C 
ATOM      8  C7  UNL d   1      -0.106   0.334   0.621  0.00  0.00    -0.001 A 
ENDROOT
TORSDOF 0
ENDMDL
