MODEL 1
REMARK minimizedAffinity -4.04408503
REMARK minimizedRMSD -1
REMARK  0 active torsions:
REMARK  status: ('A' for Active; 'I' for Inactive)
ROOT
ATOM      1  C   UNL d   1       1.578  -1.134  -0.265  0.00  0.00     0.077 C 
ATOM      2  C1  UNL d   1       0.592  -0.009  -0.367  0.00  0.00    -0.074 A 
ATOM      3  C2  UNL d   1       0.197   0.490  -1.612  0.00  0.00    -0.005 A 
ATOM      4  C3  UNL d   1      -0.728   1.532  -1.691  0.00  0.00     0.006 A 
ATOM      5  C4  UNL d   1      -1.266   2.083  -0.528  0.00  0.00    -0.005 A 
ATOM      6  C5  UNL d   1      -0.883   1.597   0.726  0.00  0.00    -0.074 A 
ATOM      7  C6  UNL d   1      -1.459   2.172   1.986  0.00  0.00     0.077 C 
ATOM      8  C7  UNL d   1       0.041   0.546   0.797  0.00  0.00    -0.001 A 
ENDROOT
TORSDOF 0
ENDMDL
