MODEL 1
REMARK minimizedAffinity 0.65730691
REMARK minimizedRMSD -1
REMARK  0 active torsions:
REMARK  status: ('A' for Active; 'I' for Inactive)
ROOT
ATOM      1  C   UNL d   1       0.169   0.796  -0.902  0.00  0.00     0.077 C 
ATOM      2  C1  UNL d   1      -0.050   0.241  -2.278  0.00  0.00    -0.074 A 
ATOM      3  C2  UNL d   1      -0.798   0.946  -3.227  0.00  0.00    -0.005 A 
ATOM      4  C3  UNL d   1      -0.985   0.422  -4.505  0.00  0.00     0.006 A 
ATOM      5  C4  UNL d   1      -0.428  -0.811  -4.848  0.00  0.00    -0.005 A 
ATOM      6  C5  UNL d   1       0.323  -1.530  -3.913  0.00  0.00    -0.074 A 
ATOM      7  C6  UNL d   1       0.937  -2.851  -4.268  0.00  0.00     0.077 C 
ATOM      8  C7  UNL d   1       0.513  -0.993  -2.632  0.00  0.00    -0.001 A 
ENDROOT
TORSDOF 0
ENDMDL
