MODEL 1
REMARK minimizedAffinity 5.56986904
REMARK minimizedRMSD -1
REMARK  0 active torsions:
REMARK  status: ('A' for Active; 'I' for Inactive)
ROOT
ATOM      1  C   UNL d   1      -1.066   0.943   2.869  0.00  0.00     0.077 C 
ATOM      2  C1  UNL d   1      -0.164   0.789   1.681  0.00  0.00    -0.074 A 
ATOM      3  C2  UNL d   1       0.793  -0.229   1.632  0.00  0.00    -0.005 A 
ATOM      4  C3  UNL d   1       1.619  -0.366   0.516  0.00  0.00     0.006 A 
ATOM      5  C4  UNL d   1       1.496   0.513  -0.560  0.00  0.00    -0.005 A 
ATOM      6  C5  UNL d   1       0.544   1.537  -0.530  0.00  0.00    -0.074 A 
ATOM      7  C6  UNL d   1       0.392   2.484  -1.683  0.00  0.00     0.077 C 
ATOM      8  C7  UNL d   1      -0.287   1.663   0.592  0.00  0.00    -0.001 A 
ENDROOT
TORSDOF 0
ENDMDL
