MODEL 1
REMARK minimizedAffinity 1.59669423
REMARK minimizedRMSD -1
REMARK  0 active torsions:
REMARK  status: ('A' for Active; 'I' for Inactive)
ROOT
ATOM      1  C   UNL d   1      -1.109   1.945   2.644  0.00  0.00     0.077 C 
ATOM      2  C1  UNL d   1      -0.497   1.207   1.491  0.00  0.00    -0.074 A 
ATOM      3  C2  UNL d   1      -0.360  -0.185   1.520  0.00  0.00    -0.005 A 
ATOM      4  C3  UNL d   1       0.202  -0.859   0.436  0.00  0.00     0.006 A 
ATOM      5  C4  UNL d   1       0.632  -0.150  -0.686  0.00  0.00    -0.005 A 
ATOM      6  C5  UNL d   1       0.503   1.242  -0.733  0.00  0.00    -0.074 A 
ATOM      7  C6  UNL d   1       0.951   2.019  -1.936  0.00  0.00     0.077 C 
ATOM      8  C7  UNL d   1      -0.069   1.911   0.357  0.00  0.00    -0.001 A 
ENDROOT
TORSDOF 0
ENDMDL
