MODEL 1
REMARK minimizedAffinity -3.31651592
REMARK minimizedRMSD -1
REMARK  0 active torsions:
REMARK  status: ('A' for Active; 'I' for Inactive)
ROOT
ATOM      1  C   UNL d   1      -0.809   1.684   2.579  0.00  0.00     0.077 C 
ATOM      2  C1  UNL d   1      -1.037   1.306   1.146  0.00  0.00    -0.074 A 
ATOM      3  C2  UNL d   1      -1.454   0.016   0.800  0.00  0.00    -0.005 A 
ATOM      4  C3  UNL d   1      -1.671  -0.318  -0.536  0.00  0.00     0.006 A 
ATOM      5  C4  UNL d   1      -1.474   0.632  -1.539  0.00  0.00    -0.005 A 
ATOM      6  C5  UNL d   1      -1.058   1.927  -1.213  0.00  0.00    -0.074 A 
ATOM      7  C6  UNL d   1      -0.851   2.962  -2.277  0.00  0.00     0.077 C 
ATOM      8  C7  UNL d   1      -0.849   2.257   0.133  0.00  0.00    -0.001 A 
ENDROOT
TORSDOF 0
ENDMDL
