MODEL 1
REMARK minimizedAffinity 7.22940159
REMARK minimizedRMSD -1
REMARK  0 active torsions:
REMARK  status: ('A' for Active; 'I' for Inactive)
ROOT
ATOM      1  C   UNL d   1      -2.068   3.521   2.810  0.00  0.00     0.077 C 
ATOM      2  C1  UNL d   1      -1.453   2.155   2.751  0.00  0.00    -0.074 A 
ATOM      3  C2  UNL d   1      -1.778   1.178   3.698  0.00  0.00    -0.005 A 
ATOM      4  C3  UNL d   1      -1.205  -0.091   3.624  0.00  0.00     0.006 A 
ATOM      5  C4  UNL d   1      -0.302  -0.397   2.605  0.00  0.00    -0.005 A 
ATOM      6  C5  UNL d   1       0.035   0.566   1.649  0.00  0.00    -0.074 A 
ATOM      7  C6  UNL d   1       0.996   0.251   0.541  0.00  0.00     0.077 C 
ATOM      8  C7  UNL d   1      -0.551   1.838   1.725  0.00  0.00    -0.001 A 
ENDROOT
TORSDOF 0
ENDMDL
