MODEL 1
REMARK minimizedAffinity 0.240832224
REMARK minimizedRMSD -1
REMARK  0 active torsions:
REMARK  status: ('A' for Active; 'I' for Inactive)
ROOT
ATOM      1  C   UNL d   1      -1.120   1.008  -1.720  0.00  0.00     0.077 C 
ATOM      2  C1  UNL d   1      -1.199   1.224  -0.238  0.00  0.00    -0.074 A 
ATOM      3  C2  UNL d   1      -0.372   0.513   0.638  0.00  0.00    -0.005 A 
ATOM      4  C3  UNL d   1      -0.450   0.731   2.013  0.00  0.00     0.006 A 
ATOM      5  C4  UNL d   1      -1.356   1.660   2.526  0.00  0.00    -0.005 A 
ATOM      6  C5  UNL d   1      -2.191   2.381   1.667  0.00  0.00    -0.074 A 
ATOM      7  C6  UNL d   1      -3.163   3.390   2.201  0.00  0.00     0.077 C 
ATOM      8  C7  UNL d   1      -2.101   2.161   0.285  0.00  0.00    -0.001 A 
ENDROOT
TORSDOF 0
ENDMDL
