MODEL 1
REMARK minimizedAffinity -4.59967136
REMARK minimizedRMSD -1
REMARK  0 active torsions:
REMARK  status: ('A' for Active; 'I' for Inactive)
ROOT
ATOM      1  C4' PXY d   1      -2.426   1.045  -0.218  0.00  0.00     0.077 C 
ATOM      2  C1' PXY d   1       2.672  -1.630   0.298  0.00  0.00     0.077 C 
ATOM      3  C1  PXY d   1       1.331  -0.937   0.154  0.00  0.00    -0.082 A 
ATOM      4  C2  PXY d   1       1.223   0.346   0.455  0.00  0.00     0.003 A 
ATOM      5  C3  PXY d   1       0.011   0.981   0.361  0.00  0.00     0.003 A 
ATOM      6  C4  PXY d   1      -1.090   0.307  -0.097  0.00  0.00    -0.082 A 
ATOM      7  C5  PXY d   1      -0.985  -1.000  -0.417  0.00  0.00     0.003 A 
ATOM      8  C6  PXY d   1       0.245  -1.636  -0.275  0.00  0.00     0.003 A 
ENDROOT
TORSDOF 0
ENDMDL
