MODEL 1
REMARK minimizedAffinity -2.95908499
REMARK minimizedRMSD -1
REMARK  0 active torsions:
REMARK  status: ('A' for Active; 'I' for Inactive)
ROOT
ATOM      1  C4' PXY d   1      -2.470   0.833  -0.462  0.00  0.00     0.077 C 
ATOM      2  C1' PXY d   1       2.563  -1.893   0.342  0.00  0.00     0.077 C 
ATOM      3  C1  PXY d   1       1.247  -1.170   0.140  0.00  0.00    -0.082 A 
ATOM      4  C2  PXY d   1       0.219  -1.816  -0.387  0.00  0.00     0.003 A 
ATOM      5  C3  PXY d   1      -0.969  -1.168  -0.606  0.00  0.00     0.003 A 
ATOM      6  C4  PXY d   1      -1.124   0.140  -0.232  0.00  0.00    -0.082 A 
ATOM      7  C5  PXY d   1      -0.084   0.803   0.317  0.00  0.00     0.003 A 
ATOM      8  C6  PXY d   1       1.127   0.139   0.492  0.00  0.00     0.003 A 
ENDROOT
TORSDOF 0
ENDMDL
