MODEL 1
REMARK minimizedAffinity -4.56640625
REMARK minimizedRMSD -1
REMARK  0 active torsions:
REMARK  status: ('A' for Active; 'I' for Inactive)
ROOT
ATOM      1  C4' PXY d   1      -1.637   0.405  -0.645  0.00  0.00     0.077 C 
ATOM      2  C1' PXY d   1       4.110   0.155  -0.080  0.00  0.00     0.077 C 
ATOM      3  C1  PXY d   1       2.603   0.209  -0.235  0.00  0.00    -0.082 A 
ATOM      4  C2  PXY d   1       1.983   1.377  -0.199  0.00  0.00     0.003 A 
ATOM      5  C3  PXY d   1       0.618   1.442  -0.305  0.00  0.00     0.003 A 
ATOM      6  C4  PXY d   1      -0.116   0.303  -0.503  0.00  0.00    -0.082 A 
ATOM      7  C5  PXY d   1       0.509  -0.892  -0.551  0.00  0.00     0.003 A 
ATOM      8  C6  PXY d   1       1.892  -0.940  -0.400  0.00  0.00     0.003 A 
ENDROOT
TORSDOF 0
ENDMDL
