MODEL 1
REMARK minimizedAffinity -4.84440565
REMARK minimizedRMSD -1
REMARK  0 active torsions:
REMARK  status: ('A' for Active; 'I' for Inactive)
ROOT
ATOM      1  C4' PXY d   1      -3.086   1.120  -0.011  0.00  0.00     0.077 C 
ATOM      2  C1' PXY d   1       2.227  -1.147   0.208  0.00  0.00     0.077 C 
ATOM      3  C1  PXY d   1       0.839  -0.541   0.151  0.00  0.00    -0.082 A 
ATOM      4  C2  PXY d   1      -0.206  -1.262   0.523  0.00  0.00     0.003 A 
ATOM      5  C3  PXY d   1      -1.471  -0.740   0.448  0.00  0.00     0.003 A 
ATOM      6  C4  PXY d   1      -1.665   0.552   0.039  0.00  0.00    -0.082 A 
ATOM      7  C5  PXY d   1      -0.603   1.298  -0.333  0.00  0.00     0.003 A 
ATOM      8  C6  PXY d   1       0.670   0.736  -0.288  0.00  0.00     0.003 A 
ENDROOT
TORSDOF 0
ENDMDL
