MODEL 1
REMARK minimizedAffinity -5.20185566
REMARK minimizedRMSD -1
REMARK  0 active torsions:
REMARK  status: ('A' for Active; 'I' for Inactive)
ROOT
ATOM      1  C4' PXY d   1      -1.949   1.113  -0.454  0.00  0.00     0.077 C 
ATOM      2  C1' PXY d   1       3.190  -1.244   0.747  0.00  0.00     0.077 C 
ATOM      3  C1  PXY d   1       1.840  -0.635   0.423  0.00  0.00    -0.082 A 
ATOM      4  C2  PXY d   1       1.607   0.633   0.718  0.00  0.00     0.003 A 
ATOM      5  C3  PXY d   1       0.382   1.191   0.460  0.00  0.00     0.003 A 
ATOM      6  C4  PXY d   1      -0.598   0.458  -0.154  0.00  0.00    -0.082 A 
ATOM      7  C5  PXY d   1      -0.365  -0.834  -0.467  0.00  0.00     0.003 A 
ATOM      8  C6  PXY d   1       0.872  -1.393  -0.160  0.00  0.00     0.003 A 
ENDROOT
TORSDOF 0
ENDMDL
