MODEL 1
REMARK minimizedAffinity -2.18349552
REMARK minimizedRMSD -1
REMARK  0 active torsions:
REMARK  status: ('A' for Active; 'I' for Inactive)
ROOT
ATOM      1  C4' PXY d   1      -2.795   1.092   0.122  0.00  0.00     0.077 C 
ATOM      2  C1' PXY d   1       2.496  -1.226  -0.105  0.00  0.00     0.077 C 
ATOM      3  C1  PXY d   1       1.113  -0.607  -0.051  0.00  0.00    -0.082 A 
ATOM      4  C2  PXY d   1       0.221  -1.073   0.809  0.00  0.00     0.003 A 
ATOM      5  C3  PXY d   1      -1.044  -0.546   0.849  0.00  0.00     0.003 A 
ATOM      6  C4  PXY d   1      -1.384   0.504   0.039  0.00  0.00    -0.082 A 
ATOM      7  C5  PXY d   1      -0.476   0.992  -0.833  0.00  0.00     0.003 A 
ATOM      8  C6  PXY d   1       0.790   0.416  -0.888  0.00  0.00     0.003 A 
ENDROOT
TORSDOF 0
ENDMDL
