MODEL 1
REMARK minimizedAffinity -4.92482567
REMARK minimizedRMSD -1
REMARK  0 active torsions:
REMARK  status: ('A' for Active; 'I' for Inactive)
ROOT
ATOM      1  C   UNL d   1       0.088  -0.301  -1.800  0.00  0.00     0.077 C 
ATOM      2  C1  UNL d   1      -0.136  -0.032  -0.341  0.00  0.00    -0.074 A 
ATOM      3  C2  UNL d   1      -1.360   0.464   0.119  0.00  0.00    -0.005 A 
ATOM      4  C3  UNL d   1      -1.556   0.700   1.480  0.00  0.00     0.006 A 
ATOM      5  C4  UNL d   1      -0.532   0.444   2.392  0.00  0.00    -0.005 A 
ATOM      6  C5  UNL d   1       0.699  -0.053   1.951  0.00  0.00    -0.074 A 
ATOM      7  C6  UNL d   1       1.807  -0.343   2.919  0.00  0.00     0.077 C 
ATOM      8  C7  UNL d   1       0.886  -0.294   0.583  0.00  0.00    -0.001 A 
ENDROOT
TORSDOF 0
ENDMDL
