MODEL 1
REMARK minimizedAffinity -3.96934819
REMARK minimizedRMSD -1
REMARK  0 active torsions:
REMARK  status: ('A' for Active; 'I' for Inactive)
ROOT
ATOM      1  C   UNL d   1       1.514  -0.755  -0.778  0.00  0.00     0.077 C 
ATOM      2  C1  UNL d   1       0.750  -0.396   0.462  0.00  0.00    -0.074 A 
ATOM      3  C2  UNL d   1      -0.559   0.090   0.384  0.00  0.00    -0.005 A 
ATOM      4  C3  UNL d   1      -1.260   0.411   1.546  0.00  0.00     0.006 A 
ATOM      5  C4  UNL d   1      -0.661   0.249   2.796  0.00  0.00    -0.005 A 
ATOM      6  C5  UNL d   1       0.647  -0.237   2.893  0.00  0.00    -0.074 A 
ATOM      7  C6  UNL d   1       1.302  -0.427   4.229  0.00  0.00     0.077 C 
ATOM      8  C7  UNL d   1       1.342  -0.564   1.721  0.00  0.00    -0.001 A 
ENDROOT
TORSDOF 0
ENDMDL
