MODEL 1
REMARK minimizedAffinity -0.0299566276
REMARK minimizedRMSD -1
REMARK  0 active torsions:
REMARK  status: ('A' for Active; 'I' for Inactive)
ROOT
ATOM      1  C   UNL d   1      -1.319   0.676   2.767  0.00  0.00     0.077 C 
ATOM      2  C1  UNL d   1      -0.258   0.200   1.820  0.00  0.00    -0.074 A 
ATOM      3  C2  UNL d   1       1.024  -0.120   2.279  0.00  0.00    -0.005 A 
ATOM      4  C3  UNL d   1       1.998  -0.571   1.388  0.00  0.00     0.006 A 
ATOM      5  C4  UNL d   1       1.700  -0.707   0.032  0.00  0.00    -0.005 A 
ATOM      6  C5  UNL d   1       0.423  -0.393  -0.446  0.00  0.00    -0.074 A 
ATOM      7  C6  UNL d   1       0.084  -0.543  -1.899  0.00  0.00     0.077 C 
ATOM      8  C7  UNL d   1      -0.552   0.053   0.457  0.00  0.00    -0.001 A 
ENDROOT
TORSDOF 0
ENDMDL
