MODEL 1
REMARK minimizedAffinity -3.33895111
REMARK minimizedRMSD -1
REMARK  0 active torsions:
REMARK  status: ('A' for Active; 'I' for Inactive)
ROOT
ATOM      1  C   UNL d   1       1.255  -0.604  -0.165  0.00  0.00     0.077 C 
ATOM      2  C1  UNL d   1       0.087  -0.066   0.607  0.00  0.00    -0.074 A 
ATOM      3  C2  UNL d   1      -1.209  -0.126   0.084  0.00  0.00    -0.005 A 
ATOM      4  C3  UNL d   1      -2.287   0.370   0.818  0.00  0.00     0.006 A 
ATOM      5  C4  UNL d   1      -2.080   0.930   2.079  0.00  0.00    -0.005 A 
ATOM      6  C5  UNL d   1      -0.792   0.998   2.618  0.00  0.00    -0.074 A 
ATOM      7  C6  UNL d   1      -0.553   1.588   3.977  0.00  0.00     0.077 C 
ATOM      8  C7  UNL d   1       0.285   0.491   1.878  0.00  0.00    -0.001 A 
ENDROOT
TORSDOF 0
ENDMDL
