MODEL 1
REMARK minimizedAffinity -4.05402517
REMARK minimizedRMSD -1
REMARK  0 active torsions:
REMARK  status: ('A' for Active; 'I' for Inactive)
ROOT
ATOM      1  C   UNL d   1      -1.084   2.078   2.241  0.00  0.00     0.077 C 
ATOM      2  C1  UNL d   1      -0.154   1.044   1.678  0.00  0.00    -0.074 A 
ATOM      3  C2  UNL d   1       1.087   0.794   2.273  0.00  0.00    -0.005 A 
ATOM      4  C3  UNL d   1       1.938  -0.177   1.745  0.00  0.00     0.006 A 
ATOM      5  C4  UNL d   1       1.557  -0.906   0.618  0.00  0.00    -0.005 A 
ATOM      6  C5  UNL d   1       0.320  -0.671   0.010  0.00  0.00    -0.074 A 
ATOM      7  C6  UNL d   1      -0.109  -1.452  -1.196  0.00  0.00     0.077 C 
ATOM      8  C7  UNL d   1      -0.532   0.302   0.551  0.00  0.00    -0.001 A 
ENDROOT
TORSDOF 0
ENDMDL
