MODEL 1
REMARK minimizedAffinity -4.12643242
REMARK minimizedRMSD -1
REMARK  0 active torsions:
REMARK  status: ('A' for Active; 'I' for Inactive)
ROOT
ATOM      1  C   UNL d   1       0.758  -0.338   3.616  0.00  0.00     0.077 C 
ATOM      2  C1  UNL d   1       0.052  -0.189   2.301  0.00  0.00    -0.074 A 
ATOM      3  C2  UNL d   1      -1.271   0.259   2.242  0.00  0.00    -0.005 A 
ATOM      4  C3  UNL d   1      -1.911   0.402   1.011  0.00  0.00     0.006 A 
ATOM      5  C4  UNL d   1      -1.236   0.097  -0.172  0.00  0.00    -0.005 A 
ATOM      6  C5  UNL d   1       0.088  -0.352  -0.132  0.00  0.00    -0.074 A 
ATOM      7  C6  UNL d   1       0.832  -0.674  -1.394  0.00  0.00     0.077 C 
ATOM      8  C7  UNL d   1       0.727  -0.485   1.108  0.00  0.00    -0.001 A 
ENDROOT
TORSDOF 0
ENDMDL
