MODEL 1
REMARK minimizedAffinity -2.63658834
REMARK minimizedRMSD -1
REMARK  0 active torsions:
REMARK  status: ('A' for Active; 'I' for Inactive)
ROOT
ATOM      1  C   UNL d   1       1.829  -0.634   4.859  0.00  0.00     0.077 C 
ATOM      2  C1  UNL d   1       0.793  -0.391   3.803  0.00  0.00    -0.074 A 
ATOM      3  C2  UNL d   1       1.163  -0.058   2.496  0.00  0.00    -0.005 A 
ATOM      4  C3  UNL d   1       0.188   0.156   1.522  0.00  0.00     0.006 A 
ATOM      5  C4  UNL d   1      -1.165   0.040   1.844  0.00  0.00    -0.005 A 
ATOM      6  C5  UNL d   1      -1.554  -0.293   3.145  0.00  0.00    -0.074 A 
ATOM      7  C6  UNL d   1      -3.003  -0.431   3.506  0.00  0.00     0.077 C 
ATOM      8  C7  UNL d   1      -0.568  -0.513   4.117  0.00  0.00    -0.001 A 
ENDROOT
TORSDOF 0
ENDMDL
