MODEL 1
REMARK minimizedAffinity -3.20006704
REMARK minimizedRMSD -1
REMARK  0 active torsions:
REMARK  status: ('A' for Active; 'I' for Inactive)
ROOT
ATOM      1  C   UNL d   1       0.980   3.409   1.532  0.00  0.00     0.078 C 
ATOM      2  C1  UNL d   1       0.492   2.356   0.583  0.00  0.00    -0.077 A 
ATOM      3  C2  UNL d   1       0.190   2.669  -0.749  0.00  0.00    -0.001 A 
ATOM      4  C3  UNL d   1      -0.272   1.680  -1.618  0.00  0.00     0.003 A 
ATOM      5  C4  UNL d   1      -0.439   0.373  -1.167  0.00  0.00    -0.005 A 
ATOM      6  C5  UNL d   1      -0.144   0.052   0.157  0.00  0.00     0.003 A 
ATOM      7  C6  UNL d   1       0.319   1.040   1.028  0.00  0.00    -0.001 A 
ENDROOT
TORSDOF 0
ENDMDL
