MODEL 1
REMARK minimizedAffinity -2.12138891
REMARK minimizedRMSD -1
REMARK  0 active torsions:
REMARK  status: ('A' for Active; 'I' for Inactive)
ROOT
ATOM      1  C   UNL d   1       0.727   0.222  -0.199  0.00  0.00     0.078 C 
ATOM      2  C1  UNL d   1      -0.204  -0.823   0.339  0.00  0.00    -0.077 A 
ATOM      3  C2  UNL d   1      -0.125  -2.153  -0.094  0.00  0.00    -0.001 A 
ATOM      4  C3  UNL d   1      -1.004  -3.113   0.409  0.00  0.00     0.003 A 
ATOM      5  C4  UNL d   1      -1.970  -2.754   1.346  0.00  0.00    -0.005 A 
ATOM      6  C5  UNL d   1      -2.059  -1.434   1.782  0.00  0.00     0.003 A 
ATOM      7  C6  UNL d   1      -1.180  -0.472   1.280  0.00  0.00    -0.001 A 
ENDROOT
TORSDOF 0
ENDMDL
