MODEL 1
REMARK minimizedAffinity -4.72789907
REMARK minimizedRMSD -1
REMARK  0 active torsions:
REMARK  status: ('A' for Active; 'I' for Inactive)
ROOT
ATOM      1  C   UNL d   1      -3.782   1.670   0.401  0.00  0.00     0.078 C 
ATOM      2  C1  UNL d   1      -2.598   0.799   0.697  0.00  0.00    -0.077 A 
ATOM      3  C2  UNL d   1      -1.437   0.870  -0.082  0.00  0.00    -0.001 A 
ATOM      4  C3  UNL d   1      -0.346   0.046   0.200  0.00  0.00     0.003 A 
ATOM      5  C4  UNL d   1      -0.406  -0.856   1.260  0.00  0.00    -0.005 A 
ATOM      6  C5  UNL d   1      -1.558  -0.936   2.040  0.00  0.00     0.003 A 
ATOM      7  C6  UNL d   1      -2.650  -0.113   1.760  0.00  0.00    -0.001 A 
ENDROOT
TORSDOF 0
ENDMDL
