MODEL 1
REMARK minimizedAffinity -4.59036875
REMARK minimizedRMSD -1
REMARK  0 active torsions:
REMARK  status: ('A' for Active; 'I' for Inactive)
ROOT
ATOM      1  C   UNL d   1      -2.284  -0.603   2.641  0.00  0.00     0.078 C 
ATOM      2  C1  UNL d   1      -1.347  -1.015   1.545  0.00  0.00    -0.077 A 
ATOM      3  C2  UNL d   1      -1.098  -2.367   1.279  0.00  0.00    -0.001 A 
ATOM      4  C3  UNL d   1      -0.215  -2.735   0.262  0.00  0.00     0.003 A 
ATOM      5  C4  UNL d   1       0.426  -1.757  -0.496  0.00  0.00    -0.005 A 
ATOM      6  C5  UNL d   1       0.186  -0.409  -0.237  0.00  0.00     0.003 A 
ATOM      7  C6  UNL d   1      -0.696  -0.039   0.779  0.00  0.00    -0.001 A 
ENDROOT
TORSDOF 0
ENDMDL
