MODEL 1
REMARK minimizedAffinity -3.94666457
REMARK minimizedRMSD -1
REMARK  0 active torsions:
REMARK  status: ('A' for Active; 'I' for Inactive)
ROOT
ATOM      1  C   UNL d   1       0.271   0.756  -0.116  0.00  0.00     0.078 C 
ATOM      2  C1  UNL d   1      -0.401  -0.447   0.476  0.00  0.00    -0.077 A 
ATOM      3  C2  UNL d   1       0.138  -1.728   0.311  0.00  0.00    -0.001 A 
ATOM      4  C3  UNL d   1      -0.504  -2.840   0.859  0.00  0.00     0.003 A 
ATOM      5  C4  UNL d   1      -1.689  -2.682   1.575  0.00  0.00    -0.005 A 
ATOM      6  C5  UNL d   1      -2.234  -1.410   1.742  0.00  0.00     0.003 A 
ATOM      7  C6  UNL d   1      -1.594  -0.297   1.195  0.00  0.00    -0.001 A 
ENDROOT
TORSDOF 0
ENDMDL
