MODEL 1
REMARK minimizedAffinity -1.61450827
REMARK minimizedRMSD -1
REMARK  0 active torsions:
REMARK  status: ('A' for Active; 'I' for Inactive)
ROOT
ATOM      1  C   UNL d   1       0.221  -0.667  -2.085  0.00  0.00     0.078 C 
ATOM      2  C1  UNL d   1      -0.034  -0.944  -0.633  0.00  0.00    -0.077 A 
ATOM      3  C2  UNL d   1       0.770  -0.374   0.362  0.00  0.00    -0.001 A 
ATOM      4  C3  UNL d   1       0.527  -0.649   1.708  0.00  0.00     0.003 A 
ATOM      5  C4  UNL d   1      -0.519  -1.495   2.072  0.00  0.00    -0.005 A 
ATOM      6  C5  UNL d   1      -1.322  -2.069   1.089  0.00  0.00     0.003 A 
ATOM      7  C6  UNL d   1      -1.081  -1.795  -0.258  0.00  0.00    -0.001 A 
ENDROOT
TORSDOF 0
ENDMDL
