MODEL 1
REMARK minimizedAffinity -5.1006031
REMARK minimizedRMSD -1
REMARK  0 active torsions:
REMARK  status: ('A' for Active; 'I' for Inactive)
ROOT
ATOM      1  C   UNL d   1       0.213   1.466   0.008  0.00  0.00     0.078 C 
ATOM      2  C1  UNL d   1      -0.026   0.001   0.224  0.00  0.00    -0.077 A 
ATOM      3  C2  UNL d   1      -1.203  -0.455   0.830  0.00  0.00    -0.001 A 
ATOM      4  C3  UNL d   1      -1.408  -1.821   1.033  0.00  0.00     0.003 A 
ATOM      5  C4  UNL d   1      -0.440  -2.741   0.635  0.00  0.00    -0.005 A 
ATOM      6  C5  UNL d   1       0.735  -2.296   0.033  0.00  0.00     0.003 A 
ATOM      7  C6  UNL d   1       0.942  -0.930  -0.171  0.00  0.00    -0.001 A 
ENDROOT
TORSDOF 0
ENDMDL
