MODEL 1
REMARK minimizedAffinity -5.0656085
REMARK minimizedRMSD -1
REMARK  0 active torsions:
REMARK  status: ('A' for Active; 'I' for Inactive)
ROOT
ATOM      1  C   UNL d   1       0.364   1.008  -0.644  0.00  0.00     0.078 C 
ATOM      2  C1  UNL d   1       0.068  -0.356  -0.097  0.00  0.00    -0.077 A 
ATOM      3  C2  UNL d   1       0.596  -1.505  -0.697  0.00  0.00    -0.001 A 
ATOM      4  C3  UNL d   1       0.304  -2.769  -0.182  0.00  0.00     0.003 A 
ATOM      5  C4  UNL d   1      -0.519  -2.896   0.935  0.00  0.00    -0.005 A 
ATOM      6  C5  UNL d   1      -1.052  -1.759   1.538  0.00  0.00     0.003 A 
ATOM      7  C6  UNL d   1      -0.760  -0.494   1.025  0.00  0.00    -0.001 A 
ENDROOT
TORSDOF 0
ENDMDL
