MODEL 1
REMARK minimizedAffinity -4.23247576
REMARK minimizedRMSD -1
REMARK  0 active torsions:
REMARK  status: ('A' for Active; 'I' for Inactive)
ROOT
ATOM      1  C   UNL d   1      -2.650  -2.526   1.041  0.00  0.00     0.078 C 
ATOM      2  C1  UNL d   1      -1.263  -2.070   0.699  0.00  0.00    -0.077 A 
ATOM      3  C2  UNL d   1      -0.141  -2.794   1.120  0.00  0.00    -0.001 A 
ATOM      4  C3  UNL d   1       1.144  -2.353   0.803  0.00  0.00     0.003 A 
ATOM      5  C4  UNL d   1       1.320  -1.184   0.065  0.00  0.00    -0.005 A 
ATOM      6  C5  UNL d   1       0.210  -0.455  -0.356  0.00  0.00     0.003 A 
ATOM      7  C6  UNL d   1      -1.076  -0.895  -0.040  0.00  0.00    -0.001 A 
ENDROOT
TORSDOF 0
ENDMDL
