MODEL 1
REMARK minimizedAffinity -2.6371038
REMARK minimizedRMSD -1
REMARK  0 active torsions:
REMARK  status: ('A' for Active; 'I' for Inactive)
ROOT
ATOM      1  C   UNL d   1       1.173   2.019  -0.024  0.00  0.00     0.078 C 
ATOM      2  C1  UNL d   1       0.581   0.652   0.149  0.00  0.00    -0.077 A 
ATOM      3  C2  UNL d   1      -0.281   0.368   1.215  0.00  0.00    -0.001 A 
ATOM      4  C3  UNL d   1      -0.817  -0.911   1.368  0.00  0.00     0.003 A 
ATOM      5  C4  UNL d   1      -0.496  -1.918   0.460  0.00  0.00    -0.005 A 
ATOM      6  C5  UNL d   1       0.364  -1.646  -0.603  0.00  0.00     0.003 A 
ATOM      7  C6  UNL d   1       0.900  -0.367  -0.758  0.00  0.00    -0.001 A 
ENDROOT
TORSDOF 0
ENDMDL
