MODEL 1
REMARK minimizedAffinity -4.35006952
REMARK minimizedRMSD -1
REMARK  0 active torsions:
REMARK  status: ('A' for Active; 'I' for Inactive)
ROOT
ATOM      1  C   UNL d   1       2.067   4.137  -2.274  0.00  0.00     0.078 C 
ATOM      2  C1  UNL d   1       1.722   3.401  -1.014  0.00  0.00    -0.077 A 
ATOM      3  C2  UNL d   1       2.576   3.432   0.095  0.00  0.00    -0.001 A 
ATOM      4  C3  UNL d   1       2.248   2.733   1.258  0.00  0.00     0.003 A 
ATOM      5  C4  UNL d   1       1.065   1.999   1.323  0.00  0.00    -0.005 A 
ATOM      6  C5  UNL d   1       0.210   1.961   0.223  0.00  0.00     0.003 A 
ATOM      7  C6  UNL d   1       0.537   2.658  -0.941  0.00  0.00    -0.001 A 
ENDROOT
TORSDOF 0
ENDMDL
