MODEL 1
REMARK minimizedAffinity -4.52447319
REMARK minimizedRMSD -1
REMARK  0 active torsions:
REMARK  status: ('A' for Active; 'I' for Inactive)
ROOT
ATOM      1  C   UNL d   1      -0.207   0.946  -0.468  0.00  0.00     0.078 C 
ATOM      2  C1  UNL d   1      -0.183  -0.472   0.019  0.00  0.00    -0.077 A 
ATOM      3  C2  UNL d   1      -0.842  -0.841   1.198  0.00  0.00    -0.001 A 
ATOM      4  C3  UNL d   1      -0.804  -2.163   1.644  0.00  0.00     0.003 A 
ATOM      5  C4  UNL d   1      -0.107  -3.126   0.918  0.00  0.00    -0.005 A 
ATOM      6  C5  UNL d   1       0.554  -2.768  -0.255  0.00  0.00     0.003 A 
ATOM      7  C6  UNL d   1       0.517  -1.447  -0.703  0.00  0.00    -0.001 A 
ENDROOT
TORSDOF 0
ENDMDL
