MODEL 1
REMARK minimizedAffinity -4.78960848
REMARK minimizedRMSD -1
REMARK  0 active torsions:
REMARK  status: ('A' for Active; 'I' for Inactive)
ROOT
ATOM      1  C   UNL d   1       0.614   1.069   0.726  0.00  0.00     0.078 C 
ATOM      2  C1  UNL d   1       0.058  -0.323   0.725  0.00  0.00    -0.077 A 
ATOM      3  C2  UNL d   1       0.885  -1.430   0.500  0.00  0.00    -0.001 A 
ATOM      4  C3  UNL d   1       0.351  -2.720   0.492  0.00  0.00     0.003 A 
ATOM      5  C4  UNL d   1      -1.012  -2.915   0.708  0.00  0.00    -0.005 A 
ATOM      6  C5  UNL d   1      -1.843  -1.819   0.930  0.00  0.00     0.003 A 
ATOM      7  C6  UNL d   1      -1.311  -0.529   0.938  0.00  0.00    -0.001 A 
ENDROOT
TORSDOF 0
ENDMDL
