MODEL 1
REMARK minimizedAffinity -1.38016617
REMARK minimizedRMSD -1
REMARK  0 active torsions:
REMARK  status: ('A' for Active; 'I' for Inactive)
ROOT
ATOM      1  C   UNL d   1       0.119   1.196  -0.328  0.00  0.00     0.078 C 
ATOM      2  C1  UNL d   1      -0.280  -0.184   0.102  0.00  0.00    -0.077 A 
ATOM      3  C2  UNL d   1      -0.943  -0.398   1.317  0.00  0.00    -0.001 A 
ATOM      4  C3  UNL d   1      -1.299  -1.689   1.709  0.00  0.00     0.003 A 
ATOM      5  C4  UNL d   1      -0.997  -2.777   0.893  0.00  0.00    -0.005 A 
ATOM      6  C5  UNL d   1      -0.335  -2.575  -0.317  0.00  0.00     0.003 A 
ATOM      7  C6  UNL d   1       0.022  -1.284  -0.711  0.00  0.00    -0.001 A 
ENDROOT
TORSDOF 0
ENDMDL
