MODEL 1
REMARK minimizedAffinity -4.94639444
REMARK minimizedRMSD -1
REMARK  0 active torsions:
REMARK  status: ('A' for Active; 'I' for Inactive)
ROOT
ATOM      1  C   UNL d   1       0.730  -1.268  -2.077  0.00  0.00     0.078 C 
ATOM      2  C1  UNL d   1       0.036  -1.295  -0.748  0.00  0.00    -0.077 A 
ATOM      3  C2  UNL d   1      -0.654  -2.435  -0.318  0.00  0.00    -0.001 A 
ATOM      4  C3  UNL d   1      -1.303  -2.442   0.918  0.00  0.00     0.003 A 
ATOM      5  C4  UNL d   1      -1.271  -1.312   1.732  0.00  0.00    -0.005 A 
ATOM      6  C5  UNL d   1      -0.589  -0.172   1.311  0.00  0.00     0.003 A 
ATOM      7  C6  UNL d   1       0.061  -0.163   0.076  0.00  0.00    -0.001 A 
ENDROOT
TORSDOF 0
ENDMDL
