MODEL 1
REMARK minimizedAffinity 4.2721839
REMARK minimizedRMSD -1
REMARK  0 active torsions:
REMARK  status: ('A' for Active; 'I' for Inactive)
ROOT
ATOM      1  C   UNL d   1       1.486   3.693   1.096  0.00  0.00     0.078 C 
ATOM      2  C1  UNL d   1       0.786   2.463   0.598  0.00  0.00    -0.077 A 
ATOM      3  C2  UNL d   1       0.155   1.583   1.486  0.00  0.00    -0.001 A 
ATOM      4  C3  UNL d   1      -0.484   0.438   1.009  0.00  0.00     0.003 A 
ATOM      5  C4  UNL d   1      -0.497   0.161  -0.357  0.00  0.00    -0.005 A 
ATOM      6  C5  UNL d   1       0.131   1.029  -1.247  0.00  0.00     0.003 A 
ATOM      7  C6  UNL d   1       0.771   2.175  -0.772  0.00  0.00    -0.001 A 
ENDROOT
TORSDOF 0
ENDMDL
