MODEL 1
REMARK minimizedAffinity 7.21837664
REMARK minimizedRMSD -1
REMARK  0 active torsions:
REMARK  status: ('A' for Active; 'I' for Inactive)
ROOT
ATOM      1  C   UNL d   1       0.249   5.422   3.025  0.00  0.00     0.078 C 
ATOM      2  C1  UNL d   1       1.021   4.691   1.967  0.00  0.00    -0.077 A 
ATOM      3  C2  UNL d   1       0.503   3.539   1.363  0.00  0.00    -0.001 A 
ATOM      4  C3  UNL d   1       1.236   2.864   0.386  0.00  0.00     0.003 A 
ATOM      5  C4  UNL d   1       2.492   3.332   0.006  0.00  0.00    -0.005 A 
ATOM      6  C5  UNL d   1       3.017   4.477   0.603  0.00  0.00     0.003 A 
ATOM      7  C6  UNL d   1       2.285   5.153   1.580  0.00  0.00    -0.001 A 
ENDROOT
TORSDOF 0
ENDMDL
