MODEL 1
REMARK minimizedAffinity 3.09929228
REMARK minimizedRMSD -1
REMARK  0 active torsions:
REMARK  status: ('A' for Active; 'I' for Inactive)
ROOT
ATOM      1  C   UNL d   1       1.558   4.173   1.644  0.00  0.00     0.078 C 
ATOM      2  C1  UNL d   1       2.418   3.867   0.453  0.00  0.00    -0.077 A 
ATOM      3  C2  UNL d   1       3.752   4.287   0.400  0.00  0.00    -0.001 A 
ATOM      4  C3  UNL d   1       4.537   4.004  -0.718  0.00  0.00     0.003 A 
ATOM      5  C4  UNL d   1       3.997   3.300  -1.793  0.00  0.00    -0.005 A 
ATOM      6  C5  UNL d   1       2.669   2.880  -1.750  0.00  0.00     0.003 A 
ATOM      7  C6  UNL d   1       1.882   3.162  -0.632  0.00  0.00    -0.001 A 
ENDROOT
TORSDOF 0
ENDMDL
