MODEL 1
REMARK minimizedAffinity 20.1336308
REMARK minimizedRMSD -1
REMARK  0 active torsions:
REMARK  status: ('A' for Active; 'I' for Inactive)
ROOT
ATOM      1  O1  BZF d   1       3.979  -0.889   1.731  0.00  0.00    -0.204 OA
ATOM      2  C2  BZF d   1       4.945  -0.876   0.743  0.00  0.00     0.174 A 
ATOM      3  C3  BZF d   1       4.667   0.062  -0.185  0.00  0.00    -0.012 A 
ATOM      4  C3A BZF d   1       3.501   0.736   0.298  0.00  0.00    -0.107 A 
ATOM      5  C4  BZF d   1       2.753   1.775  -0.176  0.00  0.00     0.055 A 
ATOM      6  C5  BZF d   1       1.632   2.144   0.498  0.00  0.00    -0.016 A 
ATOM      7  C6  BZF d   1       1.228   1.494   1.646  0.00  0.00     0.022 A 
ATOM      8  C7  BZF d   1       1.941   0.461   2.158  0.00  0.00     0.029 A 
ATOM      9  C7A BZF d   1       3.091   0.107   1.496  0.00  0.00     0.058 A 
ENDROOT
TORSDOF 0
ENDMDL
