MODEL 1
REMARK minimizedAffinity 16.2657909
REMARK minimizedRMSD -1
REMARK  0 active torsions:
REMARK  status: ('A' for Active; 'I' for Inactive)
ROOT
ATOM      1  O1  BZF d   1      -0.826  -5.104   1.990  0.00  0.00    -0.204 OA
ATOM      2  C2  BZF d   1      -1.873  -5.999   1.880  0.00  0.00     0.174 A 
ATOM      3  C3  BZF d   1      -2.904  -5.449   1.207  0.00  0.00    -0.012 A 
ATOM      4  C3A BZF d   1      -2.441  -4.160   0.796  0.00  0.00    -0.107 A 
ATOM      5  C4  BZF d   1      -3.005  -3.144   0.079  0.00  0.00     0.055 A 
ATOM      6  C5  BZF d   1      -2.312  -1.986  -0.085  0.00  0.00    -0.016 A 
ATOM      7  C6  BZF d   1      -1.056  -1.809   0.459  0.00  0.00     0.022 A 
ATOM      8  C7  BZF d   1      -0.453  -2.790   1.174  0.00  0.00     0.029 A 
ATOM      9  C7A BZF d   1      -1.138  -3.973   1.313  0.00  0.00     0.058 A 
ENDROOT
TORSDOF 0
ENDMDL
