MODEL 1
REMARK minimizedAffinity 19.3484192
REMARK minimizedRMSD -1
REMARK  0 active torsions:
REMARK  status: ('A' for Active; 'I' for Inactive)
ROOT
ATOM      1  O1  BZF d   1      -1.687  -2.855   2.284  0.00  0.00    -0.204 OA
ATOM      2  C2  BZF d   1      -1.483  -2.503   0.963  0.00  0.00     0.174 A 
ATOM      3  C3  BZF d   1      -0.823  -1.330   0.878  0.00  0.00    -0.012 A 
ATOM      4  C3A BZF d   1      -0.519  -0.970   2.229  0.00  0.00    -0.107 A 
ATOM      5  C4  BZF d   1       0.139   0.085   2.794  0.00  0.00     0.055 A 
ATOM      6  C5  BZF d   1       0.199   0.176   4.149  0.00  0.00    -0.016 A 
ATOM      7  C6  BZF d   1      -0.391  -0.764   4.967  0.00  0.00     0.022 A 
ATOM      8  C7  BZF d   1      -1.051  -1.831   4.453  0.00  0.00     0.029 A 
ATOM      9  C7A BZF d   1      -1.085  -1.944   3.084  0.00  0.00     0.058 A 
ENDROOT
TORSDOF 0
ENDMDL
