MODEL 1
REMARK minimizedAffinity 17.7901878
REMARK minimizedRMSD -1
REMARK  0 active torsions:
REMARK  status: ('A' for Active; 'I' for Inactive)
ROOT
ATOM      1  O1  BZF d   1       0.916   5.083  -5.243  0.00  0.00    -0.204 OA
ATOM      2  C2  BZF d   1       1.622   6.000  -5.997  0.00  0.00     0.174 A 
ATOM      3  C3  BZF d   1       2.926   6.000  -5.652  0.00  0.00    -0.012 A 
ATOM      4  C3A BZF d   1       3.059   4.956  -4.682  0.00  0.00    -0.107 A 
ATOM      5  C4  BZF d   1       4.118   4.459  -3.977  0.00  0.00     0.055 A 
ATOM      6  C5  BZF d   1       3.898   3.486  -3.055  0.00  0.00    -0.016 A 
ATOM      7  C6  BZF d   1       2.634   2.991  -2.808  0.00  0.00     0.022 A 
ATOM      8  C7  BZF d   1       1.554   3.449  -3.486  0.00  0.00     0.029 A 
ATOM      9  C7A BZF d   1       1.777   4.410  -4.442  0.00  0.00     0.058 A 
ENDROOT
TORSDOF 0
ENDMDL
