MODEL 1
REMARK minimizedAffinity 10.5325317
REMARK minimizedRMSD -1
REMARK  0 active torsions:
REMARK  status: ('A' for Active; 'I' for Inactive)
ROOT
ATOM      1  O1  BZF d   1      -0.231  -2.882  -2.472  0.00  0.00    -0.204 OA
ATOM      2  C2  BZF d   1      -1.089  -2.844  -3.554  0.00  0.00     0.174 A 
ATOM      3  C3  BZF d   1      -2.356  -2.618  -3.152  0.00  0.00    -0.012 A 
ATOM      4  C3A BZF d   1      -2.272  -2.417  -1.738  0.00  0.00    -0.107 A 
ATOM      5  C4  BZF d   1      -3.197  -2.137  -0.773  0.00  0.00     0.055 A 
ATOM      6  C5  BZF d   1      -2.799  -2.075   0.525  0.00  0.00    -0.016 A 
ATOM      7  C6  BZF d   1      -1.488  -2.294   0.894  0.00  0.00     0.022 A 
ATOM      8  C7  BZF d   1      -0.534  -2.570  -0.029  0.00  0.00     0.029 A 
ATOM      9  C7A BZF d   1      -0.927  -2.600  -1.344  0.00  0.00     0.058 A 
ENDROOT
TORSDOF 0
ENDMDL
