MODEL 1
REMARK minimizedAffinity 10.3758564
REMARK minimizedRMSD -1
REMARK  0 active torsions:
REMARK  status: ('A' for Active; 'I' for Inactive)
ROOT
ATOM      1  O1  BZF d   1      -2.794  -2.695  -1.278  0.00  0.00    -0.204 OA
ATOM      2  C2  BZF d   1      -3.377  -2.994  -2.494  0.00  0.00     0.174 A 
ATOM      3  C3  BZF d   1      -3.935  -4.222  -2.468  0.00  0.00    -0.012 A 
ATOM      4  C3A BZF d   1      -3.765  -4.684  -1.125  0.00  0.00    -0.107 A 
ATOM      5  C4  BZF d   1      -4.124  -5.829  -0.474  0.00  0.00     0.055 A 
ATOM      6  C5  BZF d   1      -3.744  -6.000   0.820  0.00  0.00    -0.016 A 
ATOM      7  C6  BZF d   1      -3.002  -5.050   1.490  0.00  0.00     0.022 A 
ATOM      8  C7  BZF d   1      -2.627  -3.895   0.888  0.00  0.00     0.029 A 
ATOM      9  C7A BZF d   1      -3.037  -3.705  -0.409  0.00  0.00     0.058 A 
ENDROOT
TORSDOF 0
ENDMDL
