MODEL 1
REMARK minimizedAffinity 9.72976398
REMARK minimizedRMSD -1
REMARK  0 active torsions:
REMARK  status: ('A' for Active; 'I' for Inactive)
ROOT
ATOM      1  O1  BZF d   1      -2.815  -2.913   0.329  0.00  0.00    -0.204 OA
ATOM      2  C2  BZF d   1      -1.755  -2.248   0.914  0.00  0.00     0.174 A 
ATOM      3  C3  BZF d   1      -0.925  -1.751  -0.025  0.00  0.00    -0.012 A 
ATOM      4  C3A BZF d   1      -1.551  -2.049  -1.277  0.00  0.00    -0.107 A 
ATOM      5  C4  BZF d   1      -1.218  -1.797  -2.577  0.00  0.00     0.055 A 
ATOM      6  C5  BZF d   1      -2.008  -2.288  -3.568  0.00  0.00    -0.016 A 
ATOM      7  C6  BZF d   1      -3.133  -3.038  -3.295  0.00  0.00     0.022 A 
ATOM      8  C7  BZF d   1      -3.507  -3.310  -2.021  0.00  0.00     0.029 A 
ATOM      9  C7A BZF d   1      -2.729  -2.788  -1.017  0.00  0.00     0.058 A 
ENDROOT
TORSDOF 0
ENDMDL
