MODEL 1
REMARK minimizedAffinity 9.98503494
REMARK minimizedRMSD -1
REMARK  0 active torsions:
REMARK  status: ('A' for Active; 'I' for Inactive)
ROOT
ATOM      1  O1  BZF d   1       4.322  -1.669   3.301  0.00  0.00    -0.204 OA
ATOM      2  C2  BZF d   1       5.086  -1.415   2.178  0.00  0.00     0.174 A 
ATOM      3  C3  BZF d   1       4.311  -0.993   1.158  0.00  0.00    -0.012 A 
ATOM      4  C3A BZF d   1       2.992  -0.894   1.703  0.00  0.00    -0.107 A 
ATOM      5  C4  BZF d   1       1.788  -0.512   1.184  0.00  0.00     0.055 A 
ATOM      6  C5  BZF d   1       0.677  -0.599   1.961  0.00  0.00    -0.016 A 
ATOM      7  C6  BZF d   1       0.732  -1.067   3.258  0.00  0.00     0.022 A 
ATOM      8  C7  BZF d   1       1.904  -1.453   3.818  0.00  0.00     0.029 A 
ATOM      9  C7A BZF d   1       3.034  -1.335   3.046  0.00  0.00     0.058 A 
ENDROOT
TORSDOF 0
ENDMDL
