MODEL 1
REMARK minimizedAffinity 4.25628424
REMARK minimizedRMSD -1
REMARK  0 active torsions:
REMARK  status: ('A' for Active; 'I' for Inactive)
ROOT
ATOM      1  O1  BZF d   1       4.855   2.975  -0.466  0.00  0.00    -0.204 OA
ATOM      2  C2  BZF d   1       3.822   3.529   0.266  0.00  0.00     0.174 A 
ATOM      3  C3  BZF d   1       3.338   2.641   1.158  0.00  0.00    -0.012 A 
ATOM      4  C3A BZF d   1       4.178   1.489   1.036  0.00  0.00    -0.107 A 
ATOM      5  C4  BZF d   1       4.210   0.280   1.670  0.00  0.00     0.055 A 
ATOM      6  C5  BZF d   1       5.111  -0.654   1.265  0.00  0.00    -0.016 A 
ATOM      7  C6  BZF d   1       5.989  -0.414   0.229  0.00  0.00     0.022 A 
ATOM      8  C7  BZF d   1       5.998   0.772  -0.426  0.00  0.00     0.029 A 
ATOM      9  C7A BZF d   1       5.111   1.730   0.002  0.00  0.00     0.058 A 
ENDROOT
TORSDOF 0
ENDMDL
