MODEL 1
REMARK minimizedAffinity 11.6873655
REMARK minimizedRMSD -1
REMARK  0 active torsions:
REMARK  status: ('A' for Active; 'I' for Inactive)
ROOT
ATOM      1  O1  BZF d   1       5.998  -0.763  -4.270  0.00  0.00    -0.204 OA
ATOM      2  C2  BZF d   1       5.126  -1.297  -5.199  0.00  0.00     0.174 A 
ATOM      3  C3  BZF d   1       3.955  -0.628  -5.198  0.00  0.00    -0.012 A 
ATOM      4  C3A BZF d   1       4.138   0.446  -4.270  0.00  0.00    -0.107 A 
ATOM      5  C4  BZF d   1       3.335   1.467  -3.847  0.00  0.00     0.055 A 
ATOM      6  C5  BZF d   1       3.789   2.304  -2.877  0.00  0.00    -0.016 A 
ATOM      7  C6  BZF d   1       5.034   2.147  -2.306  0.00  0.00     0.022 A 
ATOM      8  C7  BZF d   1       5.868   1.152  -2.697  0.00  0.00     0.029 A 
ATOM      9  C7A BZF d   1       5.426   0.325  -3.700  0.00  0.00     0.058 A 
ENDROOT
TORSDOF 0
ENDMDL
