MODEL 1
REMARK minimizedAffinity 16.4070072
REMARK minimizedRMSD -1
REMARK  0 active torsions:
REMARK  status: ('A' for Active; 'I' for Inactive)
ROOT
ATOM      1  O1  BZF d   1       2.644   4.750  -6.000  0.00  0.00    -0.204 OA
ATOM      2  C2  BZF d   1       2.725   5.990  -5.397  0.00  0.00     0.174 A 
ATOM      3  C3  BZF d   1       3.164   5.877  -4.127  0.00  0.00    -0.012 A 
ATOM      4  C3A BZF d   1       3.459   4.487  -3.953  0.00  0.00    -0.107 A 
ATOM      5  C4  BZF d   1       3.945   3.754  -2.909  0.00  0.00     0.055 A 
ATOM      6  C5  BZF d   1       4.047   2.405  -3.040  0.00  0.00    -0.016 A 
ATOM      7  C6  BZF d   1       3.668   1.757  -4.197  0.00  0.00     0.022 A 
ATOM      8  C7  BZF d   1       3.184   2.443  -5.262  0.00  0.00     0.029 A 
ATOM      9  C7A BZF d   1       3.111   3.809  -5.144  0.00  0.00     0.058 A 
ENDROOT
TORSDOF 0
ENDMDL
