MODEL 1
REMARK minimizedAffinity 6.58320045
REMARK minimizedRMSD -1
REMARK  0 active torsions:
REMARK  status: ('A' for Active; 'I' for Inactive)
ROOT
ATOM      1  O1  BZF d   1       2.902   2.728   0.282  0.00  0.00    -0.204 OA
ATOM      2  C2  BZF d   1       2.221   2.209   1.367  0.00  0.00     0.174 A 
ATOM      3  C3  BZF d   1       2.818   1.085   1.813  0.00  0.00    -0.012 A 
ATOM      4  C3A BZF d   1       3.994   0.940   1.011  0.00  0.00    -0.107 A 
ATOM      5  C4  BZF d   1       5.007   0.024   0.987  0.00  0.00     0.055 A 
ATOM      6  C5  BZF d   1       5.968   0.127   0.032  0.00  0.00    -0.016 A 
ATOM      7  C6  BZF d   1       5.946   1.130  -0.916  0.00  0.00     0.022 A 
ATOM      8  C7  BZF d   1       4.965   2.065  -0.928  0.00  0.00     0.029 A 
ATOM      9  C7A BZF d   1       4.010   1.982   0.056  0.00  0.00     0.058 A 
ENDROOT
TORSDOF 0
ENDMDL
