MODEL 1
REMARK minimizedAffinity 20.0451775
REMARK minimizedRMSD -1
REMARK  0 active torsions:
REMARK  status: ('A' for Active; 'I' for Inactive)
ROOT
ATOM      1  O1  BZF d   1      -0.646   2.704   3.088  0.00  0.00    -0.204 OA
ATOM      2  C2  BZF d   1      -0.542   3.341   1.867  0.00  0.00     0.174 A 
ATOM      3  C3  BZF d   1       0.547   2.915   1.196  0.00  0.00    -0.012 A 
ATOM      4  C3A BZF d   1       1.112   1.883   2.011  0.00  0.00    -0.107 A 
ATOM      5  C4  BZF d   1       2.197   1.067   1.874  0.00  0.00     0.055 A 
ATOM      6  C5  BZF d   1       2.517   0.217   2.885  0.00  0.00    -0.016 A 
ATOM      7  C6  BZF d   1       1.777   0.162   4.048  0.00  0.00     0.022 A 
ATOM      8  C7  BZF d   1       0.689   0.949   4.228  0.00  0.00     0.029 A 
ATOM      9  C7A BZF d   1       0.344   1.785   3.195  0.00  0.00     0.058 A 
ENDROOT
TORSDOF 0
ENDMDL
