MODEL 1
REMARK minimizedAffinity 18.4625282
REMARK minimizedRMSD -1
REMARK  0 active torsions:
REMARK  status: ('A' for Active; 'I' for Inactive)
ROOT
ATOM      1  O1  BZF d   1      -3.047  -2.657   0.449  0.00  0.00    -0.204 OA
ATOM      2  C2  BZF d   1      -1.777  -2.244   0.805  0.00  0.00     0.174 A 
ATOM      3  C3  BZF d   1      -0.971  -2.192  -0.275  0.00  0.00    -0.012 A 
ATOM      4  C3A BZF d   1      -1.811  -2.509  -1.388  0.00  0.00    -0.107 A 
ATOM      5  C4  BZF d   1      -1.593  -2.603  -2.733  0.00  0.00     0.055 A 
ATOM      6  C5  BZF d   1      -2.609  -3.005  -3.541  0.00  0.00    -0.016 A 
ATOM      7  C6  BZF d   1      -3.853  -3.326  -3.038  0.00  0.00     0.022 A 
ATOM      8  C7  BZF d   1      -4.119  -3.243  -1.712  0.00  0.00     0.029 A 
ATOM      9  C7A BZF d   1      -3.104  -2.805  -0.897  0.00  0.00     0.058 A 
ENDROOT
TORSDOF 0
ENDMDL
