MODEL 1
REMARK minimizedAffinity 16.6364918
REMARK minimizedRMSD -1
REMARK  0 active torsions:
REMARK  status: ('A' for Active; 'I' for Inactive)
ROOT
ATOM      1  O1  BZF d   1       2.211   2.127  -3.630  0.00  0.00    -0.204 OA
ATOM      2  C2  BZF d   1       1.979   2.608  -2.356  0.00  0.00     0.174 A 
ATOM      3  C3  BZF d   1       3.047   2.391  -1.561  0.00  0.00    -0.012 A 
ATOM      4  C3A BZF d   1       4.041   1.817  -2.414  0.00  0.00    -0.107 A 
ATOM      5  C4  BZF d   1       5.324   1.397  -2.210  0.00  0.00     0.055 A 
ATOM      6  C5  BZF d   1       6.000   0.815  -3.236  0.00  0.00    -0.016 A 
ATOM      7  C6  BZF d   1       5.422   0.633  -4.476  0.00  0.00     0.022 A 
ATOM      8  C7  BZF d   1       4.153   1.038  -4.727  0.00  0.00     0.029 A 
ATOM      9  C7A BZF d   1       3.479   1.656  -3.702  0.00  0.00     0.058 A 
ENDROOT
TORSDOF 0
ENDMDL
