MODEL 1
REMARK minimizedAffinity -1.17507708
REMARK minimizedRMSD -1
REMARK  0 active torsions:
REMARK  status: ('A' for Active; 'I' for Inactive)
ROOT
ATOM      1  O1  BZF d   1       2.671   5.685  -4.016  0.00  0.00    -0.204 OA
ATOM      2  C2  BZF d   1       2.070   5.612  -5.258  0.00  0.00     0.174 A 
ATOM      3  C3  BZF d   1       2.519   4.541  -5.944  0.00  0.00    -0.012 A 
ATOM      4  C3A BZF d   1       3.391   3.854  -5.041  0.00  0.00    -0.107 A 
ATOM      5  C4  BZF d   1       4.129   2.709  -5.137  0.00  0.00     0.055 A 
ATOM      6  C5  BZF d   1       4.932   2.352  -4.101  0.00  0.00    -0.016 A 
ATOM      7  C6  BZF d   1       5.025   3.117  -2.957  0.00  0.00     0.022 A 
ATOM      8  C7  BZF d   1       4.308   4.258  -2.813  0.00  0.00     0.029 A 
ATOM      9  C7A BZF d   1       3.471   4.605  -3.846  0.00  0.00     0.058 A 
ENDROOT
TORSDOF 0
ENDMDL
