MODEL 1
REMARK minimizedAffinity 2.6687324
REMARK minimizedRMSD -1
REMARK  1 active torsions:
REMARK  status: ('A' for Active; 'I' for Inactive)
REMARK    1  A    between atoms: N_2  and  C1_3 
ROOT
ATOM      1  C1  UNL d   1      -0.130   1.865   1.102  0.00  0.00     0.143 A 
ATOM      2  C2  UNL d   1      -0.864   1.708   2.283  0.00  0.00    -0.057 A 
ATOM      3  C3  UNL d   1      -0.584   0.668   3.178  0.00  0.00     0.033 A 
ATOM      4  C4  UNL d   1       0.418  -0.253   2.892  0.00  0.00    -0.042 A 
ATOM      5  C5  UNL d   1       1.143  -0.131   1.712  0.00  0.00     0.033 A 
ATOM      6  C6  UNL d   1       0.864   0.913   0.826  0.00  0.00    -0.057 A 
ENDROOT
BRANCH   1   7
ATOM      7  N   UNL d   1      -0.424   2.820   0.125  0.00  0.00    -0.732 N 
ATOM      8  C   UNL d   1      -0.639   2.424  -1.251  0.00  0.00     0.284 C 
ATOM      9  H3  UNL d   1      -1.071   3.531   0.459  0.00  0.00     0.395 HD
ENDBRANCH   1   7
TORSDOF 1
ENDMDL
