MODEL 1
REMARK minimizedAffinity 1.01211143
REMARK minimizedRMSD -1
REMARK  1 active torsions:
REMARK  status: ('A' for Active; 'I' for Inactive)
REMARK    1  A    between atoms: N_2  and  C1_3 
ROOT
ATOM      1  C1  UNL d   1      -1.300   3.026  -1.990  0.00  0.00     0.143 A 
ATOM      2  C2  UNL d   1      -1.509   2.357  -0.779  0.00  0.00    -0.057 A 
ATOM      3  C3  UNL d   1      -0.470   2.185   0.144  0.00  0.00     0.033 A 
ATOM      4  C4  UNL d   1       0.807   2.654  -0.143  0.00  0.00    -0.042 A 
ATOM      5  C5  UNL d   1       1.044   3.299  -1.351  0.00  0.00     0.033 A 
ATOM      6  C6  UNL d   1       0.001   3.474  -2.266  0.00  0.00    -0.057 A 
ENDROOT
BRANCH   1   7
ATOM      7  N   UNL d   1      -2.268   3.143  -2.991  0.00  0.00    -0.732 N 
ATOM      8  C   UNL d   1      -3.344   2.180  -3.092  0.00  0.00     0.284 C 
ATOM      9  H3  UNL d   1      -2.558   4.106  -3.140  0.00  0.00     0.395 HD
ENDBRANCH   1   7
TORSDOF 1
ENDMDL
