MODEL 1
REMARK minimizedAffinity 5.85661364
REMARK minimizedRMSD -1
REMARK  1 active torsions:
REMARK  status: ('A' for Active; 'I' for Inactive)
REMARK    1  A    between atoms: N_2  and  C1_3 
ROOT
ATOM      1  C1  UNL d   1      -1.907   2.262  -2.211  0.00  0.00     0.143 A 
ATOM      2  C2  UNL d   1      -0.838   3.163  -2.261  0.00  0.00    -0.057 A 
ATOM      3  C3  UNL d   1       0.063   3.282  -1.195  0.00  0.00     0.033 A 
ATOM      4  C4  UNL d   1      -0.108   2.520  -0.045  0.00  0.00    -0.042 A 
ATOM      5  C5  UNL d   1      -1.178   1.636   0.038  0.00  0.00     0.033 A 
ATOM      6  C6  UNL d   1      -2.070   1.517  -1.033  0.00  0.00    -0.057 A 
ENDROOT
BRANCH   1   7
ATOM      7  N   UNL d   1      -2.892   2.169  -3.196  0.00  0.00    -0.732 N 
ATOM      8  C   UNL d   1      -3.841   1.076  -3.189  0.00  0.00     0.284 C 
ATOM      9  H3  UNL d   1      -3.301   3.072  -3.424  0.00  0.00     0.395 HD
ENDBRANCH   1   7
TORSDOF 1
ENDMDL
