MODEL 1
REMARK minimizedAffinity -1.16088426
REMARK minimizedRMSD -1
REMARK  1 active torsions:
REMARK  status: ('A' for Active; 'I' for Inactive)
REMARK    1  A    between atoms: N_2  and  C1_3 
ROOT
ATOM      1  C1  UNL d   1      -1.864   2.487  -1.252  0.00  0.00     0.143 A 
ATOM      2  C2  UNL d   1      -2.053   2.772   0.105  0.00  0.00    -0.057 A 
ATOM      3  C3  UNL d   1      -0.994   3.209   0.909  0.00  0.00     0.033 A 
ATOM      4  C4  UNL d   1       0.284   3.340   0.376  0.00  0.00    -0.042 A 
ATOM      5  C5  UNL d   1       0.501   3.038  -0.964  0.00  0.00     0.033 A 
ATOM      6  C6  UNL d   1      -0.563   2.609  -1.764  0.00  0.00    -0.057 A 
ENDROOT
BRANCH   1   7
ATOM      7  N   UNL d   1      -2.856   1.955  -2.080  0.00  0.00    -0.732 N 
ATOM      8  C   UNL d   1      -3.490   0.695  -1.756  0.00  0.00     0.284 C 
ATOM      9  H3  UNL d   1      -3.496   2.666  -2.426  0.00  0.00     0.395 HD
ENDBRANCH   1   7
TORSDOF 1
ENDMDL
