MODEL 1
REMARK minimizedAffinity 4.56595516
REMARK minimizedRMSD -1
REMARK  1 active torsions:
REMARK  status: ('A' for Active; 'I' for Inactive)
REMARK    1  A    between atoms: N_2  and  C1_3 
ROOT
ATOM      1  C1  UNL d   1      -0.148   1.776  -0.297  0.00  0.00     0.143 A 
ATOM      2  C2  UNL d   1      -1.376   2.263   0.162  0.00  0.00    -0.057 A 
ATOM      3  C3  UNL d   1      -1.600   2.500   1.524  0.00  0.00     0.033 A 
ATOM      4  C4  UNL d   1      -0.605   2.226   2.456  0.00  0.00    -0.042 A 
ATOM      5  C5  UNL d   1       0.615   1.717   2.025  0.00  0.00     0.033 A 
ATOM      6  C6  UNL d   1       0.835   1.489   0.663  0.00  0.00    -0.057 A 
ENDROOT
BRANCH   1   7
ATOM      7  N   UNL d   1       0.102   1.427  -1.627  0.00  0.00    -0.732 N 
ATOM      8  C   UNL d   1       0.780   0.190  -1.949  0.00  0.00     0.284 C 
ATOM      9  H3  UNL d   1      -0.681   1.644  -2.239  0.00  0.00     0.395 HD
ENDBRANCH   1   7
TORSDOF 1
ENDMDL
