MODEL 1
REMARK minimizedAffinity -1.93775415
REMARK minimizedRMSD -1
REMARK  1 active torsions:
REMARK  status: ('A' for Active; 'I' for Inactive)
REMARK    1  A    between atoms: N_2  and  C1_3 
ROOT
ATOM      1  C1  UNL d   1       0.756   4.268  -0.066  0.00  0.00     0.143 A 
ATOM      2  C2  UNL d   1       0.335   3.228   0.770  0.00  0.00    -0.057 A 
ATOM      3  C3  UNL d   1       1.130   2.784   1.833  0.00  0.00     0.033 A 
ATOM      4  C4  UNL d   1       2.378   3.355   2.062  0.00  0.00    -0.042 A 
ATOM      5  C5  UNL d   1       2.827   4.373   1.228  0.00  0.00     0.033 A 
ATOM      6  C6  UNL d   1       2.026   4.816   0.172  0.00  0.00    -0.057 A 
ENDROOT
BRANCH   1   7
ATOM      7  N   UNL d   1       0.054   4.687  -1.200  0.00  0.00    -0.732 N 
ATOM      8  C   UNL d   1       0.666   5.587  -2.154  0.00  0.00     0.284 C 
ATOM      9  H3  UNL d   1      -0.484   3.935  -1.623  0.00  0.00     0.395 HD
ENDBRANCH   1   7
TORSDOF 1
ENDMDL
