MODEL 1
REMARK minimizedAffinity 13.3543272
REMARK minimizedRMSD -1
REMARK  1 active torsions:
REMARK  status: ('A' for Active; 'I' for Inactive)
REMARK    1  A    between atoms: N_2  and  C1_3 
ROOT
ATOM      1  C1  UNL d   1       3.140  -3.491  -0.537  0.00  0.00     0.143 A 
ATOM      2  C2  UNL d   1       1.881  -3.971  -0.913  0.00  0.00    -0.057 A 
ATOM      3  C3  UNL d   1       1.735  -5.220  -1.530  0.00  0.00     0.033 A 
ATOM      4  C4  UNL d   1       2.853  -6.000  -1.807  0.00  0.00    -0.042 A 
ATOM      5  C5  UNL d   1       4.116  -5.532  -1.464  0.00  0.00     0.033 A 
ATOM      6  C6  UNL d   1       4.255  -4.287  -0.843  0.00  0.00    -0.057 A 
ENDROOT
BRANCH   1   7
ATOM      7  N   UNL d   1       3.361  -2.216  -0.010  0.00  0.00    -0.732 N 
ATOM      8  C   UNL d   1       4.542  -1.462  -0.373  0.00  0.00     0.284 C 
ATOM      9  H3  UNL d   1       2.509  -1.660   0.031  0.00  0.00     0.395 HD
ENDBRANCH   1   7
TORSDOF 1
ENDMDL
