MODEL 1
REMARK minimizedAffinity -5.03602791
REMARK minimizedRMSD -1
REMARK  3 active torsions:
REMARK  status: ('A' for Active; 'I' for Inactive)
REMARK    1  A    between atoms: C3'_2  and  C2'_3 
REMARK    2  A    between atoms: C2'_3  and  C1'_4 
REMARK    3  A    between atoms: C1'_4  and  C1_5 
ROOT
ATOM      1  C1  N4B d   1      -0.369   0.556   0.836  0.00  0.00    -0.075 A 
ATOM      2  C2  N4B d   1      -1.763   0.582   0.614  0.00  0.00     0.002 A 
ATOM      3  C3  N4B d   1      -2.625   0.214   1.618  0.00  0.00     0.002 A 
ATOM      4  C4  N4B d   1      -2.117  -0.199   2.841  0.00  0.00    -0.004 A 
ATOM      5  C5  N4B d   1      -0.770  -0.197   3.055  0.00  0.00     0.002 A 
ATOM      6  C6  N4B d   1       0.108   0.174   2.056  0.00  0.00     0.002 A 
ENDROOT
BRANCH   1   7
ATOM      7  C1' N4B d   1       0.615   0.867  -0.259  0.00  0.00     0.057 C 
BRANCH   7   8
ATOM      8  C2' N4B d   1       0.980  -0.424  -0.986  0.00  0.00     0.009 C 
BRANCH   8   9
ATOM      9  C3' N4B d   1       1.038  -0.231  -2.492  0.00  0.00     0.004 C 
ATOM     10  C4' N4B d   1       1.529  -1.450  -3.215  0.00  0.00     0.003 C 
ENDBRANCH   8   9
ENDBRANCH   7   8
ENDBRANCH   1   7
TORSDOF 3
ENDMDL
