MODEL 1
REMARK minimizedAffinity -5.70236397
REMARK minimizedRMSD -1
REMARK  3 active torsions:
REMARK  status: ('A' for Active; 'I' for Inactive)
REMARK    1  A    between atoms: C3'_2  and  C2'_3 
REMARK    2  A    between atoms: C2'_3  and  C1'_4 
REMARK    3  A    between atoms: C1'_4  and  C1_5 
ROOT
ATOM      1  C1  N4B d   1       0.032  -0.203   1.747  0.00  0.00    -0.075 A 
ATOM      2  C2  N4B d   1      -0.305  -0.496   0.407  0.00  0.00     0.002 A 
ATOM      3  C3  N4B d   1       0.396   0.088  -0.620  0.00  0.00     0.002 A 
ATOM      4  C4  N4B d   1       1.420   0.978  -0.334  0.00  0.00    -0.004 A 
ATOM      5  C5  N4B d   1       1.756   1.235   0.963  0.00  0.00     0.002 A 
ATOM      6  C6  N4B d   1       1.063   0.653   2.006  0.00  0.00     0.002 A 
ENDROOT
BRANCH   1   7
ATOM      7  C1' N4B d   1      -0.760  -0.750   2.902  0.00  0.00     0.057 C 
BRANCH   7   8
ATOM      8  C2' N4B d   1      -1.947   0.168   3.175  0.00  0.00     0.009 C 
BRANCH   8   9
ATOM      9  C3' N4B d   1      -3.148  -0.184   2.314  0.00  0.00     0.004 C 
ATOM     10  C4' N4B d   1      -3.387   0.809   1.216  0.00  0.00     0.003 C 
ENDBRANCH   8   9
ENDBRANCH   7   8
ENDBRANCH   1   7
TORSDOF 3
ENDMDL
