MODEL 1
REMARK minimizedAffinity -3.48171115
REMARK minimizedRMSD -1
REMARK  3 active torsions:
REMARK  status: ('A' for Active; 'I' for Inactive)
REMARK    1  A    between atoms: C3'_2  and  C2'_3 
REMARK    2  A    between atoms: C2'_3  and  C1'_4 
REMARK    3  A    between atoms: C1'_4  and  C1_5 
ROOT
ATOM      1  C1  N4B d   1      -0.210   0.461  -0.057  0.00  0.00    -0.075 A 
ATOM      2  C2  N4B d   1      -1.447   0.500   0.622  0.00  0.00     0.002 A 
ATOM      3  C3  N4B d   1      -1.491   0.311   1.982  0.00  0.00     0.002 A 
ATOM      4  C4  N4B d   1      -0.316   0.065   2.678  0.00  0.00    -0.004 A 
ATOM      5  C5  N4B d   1       0.878   0.055   2.018  0.00  0.00     0.002 A 
ATOM      6  C6  N4B d   1       0.936   0.247   0.652  0.00  0.00     0.002 A 
ENDROOT
BRANCH   1   7
ATOM      7  C1' N4B d   1      -0.122   0.576  -1.554  0.00  0.00     0.057 C 
BRANCH   7   8
ATOM      8  C2' N4B d   1       1.022  -0.300  -2.058  0.00  0.00     0.009 C 
BRANCH   8   9
ATOM      9  C3' N4B d   1       1.045  -0.388  -3.574  0.00  0.00     0.004 C 
ATOM     10  C4' N4B d   1       0.250  -1.546  -4.100  0.00  0.00     0.003 C 
ENDBRANCH   8   9
ENDBRANCH   7   8
ENDBRANCH   1   7
TORSDOF 3
ENDMDL
