MODEL 1
REMARK minimizedAffinity -3.02430582
REMARK minimizedRMSD -1
REMARK  3 active torsions:
REMARK  status: ('A' for Active; 'I' for Inactive)
REMARK    1  A    between atoms: C3'_2  and  C2'_3 
REMARK    2  A    between atoms: C2'_3  and  C1'_4 
REMARK    3  A    between atoms: C1'_4  and  C1_5 
ROOT
ATOM      1  C1  N4B d   1      -0.056   0.358  -0.344  0.00  0.00    -0.075 A 
ATOM      2  C2  N4B d   1      -1.191   0.498   0.485  0.00  0.00     0.002 A 
ATOM      3  C3  N4B d   1      -1.082   0.290   1.838  0.00  0.00     0.002 A 
ATOM      4  C4  N4B d   1       0.142  -0.075   2.380  0.00  0.00    -0.004 A 
ATOM      5  C5  N4B d   1       1.238  -0.182   1.576  0.00  0.00     0.002 A 
ATOM      6  C6  N4B d   1       1.145   0.027   0.215  0.00  0.00     0.002 A 
ENDROOT
BRANCH   1   7
ATOM      7  C1' N4B d   1      -0.144   0.491  -1.840  0.00  0.00     0.057 C 
BRANCH   7   8
ATOM      8  C2' N4B d   1       1.221   0.189  -2.451  0.00  0.00     0.009 C 
BRANCH   8   9
ATOM      9  C3' N4B d   1       1.198  -1.071  -3.298  0.00  0.00     0.004 C 
ATOM     10  C4' N4B d   1      -0.189  -1.480  -3.694  0.00  0.00     0.003 C 
ENDBRANCH   8   9
ENDBRANCH   7   8
ENDBRANCH   1   7
TORSDOF 3
ENDMDL
