MODEL 1
REMARK minimizedAffinity -4.40821075
REMARK minimizedRMSD -1
REMARK  3 active torsions:
REMARK  status: ('A' for Active; 'I' for Inactive)
REMARK    1  A    between atoms: C3'_2  and  C2'_3 
REMARK    2  A    between atoms: C2'_3  and  C1'_4 
REMARK    3  A    between atoms: C1'_4  and  C1_5 
ROOT
ATOM      1  C1  N4B d   1      -0.172   0.044   0.060  0.00  0.00    -0.075 A 
ATOM      2  C2  N4B d   1       0.957   0.459   0.799  0.00  0.00     0.002 A 
ATOM      3  C3  N4B d   1       0.922   0.447   2.172  0.00  0.00     0.002 A 
ATOM      4  C4  N4B d   1      -0.234   0.044   2.824  0.00  0.00    -0.004 A 
ATOM      5  C5  N4B d   1      -1.312  -0.379   2.103  0.00  0.00     0.002 A 
ATOM      6  C6  N4B d   1      -1.289  -0.377   0.723  0.00  0.00     0.002 A 
ENDROOT
BRANCH   1   7
ATOM      7  C1' N4B d   1      -0.211   0.121  -1.442  0.00  0.00     0.057 C 
BRANCH   7   8
ATOM      8  C2' N4B d   1       1.161  -0.252  -1.998  0.00  0.00     0.009 C 
BRANCH   8   9
ATOM      9  C3' N4B d   1       1.099  -0.604  -3.474  0.00  0.00     0.004 C 
ATOM     10  C4' N4B d   1       0.087  -1.669  -3.776  0.00  0.00     0.003 C 
ENDBRANCH   8   9
ENDBRANCH   7   8
ENDBRANCH   1   7
TORSDOF 3
ENDMDL
