MODEL 1
REMARK minimizedAffinity -4.94876719
REMARK minimizedRMSD -1
REMARK  3 active torsions:
REMARK  status: ('A' for Active; 'I' for Inactive)
REMARK    1  A    between atoms: C3'_2  and  C2'_3 
REMARK    2  A    between atoms: C2'_3  and  C1'_4 
REMARK    3  A    between atoms: C1'_4  and  C1_5 
ROOT
ATOM      1  C1  N4B d   1      -0.225   0.098   0.600  0.00  0.00    -0.075 A 
ATOM      2  C2  N4B d   1       0.336   0.032   1.894  0.00  0.00     0.002 A 
ATOM      3  C3  N4B d   1      -0.454  -0.298   2.968  0.00  0.00     0.002 A 
ATOM      4  C4  N4B d   1      -1.804  -0.547   2.776  0.00  0.00    -0.004 A 
ATOM      5  C5  N4B d   1      -2.333  -0.506   1.519  0.00  0.00     0.002 A 
ATOM      6  C6  N4B d   1      -1.550  -0.179   0.430  0.00  0.00     0.002 A 
ENDROOT
BRANCH   1   7
ATOM      7  C1' N4B d   1       0.580   0.539  -0.592  0.00  0.00     0.057 C 
BRANCH   7   8
ATOM      8  C2' N4B d   1       0.144  -0.264  -1.815  0.00  0.00     0.009 C 
BRANCH   8   9
ATOM      9  C3' N4B d   1       1.306  -0.545  -2.753  0.00  0.00     0.004 C 
ATOM     10  C4' N4B d   1       1.079  -1.753  -3.612  0.00  0.00     0.003 C 
ENDBRANCH   8   9
ENDBRANCH   7   8
ENDBRANCH   1   7
TORSDOF 3
ENDMDL
