MODEL 1
REMARK minimizedAffinity -5.80865955
REMARK minimizedRMSD -1
REMARK  3 active torsions:
REMARK  status: ('A' for Active; 'I' for Inactive)
REMARK    1  A    between atoms: C3'_2  and  C2'_3 
REMARK    2  A    between atoms: C2'_3  and  C1'_4 
REMARK    3  A    between atoms: C1'_4  and  C1_5 
ROOT
ATOM      1  C1  N4B d   1       0.158   0.105   0.857  0.00  0.00    -0.075 A 
ATOM      2  C2  N4B d   1       0.763  -0.486   1.988  0.00  0.00     0.002 A 
ATOM      3  C3  N4B d   1      -0.009  -0.872   3.056  0.00  0.00     0.002 A 
ATOM      4  C4  N4B d   1      -1.380  -0.661   3.024  0.00  0.00    -0.004 A 
ATOM      5  C5  N4B d   1      -1.959  -0.113   1.917  0.00  0.00     0.002 A 
ATOM      6  C6  N4B d   1      -1.196   0.276   0.835  0.00  0.00     0.002 A 
ENDROOT
BRANCH   1   7
ATOM      7  C1' N4B d   1       0.971   0.621  -0.299  0.00  0.00     0.057 C 
BRANCH   7   8
ATOM      8  C2' N4B d   1       0.331   0.162  -1.606  0.00  0.00     0.009 C 
BRANCH   8   9
ATOM      9  C3' N4B d   1       1.369  -0.113  -2.680  0.00  0.00     0.004 C 
ATOM     10  C4' N4B d   1       1.090  -1.371  -3.448  0.00  0.00     0.003 C 
ENDBRANCH   8   9
ENDBRANCH   7   8
ENDBRANCH   1   7
TORSDOF 3
ENDMDL
