MODEL 1
REMARK minimizedAffinity -6.18531227
REMARK minimizedRMSD -1
REMARK  3 active torsions:
REMARK  status: ('A' for Active; 'I' for Inactive)
REMARK    1  A    between atoms: C3'_2  and  C2'_3 
REMARK    2  A    between atoms: C2'_3  and  C1'_4 
REMARK    3  A    between atoms: C1'_4  and  C1_5 
ROOT
ATOM      1  C1  N4B d   1      -0.130  -0.027   0.057  0.00  0.00    -0.075 A 
ATOM      2  C2  N4B d   1      -1.146  -0.686   0.784  0.00  0.00     0.002 A 
ATOM      3  C3  N4B d   1      -1.025  -0.842   2.143  0.00  0.00     0.002 A 
ATOM      4  C4  N4B d   1       0.106  -0.368   2.791  0.00  0.00    -0.004 A 
ATOM      5  C5  N4B d   1       1.070   0.289   2.085  0.00  0.00     0.002 A 
ATOM      6  C6  N4B d   1       0.961   0.457   0.719  0.00  0.00     0.002 A 
ENDROOT
BRANCH   1   7
ATOM      7  C1' N4B d   1      -0.176   0.092  -1.442  0.00  0.00     0.057 C 
BRANCH   7   8
ATOM      8  C2' N4B d   1       1.194  -0.258  -2.015  0.00  0.00     0.009 C 
BRANCH   8   9
ATOM      9  C3' N4B d   1       1.085  -1.001  -3.336  0.00  0.00     0.004 C 
ATOM     10  C4' N4B d   1       0.217  -2.220  -3.246  0.00  0.00     0.003 C 
ENDBRANCH   8   9
ENDBRANCH   7   8
ENDBRANCH   1   7
TORSDOF 3
ENDMDL
