MODEL 1
REMARK minimizedAffinity -5.63524675
REMARK minimizedRMSD -1
REMARK  3 active torsions:
REMARK  status: ('A' for Active; 'I' for Inactive)
REMARK    1  A    between atoms: C3'_2  and  C2'_3 
REMARK    2  A    between atoms: C2'_3  and  C1'_4 
REMARK    3  A    between atoms: C1'_4  and  C1_5 
ROOT
ATOM      1  C1  N4B d   1       0.159  -0.118   0.028  0.00  0.00    -0.075 A 
ATOM      2  C2  N4B d   1      -1.209  -0.267   0.347  0.00  0.00     0.002 A 
ATOM      3  C3  N4B d   1      -1.600  -0.372   1.659  0.00  0.00     0.002 A 
ATOM      4  C4  N4B d   1      -0.645  -0.351   2.664  0.00  0.00    -0.004 A 
ATOM      5  C5  N4B d   1       0.672  -0.182   2.349  0.00  0.00     0.002 A 
ATOM      6  C6  N4B d   1       1.079  -0.070   1.035  0.00  0.00     0.002 A 
ENDROOT
BRANCH   1   7
ATOM      7  C1' N4B d   1       0.644  -0.085  -1.396  0.00  0.00     0.057 C 
BRANCH   7   8
ATOM      8  C2' N4B d   1       0.263  -1.392  -2.085  0.00  0.00     0.009 C 
BRANCH   8   9
ATOM      9  C3' N4B d   1       1.399  -1.940  -2.932  0.00  0.00     0.004 C 
ATOM     10  C4' N4B d   1       1.721  -1.065  -4.106  0.00  0.00     0.003 C 
ENDBRANCH   8   9
ENDBRANCH   7   8
ENDBRANCH   1   7
TORSDOF 3
ENDMDL
