MODEL 1
REMARK minimizedAffinity -2.16518664
REMARK minimizedRMSD -1
REMARK  3 active torsions:
REMARK  status: ('A' for Active; 'I' for Inactive)
REMARK    1  A    between atoms: C3'_2  and  C2'_3 
REMARK    2  A    between atoms: C2'_3  and  C1'_4 
REMARK    3  A    between atoms: C1'_4  and  C1_5 
ROOT
ATOM      1  C1  N4B d   1       0.295  -0.294  -1.684  0.00  0.00    -0.075 A 
ATOM      2  C2  N4B d   1       1.518   0.128  -2.251  0.00  0.00     0.002 A 
ATOM      3  C3  N4B d   1       1.932  -0.391  -3.453  0.00  0.00     0.002 A 
ATOM      4  C4  N4B d   1       1.153  -1.342  -4.095  0.00  0.00    -0.004 A 
ATOM      5  C5  N4B d   1      -0.039  -1.725  -3.553  0.00  0.00     0.002 A 
ATOM      6  C6  N4B d   1      -0.470  -1.209  -2.347  0.00  0.00     0.002 A 
ENDROOT
BRANCH   1   7
ATOM      7  C1' N4B d   1      -0.158   0.181  -0.330  0.00  0.00     0.057 C 
BRANCH   7   8
ATOM      8  C2' N4B d   1       1.031   0.176   0.626  0.00  0.00     0.009 C 
BRANCH   8   9
ATOM      9  C3' N4B d   1       0.599  -0.014   2.070  0.00  0.00     0.004 C 
ATOM     10  C4' N4B d   1       0.554   1.273   2.837  0.00  0.00     0.003 C 
ENDBRANCH   8   9
ENDBRANCH   7   8
ENDBRANCH   1   7
TORSDOF 3
ENDMDL
