MODEL 1
REMARK minimizedAffinity 0.501239777
REMARK minimizedRMSD -1
REMARK  0 active torsions:
REMARK  status: ('A' for Active; 'I' for Inactive)
ROOT
ATOM      1  C   UNL d   1       0.906  -0.167  -2.098  0.00  0.00    -0.002 A 
ATOM      2  C1  UNL d   1       1.908  -0.727  -1.320  0.00  0.00     0.010 A 
ATOM      3  C2  UNL d   1       1.667  -1.067   0.013  0.00  0.00     0.041 A 
ATOM      4  C3  UNL d   1       0.388  -0.833   0.555  0.00  0.00    -0.075 A 
ATOM      5  S   UNL d   1      -0.137  -1.170   2.162  0.00  0.00     0.015 SA
ATOM      6  C4  UNL d   1      -1.705  -0.579   1.853  0.00  0.00     0.022 A 
ATOM      7  C5  UNL d   1      -1.842  -0.131   0.561  0.00  0.00     0.026 A 
ATOM      8  C6  UNL d   1      -0.638  -0.271  -0.209  0.00  0.00    -0.082 A 
ATOM      9  C7  UNL d   1      -0.362   0.064  -1.557  0.00  0.00     0.045 A 
ENDROOT
TORSDOF 0
ENDMDL
