MODEL 1
REMARK minimizedAffinity -1.98290503
REMARK minimizedRMSD -1
REMARK  0 active torsions:
REMARK  status: ('A' for Active; 'I' for Inactive)
ROOT
ATOM      1  C   UNL d   1       0.402  -0.426   2.842  0.00  0.00    -0.002 A 
ATOM      2  C1  UNL d   1       1.692  -0.277   2.351  0.00  0.00     0.010 A 
ATOM      3  C2  UNL d   1       1.911  -0.039   0.993  0.00  0.00     0.041 A 
ATOM      4  C3  UNL d   1       0.803   0.049   0.129  0.00  0.00    -0.075 A 
ATOM      5  S   UNL d   1       0.830   0.335  -1.571  0.00  0.00     0.015 SA
ATOM      6  C4  UNL d   1      -0.869   0.267  -1.686  0.00  0.00     0.022 A 
ATOM      7  C5  UNL d   1      -1.459   0.032  -0.466  0.00  0.00     0.026 A 
ATOM      8  C6  UNL d   1      -0.505  -0.097   0.599  0.00  0.00    -0.082 A 
ATOM      9  C7  UNL d   1      -0.695  -0.338   1.982  0.00  0.00     0.045 A 
ENDROOT
TORSDOF 0
ENDMDL
