MODEL 1
REMARK minimizedAffinity -1.8388561
REMARK minimizedRMSD -1
REMARK  0 active torsions:
REMARK  status: ('A' for Active; 'I' for Inactive)
ROOT
ATOM      1  C   UNL d   1       2.646  -0.699   1.376  0.00  0.00    -0.002 A 
ATOM      2  C1  UNL d   1       1.726  -0.600   2.410  0.00  0.00     0.010 A 
ATOM      3  C2  UNL d   1       0.383  -0.326   2.142  0.00  0.00     0.041 A 
ATOM      4  C3  UNL d   1      -0.023  -0.153   0.804  0.00  0.00    -0.075 A 
ATOM      5  S   UNL d   1      -1.615   0.189   0.238  0.00  0.00     0.015 SA
ATOM      6  C4  UNL d   1      -1.112   0.210  -1.391  0.00  0.00     0.022 A 
ATOM      7  C5  UNL d   1       0.235  -0.035  -1.517  0.00  0.00     0.026 A 
ATOM      8  C6  UNL d   1       0.885  -0.249  -0.254  0.00  0.00    -0.082 A 
ATOM      9  C7  UNL d   1       2.239  -0.527   0.050  0.00  0.00     0.045 A 
ENDROOT
TORSDOF 0
ENDMDL
