MODEL 1
REMARK minimizedAffinity -1.6700362
REMARK minimizedRMSD -1
REMARK  0 active torsions:
REMARK  status: ('A' for Active; 'I' for Inactive)
ROOT
ATOM      1  C   UNL d   1      -0.508  -1.785   2.835  0.00  0.00    -0.002 A 
ATOM      2  C1  UNL d   1       0.866  -1.613   2.749  0.00  0.00     0.010 A 
ATOM      3  C2  UNL d   1       1.430  -0.928   1.671  0.00  0.00     0.041 A 
ATOM      4  C3  UNL d   1       0.581  -0.413   0.672  0.00  0.00    -0.075 A 
ATOM      5  S   UNL d   1       1.048   0.461  -0.740  0.00  0.00     0.015 SA
ATOM      6  C4  UNL d   1      -0.566   0.626  -1.261  0.00  0.00     0.022 A 
ATOM      7  C5  UNL d   1      -1.453   0.035  -0.392  0.00  0.00     0.026 A 
ATOM      8  C6  UNL d   1      -0.806  -0.573   0.736  0.00  0.00    -0.082 A 
ATOM      9  C7  UNL d   1      -1.347  -1.273   1.842  0.00  0.00     0.045 A 
ENDROOT
TORSDOF 0
ENDMDL
