MODEL 1
REMARK minimizedAffinity -4.86192846
REMARK minimizedRMSD -1
REMARK  0 active torsions:
REMARK  status: ('A' for Active; 'I' for Inactive)
ROOT
ATOM      1  C   UNL d   1       1.520  -1.866   2.685  0.00  0.00    -0.002 A 
ATOM      2  C1  UNL d   1       2.262  -1.662   1.530  0.00  0.00     0.010 A 
ATOM      3  C2  UNL d   1       1.698  -1.015   0.429  0.00  0.00     0.041 A 
ATOM      4  C3  UNL d   1       0.364  -0.570   0.510  0.00  0.00    -0.075 A 
ATOM      5  S   UNL d   1      -0.535   0.248  -0.713  0.00  0.00     0.015 SA
ATOM      6  C4  UNL d   1      -1.924   0.347   0.269  0.00  0.00     0.022 A 
ATOM      7  C5  UNL d   1      -1.725  -0.226   1.503  0.00  0.00     0.026 A 
ATOM      8  C6  UNL d   1      -0.403  -0.763   1.663  0.00  0.00    -0.082 A 
ATOM      9  C7  UNL d   1       0.197  -1.424   2.762  0.00  0.00     0.045 A 
ENDROOT
TORSDOF 0
ENDMDL
