MODEL 1
REMARK minimizedAffinity 1.42792487
REMARK minimizedRMSD -1
REMARK  0 active torsions:
REMARK  status: ('A' for Active; 'I' for Inactive)
ROOT
ATOM      1  C   UNL d   1      -0.216  -0.041   1.636  0.00  0.00     0.124 A 
ATOM      2  C1  UNL d   1       0.859  -0.680   1.033  0.00  0.00     0.062 A 
ATOM      3  C2  UNL d   1       0.961  -0.721  -0.354  0.00  0.00     0.162 A 
ATOM      4  C3  UNL d   1      -0.015  -0.121  -1.150  0.00  0.00    -0.034 A 
ATOM      5  C4  UNL d   1      -1.094   0.518  -0.537  0.00  0.00     0.162 A 
ATOM      6  C5  UNL d   1      -1.192   0.557   0.850  0.00  0.00     0.062 A 
ATOM      7  F   UNL d   1      -2.231   1.174   1.430  0.00  0.00    -0.097 F 
ATOM      8  F1  UNL d   1      -2.050   1.106  -1.272  0.00  0.00    -0.096 F 
ATOM      9  I   UNL d   1       0.134  -0.180  -3.225  0.00  0.00    -0.060 I 
ATOM     10  F2  UNL d   1       2.011  -1.345  -0.909  0.00  0.00    -0.096 F 
ATOM     11  F3  UNL d   1       1.802  -1.259   1.790  0.00  0.00    -0.097 F 
ATOM     12  F4  UNL d   1      -0.312  -0.004   2.971  0.00  0.00    -0.092 F 
ENDROOT
TORSDOF 0
ENDMDL
