MODEL 1
REMARK minimizedAffinity -0.178407878
REMARK minimizedRMSD -1
REMARK  0 active torsions:
REMARK  status: ('A' for Active; 'I' for Inactive)
ROOT
ATOM      1  C   UNL d   1      -0.027  -0.090   2.717  0.00  0.00     0.124 A 
ATOM      2  C1  UNL d   1      -1.058   0.238   1.847  0.00  0.00     0.062 A 
ATOM      3  C2  UNL d   1      -0.900   0.057   0.476  0.00  0.00     0.162 A 
ATOM      4  C3  UNL d   1       0.292  -0.456  -0.034  0.00  0.00    -0.034 A 
ATOM      5  C4  UNL d   1       1.324  -0.783   0.847  0.00  0.00     0.162 A 
ATOM      6  C5  UNL d   1       1.163  -0.600   2.216  0.00  0.00     0.062 A 
ATOM      7  F   UNL d   1       2.159  -0.917   3.055  0.00  0.00    -0.097 F 
ATOM      8  F1  UNL d   1       2.484  -1.278   0.390  0.00  0.00    -0.096 F 
ATOM      9  I   UNL d   1       0.531  -0.728  -2.084  0.00  0.00    -0.060 I 
ATOM     10  F2  UNL d   1      -1.913   0.383  -0.342  0.00  0.00    -0.096 F 
ATOM     11  F3  UNL d   1      -2.208   0.732   2.328  0.00  0.00    -0.097 F 
ATOM     12  F4  UNL d   1      -0.181   0.086   4.036  0.00  0.00    -0.092 F 
ENDROOT
TORSDOF 0
ENDMDL
