MODEL 1
REMARK minimizedAffinity -1.44701731
REMARK minimizedRMSD -1
REMARK  0 active torsions:
REMARK  status: ('A' for Active; 'I' for Inactive)
ROOT
ATOM      1  C   UNL d   1      -0.553  -0.131   2.090  0.00  0.00     0.124 A 
ATOM      2  C1  UNL d   1       0.658  -0.570   1.574  0.00  0.00     0.062 A 
ATOM      3  C2  UNL d   1       0.874  -0.572   0.199  0.00  0.00     0.162 A 
ATOM      4  C3  UNL d   1      -0.124  -0.132  -0.671  0.00  0.00    -0.034 A 
ATOM      5  C4  UNL d   1      -1.341   0.307  -0.144  0.00  0.00     0.162 A 
ATOM      6  C5  UNL d   1      -1.551   0.307   1.231  0.00  0.00     0.062 A 
ATOM      7  F   UNL d   1      -2.722   0.731   1.728  0.00  0.00    -0.097 F 
ATOM      8  F1  UNL d   1      -2.322   0.736  -0.951  0.00  0.00    -0.096 F 
ATOM      9  I   UNL d   1       0.194  -0.133  -2.727  0.00  0.00    -0.060 I 
ATOM     10  F2  UNL d   1       2.054  -1.002  -0.272  0.00  0.00    -0.096 F 
ATOM     11  F3  UNL d   1       1.624  -0.995   2.402  0.00  0.00    -0.097 F 
ATOM     12  F4  UNL d   1      -0.758  -0.132   3.413  0.00  0.00    -0.092 F 
ENDROOT
TORSDOF 0
ENDMDL
