MODEL 1
REMARK minimizedAffinity 1.2972126
REMARK minimizedRMSD -1
REMARK  0 active torsions:
REMARK  status: ('A' for Active; 'I' for Inactive)
ROOT
ATOM      1  C   UNL d   1      -0.392   0.236   2.052  0.00  0.00     0.124 A 
ATOM      2  C1  UNL d   1       0.778  -0.363   1.607  0.00  0.00     0.062 A 
ATOM      3  C2  UNL d   1       1.042  -0.455   0.243  0.00  0.00     0.162 A 
ATOM      4  C3  UNL d   1       0.134   0.054  -0.686  0.00  0.00    -0.034 A 
ATOM      5  C4  UNL d   1      -1.041   0.655  -0.230  0.00  0.00     0.162 A 
ATOM      6  C5  UNL d   1      -1.300   0.744   1.134  0.00  0.00     0.062 A 
ATOM      7  F   UNL d   1      -2.431   1.323   1.563  0.00  0.00    -0.097 F 
ATOM      8  F1  UNL d   1      -1.936   1.155  -1.095  0.00  0.00    -0.096 F 
ATOM      9  I   UNL d   1       0.525  -0.082  -2.725  0.00  0.00    -0.060 I 
ATOM     10  F2  UNL d   1       2.180  -1.039  -0.159  0.00  0.00    -0.096 F 
ATOM     11  F3  UNL d   1       1.657  -0.855   2.492  0.00  0.00    -0.097 F 
ATOM     12  F4  UNL d   1      -0.644   0.323   3.365  0.00  0.00    -0.092 F 
ENDROOT
TORSDOF 0
ENDMDL
