MODEL 1
REMARK minimizedAffinity 12.5273495
REMARK minimizedRMSD -1
REMARK  0 active torsions:
REMARK  status: ('A' for Active; 'I' for Inactive)
ROOT
ATOM      1  C   UNL d   1      -1.332  -0.090   2.449  0.00  0.00     0.124 A 
ATOM      2  C1  UNL d   1      -0.107  -0.544   1.978  0.00  0.00     0.062 A 
ATOM      3  C2  UNL d   1       0.081  -0.762   0.617  0.00  0.00     0.162 A 
ATOM      4  C3  UNL d   1      -0.957  -0.527  -0.285  0.00  0.00    -0.034 A 
ATOM      5  C4  UNL d   1      -2.186  -0.071   0.197  0.00  0.00     0.162 A 
ATOM      6  C5  UNL d   1      -2.369   0.146   1.558  0.00  0.00     0.062 A 
ATOM      7  F   UNL d   1      -3.553   0.584   2.012  0.00  0.00    -0.097 F 
ATOM      8  F1  UNL d   1      -3.205   0.165  -0.642  0.00  0.00    -0.096 F 
ATOM      9  I   UNL d   1      -0.679  -0.853  -2.321  0.00  0.00    -0.060 I 
ATOM     10  F2  UNL d   1       1.275  -1.201   0.190  0.00  0.00    -0.096 F 
ATOM     11  F3  UNL d   1       0.896  -0.773   2.837  0.00  0.00    -0.097 F 
ATOM     12  F4  UNL d   1      -1.511   0.119   3.760  0.00  0.00    -0.092 F 
ENDROOT
TORSDOF 0
ENDMDL
