MODEL 1
REMARK minimizedAffinity 7.66501284
REMARK minimizedRMSD -1
REMARK  0 active torsions:
REMARK  status: ('A' for Active; 'I' for Inactive)
ROOT
ATOM      1  C   UNL d   1      -1.721  -0.292   1.111  0.00  0.00     0.124 A 
ATOM      2  C1  UNL d   1      -0.612   0.529   1.270  0.00  0.00     0.062 A 
ATOM      3  C2  UNL d   1       0.286   0.702   0.221  0.00  0.00     0.162 A 
ATOM      4  C3  UNL d   1       0.080   0.054  -0.997  0.00  0.00    -0.034 A 
ATOM      5  C4  UNL d   1      -1.037  -0.770  -1.149  0.00  0.00     0.162 A 
ATOM      6  C5  UNL d   1      -1.932  -0.940  -0.098  0.00  0.00     0.062 A 
ATOM      7  F   UNL d   1      -3.002  -1.733  -0.253  0.00  0.00    -0.097 F 
ATOM      8  F1  UNL d   1      -1.266  -1.408  -2.306  0.00  0.00    -0.096 F 
ATOM      9  I   UNL d   1       1.421   0.311  -2.568  0.00  0.00    -0.060 I 
ATOM     10  F2  UNL d   1       1.348   1.501   0.402  0.00  0.00    -0.096 F 
ATOM     11  F3  UNL d   1      -0.406   1.156   2.437  0.00  0.00    -0.097 F 
ATOM     12  F4  UNL d   1      -2.583  -0.457   2.122  0.00  0.00    -0.092 F 
ENDROOT
TORSDOF 0
ENDMDL
