MODEL 1
REMARK minimizedAffinity 1.5306865
REMARK minimizedRMSD -1
REMARK  0 active torsions:
REMARK  status: ('A' for Active; 'I' for Inactive)
ROOT
ATOM      1  C   UNL d   1       1.092   0.521  -3.743  0.00  0.00     0.124 A 
ATOM      2  C1  UNL d   1       0.776   1.640  -2.985  0.00  0.00     0.062 A 
ATOM      3  C2  UNL d   1       0.260   1.493  -1.701  0.00  0.00     0.162 A 
ATOM      4  C3  UNL d   1       0.057   0.221  -1.165  0.00  0.00    -0.034 A 
ATOM      5  C4  UNL d   1       0.376  -0.900  -1.934  0.00  0.00     0.162 A 
ATOM      6  C5  UNL d   1       0.892  -0.748  -3.217  0.00  0.00     0.062 A 
ATOM      7  F   UNL d   1       1.196  -1.830  -3.947  0.00  0.00    -0.097 F 
ATOM      8  F1  UNL d   1       0.193  -2.137  -1.449  0.00  0.00    -0.096 F 
ATOM      9  I   UNL d   1      -0.715  -0.003   0.755  0.00  0.00    -0.060 I 
ATOM     10  F2  UNL d   1      -0.036   2.592  -0.991  0.00  0.00    -0.096 F 
ATOM     11  F3  UNL d   1       0.968   2.866  -3.492  0.00  0.00    -0.097 F 
ATOM     12  F4  UNL d   1       1.588   0.665  -4.978  0.00  0.00    -0.092 F 
ENDROOT
TORSDOF 0
ENDMDL
