MODEL 1
REMARK minimizedAffinity -1.91277671
REMARK minimizedRMSD -1
REMARK  0 active torsions:
REMARK  status: ('A' for Active; 'I' for Inactive)
ROOT
ATOM      1  C   UNL d   1      -1.808   0.231   0.034  0.00  0.00     0.124 A 
ATOM      2  C1  UNL d   1      -0.631  -0.293  -0.482  0.00  0.00     0.062 A 
ATOM      3  C2  UNL d   1       0.476  -0.474   0.343  0.00  0.00     0.162 A 
ATOM      4  C3  UNL d   1       0.411  -0.130   1.693  0.00  0.00    -0.034 A 
ATOM      5  C4  UNL d   1      -0.776   0.397   2.205  0.00  0.00     0.162 A 
ATOM      6  C5  UNL d   1      -1.879   0.576   1.376  0.00  0.00     0.062 A 
ATOM      7  F   UNL d   1      -3.016   1.083   1.877  0.00  0.00    -0.097 F 
ATOM      8  F1  UNL d   1      -0.873   0.738   3.498  0.00  0.00    -0.096 F 
ATOM      9  I   UNL d   1       2.063  -0.399   2.930  0.00  0.00    -0.060 I 
ATOM     10  F2  UNL d   1       1.600  -0.982  -0.183  0.00  0.00    -0.096 F 
ATOM     11  F3  UNL d   1      -0.559  -0.626  -1.779  0.00  0.00    -0.097 F 
ATOM     12  F4  UNL d   1      -2.871   0.405  -0.762  0.00  0.00    -0.092 F 
ENDROOT
TORSDOF 0
ENDMDL
