MODEL 1
REMARK minimizedAffinity 3.85678959
REMARK minimizedRMSD -1
REMARK  0 active torsions:
REMARK  status: ('A' for Active; 'I' for Inactive)
ROOT
ATOM      1  C   UNL d   1      -1.235   0.690  -0.356  0.00  0.00     0.124 A 
ATOM      2  C1  UNL d   1       0.133   0.475  -0.253  0.00  0.00     0.062 A 
ATOM      3  C2  UNL d   1       0.680   0.007   0.938  0.00  0.00     0.162 A 
ATOM      4  C3  UNL d   1      -0.140  -0.250   2.036  0.00  0.00    -0.034 A 
ATOM      5  C4  UNL d   1      -1.514  -0.030   1.926  0.00  0.00     0.162 A 
ATOM      6  C5  UNL d   1      -2.057   0.437   0.733  0.00  0.00     0.062 A 
ATOM      7  F   UNL d   1      -3.378   0.645   0.636  0.00  0.00    -0.097 F 
ATOM      8  F1  UNL d   1      -2.332  -0.267   2.962  0.00  0.00    -0.096 F 
ATOM      9  I   UNL d   1       0.675  -0.951   3.819  0.00  0.00    -0.060 I 
ATOM     10  F2  UNL d   1       2.005  -0.193   1.008  0.00  0.00    -0.096 F 
ATOM     11  F3  UNL d   1       0.929   0.719  -1.304  0.00  0.00    -0.097 F 
ATOM     12  F4  UNL d   1      -1.758   1.142  -1.503  0.00  0.00    -0.092 F 
ENDROOT
TORSDOF 0
ENDMDL
