MODEL 1
REMARK minimizedAffinity -2.03559923
REMARK minimizedRMSD -1
REMARK  1 active torsions:
REMARK  status: ('A' for Active; 'I' for Inactive)
REMARK    1  A    between atoms: C1_2  and  C2_3 
ROOT
ATOM      1  C2  UNL d   1       5.915   1.998   4.370  0.00  0.00    -0.081 A 
ATOM      2  C3  UNL d   1       5.827   1.435   5.649  0.00  0.00     0.006 A 
ATOM      3  C4  UNL d   1       5.830   0.048   5.814  0.00  0.00     0.002 A 
ATOM      4  C5  UNL d   1       5.929  -0.798   4.705  0.00  0.00    -0.080 A 
ATOM      5  C6  UNL d   1       5.964  -2.289   4.870  0.00  0.00     0.076 C 
ATOM      6  C7  UNL d   1       6.000  -0.236   3.425  0.00  0.00     0.002 A 
ATOM      7  C8  UNL d   1       5.996   1.151   3.260  0.00  0.00     0.006 A 
ENDROOT
BRANCH   1   8
ATOM      8  C1  UNL d   1       5.978   3.494   4.194  0.00  0.00     0.054 C 
ATOM      9  C   UNL d   1       4.871   3.989   3.274  0.00  0.00     0.018 C 
ENDBRANCH   1   8
TORSDOF 1
ENDMDL
