MODEL 1
REMARK minimizedAffinity -1.39689386
REMARK minimizedRMSD -1
REMARK  1 active torsions:
REMARK  status: ('A' for Active; 'I' for Inactive)
REMARK    1  A    between atoms: C1_2  and  C2_3 
ROOT
ATOM      1  C2  UNL d   1       5.967   2.050   3.910  0.00  0.00    -0.081 A 
ATOM      2  C3  UNL d   1       5.984   1.092   2.889  0.00  0.00     0.006 A 
ATOM      3  C4  UNL d   1       5.999  -0.271   3.197  0.00  0.00     0.002 A 
ATOM      4  C5  UNL d   1       5.992  -0.697   4.530  0.00  0.00    -0.080 A 
ATOM      5  C6  UNL d   1       5.978  -2.157   4.874  0.00  0.00     0.076 C 
ATOM      6  C7  UNL d   1       5.993   0.260   5.550  0.00  0.00     0.002 A 
ATOM      7  C8  UNL d   1       5.978   1.622   5.242  0.00  0.00     0.006 A 
ENDROOT
BRANCH   1   8
ATOM      8  C1  UNL d   1       5.885   3.519   3.581  0.00  0.00     0.054 C 
ATOM      9  C   UNL d   1       4.444   3.956   3.359  0.00  0.00     0.018 C 
ENDBRANCH   1   8
TORSDOF 1
ENDMDL
