MODEL 1
REMARK minimizedAffinity -2.80384898
REMARK minimizedRMSD -1
REMARK  1 active torsions:
REMARK  status: ('A' for Active; 'I' for Inactive)
REMARK    1  A    between atoms: C1_2  and  C2_3 
ROOT
ATOM      1  C2  UNL d   1       5.767   1.592   4.709  0.00  0.00    -0.081 A 
ATOM      2  C3  UNL d   1       5.389   0.988   5.914  0.00  0.00     0.006 A 
ATOM      3  C4  UNL d   1       5.255  -0.400   5.999  0.00  0.00     0.002 A 
ATOM      4  C5  UNL d   1       5.506  -1.207   4.884  0.00  0.00    -0.080 A 
ATOM      5  C6  UNL d   1       5.396  -2.700   4.970  0.00  0.00     0.076 C 
ATOM      6  C7  UNL d   1       5.867  -0.602   3.675  0.00  0.00     0.002 A 
ATOM      7  C8  UNL d   1       6.000   0.786   3.589  0.00  0.00     0.006 A 
ENDROOT
BRANCH   1   8
ATOM      8  C1  UNL d   1       5.975   3.083   4.630  0.00  0.00     0.054 C 
ATOM      9  C   UNL d   1       6.000   3.563   3.186  0.00  0.00     0.018 C 
ENDBRANCH   1   8
TORSDOF 1
ENDMDL
