MODEL 1
REMARK minimizedAffinity 4.52480841
REMARK minimizedRMSD -1
REMARK  1 active torsions:
REMARK  status: ('A' for Active; 'I' for Inactive)
REMARK    1  A    between atoms: C1_2  and  C2_3 
ROOT
ATOM      1  C2  UNL d   1       5.974   2.459   3.024  0.00  0.00    -0.081 A 
ATOM      2  C3  UNL d   1       5.981   1.245   2.326  0.00  0.00     0.006 A 
ATOM      3  C4  UNL d   1       5.992   0.031   3.016  0.00  0.00     0.002 A 
ATOM      4  C5  UNL d   1       5.988   0.010   4.415  0.00  0.00    -0.080 A 
ATOM      5  C6  UNL d   1       5.969  -1.287   5.169  0.00  0.00     0.076 C 
ATOM      6  C7  UNL d   1       5.999   1.222   5.113  0.00  0.00     0.002 A 
ATOM      7  C8  UNL d   1       5.989   2.437   4.423  0.00  0.00     0.006 A 
ENDROOT
BRANCH   1   8
ATOM      8  C1  UNL d   1       5.897   3.769   2.282  0.00  0.00     0.054 C 
ATOM      9  C   UNL d   1       5.983   4.951   3.237  0.00  0.00     0.018 C 
ENDBRANCH   1   8
TORSDOF 1
ENDMDL
