MODEL 1
REMARK minimizedAffinity -3.42846036
REMARK minimizedRMSD -1
REMARK  1 active torsions:
REMARK  status: ('A' for Active; 'I' for Inactive)
REMARK    1  A    between atoms: C1_2  and  C2_3 
ROOT
ATOM      1  C2  UNL d   1       5.888   2.431   4.432  0.00  0.00    -0.081 A 
ATOM      2  C3  UNL d   1       6.000   1.508   3.385  0.00  0.00     0.006 A 
ATOM      3  C4  UNL d   1       5.963   0.136   3.644  0.00  0.00     0.002 A 
ATOM      4  C5  UNL d   1       5.805  -0.336   4.952  0.00  0.00    -0.080 A 
ATOM      5  C6  UNL d   1       5.733  -1.806   5.240  0.00  0.00     0.076 C 
ATOM      6  C7  UNL d   1       5.710   0.587   6.000  0.00  0.00     0.002 A 
ATOM      7  C8  UNL d   1       5.748   1.959   5.741  0.00  0.00     0.006 A 
ENDROOT
BRANCH   1   8
ATOM      8  C1  UNL d   1       5.862   3.911   4.148  0.00  0.00     0.054 C 
ATOM      9  C   UNL d   1       5.895   4.189   2.652  0.00  0.00     0.018 C 
ENDBRANCH   1   8
TORSDOF 1
ENDMDL
