MODEL 1
REMARK minimizedAffinity -0.00744069833
REMARK minimizedRMSD -1
REMARK  1 active torsions:
REMARK  status: ('A' for Active; 'I' for Inactive)
REMARK    1  A    between atoms: C1_2  and  C2_3 
ROOT
ATOM      1  C2  UNL d   1       5.897   4.479   3.452  0.00  0.00    -0.081 A 
ATOM      2  C3  UNL d   1       5.940   4.190   4.822  0.00  0.00     0.006 A 
ATOM      3  C4  UNL d   1       5.905   2.867   5.268  0.00  0.00     0.002 A 
ATOM      4  C5  UNL d   1       5.835   1.811   4.354  0.00  0.00    -0.080 A 
ATOM      5  C6  UNL d   1       5.828   0.385   4.819  0.00  0.00     0.076 C 
ATOM      6  C7  UNL d   1       5.775   2.100   2.986  0.00  0.00     0.002 A 
ATOM      7  C8  UNL d   1       5.809   3.422   2.539  0.00  0.00     0.006 A 
ENDROOT
BRANCH   1   8
ATOM      8  C1  UNL d   1       6.000   5.902   2.965  0.00  0.00     0.054 C 
ATOM      9  C   UNL d   1       5.999   5.967   1.445  0.00  0.00     0.018 C 
ENDBRANCH   1   8
TORSDOF 1
ENDMDL
