MODEL 1
REMARK minimizedAffinity 5.25427055
REMARK minimizedRMSD -1
REMARK  1 active torsions:
REMARK  status: ('A' for Active; 'I' for Inactive)
REMARK    1  A    between atoms: C1_2  and  C2_3 
ROOT
ATOM      1  C2  UNL d   1       5.936   3.282   4.510  0.00  0.00    -0.081 A 
ATOM      2  C3  UNL d   1       5.881   2.789   3.200  0.00  0.00     0.006 A 
ATOM      3  C4  UNL d   1       5.888   3.666   2.113  0.00  0.00     0.002 A 
ATOM      4  C5  UNL d   1       5.959   5.048   2.315  0.00  0.00    -0.080 A 
ATOM      5  C6  UNL d   1       5.999   5.998   1.156  0.00  0.00     0.076 C 
ATOM      6  C7  UNL d   1       5.997   5.541   3.624  0.00  0.00     0.002 A 
ATOM      7  C8  UNL d   1       5.989   4.666   4.712  0.00  0.00     0.006 A 
ENDROOT
BRANCH   1   8
ATOM      8  C1  UNL d   1       5.994   2.337   5.683  0.00  0.00     0.054 C 
ATOM      9  C   UNL d   1       5.936   0.886   5.227  0.00  0.00     0.018 C 
ENDBRANCH   1   8
TORSDOF 1
ENDMDL
