MODEL 1
REMARK minimizedAffinity -1.02374685
REMARK minimizedRMSD -1
REMARK  1 active torsions:
REMARK  status: ('A' for Active; 'I' for Inactive)
REMARK    1  A    between atoms: C1_2  and  C2_3 
ROOT
ATOM      1  C2  UNL d   1       5.996   2.204   4.605  0.00  0.00    -0.081 A 
ATOM      2  C3  UNL d   1       5.996   1.390   3.466  0.00  0.00     0.006 A 
ATOM      3  C4  UNL d   1       5.973  -0.001   3.590  0.00  0.00     0.002 A 
ATOM      4  C5  UNL d   1       5.940  -0.601   4.853  0.00  0.00    -0.080 A 
ATOM      5  C6  UNL d   1       5.884  -2.092   5.000  0.00  0.00     0.076 C 
ATOM      6  C7  UNL d   1       5.958   0.213   5.992  0.00  0.00     0.002 A 
ATOM      7  C8  UNL d   1       5.982   1.604   5.868  0.00  0.00     0.006 A 
ENDROOT
BRANCH   1   8
ATOM      8  C1  UNL d   1       5.956   3.706   4.473  0.00  0.00     0.054 C 
ATOM      9  C   UNL d   1       5.898   4.132   3.013  0.00  0.00     0.018 C 
ENDBRANCH   1   8
TORSDOF 1
ENDMDL
