MODEL 1
REMARK minimizedAffinity -2.18808055
REMARK minimizedRMSD -1
REMARK  1 active torsions:
REMARK  status: ('A' for Active; 'I' for Inactive)
REMARK    1  A    between atoms: C1_2  and  C2_3 
ROOT
ATOM      1  C2  UNL d   1       6.000   4.059   4.181  0.00  0.00    -0.081 A 
ATOM      2  C3  UNL d   1       5.980   5.415   3.834  0.00  0.00     0.006 A 
ATOM      3  C4  UNL d   1       5.950   5.802   2.492  0.00  0.00     0.002 A 
ATOM      4  C5  UNL d   1       5.932   4.840   1.476  0.00  0.00    -0.080 A 
ATOM      5  C6  UNL d   1       5.869   5.242   0.032  0.00  0.00     0.076 C 
ATOM      6  C7  UNL d   1       5.969   3.485   1.823  0.00  0.00     0.002 A 
ATOM      7  C8  UNL d   1       5.999   3.098   3.164  0.00  0.00     0.006 A 
ENDROOT
BRANCH   1   8
ATOM      8  C1  UNL d   1       5.966   3.637   5.628  0.00  0.00     0.054 C 
ATOM      9  C   UNL d   1       5.998   2.122   5.764  0.00  0.00     0.018 C 
ENDBRANCH   1   8
TORSDOF 1
ENDMDL
