MODEL 1
REMARK minimizedAffinity -0.936132789
REMARK minimizedRMSD -1
REMARK  1 active torsions:
REMARK  status: ('A' for Active; 'I' for Inactive)
REMARK    1  A    between atoms: C1_2  and  C2_3 
ROOT
ATOM      1  C2  UNL d   1       5.886   1.628   4.096  0.00  0.00    -0.081 A 
ATOM      2  C3  UNL d   1       5.688   2.472   5.195  0.00  0.00     0.006 A 
ATOM      3  C4  UNL d   1       5.529   3.848   5.012  0.00  0.00     0.002 A 
ATOM      4  C5  UNL d   1       5.557   4.401   3.728  0.00  0.00    -0.080 A 
ATOM      5  C6  UNL d   1       5.357   5.872   3.515  0.00  0.00     0.076 C 
ATOM      6  C7  UNL d   1       5.772   3.560   2.631  0.00  0.00     0.002 A 
ATOM      7  C8  UNL d   1       5.931   2.185   2.813  0.00  0.00     0.006 A 
ENDROOT
BRANCH   1   8
ATOM      8  C1  UNL d   1       5.993   0.136   4.284  0.00  0.00     0.054 C 
ATOM      9  C   UNL d   1       4.955  -0.372   5.274  0.00  0.00     0.018 C 
ENDBRANCH   1   8
TORSDOF 1
ENDMDL
