MODEL 1
REMARK minimizedAffinity -1.93507373
REMARK minimizedRMSD -1
REMARK  1 active torsions:
REMARK  status: ('A' for Active; 'I' for Inactive)
REMARK    1  A    between atoms: C1_2  and  C2_3 
ROOT
ATOM      1  C2  UNL d   1       5.994   1.937   4.095  0.00  0.00    -0.081 A 
ATOM      2  C3  UNL d   1       5.999   1.197   2.906  0.00  0.00     0.006 A 
ATOM      3  C4  UNL d   1       6.000  -0.199   2.942  0.00  0.00     0.002 A 
ATOM      4  C5  UNL d   1       5.987  -0.878   4.165  0.00  0.00    -0.080 A 
ATOM      5  C6  UNL d   1       5.957  -2.377   4.217  0.00  0.00     0.076 C 
ATOM      6  C7  UNL d   1       6.000  -0.139   5.353  0.00  0.00     0.002 A 
ATOM      7  C8  UNL d   1       6.000   1.257   5.318  0.00  0.00     0.006 A 
ENDROOT
BRANCH   1   8
ATOM      8  C1  UNL d   1       5.928   3.443   4.060  0.00  0.00     0.054 C 
ATOM      9  C   UNL d   1       5.941   3.964   2.630  0.00  0.00     0.018 C 
ENDBRANCH   1   8
TORSDOF 1
ENDMDL
