MODEL 1
REMARK minimizedAffinity -1.57943904
REMARK minimizedRMSD -1
REMARK  1 active torsions:
REMARK  status: ('A' for Active; 'I' for Inactive)
REMARK    1  A    between atoms: C1_2  and  C2_3 
ROOT
ATOM      1  C2  UNL d   1       5.941   1.625   4.123  0.00  0.00    -0.081 A 
ATOM      2  C3  UNL d   1       5.960   1.077   5.411  0.00  0.00     0.006 A 
ATOM      3  C4  UNL d   1       5.966  -0.308   5.592  0.00  0.00     0.002 A 
ATOM      4  C5  UNL d   1       5.961  -1.168   4.488  0.00  0.00    -0.080 A 
ATOM      5  C6  UNL d   1       5.998  -2.656   4.667  0.00  0.00     0.076 C 
ATOM      6  C7  UNL d   1       5.924  -0.620   3.201  0.00  0.00     0.002 A 
ATOM      7  C8  UNL d   1       5.917   0.764   3.020  0.00  0.00     0.006 A 
ENDROOT
BRANCH   1   8
ATOM      8  C1  UNL d   1       5.999   3.118   3.924  0.00  0.00     0.054 C 
ATOM      9  C   UNL d   1       4.800   3.618   3.132  0.00  0.00     0.018 C 
ENDBRANCH   1   8
TORSDOF 1
ENDMDL
