MODEL 1
REMARK minimizedAffinity -1.99849463
REMARK minimizedRMSD -1
REMARK  1 active torsions:
REMARK  status: ('A' for Active; 'I' for Inactive)
REMARK    1  A    between atoms: C1_2  and  C2_3 
ROOT
ATOM      1  C2  UNL d   1       5.846   1.001   5.097  0.00  0.00    -0.081 A 
ATOM      2  C3  UNL d   1       5.854   2.273   5.685  0.00  0.00     0.006 A 
ATOM      3  C4  UNL d   1       5.916   3.420   4.890  0.00  0.00     0.002 A 
ATOM      4  C5  UNL d   1       5.962   3.315   3.496  0.00  0.00    -0.080 A 
ATOM      5  C6  UNL d   1       5.998   4.539   2.630  0.00  0.00     0.076 C 
ATOM      6  C7  UNL d   1       5.971   2.045   2.909  0.00  0.00     0.002 A 
ATOM      7  C8  UNL d   1       5.911   0.898   3.704  0.00  0.00     0.006 A 
ENDROOT
BRANCH   1   8
ATOM      8  C1  UNL d   1       5.714  -0.235   5.949  0.00  0.00     0.054 C 
ATOM      9  C   UNL d   1       5.925  -1.498   5.126  0.00  0.00     0.018 C 
ENDBRANCH   1   8
TORSDOF 1
ENDMDL
