MODEL 1
REMARK minimizedAffinity 0.575842023
REMARK minimizedRMSD -1
REMARK  1 active torsions:
REMARK  status: ('A' for Active; 'I' for Inactive)
REMARK    1  A    between atoms: C1_2  and  C2_3 
ROOT
ATOM      1  C2  UNL d   1       4.513   4.771   2.239  0.00  0.00    -0.081 A 
ATOM      2  C3  UNL d   1       4.454   5.985   1.543  0.00  0.00     0.006 A 
ATOM      3  C4  UNL d   1       4.356   5.997   0.149  0.00  0.00     0.002 A 
ATOM      4  C5  UNL d   1       4.307   4.798  -0.570  0.00  0.00    -0.080 A 
ATOM      5  C6  UNL d   1       4.172   4.797  -2.063  0.00  0.00     0.076 C 
ATOM      6  C7  UNL d   1       4.383   3.586   0.125  0.00  0.00     0.002 A 
ATOM      7  C8  UNL d   1       4.482   3.573   1.518  0.00  0.00     0.006 A 
ENDROOT
BRANCH   1   8
ATOM      8  C1  UNL d   1       4.553   4.754   3.746  0.00  0.00     0.054 C 
ATOM      9  C   UNL d   1       5.291   5.968   4.294  0.00  0.00     0.018 C 
ENDBRANCH   1   8
TORSDOF 1
ENDMDL
