MODEL 1
REMARK minimizedAffinity -1.83258474
REMARK minimizedRMSD -1
REMARK  0 active torsions:
REMARK  status: ('A' for Active; 'I' for Inactive)
ROOT
ATOM      1  C4' PXY d   1       3.866  -1.153   1.475  0.00  0.00     0.077 C 
ATOM      2  C1' PXY d   1      -1.184   0.485  -0.811  0.00  0.00     0.077 C 
ATOM      3  C1  PXY d   1       0.147   0.065  -0.217  0.00  0.00    -0.082 A 
ATOM      4  C2  PXY d   1       0.340  -1.198   0.126  0.00  0.00     0.003 A 
ATOM      5  C3  PXY d   1       1.526  -1.588   0.694  0.00  0.00     0.003 A 
ATOM      6  C4  PXY d   1       2.543  -0.687   0.864  0.00  0.00    -0.082 A 
ATOM      7  C5  PXY d   1       2.356   0.602   0.506  0.00  0.00     0.003 A 
ATOM      8  C6  PXY d   1       1.131   0.986  -0.031  0.00  0.00     0.003 A 
ENDROOT
TORSDOF 0
ENDMDL
