MODEL 1
REMARK minimizedAffinity -2.96197224
REMARK minimizedRMSD -1
REMARK  0 active torsions:
REMARK  status: ('A' for Active; 'I' for Inactive)
ROOT
ATOM      1  C4' PXY d   1      -2.639   0.043  -1.405  0.00  0.00     0.077 C 
ATOM      2  C1' PXY d   1       1.965   0.078   2.090  0.00  0.00     0.077 C 
ATOM      3  C1  PXY d   1       0.757   0.056   1.174  0.00  0.00    -0.082 A 
ATOM      4  C2  PXY d   1       0.538   1.072   0.356  0.00  0.00     0.003 A 
ATOM      5  C3  PXY d   1      -0.566   1.083  -0.457  0.00  0.00     0.003 A 
ATOM      6  C4  PXY d   1      -1.427   0.019  -0.470  0.00  0.00    -0.082 A 
ATOM      7  C5  PXY d   1      -1.205  -1.027   0.355  0.00  0.00     0.003 A 
ATOM      8  C6  PXY d   1      -0.100  -1.000   1.201  0.00  0.00     0.003 A 
ENDROOT
TORSDOF 0
ENDMDL
