MODEL 1
REMARK minimizedAffinity -2.68522906
REMARK minimizedRMSD -1
REMARK  0 active torsions:
REMARK  status: ('A' for Active; 'I' for Inactive)
ROOT
ATOM      1  C4' PXY d   1      -2.331   0.214  -2.065  0.00  0.00     0.077 C 
ATOM      2  C1' PXY d   1       2.162   1.106   1.462  0.00  0.00     0.077 C 
ATOM      3  C1  PXY d   1       0.982   0.860   0.542  0.00  0.00    -0.082 A 
ATOM      4  C2  PXY d   1       0.872   1.552  -0.581  0.00  0.00     0.003 A 
ATOM      5  C3  PXY d   1      -0.205   1.365  -1.408  0.00  0.00     0.003 A 
ATOM      6  C4  PXY d   1      -1.152   0.422  -1.111  0.00  0.00    -0.082 A 
ATOM      7  C5  PXY d   1      -1.041  -0.296   0.027  0.00  0.00     0.003 A 
ATOM      8  C6  PXY d   1       0.038  -0.062   0.874  0.00  0.00     0.003 A 
ENDROOT
TORSDOF 0
ENDMDL
