MODEL 1
REMARK minimizedAffinity -4.46601105
REMARK minimizedRMSD -1
REMARK  0 active torsions:
REMARK  status: ('A' for Active; 'I' for Inactive)
ROOT
ATOM      1  C4' PXY d   1       2.496  -0.900   2.010  0.00  0.00     0.077 C 
ATOM      2  C1' PXY d   1      -2.202   0.318  -1.131  0.00  0.00     0.077 C 
ATOM      3  C1  PXY d   1      -0.977  -0.008  -0.299  0.00  0.00    -0.082 A 
ATOM      4  C2  PXY d   1       0.081   0.785  -0.353  0.00  0.00     0.003 A 
ATOM      5  C3  PXY d   1       1.208   0.487   0.368  0.00  0.00     0.003 A 
ATOM      6  C4  PXY d   1       1.234  -0.604   1.194  0.00  0.00    -0.082 A 
ATOM      7  C5  PXY d   1       0.155  -1.412   1.264  0.00  0.00     0.003 A 
ATOM      8  C6  PXY d   1      -0.965  -1.115   0.492  0.00  0.00     0.003 A 
ENDROOT
TORSDOF 0
ENDMDL
