MODEL 1
REMARK minimizedAffinity -3.36184716
REMARK minimizedRMSD -1
REMARK  0 active torsions:
REMARK  status: ('A' for Active; 'I' for Inactive)
ROOT
ATOM      1  C4' PXY d   1       2.377   1.504   1.583  0.00  0.00     0.077 C 
ATOM      2  C1' PXY d   1      -1.588  -1.291  -1.561  0.00  0.00     0.077 C 
ATOM      3  C1  PXY d   1      -0.543  -0.570  -0.734  0.00  0.00    -0.082 A 
ATOM      4  C2  PXY d   1      -0.826   0.610  -0.205  0.00  0.00     0.003 A 
ATOM      5  C3  PXY d   1       0.118   1.291   0.519  0.00  0.00     0.003 A 
ATOM      6  C4  PXY d   1       1.349   0.735   0.748  0.00  0.00    -0.082 A 
ATOM      7  C5  PXY d   1       1.642  -0.473   0.221  0.00  0.00     0.003 A 
ATOM      8  C6  PXY d   1       0.683  -1.129  -0.545  0.00  0.00     0.003 A 
ENDROOT
TORSDOF 0
ENDMDL
