MODEL 1
REMARK minimizedAffinity -2.93444514
REMARK minimizedRMSD -1
REMARK  0 active torsions:
REMARK  status: ('A' for Active; 'I' for Inactive)
ROOT
ATOM      1  C4' PXY d   1       2.163  -0.057   5.573  0.00  0.00     0.077 C 
ATOM      2  C1' PXY d   1       2.704   0.307  -0.171  0.00  0.00     0.077 C 
ATOM      3  C1  PXY d   1       2.566   0.224   1.337  0.00  0.00    -0.082 A 
ATOM      4  C2  PXY d   1       2.651  -0.952   1.938  0.00  0.00     0.003 A 
ATOM      5  C3  PXY d   1       2.497  -1.049   3.297  0.00  0.00     0.003 A 
ATOM      6  C4  PXY d   1       2.306   0.075   4.054  0.00  0.00    -0.082 A 
ATOM      7  C5  PXY d   1       2.228   1.280   3.450  0.00  0.00     0.003 A 
ATOM      8  C6  PXY d   1       2.346   1.352   2.065  0.00  0.00     0.003 A 
ENDROOT
TORSDOF 0
ENDMDL
