MODEL 1
REMARK minimizedAffinity -3.66774249
REMARK minimizedRMSD -1
REMARK  0 active torsions:
REMARK  status: ('A' for Active; 'I' for Inactive)
ROOT
ATOM      1  C4' PXY d   1      -2.141   0.472  -1.116  0.00  0.00     0.077 C 
ATOM      2  C1' PXY d   1       2.991   0.126   1.521  0.00  0.00     0.077 C 
ATOM      3  C1  PXY d   1       1.646   0.203   0.828  0.00  0.00    -0.082 A 
ATOM      4  C2  PXY d   1       1.260   1.341   0.273  0.00  0.00     0.003 A 
ATOM      5  C3  PXY d   1       0.033   1.438  -0.330  0.00  0.00     0.003 A 
ATOM      6  C4  PXY d   1      -0.786   0.344  -0.414  0.00  0.00    -0.082 A 
ATOM      7  C5  PXY d   1      -0.396  -0.823   0.140  0.00  0.00     0.003 A 
ATOM      8  C6  PXY d   1       0.836  -0.890   0.784  0.00  0.00     0.003 A 
ENDROOT
TORSDOF 0
ENDMDL
