MODEL 1
REMARK minimizedAffinity 4.17691803
REMARK minimizedRMSD -1
REMARK  0 active torsions:
REMARK  status: ('A' for Active; 'I' for Inactive)
ROOT
ATOM      1  C1  DEN d   1       0.811   2.983   0.295  0.00  0.00     0.130 A 
ATOM      2  C2  DEN d   1       0.356   3.497  -0.994  0.00  0.00    -0.031 A 
ATOM      3  C3  DEN d   1       0.496   2.416  -1.991  0.00  0.00     0.027 A 
ATOM      4  C4  DEN d   1       1.365   0.010  -1.664  0.00  0.00     0.027 A 
ATOM      5  C5  DEN d   1       1.876  -0.885  -0.750  0.00  0.00    -0.003 A 
ATOM      6  C6  DEN d   1       2.098  -0.545   0.558  0.00  0.00     0.001 A 
ATOM      7  C7  DEN d   1       1.766   0.709   1.000  0.00  0.00     0.017 A 
ATOM      8  C8  DEN d   1       1.257   1.618   0.083  0.00  0.00    -0.094 A 
ATOM      9  C9  DEN d   1       1.028   1.252  -1.233  0.00  0.00    -0.072 A 
ENDROOT
TORSDOF 0
ENDMDL
