MODEL 1
REMARK minimizedAffinity -1.73735666
REMARK minimizedRMSD -1
REMARK  0 active torsions:
REMARK  status: ('A' for Active; 'I' for Inactive)
ROOT
ATOM      1  C1  DEN d   1       0.414  -0.233  -1.223  0.00  0.00     0.130 A 
ATOM      2  C2  DEN d   1       1.341  -1.355  -1.349  0.00  0.00    -0.031 A 
ATOM      3  C3  DEN d   1       2.412  -1.178  -0.348  0.00  0.00     0.027 A 
ATOM      4  C4  DEN d   1       2.721   0.713   1.379  0.00  0.00     0.027 A 
ATOM      5  C5  DEN d   1       2.197   1.893   1.858  0.00  0.00    -0.003 A 
ATOM      6  C6  DEN d   1       1.069   2.460   1.325  0.00  0.00     0.001 A 
ATOM      7  C7  DEN d   1       0.404   1.824   0.311  0.00  0.00     0.017 A 
ATOM      8  C8  DEN d   1       0.931   0.637  -0.182  0.00  0.00    -0.094 A 
ATOM      9  C9  DEN d   1       2.065   0.074   0.378  0.00  0.00    -0.072 A 
ENDROOT
TORSDOF 0
ENDMDL
