MODEL 1
REMARK minimizedAffinity 6.99103975
REMARK minimizedRMSD -1
REMARK  0 active torsions:
REMARK  status: ('A' for Active; 'I' for Inactive)
ROOT
ATOM      1  C1  DEN d   1      -2.775   3.524   4.466  0.00  0.00     0.130 A 
ATOM      2  C2  DEN d   1      -2.199   4.813   4.090  0.00  0.00    -0.031 A 
ATOM      3  C3  DEN d   1      -2.450   5.022   2.650  0.00  0.00     0.027 A 
ATOM      4  C4  DEN d   1      -3.670   3.487   0.975  0.00  0.00     0.027 A 
ATOM      5  C5  DEN d   1      -4.321   2.282   0.825  0.00  0.00    -0.003 A 
ATOM      6  C6  DEN d   1      -4.471   1.399   1.861  0.00  0.00     0.001 A 
ATOM      7  C7  DEN d   1      -4.003   1.728   3.106  0.00  0.00     0.017 A 
ATOM      8  C8  DEN d   1      -3.339   2.937   3.264  0.00  0.00    -0.094 A 
ATOM      9  C9  DEN d   1      -3.209   3.822   2.207  0.00  0.00    -0.072 A 
ENDROOT
TORSDOF 0
ENDMDL
