MODEL 1
REMARK minimizedAffinity 0.707744598
REMARK minimizedRMSD -1
REMARK  0 active torsions:
REMARK  status: ('A' for Active; 'I' for Inactive)
ROOT
ATOM      1  C1  DEN d   1       1.472   1.311   0.165  0.00  0.00     0.130 A 
ATOM      2  C2  DEN d   1       0.894   2.106  -0.915  0.00  0.00    -0.031 A 
ATOM      3  C3  DEN d   1       0.358   1.177  -1.929  0.00  0.00     0.027 A 
ATOM      4  C4  DEN d   1       0.362  -1.402  -1.930  0.00  0.00     0.027 A 
ATOM      5  C5  DEN d   1       0.750  -2.525  -1.232  0.00  0.00    -0.003 A 
ATOM      6  C6  DEN d   1       1.430  -2.447  -0.046  0.00  0.00     0.001 A 
ATOM      7  C7  DEN d   1       1.704  -1.222   0.501  0.00  0.00     0.017 A 
ATOM      8  C8  DEN d   1       1.322  -0.086  -0.200  0.00  0.00    -0.094 A 
ATOM      9  C9  DEN d   1       0.625  -0.185  -1.392  0.00  0.00    -0.072 A 
ENDROOT
TORSDOF 0
ENDMDL
