MODEL 1
REMARK minimizedAffinity -1.25351465
REMARK minimizedRMSD -1
REMARK  0 active torsions:
REMARK  status: ('A' for Active; 'I' for Inactive)
ROOT
ATOM      1  C1  DEN d   1       1.140  -0.236  -2.015  0.00  0.00     0.130 A 
ATOM      2  C2  DEN d   1       1.408  -1.172  -0.927  0.00  0.00    -0.031 A 
ATOM      3  C3  DEN d   1       1.467  -0.403   0.333  0.00  0.00     0.027 A 
ATOM      4  C4  DEN d   1       1.166   2.132   0.702  0.00  0.00     0.027 A 
ATOM      5  C5  DEN d   1       0.932   3.337   0.078  0.00  0.00    -0.003 A 
ATOM      6  C6  DEN d   1       0.786   3.440  -1.280  0.00  0.00     0.001 A 
ATOM      7  C7  DEN d   1       0.828   2.310  -2.055  0.00  0.00     0.017 A 
ATOM      8  C8  DEN d   1       1.070   1.092  -1.433  0.00  0.00    -0.094 A 
ATOM      9  C9  DEN d   1       1.203   1.008  -0.058  0.00  0.00    -0.072 A 
ENDROOT
TORSDOF 0
ENDMDL
