MODEL 1
REMARK minimizedAffinity 1.52692592
REMARK minimizedRMSD -1
REMARK  0 active torsions:
REMARK  status: ('A' for Active; 'I' for Inactive)
ROOT
ATOM      1  C1  DEN d   1       1.590  -1.499   0.332  0.00  0.00     0.130 A 
ATOM      2  C2  DEN d   1       1.145  -2.297  -0.808  0.00  0.00    -0.031 A 
ATOM      3  C3  DEN d   1       0.688  -1.371  -1.863  0.00  0.00     0.027 A 
ATOM      4  C4  DEN d   1       0.629   1.207  -1.846  0.00  0.00     0.027 A 
ATOM      5  C5  DEN d   1       0.894   2.331  -1.094  0.00  0.00    -0.003 A 
ATOM      6  C6  DEN d   1       1.373   2.257   0.187  0.00  0.00     0.001 A 
ATOM      7  C7  DEN d   1       1.646   1.034   0.740  0.00  0.00     0.017 A 
ATOM      8  C8  DEN d   1       1.374  -0.104  -0.009  0.00  0.00    -0.094 A 
ATOM      9  C9  DEN d   1       0.901  -0.008  -1.307  0.00  0.00    -0.072 A 
ENDROOT
TORSDOF 0
ENDMDL
