MODEL 1
REMARK minimizedAffinity 9.19608021
REMARK minimizedRMSD -1
REMARK  0 active torsions:
REMARK  status: ('A' for Active; 'I' for Inactive)
ROOT
ATOM      1  C1  DEN d   1       1.517   3.283   1.135  0.00  0.00     0.130 A 
ATOM      2  C2  DEN d   1       2.128   2.575   2.256  0.00  0.00    -0.031 A 
ATOM      3  C3  DEN d   1       2.498   1.222   1.794  0.00  0.00     0.027 A 
ATOM      4  C4  DEN d   1       2.191   0.163  -0.538  0.00  0.00     0.027 A 
ATOM      5  C5  DEN d   1       1.710   0.373  -1.812  0.00  0.00    -0.003 A 
ATOM      6  C6  DEN d   1       1.105   1.546  -2.180  0.00  0.00     0.001 A 
ATOM      7  C7  DEN d   1       1.006   2.571  -1.277  0.00  0.00     0.017 A 
ATOM      8  C8  DEN d   1       1.482   2.364   0.011  0.00  0.00    -0.094 A 
ATOM      9  C9  DEN d   1       2.101   1.176   0.361  0.00  0.00    -0.072 A 
ENDROOT
TORSDOF 0
ENDMDL
