MODEL 1
REMARK minimizedAffinity 4.51316977
REMARK minimizedRMSD -1
REMARK  0 active torsions:
REMARK  status: ('A' for Active; 'I' for Inactive)
ROOT
ATOM      1  C1  DEN d   1       0.759   0.717  -2.433  0.00  0.00     0.130 A 
ATOM      2  C2  DEN d   1       0.755   2.171  -2.562  0.00  0.00    -0.031 A 
ATOM      3  C3  DEN d   1       0.947   2.749  -1.216  0.00  0.00     0.027 A 
ATOM      4  C4  DEN d   1       1.253   1.539   1.040  0.00  0.00     0.027 A 
ATOM      5  C5  DEN d   1       1.316   0.307   1.654  0.00  0.00    -0.003 A 
ATOM      6  C6  DEN d   1       1.165  -0.864   0.960  0.00  0.00     0.001 A 
ATOM      7  C7  DEN d   1       0.988  -0.829  -0.398  0.00  0.00     0.017 A 
ATOM      8  C8  DEN d   1       0.916   0.409  -1.023  0.00  0.00    -0.094 A 
ATOM      9  C9  DEN d   1       1.084   1.581  -0.305  0.00  0.00    -0.072 A 
ENDROOT
TORSDOF 0
ENDMDL
