MODEL 1
REMARK minimizedAffinity -0.414248168
REMARK minimizedRMSD -1
REMARK  0 active torsions:
REMARK  status: ('A' for Active; 'I' for Inactive)
ROOT
ATOM      1  C1  DEN d   1       1.192   3.022  -2.352  0.00  0.00     0.130 A 
ATOM      2  C2  DEN d   1       1.223   4.292  -1.632  0.00  0.00    -0.031 A 
ATOM      3  C3  DEN d   1       1.158   3.998  -0.186  0.00  0.00     0.027 A 
ATOM      4  C4  DEN d   1       1.018   1.713   1.001  0.00  0.00     0.027 A 
ATOM      5  C5  DEN d   1       0.953   0.350   0.809  0.00  0.00    -0.003 A 
ATOM      6  C6  DEN d   1       0.929  -0.211  -0.441  0.00  0.00     0.001 A 
ATOM      7  C7  DEN d   1       1.016   0.592  -1.547  0.00  0.00     0.017 A 
ATOM      8  C8  DEN d   1       1.074   1.967  -1.362  0.00  0.00    -0.094 A 
ATOM      9  C9  DEN d   1       1.110   2.515  -0.090  0.00  0.00    -0.072 A 
ENDROOT
TORSDOF 0
ENDMDL
