MODEL 1
REMARK minimizedAffinity 5.19152927
REMARK minimizedRMSD -1
REMARK  0 active torsions:
REMARK  status: ('A' for Active; 'I' for Inactive)
ROOT
ATOM      1  C1  DEN d   1       0.429   3.301  -0.697  0.00  0.00     0.130 A 
ATOM      2  C2  DEN d   1       0.719   3.537  -2.109  0.00  0.00    -0.031 A 
ATOM      3  C3  DEN d   1       1.169   2.262  -2.701  0.00  0.00     0.027 A 
ATOM      4  C4  DEN d   1       1.442  -0.043  -1.577  0.00  0.00     0.027 A 
ATOM      5  C5  DEN d   1       1.328  -0.734  -0.391  0.00  0.00    -0.003 A 
ATOM      6  C6  DEN d   1       0.943  -0.126   0.775  0.00  0.00     0.001 A 
ATOM      7  C7  DEN d   1       0.614   1.204   0.769  0.00  0.00     0.017 A 
ATOM      8  C8  DEN d   1       0.733   1.909  -0.421  0.00  0.00    -0.094 A 
ATOM      9  C9  DEN d   1       1.112   1.273  -1.591  0.00  0.00    -0.072 A 
ENDROOT
TORSDOF 0
ENDMDL
