MODEL 1
REMARK minimizedAffinity -2.32342744
REMARK minimizedRMSD -1
REMARK  0 active torsions:
REMARK  status: ('A' for Active; 'I' for Inactive)
ROOT
ATOM      1  C1  DEN d   1       1.252   0.409   2.246  0.00  0.00     0.130 A 
ATOM      2  C2  DEN d   1       1.424   1.719   2.868  0.00  0.00    -0.031 A 
ATOM      3  C3  DEN d   1       1.330   2.743   1.809  0.00  0.00     0.027 A 
ATOM      4  C4  DEN d   1       0.930   2.431  -0.719  0.00  0.00     0.027 A 
ATOM      5  C5  DEN d   1       0.736   1.504  -1.719  0.00  0.00    -0.003 A 
ATOM      6  C6  DEN d   1       0.734   0.156  -1.475  0.00  0.00     0.001 A 
ATOM      7  C7  DEN d   1       0.886  -0.301  -0.192  0.00  0.00     0.017 A 
ATOM      8  C8  DEN d   1       1.089   0.627   0.820  0.00  0.00    -0.094 A 
ATOM      9  C9  DEN d   1       1.075   1.986   0.554  0.00  0.00    -0.072 A 
ENDROOT
TORSDOF 0
ENDMDL
