MODEL 1
REMARK minimizedAffinity 2.91019559
REMARK minimizedRMSD -1
REMARK  0 active torsions:
REMARK  status: ('A' for Active; 'I' for Inactive)
ROOT
ATOM      1  C1  DEN d   1       0.634   1.686  -2.308  0.00  0.00     0.130 A 
ATOM      2  C2  DEN d   1       0.699   2.583  -1.157  0.00  0.00    -0.031 A 
ATOM      3  C3  DEN d   1       1.185   1.806   0.000  0.00  0.00     0.027 A 
ATOM      4  C4  DEN d   1       1.845  -0.685   0.121  0.00  0.00     0.027 A 
ATOM      5  C5  DEN d   1       1.946  -1.855  -0.598  0.00  0.00    -0.003 A 
ATOM      6  C6  DEN d   1       1.587  -1.935  -1.918  0.00  0.00     0.001 A 
ATOM      7  C7  DEN d   1       1.153  -0.813  -2.572  0.00  0.00     0.017 A 
ATOM      8  C8  DEN d   1       1.042   0.369  -1.852  0.00  0.00    -0.094 A 
ATOM      9  C9  DEN d   1       1.421   0.433  -0.522  0.00  0.00    -0.072 A 
ENDROOT
TORSDOF 0
ENDMDL
