MODEL 1
REMARK minimizedAffinity 3.7664237
REMARK minimizedRMSD -1
REMARK  0 active torsions:
REMARK  status: ('A' for Active; 'I' for Inactive)
ROOT
ATOM      1  C1  DEN d   1      -0.308  -4.071   2.565  0.00  0.00     0.130 A 
ATOM      2  C2  DEN d   1      -1.652  -4.642   2.556  0.00  0.00    -0.031 A 
ATOM      3  C3  DEN d   1      -2.168  -4.573   1.174  0.00  0.00     0.027 A 
ATOM      4  C4  DEN d   1      -1.020  -3.648  -0.943  0.00  0.00     0.027 A 
ATOM      5  C5  DEN d   1       0.120  -3.048  -1.430  0.00  0.00    -0.003 A 
ATOM      6  C6  DEN d   1       1.175  -2.719  -0.621  0.00  0.00     0.001 A 
ATOM      7  C7  DEN d   1       1.130  -3.029   0.713  0.00  0.00     0.017 A 
ATOM      8  C8  DEN d   1      -0.019  -3.627   1.213  0.00  0.00    -0.094 A 
ATOM      9  C9  DEN d   1      -1.070  -3.963   0.376  0.00  0.00    -0.072 A 
ENDROOT
TORSDOF 0
ENDMDL
