MODEL 1
REMARK minimizedAffinity 4.90195465
REMARK minimizedRMSD -1
REMARK  0 active torsions:
REMARK  status: ('A' for Active; 'I' for Inactive)
ROOT
ATOM      1  C1  DEN d   1       1.948   0.792   2.102  0.00  0.00     0.130 A 
ATOM      2  C2  DEN d   1       1.753   2.239   2.105  0.00  0.00    -0.031 A 
ATOM      3  C3  DEN d   1       1.092   2.614   0.838  0.00  0.00     0.027 A 
ATOM      4  C4  DEN d   1       0.352   1.100  -1.115  0.00  0.00     0.027 A 
ATOM      5  C5  DEN d   1       0.317  -0.196  -1.579  0.00  0.00    -0.003 A 
ATOM      6  C6  DEN d   1       0.849  -1.241  -0.870  0.00  0.00     0.001 A 
ATOM      7  C7  DEN d   1       1.399  -1.013   0.363  0.00  0.00     0.017 A 
ATOM      8  C8  DEN d   1       1.445   0.292   0.835  0.00  0.00    -0.094 A 
ATOM      9  C9  DEN d   1       0.891   1.333   0.109  0.00  0.00    -0.072 A 
ENDROOT
TORSDOF 0
ENDMDL
