MODEL 1
REMARK minimizedAffinity -4.02444315
REMARK minimizedRMSD -1
REMARK  0 active torsions:
REMARK  status: ('A' for Active; 'I' for Inactive)
ROOT
ATOM      1  C1  DEN d   1       1.305   3.104  -1.771  0.00  0.00     0.130 A 
ATOM      2  C2  DEN d   1       1.495   4.195  -0.819  0.00  0.00    -0.031 A 
ATOM      3  C3  DEN d   1       1.336   3.645   0.542  0.00  0.00     0.027 A 
ATOM      4  C4  DEN d   1       0.823   1.222   1.264  0.00  0.00     0.027 A 
ATOM      5  C5  DEN d   1       0.568  -0.054   0.811  0.00  0.00    -0.003 A 
ATOM      6  C6  DEN d   1       0.507  -0.357  -0.523  0.00  0.00     0.001 A 
ATOM      7  C7  DEN d   1       0.749   0.620  -1.453  0.00  0.00     0.017 A 
ATOM      8  C8  DEN d   1       1.000   1.910  -1.004  0.00  0.00    -0.094 A 
ATOM      9  C9  DEN d   1       1.069   2.194   0.349  0.00  0.00    -0.072 A 
ENDROOT
TORSDOF 0
ENDMDL
