MODEL 1
REMARK minimizedAffinity 3.52705622
REMARK minimizedRMSD -1
REMARK  0 active torsions:
REMARK  status: ('A' for Active; 'I' for Inactive)
ROOT
ATOM      1  C1  DEN d   1       2.510   1.039   2.417  0.00  0.00     0.130 A 
ATOM      2  C2  DEN d   1       2.331   2.462   2.689  0.00  0.00    -0.031 A 
ATOM      3  C3  DEN d   1       1.563   3.048   1.571  0.00  0.00     0.027 A 
ATOM      4  C4  DEN d   1       0.637   1.894  -0.541  0.00  0.00     0.027 A 
ATOM      5  C5  DEN d   1       0.547   0.698  -1.219  0.00  0.00    -0.003 A 
ATOM      6  C6  DEN d   1       1.129  -0.451  -0.753  0.00  0.00     0.001 A 
ATOM      7  C7  DEN d   1       1.789  -0.439   0.447  0.00  0.00     0.017 A 
ATOM      8  C8  DEN d   1       1.891   0.764   1.132  0.00  0.00    -0.094 A 
ATOM      9  C9  DEN d   1       1.285   1.913   0.651  0.00  0.00    -0.072 A 
ENDROOT
TORSDOF 0
ENDMDL
