MODEL 1
REMARK minimizedAffinity 11.0058069
REMARK minimizedRMSD -1
REMARK  0 active torsions:
REMARK  status: ('A' for Active; 'I' for Inactive)
ROOT
ATOM      1  C1  DEN d   1       1.254   4.806   0.207  0.00  0.00     0.130 A 
ATOM      2  C2  DEN d   1       1.717   5.991  -0.510  0.00  0.00    -0.031 A 
ATOM      3  C3  DEN d   1       1.838   5.642  -1.940  0.00  0.00     0.027 A 
ATOM      4  C4  DEN d   1       1.351   3.395  -3.108  0.00  0.00     0.027 A 
ATOM      5  C5  DEN d   1       0.946   2.093  -2.913  0.00  0.00    -0.003 A 
ATOM      6  C6  DEN d   1       0.651   1.598  -1.671  0.00  0.00     0.001 A 
ATOM      7  C7  DEN d   1       0.713   2.424  -0.579  0.00  0.00     0.017 A 
ATOM      8  C8  DEN d   1       1.127   3.736  -0.767  0.00  0.00    -0.094 A 
ATOM      9  C9  DEN d   1       1.409   4.221  -2.033  0.00  0.00    -0.072 A 
ENDROOT
TORSDOF 0
ENDMDL
