MODEL 1
REMARK minimizedAffinity 8.54234123
REMARK minimizedRMSD -1
REMARK  3 active torsions:
REMARK  status: ('A' for Active; 'I' for Inactive)
REMARK    1  A    between atoms: C3'_2  and  C2'_3 
REMARK    2  A    between atoms: C2'_3  and  C1'_4 
REMARK    3  A    between atoms: C1'_4  and  C1_5 
ROOT
ATOM      1  C1  N4B d   1      -3.464   0.075  -2.860  0.00  0.00    -0.075 A 
ATOM      2  C2  N4B d   1      -4.337  -0.844  -2.238  0.00  0.00     0.002 A 
ATOM      3  C3  N4B d   1      -5.598  -0.448  -1.865  0.00  0.00     0.002 A 
ATOM      4  C4  N4B d   1      -6.000   0.861  -2.087  0.00  0.00    -0.004 A 
ATOM      5  C5  N4B d   1      -5.159   1.735  -2.712  0.00  0.00     0.002 A 
ATOM      6  C6  N4B d   1      -3.890   1.350  -3.095  0.00  0.00     0.002 A 
ENDROOT
BRANCH   1   7
ATOM      7  C1' N4B d   1      -2.045  -0.287  -3.207  0.00  0.00     0.057 C 
BRANCH   7   8
ATOM      8  C2' N4B d   1      -1.127   0.133  -2.063  0.00  0.00     0.009 C 
BRANCH   8   9
ATOM      9  C3' N4B d   1      -1.857   0.969  -1.026  0.00  0.00     0.004 C 
ATOM     10  C4' N4B d   1      -1.408   0.678   0.375  0.00  0.00     0.003 C 
ENDBRANCH   8   9
ENDBRANCH   7   8
ENDBRANCH   1   7
TORSDOF 3
ENDMDL
