MODEL 1
REMARK minimizedAffinity 0.287721634
REMARK minimizedRMSD -1
REMARK  3 active torsions:
REMARK  status: ('A' for Active; 'I' for Inactive)
REMARK    1  A    between atoms: C3'_2  and  C2'_3 
REMARK    2  A    between atoms: C2'_3  and  C1'_4 
REMARK    3  A    between atoms: C1'_4  and  C1_5 
ROOT
ATOM      1  C1  N4B d   1       1.756  -2.463   3.494  0.00  0.00    -0.075 A 
ATOM      2  C2  N4B d   1       0.872  -3.063   4.418  0.00  0.00     0.002 A 
ATOM      3  C3  N4B d   1       0.778  -4.431   4.489  0.00  0.00     0.002 A 
ATOM      4  C4  N4B d   1       1.541  -5.216   3.637  0.00  0.00    -0.004 A 
ATOM      5  C5  N4B d   1       2.411  -4.630   2.765  0.00  0.00     0.002 A 
ATOM      6  C6  N4B d   1       2.519  -3.256   2.686  0.00  0.00     0.002 A 
ENDROOT
BRANCH   1   7
ATOM      7  C1' N4B d   1       1.830  -0.971   3.320  0.00  0.00     0.057 C 
BRANCH   7   8
ATOM      8  C2' N4B d   1       2.649  -0.652   2.073  0.00  0.00     0.009 C 
BRANCH   8   9
ATOM      9  C3' N4B d   1       2.649   0.834   1.758  0.00  0.00     0.004 C 
ATOM     10  C4' N4B d   1       3.490   1.174   0.563  0.00  0.00     0.003 C 
ENDBRANCH   8   9
ENDBRANCH   7   8
ENDBRANCH   1   7
TORSDOF 3
ENDMDL
