MODEL 1
REMARK minimizedAffinity 11.1689672
REMARK minimizedRMSD -1
REMARK  3 active torsions:
REMARK  status: ('A' for Active; 'I' for Inactive)
REMARK    1  A    between atoms: C3'_2  and  C2'_3 
REMARK    2  A    between atoms: C2'_3  and  C1'_4 
REMARK    3  A    between atoms: C1'_4  and  C1_5 
ROOT
ATOM      1  C1  N4B d   1       3.374  -3.509  -1.873  0.00  0.00    -0.075 A 
ATOM      2  C2  N4B d   1       4.137  -4.371  -2.691  0.00  0.00     0.002 A 
ATOM      3  C3  N4B d   1       4.505  -5.610  -2.227  0.00  0.00     0.002 A 
ATOM      4  C4  N4B d   1       4.138  -6.000  -0.947  0.00  0.00    -0.004 A 
ATOM      5  C5  N4B d   1       3.380  -5.171  -0.173  0.00  0.00     0.002 A 
ATOM      6  C6  N4B d   1       3.000  -3.925  -0.628  0.00  0.00     0.002 A 
ENDROOT
BRANCH   1   7
ATOM      7  C1' N4B d   1       3.022  -2.111  -2.304  0.00  0.00     0.057 C 
BRANCH   7   8
ATOM      8  C2' N4B d   1       4.283  -1.252  -2.296  0.00  0.00     0.009 C 
BRANCH   8   9
ATOM      9  C3' N4B d   1       4.403  -0.408  -3.554  0.00  0.00     0.004 C 
ATOM     10  C4' N4B d   1       5.786  -0.421  -4.132  0.00  0.00     0.003 C 
ENDBRANCH   8   9
ENDBRANCH   7   8
ENDBRANCH   1   7
TORSDOF 3
ENDMDL
