MODEL 1
REMARK minimizedAffinity 7.51499224
REMARK minimizedRMSD -1
REMARK  0 active torsions:
REMARK  status: ('A' for Active; 'I' for Inactive)
ROOT
ATOM      1  C   UNL d   1       1.064   2.709   1.803  0.00  0.00     0.023 A 
ATOM      2  C1  UNL d   1       1.663   1.554   1.298  0.00  0.00     0.003 A 
ATOM      3  C2  UNL d   1       1.123   0.919   0.178  0.00  0.00     0.048 A 
ATOM      4  C3  UNL d   1      -0.015   1.444  -0.433  0.00  0.00     0.023 A 
ATOM      5  C4  UNL d   1      -0.617   2.599   0.067  0.00  0.00     0.048 A 
ATOM      6  C5  UNL d   1      -0.074   3.231   1.188  0.00  0.00     0.003 A 
ATOM      7  I   UNL d   1      -0.820   0.500  -2.101  0.00  0.00    -0.146 I 
ENDROOT
TORSDOF 0
ENDMDL
