MODEL 1
REMARK minimizedAffinity 3.66790724
REMARK minimizedRMSD -1
REMARK  0 active torsions:
REMARK  status: ('A' for Active; 'I' for Inactive)
ROOT
ATOM      1  C   UNL d   1      -5.092   4.224  -4.654  0.00  0.00     0.023 A 
ATOM      2  C1  UNL d   1      -4.170   3.193  -4.837  0.00  0.00     0.003 A 
ATOM      3  C2  UNL d   1      -3.974   2.243  -3.832  0.00  0.00     0.048 A 
ATOM      4  C3  UNL d   1      -4.704   2.329  -2.647  0.00  0.00     0.023 A 
ATOM      5  C4  UNL d   1      -5.628   3.358  -2.460  0.00  0.00     0.048 A 
ATOM      6  C5  UNL d   1      -5.820   4.306  -3.467  0.00  0.00     0.003 A 
ATOM      7  I   UNL d   1      -4.414   0.917  -1.151  0.00  0.00    -0.146 I 
ENDROOT
TORSDOF 0
ENDMDL
