MODEL 1
REMARK minimizedAffinity 1.94805562
REMARK minimizedRMSD -1
REMARK  0 active torsions:
REMARK  status: ('A' for Active; 'I' for Inactive)
ROOT
ATOM      1  C   UNL d   1      -5.017   0.558   0.506  0.00  0.00     0.023 A 
ATOM      2  C1  UNL d   1      -4.237   0.212  -0.598  0.00  0.00     0.003 A 
ATOM      3  C2  UNL d   1      -2.870   0.494  -0.604  0.00  0.00     0.048 A 
ATOM      4  C3  UNL d   1      -2.288   1.122   0.496  0.00  0.00     0.023 A 
ATOM      5  C4  UNL d   1      -3.064   1.469   1.603  0.00  0.00     0.048 A 
ATOM      6  C5  UNL d   1      -4.431   1.186   1.605  0.00  0.00     0.003 A 
ATOM      7  I   UNL d   1      -0.253   1.543   0.489  0.00  0.00    -0.146 I 
ENDROOT
TORSDOF 0
ENDMDL
