MODEL 1
REMARK minimizedAffinity 15.0376434
REMARK minimizedRMSD -1
REMARK  0 active torsions:
REMARK  status: ('A' for Active; 'I' for Inactive)
ROOT
ATOM      1  C   UNL d   1       0.208   2.412   1.170  0.00  0.00     0.124 A 
ATOM      2  C1  UNL d   1       1.324   3.209   0.955  0.00  0.00     0.062 A 
ATOM      3  C2  UNL d   1       1.458   3.920  -0.234  0.00  0.00     0.162 A 
ATOM      4  C3  UNL d   1       0.472   3.839  -1.217  0.00  0.00    -0.034 A 
ATOM      5  C4  UNL d   1      -0.647   3.035  -0.994  0.00  0.00     0.162 A 
ATOM      6  C5  UNL d   1      -0.776   2.326   0.196  0.00  0.00     0.062 A 
ATOM      7  F   UNL d   1      -1.855   1.556   0.401  0.00  0.00    -0.097 F 
ATOM      8  F1  UNL d   1      -1.614   2.934  -1.919  0.00  0.00    -0.096 F 
ATOM      9  I   UNL d   1       0.668   4.901  -2.996  0.00  0.00    -0.060 I 
ATOM     10  F2  UNL d   1       2.547   4.683  -0.414  0.00  0.00    -0.096 F 
ATOM     11  F3  UNL d   1       2.277   3.293   1.895  0.00  0.00    -0.097 F 
ATOM     12  F4  UNL d   1       0.083   1.728   2.314  0.00  0.00    -0.092 F 
ENDROOT
TORSDOF 0
ENDMDL
