MODEL 1
REMARK minimizedAffinity 20.8453827
REMARK minimizedRMSD -1
REMARK  0 active torsions:
REMARK  status: ('A' for Active; 'I' for Inactive)
ROOT
ATOM      1  C   UNL d   1       0.664   2.770   0.756  0.00  0.00     0.124 A 
ATOM      2  C1  UNL d   1       1.748   3.617   0.566  0.00  0.00     0.062 A 
ATOM      3  C2  UNL d   1       1.868   4.345  -0.614  0.00  0.00     0.162 A 
ATOM      4  C3  UNL d   1       0.901   4.231  -1.614  0.00  0.00    -0.034 A 
ATOM      5  C4  UNL d   1      -0.185   3.376  -1.415  0.00  0.00     0.162 A 
ATOM      6  C5  UNL d   1      -0.300   2.651  -0.234  0.00  0.00     0.062 A 
ATOM      7  F   UNL d   1      -1.348   1.833  -0.052  0.00  0.00    -0.097 F 
ATOM      8  F1  UNL d   1      -1.132   3.243  -2.355  0.00  0.00    -0.096 F 
ATOM      9  I   UNL d   1       1.077   5.318  -3.379  0.00  0.00    -0.060 I 
ATOM     10  F2  UNL d   1       2.925   5.156  -0.771  0.00  0.00    -0.096 F 
ATOM     11  F3  UNL d   1       2.682   3.734   1.520  0.00  0.00    -0.097 F 
ATOM     12  F4  UNL d   1       0.552   2.070   1.892  0.00  0.00    -0.092 F 
ENDROOT
TORSDOF 0
ENDMDL
