MODEL 1
REMARK minimizedAffinity 15.7340927
REMARK minimizedRMSD -1
REMARK  0 active torsions:
REMARK  status: ('A' for Active; 'I' for Inactive)
ROOT
ATOM      1  C   UNL d   1      -0.806   3.060  -0.574  0.00  0.00     0.124 A 
ATOM      2  C1  UNL d   1       0.478   3.466  -0.911  0.00  0.00     0.062 A 
ATOM      3  C2  UNL d   1       1.525   3.295  -0.009  0.00  0.00     0.162 A 
ATOM      4  C3  UNL d   1       1.292   2.714   1.237  0.00  0.00    -0.034 A 
ATOM      5  C4  UNL d   1      -0.002   2.310   1.569  0.00  0.00     0.162 A 
ATOM      6  C5  UNL d   1      -1.045   2.482   0.665  0.00  0.00     0.062 A 
ATOM      7  F   UNL d   1      -2.285   2.089   0.991  0.00  0.00    -0.097 F 
ATOM      8  F1  UNL d   1      -0.261   1.748   2.759  0.00  0.00    -0.096 F 
ATOM      9  I   UNL d   1       2.855   2.458   2.588  0.00  0.00    -0.060 I 
ATOM     10  F2  UNL d   1       2.755   3.697  -0.361  0.00  0.00    -0.096 F 
ATOM     11  F3  UNL d   1       0.711   4.025  -2.107  0.00  0.00    -0.097 F 
ATOM     12  F4  UNL d   1      -1.812   3.226  -1.443  0.00  0.00    -0.092 F 
ENDROOT
TORSDOF 0
ENDMDL
