MODEL 1
REMARK minimizedAffinity 21.991251
REMARK minimizedRMSD -1
REMARK  0 active torsions:
REMARK  status: ('A' for Active; 'I' for Inactive)
ROOT
ATOM      1  C   UNL d   1       0.813   1.996  -1.323  0.00  0.00     0.124 A 
ATOM      2  C1  UNL d   1      -0.218   1.686  -0.447  0.00  0.00     0.062 A 
ATOM      3  C2  UNL d   1      -1.077   2.684   0.004  0.00  0.00     0.162 A 
ATOM      4  C3  UNL d   1      -0.911   4.002  -0.423  0.00  0.00    -0.034 A 
ATOM      5  C4  UNL d   1       0.128   4.306  -1.304  0.00  0.00     0.162 A 
ATOM      6  C5  UNL d   1       0.985   3.305  -1.751  0.00  0.00     0.062 A 
ATOM      7  F   UNL d   1       1.980   3.606  -2.598  0.00  0.00    -0.097 F 
ATOM      8  F1  UNL d   1       0.316   5.562  -1.735  0.00  0.00    -0.096 F 
ATOM      9  I   UNL d   1      -2.195   5.496   0.248  0.00  0.00    -0.060 I 
ATOM     10  F2  UNL d   1      -2.064   2.356   0.851  0.00  0.00    -0.096 F 
ATOM     11  F3  UNL d   1      -0.385   0.423  -0.031  0.00  0.00    -0.097 F 
ATOM     12  F4  UNL d   1       1.639   1.034  -1.754  0.00  0.00    -0.092 F 
ENDROOT
TORSDOF 0
ENDMDL
