MODEL 1
REMARK minimizedAffinity 20.7916336
REMARK minimizedRMSD -1
REMARK  0 active torsions:
REMARK  status: ('A' for Active; 'I' for Inactive)
ROOT
ATOM      1  C   UNL d   1       1.083   4.139  -0.573  0.00  0.00     0.124 A 
ATOM      2  C1  UNL d   1       0.662   5.074  -1.508  0.00  0.00     0.062 A 
ATOM      3  C2  UNL d   1      -0.650   5.058  -1.973  0.00  0.00     0.162 A 
ATOM      4  C3  UNL d   1      -1.552   4.103  -1.503  0.00  0.00    -0.034 A 
ATOM      5  C4  UNL d   1      -1.121   3.165  -0.563  0.00  0.00     0.162 A 
ATOM      6  C5  UNL d   1       0.191   3.185  -0.101  0.00  0.00     0.062 A 
ATOM      7  F   UNL d   1       0.596   2.281   0.802  0.00  0.00    -0.097 F 
ATOM      8  F1  UNL d   1      -1.962   2.233  -0.090  0.00  0.00    -0.096 F 
ATOM      9  I   UNL d   1      -3.514   4.076  -2.195  0.00  0.00    -0.060 I 
ATOM     10  F2  UNL d   1      -1.029   5.974  -2.876  0.00  0.00    -0.096 F 
ATOM     11  F3  UNL d   1       1.521   5.996  -1.965  0.00  0.00    -0.097 F 
ATOM     12  F4  UNL d   1       2.346   4.156  -0.128  0.00  0.00    -0.092 F 
ENDROOT
TORSDOF 0
ENDMDL
