MODEL 1
REMARK minimizedAffinity 21.5146885
REMARK minimizedRMSD -1
REMARK  0 active torsions:
REMARK  status: ('A' for Active; 'I' for Inactive)
ROOT
ATOM      1  C   UNL d   1      -0.780   2.452  -0.315  0.00  0.00     0.124 A 
ATOM      2  C1  UNL d   1      -0.578   2.546   1.055  0.00  0.00     0.062 A 
ATOM      3  C2  UNL d   1       0.393   1.765   1.675  0.00  0.00     0.162 A 
ATOM      4  C3  UNL d   1       1.172   0.884   0.924  0.00  0.00    -0.034 A 
ATOM      5  C4  UNL d   1       0.962   0.794  -0.453  0.00  0.00     0.162 A 
ATOM      6  C5  UNL d   1      -0.010   1.576  -1.067  0.00  0.00     0.062 A 
ATOM      7  F   UNL d   1      -0.204   1.484  -2.391  0.00  0.00    -0.097 F 
ATOM      8  F1  UNL d   1       1.693  -0.043  -1.204  0.00  0.00    -0.096 F 
ATOM      9  I   UNL d   1       2.626  -0.285   1.847  0.00  0.00    -0.060 I 
ATOM     10  F2  UNL d   1       0.567   1.877   3.000  0.00  0.00    -0.096 F 
ATOM     11  F3  UNL d   1      -1.322   3.390   1.784  0.00  0.00    -0.097 F 
ATOM     12  F4  UNL d   1      -1.717   3.203  -0.908  0.00  0.00    -0.092 F 
ENDROOT
TORSDOF 0
ENDMDL
