MODEL 1
REMARK minimizedAffinity 23.0792446
REMARK minimizedRMSD -1
REMARK  0 active torsions:
REMARK  status: ('A' for Active; 'I' for Inactive)
ROOT
ATOM      1  C   UNL d   1      -0.333   2.063   0.844  0.00  0.00     0.124 A 
ATOM      2  C1  UNL d   1      -0.577   2.848  -0.275  0.00  0.00     0.062 A 
ATOM      3  C2  UNL d   1      -1.493   3.894  -0.209  0.00  0.00     0.162 A 
ATOM      4  C3  UNL d   1      -2.171   4.162   0.980  0.00  0.00    -0.034 A 
ATOM      5  C4  UNL d   1      -1.920   3.368   2.101  0.00  0.00     0.162 A 
ATOM      6  C5  UNL d   1      -1.004   2.324   2.030  0.00  0.00     0.062 A 
ATOM      7  F   UNL d   1      -0.769   1.566   3.111  0.00  0.00    -0.097 F 
ATOM      8  F1  UNL d   1      -2.554   3.598   3.260  0.00  0.00    -0.096 F 
ATOM      9  I   UNL d   1      -3.541   5.725   1.083  0.00  0.00    -0.060 I 
ATOM     10  F2  UNL d   1      -1.710   4.636  -1.305  0.00  0.00    -0.096 F 
ATOM     11  F3  UNL d   1       0.070   2.598  -1.422  0.00  0.00    -0.097 F 
ATOM     12  F4  UNL d   1       0.549   1.057   0.777  0.00  0.00    -0.092 F 
ENDROOT
TORSDOF 0
ENDMDL
