MODEL 1
REMARK minimizedAffinity 25.5458698
REMARK minimizedRMSD -1
REMARK  0 active torsions:
REMARK  status: ('A' for Active; 'I' for Inactive)
ROOT
ATOM      1  C   UNL d   1      -0.646   3.192  -1.591  0.00  0.00     0.124 A 
ATOM      2  C1  UNL d   1      -1.584   4.178  -1.863  0.00  0.00     0.062 A 
ATOM      3  C2  UNL d   1      -2.167   4.897  -0.824  0.00  0.00     0.162 A 
ATOM      4  C3  UNL d   1      -1.813   4.633   0.499  0.00  0.00    -0.034 A 
ATOM      5  C4  UNL d   1      -0.870   3.639   0.766  0.00  0.00     0.162 A 
ATOM      6  C5  UNL d   1      -0.290   2.923  -0.277  0.00  0.00     0.062 A 
ATOM      7  F   UNL d   1       0.615   1.970  -0.011  0.00  0.00    -0.097 F 
ATOM      8  F1  UNL d   1      -0.506   3.359   2.027  0.00  0.00    -0.096 F 
ATOM      9  I   UNL d   1      -2.682   5.705   2.057  0.00  0.00    -0.060 I 
ATOM     10  F2  UNL d   1      -3.070   5.845  -1.117  0.00  0.00    -0.096 F 
ATOM     11  F3  UNL d   1      -1.931   4.440  -3.132  0.00  0.00    -0.097 F 
ATOM     12  F4  UNL d   1      -0.088   2.501  -2.593  0.00  0.00    -0.092 F 
ENDROOT
TORSDOF 0
ENDMDL
