MODEL 1
REMARK minimizedAffinity 14.0991116
REMARK minimizedRMSD -1
REMARK  0 active torsions:
REMARK  status: ('A' for Active; 'I' for Inactive)
ROOT
ATOM      1  C   UNL d   1       0.149   1.126   3.052  0.00  0.00     0.124 A 
ATOM      2  C1  UNL d   1       1.276   0.837   2.296  0.00  0.00     0.062 A 
ATOM      3  C2  UNL d   1       1.376   1.295   0.986  0.00  0.00     0.162 A 
ATOM      4  C3  UNL d   1       0.346   2.048   0.423  0.00  0.00    -0.034 A 
ATOM      5  C4  UNL d   1      -0.785   2.334   1.189  0.00  0.00     0.162 A 
ATOM      6  C5  UNL d   1      -0.880   1.874   2.499  0.00  0.00     0.062 A 
ATOM      7  F   UNL d   1      -1.970   2.154   3.228  0.00  0.00    -0.097 F 
ATOM      8  F1  UNL d   1      -1.794   3.056   0.680  0.00  0.00    -0.096 F 
ATOM      9  I   UNL d   1       0.492   2.736  -1.536  0.00  0.00    -0.060 I 
ATOM     10  F2  UNL d   1       2.477   1.001   0.278  0.00  0.00    -0.096 F 
ATOM     11  F3  UNL d   1       2.272   0.113   2.829  0.00  0.00    -0.097 F 
ATOM     12  F4  UNL d   1       0.055   0.683   4.313  0.00  0.00    -0.092 F 
ENDROOT
TORSDOF 0
ENDMDL
