MODEL 1
REMARK minimizedAffinity 12.0918541
REMARK minimizedRMSD -1
REMARK  0 active torsions:
REMARK  status: ('A' for Active; 'I' for Inactive)
ROOT
ATOM      1  C   UNL d   1       0.426   2.074  -0.551  0.00  0.00     0.124 A 
ATOM      2  C1  UNL d   1      -0.786   1.476  -0.867  0.00  0.00     0.062 A 
ATOM      3  C2  UNL d   1      -1.588   2.009  -1.872  0.00  0.00     0.162 A 
ATOM      4  C3  UNL d   1      -1.180   3.145  -2.570  0.00  0.00    -0.034 A 
ATOM      5  C4  UNL d   1       0.040   3.742  -2.246  0.00  0.00     0.162 A 
ATOM      6  C5  UNL d   1       0.838   3.206  -1.241  0.00  0.00     0.062 A 
ATOM      7  F   UNL d   1       2.008   3.785  -0.937  0.00  0.00    -0.097 F 
ATOM      8  F1  UNL d   1       0.462   4.836  -2.897  0.00  0.00    -0.096 F 
ATOM      9  I   UNL d   1      -2.376   3.944  -4.074  0.00  0.00    -0.060 I 
ATOM     10  F2  UNL d   1      -2.754   1.410  -2.157  0.00  0.00    -0.096 F 
ATOM     11  F3  UNL d   1      -1.187   0.383  -0.202  0.00  0.00    -0.097 F 
ATOM     12  F4  UNL d   1       1.195   1.560   0.417  0.00  0.00    -0.092 F 
ENDROOT
TORSDOF 0
ENDMDL
