MODEL 1
REMARK minimizedAffinity 19.9702435
REMARK minimizedRMSD -1
REMARK  0 active torsions:
REMARK  status: ('A' for Active; 'I' for Inactive)
ROOT
ATOM      1  C   UNL d   1       2.188   3.591   0.306  0.00  0.00     0.124 A 
ATOM      2  C1  UNL d   1       1.085   3.662  -0.533  0.00  0.00     0.062 A 
ATOM      3  C2  UNL d   1      -0.107   3.037  -0.176  0.00  0.00     0.162 A 
ATOM      4  C3  UNL d   1      -0.202   2.336   1.026  0.00  0.00    -0.034 A 
ATOM      5  C4  UNL d   1       0.913   2.268   1.864  0.00  0.00     0.162 A 
ATOM      6  C5  UNL d   1       2.102   2.894   1.503  0.00  0.00     0.062 A 
ATOM      7  F   UNL d   1       3.167   2.824   2.314  0.00  0.00    -0.097 F 
ATOM      8  F1  UNL d   1       0.857   1.602   3.027  0.00  0.00    -0.096 F 
ATOM      9  I   UNL d   1      -1.981   1.400   1.563  0.00  0.00    -0.060 I 
ATOM     10  F2  UNL d   1      -1.158   3.122  -1.005  0.00  0.00    -0.096 F 
ATOM     11  F3  UNL d   1       1.166   4.334  -1.690  0.00  0.00    -0.097 F 
ATOM     12  F4  UNL d   1       3.334   4.192  -0.040  0.00  0.00    -0.092 F 
ENDROOT
TORSDOF 0
ENDMDL
