MODEL 1
REMARK minimizedAffinity 16.5734062
REMARK minimizedRMSD -1
REMARK  0 active torsions:
REMARK  status: ('A' for Active; 'I' for Inactive)
ROOT
ATOM      1  C   UNL d   1       0.622  -4.123  -1.977  0.00  0.00     0.124 A 
ATOM      2  C1  UNL d   1       1.496  -4.813  -1.149  0.00  0.00     0.062 A 
ATOM      3  C2  UNL d   1       2.679  -5.337  -1.662  0.00  0.00     0.162 A 
ATOM      4  C3  UNL d   1       2.996  -5.173  -3.010  0.00  0.00    -0.034 A 
ATOM      5  C4  UNL d   1       2.111  -4.478  -3.837  0.00  0.00     0.162 A 
ATOM      6  C5  UNL d   1       0.930  -3.956  -3.320  0.00  0.00     0.062 A 
ATOM      7  F   UNL d   1       0.086  -3.289  -4.122  0.00  0.00    -0.097 F 
ATOM      8  F1  UNL d   1       2.384  -4.301  -5.138  0.00  0.00    -0.096 F 
ATOM      9  I   UNL d   1       4.764  -5.955  -3.781  0.00  0.00    -0.060 I 
ATOM     10  F2  UNL d   1       3.505  -6.000  -0.839  0.00  0.00    -0.096 F 
ATOM     11  F3  UNL d   1       1.200  -4.976   0.148  0.00  0.00    -0.097 F 
ATOM     12  F4  UNL d   1      -0.516  -3.620  -1.482  0.00  0.00    -0.092 F 
ENDROOT
TORSDOF 0
ENDMDL
