MODEL 1
REMARK minimizedAffinity -4.77860546
REMARK minimizedRMSD -1
REMARK  1 active torsions:
REMARK  status: ('A' for Active; 'I' for Inactive)
REMARK    1  A    between atoms: C1_2  and  C2_3 
ROOT
ATOM      1  C2  UNL d   1      -0.027  -1.047   1.131  0.00  0.00    -0.076 A 
ATOM      2  C3  UNL d   1       1.049  -1.940   1.278  0.00  0.00     0.004 A 
ATOM      3  C4  UNL d   1       2.210  -1.795   0.520  0.00  0.00    -0.003 A 
ATOM      4  C5  UNL d   1       2.315  -0.754  -0.395  0.00  0.00     0.000 A 
ATOM      5  C6  UNL d   1       1.265   0.152  -0.541  0.00  0.00     0.000 A 
ATOM      6  C7  UNL d   1       0.094   0.030   0.227  0.00  0.00    -0.073 A 
ATOM      7  C8  UNL d   1      -1.010   1.031   0.024  0.00  0.00     0.078 C 
ENDROOT
BRANCH   1   8
ATOM      8  C1  UNL d   1      -1.272  -1.270   1.960  0.00  0.00     0.053 C 
ATOM      9  C   UNL d   1      -0.975  -1.957   3.284  0.00  0.00     0.018 C 
ENDBRANCH   1   8
TORSDOF 1
ENDMDL
