MODEL 1
REMARK minimizedAffinity -5.52977276
REMARK minimizedRMSD -1
REMARK  1 active torsions:
REMARK  status: ('A' for Active; 'I' for Inactive)
REMARK    1  A    between atoms: C1_2  and  C2_3 
ROOT
ATOM      1  C2  UNL d   1      -0.126  -0.281   0.632  0.00  0.00    -0.076 A 
ATOM      2  C3  UNL d   1      -0.798  -1.011   1.628  0.00  0.00     0.004 A 
ATOM      3  C4  UNL d   1      -0.212  -2.132   2.213  0.00  0.00    -0.003 A 
ATOM      4  C5  UNL d   1       1.055  -2.541   1.813  0.00  0.00     0.000 A 
ATOM      5  C6  UNL d   1       1.743  -1.818   0.838  0.00  0.00     0.000 A 
ATOM      6  C7  UNL d   1       1.173  -0.676   0.250  0.00  0.00    -0.073 A 
ATOM      7  C8  UNL d   1       1.958   0.061  -0.801  0.00  0.00     0.078 C 
ENDROOT
BRANCH   1   8
ATOM      8  C1  UNL d   1      -0.822   0.911   0.013  0.00  0.00     0.053 C 
ATOM      9  C   UNL d   1      -1.491   0.573  -1.310  0.00  0.00     0.018 C 
ENDBRANCH   1   8
TORSDOF 1
ENDMDL
