MODEL 1
REMARK minimizedAffinity -5.30115652
REMARK minimizedRMSD -1
REMARK  1 active torsions:
REMARK  status: ('A' for Active; 'I' for Inactive)
REMARK    1  A    between atoms: C1_2  and  C2_3 
ROOT
ATOM      1  C2  UNL d   1       0.272  -1.410   0.805  0.00  0.00    -0.076 A 
ATOM      2  C3  UNL d   1       0.534  -0.457  -0.195  0.00  0.00     0.004 A 
ATOM      3  C4  UNL d   1      -0.220   0.711  -0.289  0.00  0.00    -0.003 A 
ATOM      4  C5  UNL d   1      -1.249   0.946   0.616  0.00  0.00     0.000 A 
ATOM      5  C6  UNL d   1      -1.512   0.021   1.626  0.00  0.00     0.000 A 
ATOM      6  C7  UNL d   1      -0.750  -1.154   1.744  0.00  0.00    -0.073 A 
ATOM      7  C8  UNL d   1      -1.081  -2.121   2.848  0.00  0.00     0.078 C 
ENDROOT
BRANCH   1   8
ATOM      8  C1  UNL d   1       1.105  -2.671   0.841  0.00  0.00     0.053 C 
ATOM      9  C   UNL d   1       2.350  -2.522   1.700  0.00  0.00     0.018 C 
ENDBRANCH   1   8
TORSDOF 1
ENDMDL
