MODEL 1
REMARK minimizedAffinity -5.08492041
REMARK minimizedRMSD -1
REMARK  1 active torsions:
REMARK  status: ('A' for Active; 'I' for Inactive)
REMARK    1  A    between atoms: C1_2  and  C2_3 
ROOT
ATOM      1  C2  UNL d   1       0.040  -0.705   0.433  0.00  0.00    -0.076 A 
ATOM      2  C3  UNL d   1      -0.596  -1.585   1.326  0.00  0.00     0.004 A 
ATOM      3  C4  UNL d   1       0.132  -2.544   2.030  0.00  0.00    -0.003 A 
ATOM      4  C5  UNL d   1       1.508  -2.637   1.853  0.00  0.00     0.000 A 
ATOM      5  C6  UNL d   1       2.158  -1.761   0.984  0.00  0.00     0.000 A 
ATOM      6  C7  UNL d   1       1.442  -0.778   0.280  0.00  0.00    -0.073 A 
ATOM      7  C8  UNL d   1       2.193   0.137  -0.648  0.00  0.00     0.078 C 
ENDROOT
BRANCH   1   8
ATOM      8  C1  UNL d   1      -0.804   0.295  -0.322  0.00  0.00     0.053 C 
ATOM      9  C   UNL d   1      -1.194   1.492   0.532  0.00  0.00     0.018 C 
ENDBRANCH   1   8
TORSDOF 1
ENDMDL
