MODEL 1
REMARK minimizedAffinity -4.770432
REMARK minimizedRMSD -1
REMARK  1 active torsions:
REMARK  status: ('A' for Active; 'I' for Inactive)
REMARK    1  A    between atoms: C1_2  and  C2_3 
ROOT
ATOM      1  C2  UNL d   1      -0.385  -0.909   0.871  0.00  0.00    -0.076 A 
ATOM      2  C3  UNL d   1       0.829  -1.345   0.314  0.00  0.00     0.004 A 
ATOM      3  C4  UNL d   1       1.629  -2.275   0.975  0.00  0.00    -0.003 A 
ATOM      4  C5  UNL d   1       1.226  -2.786   2.204  0.00  0.00     0.000 A 
ATOM      5  C6  UNL d   1       0.016  -2.378   2.763  0.00  0.00     0.000 A 
ATOM      6  C7  UNL d   1      -0.810  -1.453   2.102  0.00  0.00    -0.073 A 
ATOM      7  C8  UNL d   1      -2.102  -1.044   2.754  0.00  0.00     0.078 C 
ENDROOT
BRANCH   1   8
ATOM      8  C1  UNL d   1      -1.197   0.123   0.121  0.00  0.00     0.053 C 
ATOM      9  C   UNL d   1      -0.326   1.110  -0.640  0.00  0.00     0.018 C 
ENDBRANCH   1   8
TORSDOF 1
ENDMDL
