MODEL 1
REMARK minimizedAffinity -2.74825001
REMARK minimizedRMSD -1
REMARK  1 active torsions:
REMARK  status: ('A' for Active; 'I' for Inactive)
REMARK    1  A    between atoms: C1_2  and  C2_3 
ROOT
ATOM      1  C2  UNL d   1       1.074  -0.712   0.733  0.00  0.00    -0.076 A 
ATOM      2  C3  UNL d   1      -0.270  -1.124   0.731  0.00  0.00     0.004 A 
ATOM      3  C4  UNL d   1      -0.725  -2.091   1.625  0.00  0.00    -0.003 A 
ATOM      4  C5  UNL d   1       0.156  -2.662   2.537  0.00  0.00     0.000 A 
ATOM      5  C6  UNL d   1       1.489  -2.253   2.565  0.00  0.00     0.000 A 
ATOM      6  C7  UNL d   1       1.960  -1.267   1.681  0.00  0.00    -0.073 A 
ATOM      7  C8  UNL d   1       3.409  -0.867   1.751  0.00  0.00     0.078 C 
ENDROOT
BRANCH   1   8
ATOM      8  C1  UNL d   1       1.516   0.322  -0.278  0.00  0.00     0.053 C 
ATOM      9  C   UNL d   1       0.401   1.286  -0.652  0.00  0.00     0.018 C 
ENDBRANCH   1   8
TORSDOF 1
ENDMDL
