MODEL 1
REMARK minimizedAffinity -5.37821054
REMARK minimizedRMSD -1
REMARK  1 active torsions:
REMARK  status: ('A' for Active; 'I' for Inactive)
REMARK    1  A    between atoms: C1_2  and  C2_3 
ROOT
ATOM      1  C2  UNL d   1       0.455  -0.957   0.318  0.00  0.00    -0.076 A 
ATOM      2  C3  UNL d   1       1.236  -2.115   0.480  0.00  0.00     0.004 A 
ATOM      3  C4  UNL d   1       1.037  -2.968   1.564  0.00  0.00    -0.003 A 
ATOM      4  C5  UNL d   1       0.053  -2.678   2.503  0.00  0.00     0.000 A 
ATOM      5  C6  UNL d   1      -0.743  -1.543   2.348  0.00  0.00     0.000 A 
ATOM      6  C7  UNL d   1      -0.566  -0.681   1.252  0.00  0.00    -0.073 A 
ATOM      7  C8  UNL d   1      -1.449   0.531   1.137  0.00  0.00     0.078 C 
ENDROOT
BRANCH   1   8
ATOM      8  C1  UNL d   1       0.735  -0.055  -0.863  0.00  0.00     0.053 C 
ATOM      9  C   UNL d   1       1.777   1.008  -0.550  0.00  0.00     0.018 C 
ENDBRANCH   1   8
TORSDOF 1
ENDMDL
