MODEL 1
REMARK minimizedAffinity -5.99319172
REMARK minimizedRMSD -1
REMARK  1 active torsions:
REMARK  status: ('A' for Active; 'I' for Inactive)
REMARK    1  A    between atoms: C1_2  and  C2_3 
ROOT
ATOM      1  C2  UNL d   1      -0.147  -0.678   1.000  0.00  0.00    -0.076 A 
ATOM      2  C3  UNL d   1       0.848  -0.991   0.059  0.00  0.00     0.004 A 
ATOM      3  C4  UNL d   1       1.658  -2.115   0.219  0.00  0.00    -0.003 A 
ATOM      4  C5  UNL d   1       1.485  -2.943   1.322  0.00  0.00     0.000 A 
ATOM      5  C6  UNL d   1       0.490  -2.657   2.256  0.00  0.00     0.000 A 
ATOM      6  C7  UNL d   1      -0.346  -1.538   2.102  0.00  0.00    -0.073 A 
ATOM      7  C8  UNL d   1      -1.398  -1.273   3.143  0.00  0.00     0.078 C 
ENDROOT
BRANCH   1   8
ATOM      8  C1  UNL d   1      -0.977   0.568   0.789  0.00  0.00     0.053 C 
ATOM      9  C   UNL d   1      -0.738   1.204  -0.572  0.00  0.00     0.018 C 
ENDBRANCH   1   8
TORSDOF 1
ENDMDL
