MODEL 1
REMARK minimizedAffinity -4.3350625
REMARK minimizedRMSD -1
REMARK  1 active torsions:
REMARK  status: ('A' for Active; 'I' for Inactive)
REMARK    1  A    between atoms: C1_2  and  C2_3 
ROOT
ATOM      1  C2  UNL d   1      -0.055  -0.584   0.270  0.00  0.00    -0.076 A 
ATOM      2  C3  UNL d   1      -0.682  -1.645   0.946  0.00  0.00     0.004 A 
ATOM      3  C4  UNL d   1       0.066  -2.604   1.627  0.00  0.00    -0.003 A 
ATOM      4  C5  UNL d   1       1.454  -2.516   1.644  0.00  0.00     0.000 A 
ATOM      5  C6  UNL d   1       2.092  -1.460   0.995  0.00  0.00     0.000 A 
ATOM      6  C7  UNL d   1       1.352  -0.476   0.317  0.00  0.00    -0.073 A 
ATOM      7  C8  UNL d   1       2.092   0.638  -0.372  0.00  0.00     0.078 C 
ENDROOT
BRANCH   1   8
ATOM      8  C1  UNL d   1      -0.917   0.411  -0.474  0.00  0.00     0.053 C 
ATOM      9  C   UNL d   1      -1.303   1.605   0.385  0.00  0.00     0.018 C 
ENDBRANCH   1   8
TORSDOF 1
ENDMDL
