MODEL 1
REMARK minimizedAffinity -6.46364927
REMARK minimizedRMSD -1
REMARK  1 active torsions:
REMARK  status: ('A' for Active; 'I' for Inactive)
REMARK    1  A    between atoms: C1_2  and  C2_3 
ROOT
ATOM      1  C2  UNL d   1       0.047  -0.652   0.831  0.00  0.00    -0.076 A 
ATOM      2  C3  UNL d   1       1.010  -0.865  -0.171  0.00  0.00     0.004 A 
ATOM      3  C4  UNL d   1       1.836  -1.987  -0.146  0.00  0.00    -0.003 A 
ATOM      4  C5  UNL d   1       1.712  -2.916   0.882  0.00  0.00     0.000 A 
ATOM      5  C6  UNL d   1       0.750  -2.730   1.874  0.00  0.00     0.000 A 
ATOM      6  C7  UNL d   1      -0.102  -1.612   1.854  0.00  0.00    -0.073 A 
ATOM      7  C8  UNL d   1      -1.117  -1.459   2.953  0.00  0.00     0.078 C 
ENDROOT
BRANCH   1   8
ATOM      8  C1  UNL d   1      -0.802   0.597   0.766  0.00  0.00     0.053 C 
ATOM      9  C   UNL d   1      -0.717   1.290  -0.585  0.00  0.00     0.018 C 
ENDBRANCH   1   8
TORSDOF 1
ENDMDL
