MODEL 1
REMARK minimizedAffinity -6.00495005
REMARK minimizedRMSD -1
REMARK  1 active torsions:
REMARK  status: ('A' for Active; 'I' for Inactive)
REMARK    1  A    between atoms: C1_2  and  C2_3 
ROOT
ATOM      1  C2  UNL d   1      -0.062  -0.623   0.946  0.00  0.00    -0.076 A 
ATOM      2  C3  UNL d   1       1.095  -0.967   0.225  0.00  0.00     0.004 A 
ATOM      3  C4  UNL d   1       1.905  -2.026   0.630  0.00  0.00    -0.003 A 
ATOM      4  C5  UNL d   1       1.571  -2.759   1.763  0.00  0.00     0.000 A 
ATOM      5  C6  UNL d   1       0.418  -2.443   2.481  0.00  0.00     0.000 A 
ATOM      6  C7  UNL d   1      -0.418  -1.389   2.077  0.00  0.00    -0.073 A 
ATOM      7  C8  UNL d   1      -1.646  -1.088   2.892  0.00  0.00     0.078 C 
ENDROOT
BRANCH   1   8
ATOM      8  C1  UNL d   1      -0.887   0.553   0.475  0.00  0.00     0.053 C 
ATOM      9  C   UNL d   1      -0.369   1.143  -0.828  0.00  0.00     0.018 C 
ENDBRANCH   1   8
TORSDOF 1
ENDMDL
