MODEL 1
REMARK minimizedAffinity -4.51499605
REMARK minimizedRMSD -1
REMARK  1 active torsions:
REMARK  status: ('A' for Active; 'I' for Inactive)
REMARK    1  A    between atoms: C1_2  and  C2_3 
ROOT
ATOM      1  C2  UNL d   1       0.081  -0.263   0.578  0.00  0.00    -0.076 A 
ATOM      2  C3  UNL d   1      -0.480  -1.075   1.580  0.00  0.00     0.004 A 
ATOM      3  C4  UNL d   1       0.120  -2.277   1.949  0.00  0.00    -0.003 A 
ATOM      4  C5  UNL d   1       1.292  -2.688   1.322  0.00  0.00     0.000 A 
ATOM      5  C6  UNL d   1       1.872  -1.887   0.339  0.00  0.00     0.000 A 
ATOM      6  C7  UNL d   1       1.288  -0.664  -0.033  0.00  0.00    -0.073 A 
ATOM      7  C8  UNL d   1       1.953   0.157  -1.104  0.00  0.00     0.078 C 
ENDROOT
BRANCH   1   8
ATOM      8  C1  UNL d   1      -0.629   1.017   0.202  0.00  0.00     0.053 C 
ATOM      9  C   UNL d   1      -1.185   0.981  -1.214  0.00  0.00     0.018 C 
ENDBRANCH   1   8
TORSDOF 1
ENDMDL
