MODEL 1
REMARK minimizedAffinity -6.25910902
REMARK minimizedRMSD -1
REMARK  1 active torsions:
REMARK  status: ('A' for Active; 'I' for Inactive)
REMARK    1  A    between atoms: C1_2  and  C2_3 
ROOT
ATOM      1  C2  UNL d   1       0.101  -0.157   0.778  0.00  0.00    -0.076 A 
ATOM      2  C3  UNL d   1      -0.571  -0.968   1.710  0.00  0.00     0.004 A 
ATOM      3  C4  UNL d   1      -0.050  -2.202   2.095  0.00  0.00    -0.003 A 
ATOM      4  C5  UNL d   1       1.152  -2.646   1.554  0.00  0.00     0.000 A 
ATOM      5  C6  UNL d   1       1.841  -1.847   0.642  0.00  0.00     0.000 A 
ATOM      6  C7  UNL d   1       1.338  -0.593   0.256  0.00  0.00    -0.073 A 
ATOM      7  C8  UNL d   1       2.119   0.225  -0.736  0.00  0.00     0.078 C 
ENDROOT
BRANCH   1   8
ATOM      8  C1  UNL d   1      -0.526   1.160   0.379  0.00  0.00     0.053 C 
ATOM      9  C   UNL d   1      -1.131   1.117  -1.015  0.00  0.00     0.018 C 
ENDBRANCH   1   8
TORSDOF 1
ENDMDL
