MODEL 1
REMARK minimizedAffinity -4.12975407
REMARK minimizedRMSD -1
REMARK  1 active torsions:
REMARK  status: ('A' for Active; 'I' for Inactive)
REMARK    1  A    between atoms: C1_2  and  C2_3 
ROOT
ATOM      1  C2  UNL d   1      -0.243  -1.076   0.867  0.00  0.00    -0.076 A 
ATOM      2  C3  UNL d   1       0.926  -1.471   0.193  0.00  0.00     0.004 A 
ATOM      3  C4  UNL d   1       1.786  -2.420   0.743  0.00  0.00    -0.003 A 
ATOM      4  C5  UNL d   1       1.490  -2.991   1.976  0.00  0.00     0.000 A 
ATOM      5  C6  UNL d   1       0.326  -2.624   2.650  0.00  0.00     0.000 A 
ATOM      6  C7  UNL d   1      -0.560  -1.681   2.102  0.00  0.00    -0.073 A 
ATOM      7  C8  UNL d   1      -1.798  -1.318   2.876  0.00  0.00     0.078 C 
ENDROOT
BRANCH   1   8
ATOM      8  C1  UNL d   1      -1.124  -0.023   0.234  0.00  0.00     0.053 C 
ATOM      9  C   UNL d   1      -0.321   1.088  -0.426  0.00  0.00     0.018 C 
ENDBRANCH   1   8
TORSDOF 1
ENDMDL
