MODEL 1
REMARK minimizedAffinity 14.7882414
REMARK minimizedRMSD -1
REMARK  0 active torsions:
REMARK  status: ('A' for Active; 'I' for Inactive)
ROOT
ATOM      1  C1  BNZ d   1       0.354  -2.388  -2.414  0.00  0.00     0.000 A 
ATOM      2  C2  BNZ d   1       1.482  -1.659  -2.684  0.00  0.00     0.000 A 
ATOM      3  C3  BNZ d   1       2.197  -1.076  -1.675  0.00  0.00     0.000 A 
ATOM      4  C4  BNZ d   1       1.762  -1.188  -0.404  0.00  0.00     0.000 A 
ATOM      5  C5  BNZ d   1       0.622  -1.912  -0.116  0.00  0.00     0.000 A 
ATOM      6  C6  BNZ d   1      -0.074  -2.530  -1.130  0.00  0.00     0.000 A 
ENDROOT
TORSDOF 0
ENDMDL
