MODEL 1
REMARK minimizedAffinity 9.54305172
REMARK minimizedRMSD -1
REMARK  0 active torsions:
REMARK  status: ('A' for Active; 'I' for Inactive)
ROOT
ATOM      1  C1  BNZ d   1      -3.763  -0.433   4.818  0.00  0.00     0.000 A 
ATOM      2  C2  BNZ d   1      -3.973  -0.324   3.469  0.00  0.00     0.000 A 
ATOM      3  C3  BNZ d   1      -3.674   0.833   2.806  0.00  0.00     0.000 A 
ATOM      4  C4  BNZ d   1      -3.204   1.891   3.497  0.00  0.00     0.000 A 
ATOM      5  C5  BNZ d   1      -2.996   1.800   4.858  0.00  0.00     0.000 A 
ATOM      6  C6  BNZ d   1      -3.261   0.621   5.517  0.00  0.00     0.000 A 
ENDROOT
TORSDOF 0
ENDMDL
