MODEL 1
REMARK minimizedAffinity 8.57672691
REMARK minimizedRMSD -1
REMARK  0 active torsions:
REMARK  status: ('A' for Active; 'I' for Inactive)
ROOT
ATOM      1  C1  BNZ d   1       0.707  -2.488  -1.224  0.00  0.00     0.000 A 
ATOM      2  C2  BNZ d   1       0.748  -1.176  -1.614  0.00  0.00     0.000 A 
ATOM      3  C3  BNZ d   1       1.921  -0.474  -1.587  0.00  0.00     0.000 A 
ATOM      4  C4  BNZ d   1       3.041  -1.072  -1.132  0.00  0.00     0.000 A 
ATOM      5  C5  BNZ d   1       3.013  -2.392  -0.726  0.00  0.00     0.000 A 
ATOM      6  C6  BNZ d   1       1.839  -3.106  -0.792  0.00  0.00     0.000 A 
ENDROOT
TORSDOF 0
ENDMDL
