MODEL 1
REMARK minimizedAffinity 5.42885494
REMARK minimizedRMSD -1
REMARK  0 active torsions:
REMARK  status: ('A' for Active; 'I' for Inactive)
ROOT
ATOM      1  C1  BNZ d   1       0.865  -2.942  -0.310  0.00  0.00     0.000 A 
ATOM      2  C2  BNZ d   1       1.724  -1.876  -0.280  0.00  0.00     0.000 A 
ATOM      3  C3  BNZ d   1       1.719  -0.944  -1.280  0.00  0.00     0.000 A 
ATOM      4  C4  BNZ d   1       0.884  -1.101  -2.327  0.00  0.00     0.000 A 
ATOM      5  C5  BNZ d   1       0.018  -2.175  -2.377  0.00  0.00     0.000 A 
ATOM      6  C6  BNZ d   1      -0.001  -3.090  -1.349  0.00  0.00     0.000 A 
ENDROOT
TORSDOF 0
ENDMDL
