MODEL 1
REMARK minimizedAffinity 10.6877975
REMARK minimizedRMSD -1
REMARK  0 active torsions:
REMARK  status: ('A' for Active; 'I' for Inactive)
ROOT
ATOM      1  C1  BNZ d   1      -5.241   4.874  -5.998  0.00  0.00     0.000 A 
ATOM      2  C2  BNZ d   1      -5.324   3.507  -5.999  0.00  0.00     0.000 A 
ATOM      3  C3  BNZ d   1      -4.195   2.737  -5.975  0.00  0.00     0.000 A 
ATOM      4  C4  BNZ d   1      -2.985   3.333  -5.989  0.00  0.00     0.000 A 
ATOM      5  C5  BNZ d   1      -2.885   4.710  -5.997  0.00  0.00     0.000 A 
ATOM      6  C6  BNZ d   1      -4.024   5.482  -5.982  0.00  0.00     0.000 A 
ENDROOT
TORSDOF 0
ENDMDL
