MODEL 1
REMARK minimizedAffinity 9.12830925
REMARK minimizedRMSD -1
REMARK  0 active torsions:
REMARK  status: ('A' for Active; 'I' for Inactive)
ROOT
ATOM      1  C1  BNZ d   1      -2.234  -1.198  -2.471  0.00  0.00     0.000 A 
ATOM      2  C2  BNZ d   1      -3.005  -2.329  -2.461  0.00  0.00     0.000 A 
ATOM      3  C3  BNZ d   1      -2.465  -3.542  -2.136  0.00  0.00     0.000 A 
ATOM      4  C4  BNZ d   1      -1.148  -3.628  -1.859  0.00  0.00     0.000 A 
ATOM      5  C5  BNZ d   1      -0.355  -2.498  -1.873  0.00  0.00     0.000 A 
ATOM      6  C6  BNZ d   1      -0.910  -1.273  -2.164  0.00  0.00     0.000 A 
ENDROOT
TORSDOF 0
ENDMDL
