MODEL 1
REMARK minimizedAffinity 7.82781839
REMARK minimizedRMSD -1
REMARK  0 active torsions:
REMARK  status: ('A' for Active; 'I' for Inactive)
ROOT
ATOM      1  C1  BNZ d   1       3.882  -3.030  -1.080  0.00  0.00     0.000 A 
ATOM      2  C2  BNZ d   1       3.874  -1.679  -0.853  0.00  0.00     0.000 A 
ATOM      3  C3  BNZ d   1       2.767  -0.928  -1.135  0.00  0.00     0.000 A 
ATOM      4  C4  BNZ d   1       1.686  -1.521  -1.680  0.00  0.00     0.000 A 
ATOM      5  C5  BNZ d   1       1.682  -2.880  -1.924  0.00  0.00     0.000 A 
ATOM      6  C6  BNZ d   1       2.783  -3.639  -1.603  0.00  0.00     0.000 A 
ENDROOT
TORSDOF 0
ENDMDL
