MODEL 1
REMARK minimizedAffinity 9.48939991
REMARK minimizedRMSD -1
REMARK  0 active torsions:
REMARK  status: ('A' for Active; 'I' for Inactive)
ROOT
ATOM      1  C1  BNZ d   1       4.712  -0.707  -0.027  0.00  0.00     0.000 A 
ATOM      2  C2  BNZ d   1       3.494  -0.691  -0.653  0.00  0.00     0.000 A 
ATOM      3  C3  BNZ d   1       3.042   0.439  -1.275  0.00  0.00     0.000 A 
ATOM      4  C4  BNZ d   1       3.788   1.562  -1.235  0.00  0.00     0.000 A 
ATOM      5  C5  BNZ d   1       5.014   1.564  -0.599  0.00  0.00     0.000 A 
ATOM      6  C6  BNZ d   1       5.483   0.413  -0.008  0.00  0.00     0.000 A 
ENDROOT
TORSDOF 0
ENDMDL
