MODEL 1
REMARK minimizedAffinity 6.70912743
REMARK minimizedRMSD -1
REMARK  0 active torsions:
REMARK  status: ('A' for Active; 'I' for Inactive)
ROOT
ATOM      1  C1  BNZ d   1       3.663  -2.899  -1.203  0.00  0.00     0.000 A 
ATOM      2  C2  BNZ d   1       3.517  -1.580  -1.543  0.00  0.00     0.000 A 
ATOM      3  C3  BNZ d   1       2.292  -1.077  -1.883  0.00  0.00     0.000 A 
ATOM      4  C4  BNZ d   1       1.224  -1.900  -1.920  0.00  0.00     0.000 A 
ATOM      5  C5  BNZ d   1       1.358  -3.234  -1.588  0.00  0.00     0.000 A 
ATOM      6  C6  BNZ d   1       2.585  -3.728  -1.210  0.00  0.00     0.000 A 
ENDROOT
TORSDOF 0
ENDMDL
