MODEL 1
REMARK minimizedAffinity 1.41836154
REMARK minimizedRMSD -1
REMARK  0 active torsions:
REMARK  status: ('A' for Active; 'I' for Inactive)
ROOT
ATOM      1  C1  BNZ d   1      -4.294  -3.655  -4.336  0.00  0.00     0.000 A 
ATOM      2  C2  BNZ d   1      -5.213  -3.085  -5.176  0.00  0.00     0.000 A 
ATOM      3  C3  BNZ d   1      -5.988  -3.860  -5.994  0.00  0.00     0.000 A 
ATOM      4  C4  BNZ d   1      -5.815  -5.197  -5.999  0.00  0.00     0.000 A 
ATOM      5  C5  BNZ d   1      -4.886  -5.786  -5.164  0.00  0.00     0.000 A 
ATOM      6  C6  BNZ d   1      -4.135  -5.006  -4.314  0.00  0.00     0.000 A 
ENDROOT
TORSDOF 0
ENDMDL
