MODEL 1
REMARK minimizedAffinity 6.25033474
REMARK minimizedRMSD -1
REMARK  0 active torsions:
REMARK  status: ('A' for Active; 'I' for Inactive)
ROOT
ATOM      1  C1  BNZ d   1       0.871   4.532   0.798  0.00  0.00     0.000 A 
ATOM      2  C2  BNZ d   1       0.759   5.014  -0.478  0.00  0.00     0.000 A 
ATOM      3  C3  BNZ d   1       1.221   4.291  -1.543  0.00  0.00     0.000 A 
ATOM      4  C4  BNZ d   1       1.829   3.107  -1.326  0.00  0.00     0.000 A 
ATOM      5  C5  BNZ d   1       1.958   2.612  -0.044  0.00  0.00     0.000 A 
ATOM      6  C6  BNZ d   1       1.457   3.324   1.022  0.00  0.00     0.000 A 
ENDROOT
TORSDOF 0
ENDMDL
