MODEL 1
REMARK minimizedAffinity 12.7554369
REMARK minimizedRMSD -1
REMARK  0 active torsions:
REMARK  status: ('A' for Active; 'I' for Inactive)
ROOT
ATOM      1  C1  BNZ d   1      -1.007  -3.637  -2.569  0.00  0.00     0.000 A 
ATOM      2  C2  BNZ d   1      -0.320  -2.496  -2.250  0.00  0.00     0.000 A 
ATOM      3  C3  BNZ d   1      -0.931  -1.274  -2.297  0.00  0.00     0.000 A 
ATOM      4  C4  BNZ d   1      -2.215  -1.190  -2.701  0.00  0.00     0.000 A 
ATOM      5  C5  BNZ d   1      -2.919  -2.330  -3.035  0.00  0.00     0.000 A 
ATOM      6  C6  BNZ d   1      -2.312  -3.562  -2.949  0.00  0.00     0.000 A 
ENDROOT
TORSDOF 0
ENDMDL
