MODEL 1
REMARK minimizedAffinity 4.18187094
REMARK minimizedRMSD -1
REMARK  0 active torsions:
REMARK  status: ('A' for Active; 'I' for Inactive)
ROOT
ATOM      1  C1  BNZ d   1      -1.465  -3.860  -2.305  0.00  0.00     0.000 A 
ATOM      2  C2  BNZ d   1      -0.917  -2.613  -2.450  0.00  0.00     0.000 A 
ATOM      3  C3  BNZ d   1      -1.473  -1.699  -3.302  0.00  0.00     0.000 A 
ATOM      4  C4  BNZ d   1      -2.549  -2.047  -4.037  0.00  0.00     0.000 A 
ATOM      5  C5  BNZ d   1      -3.106  -3.303  -3.909  0.00  0.00     0.000 A 
ATOM      6  C6  BNZ d   1      -2.568  -4.207  -3.022  0.00  0.00     0.000 A 
ENDROOT
TORSDOF 0
ENDMDL
