MODEL 1
REMARK minimizedAffinity 4.4270792
REMARK minimizedRMSD -1
REMARK  0 active torsions:
REMARK  status: ('A' for Active; 'I' for Inactive)
ROOT
ATOM      1  C1  BNZ d   1      -3.736   1.102   3.303  0.00  0.00     0.000 A 
ATOM      2  C2  BNZ d   1      -2.456   1.473   2.989  0.00  0.00     0.000 A 
ATOM      3  C3  BNZ d   1      -1.504   0.534   2.705  0.00  0.00     0.000 A 
ATOM      4  C4  BNZ d   1      -1.823  -0.775   2.774  0.00  0.00     0.000 A 
ATOM      5  C5  BNZ d   1      -3.107  -1.165   3.097  0.00  0.00     0.000 A 
ATOM      6  C6  BNZ d   1      -4.073  -0.216   3.345  0.00  0.00     0.000 A 
ENDROOT
TORSDOF 0
ENDMDL
