MODEL 1
REMARK minimizedAffinity 3.88079953
REMARK minimizedRMSD -1
REMARK  0 active torsions:
REMARK  status: ('A' for Active; 'I' for Inactive)
ROOT
ATOM      1  C1  BNZ d   1       2.679  -0.415  -1.841  0.00  0.00     0.000 A 
ATOM      2  C2  BNZ d   1       3.613  -0.850  -0.939  0.00  0.00     0.000 A 
ATOM      3  C3  BNZ d   1       3.685  -2.169  -0.589  0.00  0.00     0.000 A 
ATOM      4  C4  BNZ d   1       2.800  -3.043  -1.109  0.00  0.00     0.000 A 
ATOM      5  C5  BNZ d   1       1.847  -2.618  -2.013  0.00  0.00     0.000 A 
ATOM      6  C6  BNZ d   1       1.802  -1.296  -2.393  0.00  0.00     0.000 A 
ENDROOT
TORSDOF 0
ENDMDL
