MODEL 1
REMARK minimizedAffinity 9.0775547
REMARK minimizedRMSD -1
REMARK  0 active torsions:
REMARK  status: ('A' for Active; 'I' for Inactive)
ROOT
ATOM      1  C1  BNZ d   1      -2.259   3.106  -4.873  0.00  0.00     0.000 A 
ATOM      2  C2  BNZ d   1      -2.746   2.494  -5.997  0.00  0.00     0.000 A 
ATOM      3  C3  BNZ d   1      -3.033   1.157  -5.997  0.00  0.00     0.000 A 
ATOM      4  C4  BNZ d   1      -2.796   0.428  -4.887  0.00  0.00     0.000 A 
ATOM      5  C5  BNZ d   1      -2.297   1.030  -3.749  0.00  0.00     0.000 A 
ATOM      6  C6  BNZ d   1      -2.045   2.382  -3.741  0.00  0.00     0.000 A 
ENDROOT
TORSDOF 0
ENDMDL
