MODEL 1
REMARK minimizedAffinity -3.90485573
REMARK minimizedRMSD -1
REMARK  0 active torsions:
REMARK  status: ('A' for Active; 'I' for Inactive)
ROOT
ATOM      1  C1  BNZ d   1       1.205   1.774  -1.530  0.00  0.00     0.000 A 
ATOM      2  C2  BNZ d   1       1.235   0.878  -2.565  0.00  0.00     0.000 A 
ATOM      3  C3  BNZ d   1       0.922  -0.437  -2.361  0.00  0.00     0.000 A 
ATOM      4  C4  BNZ d   1       0.618  -0.861  -1.118  0.00  0.00     0.000 A 
ATOM      5  C5  BNZ d   1       0.593   0.029  -0.062  0.00  0.00     0.000 A 
ATOM      6  C6  BNZ d   1       0.870   1.359  -0.278  0.00  0.00     0.000 A 
ENDROOT
TORSDOF 0
ENDMDL
