MODEL 1
REMARK minimizedAffinity 6.24579954
REMARK minimizedRMSD -1
REMARK  1 active torsions:
REMARK  status: ('A' for Active; 'I' for Inactive)
REMARK    1  A    between atoms: N_2  and  C1_3 
ROOT
ATOM      1  C1  UNL d   1      -0.629   4.281  -0.737  0.00  0.00     0.143 A 
ATOM      2  C2  UNL d   1      -1.194   3.659   0.381  0.00  0.00    -0.057 A 
ATOM      3  C3  UNL d   1      -0.406   2.943   1.291  0.00  0.00     0.033 A 
ATOM      4  C4  UNL d   1       0.963   2.812   1.081  0.00  0.00    -0.042 A 
ATOM      5  C5  UNL d   1       1.543   3.400  -0.037  0.00  0.00     0.033 A 
ATOM      6  C6  UNL d   1       0.751   4.120  -0.938  0.00  0.00    -0.057 A 
ENDROOT
BRANCH   1   7
ATOM      7  N   UNL d   1      -1.373   4.923  -1.730  0.00  0.00    -0.732 N 
ATOM      8  C   UNL d   1      -2.660   4.403  -2.139  0.00  0.00     0.284 C 
ATOM      9  H3  UNL d   1      -1.342   5.936  -1.644  0.00  0.00     0.395 HD
ENDBRANCH   1   7
TORSDOF 1
ENDMDL
