MODEL 1
REMARK minimizedAffinity 1.21796513
REMARK minimizedRMSD -1
REMARK  1 active torsions:
REMARK  status: ('A' for Active; 'I' for Inactive)
REMARK    1  A    between atoms: N_2  and  C1_3 
ROOT
ATOM      1  C1  UNL d   1      -5.455   3.464  -4.520  0.00  0.00     0.143 A 
ATOM      2  C2  UNL d   1      -6.000   4.717  -4.222  0.00  0.00    -0.057 A 
ATOM      3  C3  UNL d   1      -5.470   5.516  -3.201  0.00  0.00     0.033 A 
ATOM      4  C4  UNL d   1      -4.400   5.059  -2.438  0.00  0.00    -0.042 A 
ATOM      5  C5  UNL d   1      -3.858   3.806  -2.700  0.00  0.00     0.033 A 
ATOM      6  C6  UNL d   1      -4.388   3.016  -3.725  0.00  0.00    -0.057 A 
ENDROOT
BRANCH   1   7
ATOM      7  N   UNL d   1      -6.000   2.582  -5.456  0.00  0.00    -0.732 N 
ATOM      8  C   UNL d   1      -5.963   1.153  -5.231  0.00  0.00     0.284 C 
ATOM      9  H3  UNL d   1      -6.878   2.920  -5.843  0.00  0.00     0.395 HD
ENDBRANCH   1   7
TORSDOF 1
ENDMDL
