MODEL 1
REMARK minimizedAffinity -0.535541773
REMARK minimizedRMSD -1
REMARK  1 active torsions:
REMARK  status: ('A' for Active; 'I' for Inactive)
REMARK    1  A    between atoms: N_2  and  C1_3 
ROOT
ATOM      1  C1  UNL d   1      -0.517   2.412  -0.875  0.00  0.00     0.143 A 
ATOM      2  C2  UNL d   1      -1.466   2.498  -1.899  0.00  0.00    -0.057 A 
ATOM      3  C3  UNL d   1      -1.897   1.357  -2.587  0.00  0.00     0.033 A 
ATOM      4  C4  UNL d   1      -1.363   0.110  -2.283  0.00  0.00    -0.042 A 
ATOM      5  C5  UNL d   1      -0.399   0.004  -1.286  0.00  0.00     0.033 A 
ATOM      6  C6  UNL d   1       0.022   1.146  -0.597  0.00  0.00    -0.057 A 
ENDROOT
BRANCH   1   7
ATOM      7  N   UNL d   1       0.024   3.521  -0.221  0.00  0.00    -0.732 N 
ATOM      8  C   UNL d   1       0.091   4.807  -0.882  0.00  0.00     0.284 C 
ATOM      9  H3  UNL d   1      -0.255   3.570   0.756  0.00  0.00     0.395 HD
ENDBRANCH   1   7
TORSDOF 1
ENDMDL
