MODEL 1
REMARK minimizedAffinity 1.70995116
REMARK minimizedRMSD -1
REMARK  1 active torsions:
REMARK  status: ('A' for Active; 'I' for Inactive)
REMARK    1  A    between atoms: N_2  and  C1_3 
ROOT
ATOM      1  C1  UNL d   1      -4.813   4.696  -4.715  0.00  0.00     0.143 A 
ATOM      2  C2  UNL d   1      -5.408   4.506  -3.464  0.00  0.00    -0.057 A 
ATOM      3  C3  UNL d   1      -5.984   3.279  -3.113  0.00  0.00     0.033 A 
ATOM      4  C4  UNL d   1      -6.000   2.226  -4.022  0.00  0.00    -0.042 A 
ATOM      5  C5  UNL d   1      -5.436   2.401  -5.281  0.00  0.00     0.033 A 
ATOM      6  C6  UNL d   1      -4.857   3.626  -5.623  0.00  0.00    -0.057 A 
ENDROOT
BRANCH   1   7
ATOM      7  N   UNL d   1      -4.312   5.922  -5.160  0.00  0.00    -0.732 N 
ATOM      8  C   UNL d   1      -3.021   5.999  -5.810  0.00  0.00     0.284 C 
ATOM      9  H3  UNL d   1      -5.029   6.502  -5.589  0.00  0.00     0.395 HD
ENDBRANCH   1   7
TORSDOF 1
ENDMDL
