MODEL 1
REMARK minimizedAffinity -0.643696189
REMARK minimizedRMSD -1
REMARK  1 active torsions:
REMARK  status: ('A' for Active; 'I' for Inactive)
REMARK    1  A    between atoms: N_2  and  C1_3 
ROOT
ATOM      1  C1  UNL d   1      -0.395   5.196  -1.706  0.00  0.00     0.143 A 
ATOM      2  C2  UNL d   1       0.767   4.449  -1.485  0.00  0.00    -0.057 A 
ATOM      3  C3  UNL d   1       0.959   3.742  -0.292  0.00  0.00     0.033 A 
ATOM      4  C4  UNL d   1       0.002   3.792   0.716  0.00  0.00    -0.042 A 
ATOM      5  C5  UNL d   1      -1.150   4.548   0.527  0.00  0.00     0.033 A 
ATOM      6  C6  UNL d   1      -1.339   5.247  -0.669  0.00  0.00    -0.057 A 
ENDROOT
BRANCH   1   7
ATOM      7  N   UNL d   1      -0.601   6.000  -2.830  0.00  0.00    -0.732 N 
ATOM      8  C   UNL d   1      -1.874   5.995  -3.517  0.00  0.00     0.284 C 
ATOM      9  H3  UNL d   1      -0.187   6.924  -2.727  0.00  0.00     0.395 HD
ENDBRANCH   1   7
TORSDOF 1
ENDMDL
