MODEL 1
REMARK minimizedAffinity 2.33625984
REMARK minimizedRMSD -1
REMARK  1 active torsions:
REMARK  status: ('A' for Active; 'I' for Inactive)
REMARK    1  A    between atoms: N_2  and  C1_3 
ROOT
ATOM      1  C1  UNL d   1       0.886   3.243   0.281  0.00  0.00     0.143 A 
ATOM      2  C2  UNL d   1       2.139   3.576   0.806  0.00  0.00    -0.057 A 
ATOM      3  C3  UNL d   1       2.511   3.190   2.099  0.00  0.00     0.033 A 
ATOM      4  C4  UNL d   1       1.622   2.486   2.904  0.00  0.00    -0.042 A 
ATOM      5  C5  UNL d   1       0.361   2.165   2.413  0.00  0.00     0.033 A 
ATOM      6  C6  UNL d   1      -0.002   2.548   1.118  0.00  0.00    -0.057 A 
ENDROOT
BRANCH   1   7
ATOM      7  N   UNL d   1       0.420   3.683  -0.960  0.00  0.00    -0.732 N 
ATOM      8  C   UNL d   1      -0.686   4.612  -1.046  0.00  0.00     0.284 C 
ATOM      9  H3  UNL d   1       1.176   3.876  -1.612  0.00  0.00     0.395 HD
ENDBRANCH   1   7
TORSDOF 1
ENDMDL
