MODEL 1
REMARK minimizedAffinity 2.84902453
REMARK minimizedRMSD -1
REMARK  1 active torsions:
REMARK  status: ('A' for Active; 'I' for Inactive)
REMARK    1  A    between atoms: N_2  and  C1_3 
ROOT
ATOM      1  C1  UNL d   1      -0.609  -2.850  -1.724  0.00  0.00     0.143 A 
ATOM      2  C2  UNL d   1       0.250  -3.867  -1.291  0.00  0.00    -0.057 A 
ATOM      3  C3  UNL d   1       1.387  -3.580  -0.527  0.00  0.00     0.033 A 
ATOM      4  C4  UNL d   1       1.704  -2.265  -0.206  0.00  0.00    -0.042 A 
ATOM      5  C5  UNL d   1       0.879  -1.236  -0.646  0.00  0.00     0.033 A 
ATOM      6  C6  UNL d   1      -0.260  -1.529  -1.403  0.00  0.00    -0.057 A 
ENDROOT
BRANCH   1   7
ATOM      7  N   UNL d   1      -1.701  -3.061  -2.569  0.00  0.00    -0.732 N 
ATOM      8  C   UNL d   1      -1.643  -4.063  -3.612  0.00  0.00     0.284 C 
ATOM      9  H3  UNL d   1      -2.588  -3.030  -2.072  0.00  0.00     0.395 HD
ENDBRANCH   1   7
TORSDOF 1
ENDMDL
