MODEL 1
REMARK minimizedAffinity 2.56343317
REMARK minimizedRMSD -1
REMARK  0 active torsions:
REMARK  status: ('A' for Active; 'I' for Inactive)
ROOT
ATOM      1  N1  IND d   1       2.775  -1.909   0.268  0.00  0.00    -0.196 N 
ATOM      2  C2  IND d   1       3.717  -0.950   0.519  0.00  0.00     0.054 A 
ATOM      3  C3  IND d   1       3.179   0.283   0.384  0.00  0.00    -0.031 A 
ATOM      4  C4  IND d   1       0.752   0.961  -0.144  0.00  0.00     0.051 A 
ATOM      5  C5  IND d   1      -0.462   0.437  -0.487  0.00  0.00    -0.031 A 
ATOM      6  C6  IND d   1      -0.664  -0.924  -0.597  0.00  0.00     0.015 A 
ATOM      7  C7  IND d   1       0.342  -1.815  -0.354  0.00  0.00    -0.016 A 
ATOM      8  C8  IND d   1       1.579  -1.286  -0.012  0.00  0.00    -0.047 A 
ATOM      9  C9  IND d   1       1.801   0.095   0.059  0.00  0.00    -0.096 A 
ATOM     10  HN1 IND d   1       2.908  -2.758   0.281  0.00  0.00     0.298 HD
ENDROOT
TORSDOF 0
ENDMDL
