MODEL 1
REMARK minimizedAffinity 1.47919893
REMARK minimizedRMSD -1
REMARK  0 active torsions:
REMARK  status: ('A' for Active; 'I' for Inactive)
ROOT
ATOM      1  N1  IND d   1      -2.705   1.539   1.686  0.00  0.00    -0.196 N 
ATOM      2  C2  IND d   1      -3.606   0.640   1.188  0.00  0.00     0.054 A 
ATOM      3  C3  IND d   1      -3.029  -0.127   0.236  0.00  0.00    -0.031 A 
ATOM      4  C4  IND d   1      -0.591  -0.148  -0.591  0.00  0.00     0.051 A 
ATOM      5  C5  IND d   1       0.597   0.515  -0.459  0.00  0.00    -0.031 A 
ATOM      6  C6  IND d   1       0.748   1.573   0.414  0.00  0.00     0.015 A 
ATOM      7  C7  IND d   1      -0.284   2.002   1.199  0.00  0.00    -0.016 A 
ATOM      8  C8  IND d   1      -1.493   1.335   1.063  0.00  0.00    -0.047 A 
ATOM      9  C9  IND d   1      -1.665   0.289   0.148  0.00  0.00    -0.096 A 
ATOM     10  HN1 IND d   1      -2.868   2.132   2.287  0.00  0.00     0.298 HD
ENDROOT
TORSDOF 0
ENDMDL
