MODEL 1
REMARK minimizedAffinity -5.75114059
REMARK minimizedRMSD -1
REMARK  0 active torsions:
REMARK  status: ('A' for Active; 'I' for Inactive)
ROOT
ATOM      1  N1  IND d   1      -0.381   1.046  -0.353  0.00  0.00    -0.196 N 
ATOM      2  C2  IND d   1      -1.112   0.001  -0.846  0.00  0.00     0.054 A 
ATOM      3  C3  IND d   1      -0.364  -1.125  -0.872  0.00  0.00    -0.031 A 
ATOM      4  C4  IND d   1       2.049  -1.505  -0.061  0.00  0.00     0.051 A 
ATOM      5  C5  IND d   1       3.137  -0.841   0.433  0.00  0.00    -0.031 A 
ATOM      6  C6  IND d   1       3.106   0.513   0.698  0.00  0.00     0.015 A 
ATOM      7  C7  IND d   1       1.977   1.254   0.489  0.00  0.00    -0.016 A 
ATOM      8  C8  IND d   1       0.873   0.585  -0.019  0.00  0.00    -0.047 A 
ATOM      9  C9  IND d   1       0.912  -0.781  -0.330  0.00  0.00    -0.096 A 
ATOM     10  HN1 IND d   1      -0.658   1.855  -0.266  0.00  0.00     0.298 HD
ENDROOT
TORSDOF 0
ENDMDL
