MODEL 1
REMARK minimizedAffinity 1.33766818
REMARK minimizedRMSD -1
REMARK  0 active torsions:
REMARK  status: ('A' for Active; 'I' for Inactive)
ROOT
ATOM      1  N1  IND d   1      -1.824   1.060   0.943  0.00  0.00    -0.196 N 
ATOM      2  C2  IND d   1      -2.765   0.316   1.597  0.00  0.00     0.054 A 
ATOM      3  C3  IND d   1      -2.529  -1.003   1.419  0.00  0.00    -0.031 A 
ATOM      4  C4  IND d   1      -0.596  -2.166   0.178  0.00  0.00     0.051 A 
ATOM      5  C5  IND d   1       0.491  -1.905  -0.608  0.00  0.00    -0.031 A 
ATOM      6  C6  IND d   1       0.871  -0.616  -0.922  0.00  0.00     0.015 A 
ATOM      7  C7  IND d   1       0.182   0.465  -0.450  0.00  0.00    -0.016 A 
ATOM      8  C8  IND d   1      -0.926   0.203   0.344  0.00  0.00    -0.047 A 
ATOM      9  C9  IND d   1      -1.342  -1.103   0.631  0.00  0.00    -0.096 A 
ATOM     10  HN1 IND d   1      -1.796   1.919   0.911  0.00  0.00     0.298 HD
ENDROOT
TORSDOF 0
ENDMDL
