MODEL 1
REMARK minimizedAffinity 1.1247859
REMARK minimizedRMSD -1
REMARK  0 active torsions:
REMARK  status: ('A' for Active; 'I' for Inactive)
ROOT
ATOM      1  N1  IND d   1       2.212   1.384   0.092  0.00  0.00    -0.196 N 
ATOM      2  C2  IND d   1       1.198   2.300   0.098  0.00  0.00     0.054 A 
ATOM      3  C3  IND d   1       0.018   1.698  -0.171  0.00  0.00    -0.031 A 
ATOM      4  C4  IND d   1      -0.497  -0.795  -0.551  0.00  0.00     0.051 A 
ATOM      5  C5  IND d   1       0.111  -2.012  -0.687  0.00  0.00    -0.031 A 
ATOM      6  C6  IND d   1       1.477  -2.162  -0.566  0.00  0.00     0.015 A 
ATOM      7  C7  IND d   1       2.289  -1.099  -0.291  0.00  0.00    -0.016 A 
ATOM      8  C8  IND d   1       1.676   0.139  -0.159  0.00  0.00    -0.047 A 
ATOM      9  C9  IND d   1       0.295   0.305  -0.323  0.00  0.00    -0.096 A 
ATOM     10  HN1 IND d   1       3.044   1.555   0.222  0.00  0.00     0.298 HD
ENDROOT
TORSDOF 0
ENDMDL
