MODEL 1
REMARK minimizedAffinity -5.34046221
REMARK minimizedRMSD -1
REMARK  0 active torsions:
REMARK  status: ('A' for Active; 'I' for Inactive)
ROOT
ATOM      1  N1  IND d   1       3.203   2.269  -0.060  0.00  0.00    -0.196 N 
ATOM      2  C2  IND d   1       4.519   1.957  -0.264  0.00  0.00     0.054 A 
ATOM      3  C3  IND d   1       4.736   0.647  -0.009  0.00  0.00    -0.031 A 
ATOM      4  C4  IND d   1       3.059  -1.190   0.654  0.00  0.00     0.051 A 
ATOM      5  C5  IND d   1       1.750  -1.381   0.995  0.00  0.00    -0.031 A 
ATOM      6  C6  IND d   1       0.839  -0.345   0.999  0.00  0.00     0.015 A 
ATOM      7  C7  IND d   1       1.203   0.925   0.650  0.00  0.00    -0.016 A 
ATOM      8  C8  IND d   1       2.533   1.124   0.310  0.00  0.00    -0.047 A 
ATOM      9  C9  IND d   1       3.472   0.084   0.345  0.00  0.00    -0.096 A 
ATOM     10  HN1 IND d   1       2.854   3.050  -0.148  0.00  0.00     0.298 HD
ENDROOT
TORSDOF 0
ENDMDL
