MODEL 1
REMARK minimizedAffinity -4.97407341
REMARK minimizedRMSD -1
REMARK  0 active torsions:
REMARK  status: ('A' for Active; 'I' for Inactive)
ROOT
ATOM      1  N1  IND d   1       0.370   1.494  -0.267  0.00  0.00    -0.196 N 
ATOM      2  C2  IND d   1      -0.693   0.645  -0.408  0.00  0.00     0.054 A 
ATOM      3  C3  IND d   1      -0.315  -0.628  -0.154  0.00  0.00    -0.031 A 
ATOM      4  C4  IND d   1       1.971  -1.534   0.607  0.00  0.00     0.051 A 
ATOM      5  C5  IND d   1       3.261  -1.146   0.838  0.00  0.00    -0.031 A 
ATOM      6  C6  IND d   1       3.661   0.168   0.712  0.00  0.00     0.015 A 
ATOM      7  C7  IND d   1       2.778   1.150   0.360  0.00  0.00    -0.016 A 
ATOM      8  C8  IND d   1       1.469   0.759   0.118  0.00  0.00    -0.047 A 
ATOM      9  C9  IND d   1       1.067  -0.580   0.203  0.00  0.00    -0.096 A 
ATOM     10  HN1 IND d   1       0.354   2.343  -0.398  0.00  0.00     0.298 HD
ENDROOT
TORSDOF 0
ENDMDL
