MODEL 1
REMARK minimizedAffinity -5.26188374
REMARK minimizedRMSD -1
REMARK  0 active torsions:
REMARK  status: ('A' for Active; 'I' for Inactive)
ROOT
ATOM      1  N1  IND d   1       0.032   0.868  -0.070  0.00  0.00    -0.196 N 
ATOM      2  C2  IND d   1      -0.669  -0.195  -0.567  0.00  0.00     0.054 A 
ATOM      3  C3  IND d   1       0.105  -1.303  -0.585  0.00  0.00    -0.031 A 
ATOM      4  C4  IND d   1       2.520  -1.623   0.248  0.00  0.00     0.051 A 
ATOM      5  C5  IND d   1       3.587  -0.932   0.749  0.00  0.00    -0.031 A 
ATOM      6  C6  IND d   1       3.522   0.421   1.011  0.00  0.00     0.015 A 
ATOM      7  C7  IND d   1       2.378   1.134   0.791  0.00  0.00    -0.016 A 
ATOM      8  C8  IND d   1       1.294   0.438   0.275  0.00  0.00    -0.047 A 
ATOM      9  C9  IND d   1       1.368  -0.927  -0.033  0.00  0.00    -0.096 A 
ATOM     10  HN1 IND d   1      -0.265   1.671   0.013  0.00  0.00     0.298 HD
ENDROOT
TORSDOF 0
ENDMDL
