MODEL 1
REMARK minimizedAffinity -1.07936287
REMARK minimizedRMSD -1
REMARK  0 active torsions:
REMARK  status: ('A' for Active; 'I' for Inactive)
ROOT
ATOM      1  N1  IND d   1       1.393   2.008  -0.010  0.00  0.00    -0.196 N 
ATOM      2  C2  IND d   1       0.032   2.095  -0.104  0.00  0.00     0.054 A 
ATOM      3  C3  IND d   1      -0.508   0.867  -0.273  0.00  0.00    -0.031 A 
ATOM      4  C4  IND d   1       0.646  -1.434  -0.325  0.00  0.00     0.051 A 
ATOM      5  C5  IND d   1       1.881  -2.020  -0.316  0.00  0.00    -0.031 A 
ATOM      6  C6  IND d   1       3.039  -1.279  -0.200  0.00  0.00     0.015 A 
ATOM      7  C7  IND d   1       3.005   0.081  -0.076  0.00  0.00    -0.016 A 
ATOM      8  C8  IND d   1       1.754   0.681  -0.092  0.00  0.00    -0.047 A 
ATOM      9  C9  IND d   1       0.577  -0.062  -0.252  0.00  0.00    -0.096 A 
ATOM     10  HN1 IND d   1       1.933   2.670   0.083  0.00  0.00     0.298 HD
ENDROOT
TORSDOF 0
ENDMDL
