MODEL 1
REMARK minimizedAffinity -3.03646541
REMARK minimizedRMSD -1
REMARK  1 active torsions:
REMARK  status: ('A' for Active; 'I' for Inactive)
REMARK    1  A    between atoms: C1_2  and  C2_3 
ROOT
ATOM      1  C2  UNL d   1       3.578   3.318  -5.965  0.00  0.00    -0.076 A 
ATOM      2  C3  UNL d   1       2.663   4.384  -5.969  0.00  0.00     0.004 A 
ATOM      3  C4  UNL d   1       3.101   5.706  -5.919  0.00  0.00    -0.003 A 
ATOM      4  C5  UNL d   1       4.462   5.984  -5.866  0.00  0.00     0.000 A 
ATOM      5  C6  UNL d   1       5.386   4.939  -5.880  0.00  0.00     0.000 A 
ATOM      6  C7  UNL d   1       4.961   3.600  -5.946  0.00  0.00    -0.073 A 
ATOM      7  C8  UNL d   1       6.000   2.513  -5.952  0.00  0.00     0.078 C 
ENDROOT
BRANCH   1   8
ATOM      8  C1  UNL d   1       3.043   1.904  -5.993  0.00  0.00     0.053 C 
ATOM      9  C   UNL d   1       1.523   1.856  -5.999  0.00  0.00     0.018 C 
ENDBRANCH   1   8
TORSDOF 1
ENDMDL
