MODEL 1
REMARK minimizedAffinity 9.12748623
REMARK minimizedRMSD -1
REMARK  1 active torsions:
REMARK  status: ('A' for Active; 'I' for Inactive)
REMARK    1  A    between atoms: C1_2  and  C2_3 
ROOT
ATOM      1  C2  UNL d   1       1.770   4.970   4.512  0.00  0.00    -0.076 A 
ATOM      2  C3  UNL d   1       2.087   5.793   5.606  0.00  0.00     0.004 A 
ATOM      3  C4  UNL d   1       3.410   5.989   5.997  0.00  0.00    -0.003 A 
ATOM      4  C5  UNL d   1       4.438   5.365   5.299  0.00  0.00     0.000 A 
ATOM      5  C6  UNL d   1       4.143   4.559   4.201  0.00  0.00     0.000 A 
ATOM      6  C7  UNL d   1       2.815   4.364   3.784  0.00  0.00    -0.073 A 
ATOM      7  C8  UNL d   1       2.554   3.479   2.596  0.00  0.00     0.078 C 
ENDROOT
BRANCH   1   8
ATOM      8  C1  UNL d   1       0.314   4.773   4.152  0.00  0.00     0.053 C 
ATOM      9  C   UNL d   1      -0.561   5.930   4.610  0.00  0.00     0.018 C 
ENDBRANCH   1   8
TORSDOF 1
ENDMDL
