MODEL 1
REMARK minimizedAffinity 5.50975227
REMARK minimizedRMSD -1
REMARK  1 active torsions:
REMARK  status: ('A' for Active; 'I' for Inactive)
REMARK    1  A    between atoms: C1_2  and  C2_3 
ROOT
ATOM      1  C2  UNL d   1       2.831   5.022   4.840  0.00  0.00    -0.076 A 
ATOM      2  C3  UNL d   1       3.737   4.108   4.276  0.00  0.00     0.004 A 
ATOM      3  C4  UNL d   1       3.325   3.194   3.307  0.00  0.00    -0.003 A 
ATOM      4  C5  UNL d   1       2.000   3.181   2.886  0.00  0.00     0.000 A 
ATOM      5  C6  UNL d   1       1.091   4.092   3.422  0.00  0.00     0.000 A 
ATOM      6  C7  UNL d   1       1.494   5.031   4.388  0.00  0.00    -0.073 A 
ATOM      7  C8  UNL d   1       0.470   5.987   4.937  0.00  0.00     0.078 C 
ENDROOT
BRANCH   1   8
ATOM      8  C1  UNL d   1       3.329   5.971   5.906  0.00  0.00     0.053 C 
ATOM      9  C   UNL d   1       4.847   5.999   5.999  0.00  0.00     0.018 C 
ENDBRANCH   1   8
TORSDOF 1
ENDMDL
