MODEL 1
REMARK minimizedAffinity 7.78847599
REMARK minimizedRMSD -1
REMARK  1 active torsions:
REMARK  status: ('A' for Active; 'I' for Inactive)
REMARK    1  A    between atoms: C1_2  and  C2_3 
ROOT
ATOM      1  C2  UNL d   1       2.502   0.465   0.941  0.00  0.00    -0.076 A 
ATOM      2  C3  UNL d   1       1.571  -0.536   1.270  0.00  0.00     0.004 A 
ATOM      3  C4  UNL d   1       1.753  -1.851   0.846  0.00  0.00    -0.003 A 
ATOM      4  C5  UNL d   1       2.869  -2.187   0.088  0.00  0.00     0.000 A 
ATOM      5  C6  UNL d   1       3.811  -1.210  -0.233  0.00  0.00     0.000 A 
ATOM      6  C7  UNL d   1       3.651   0.117   0.200  0.00  0.00    -0.073 A 
ATOM      7  C8  UNL d   1       4.695   1.131  -0.180  0.00  0.00     0.078 C 
ENDROOT
BRANCH   1   8
ATOM      8  C1  UNL d   1       2.238   1.880   1.405  0.00  0.00     0.053 C 
ATOM      9  C   UNL d   1       2.407   2.042   2.908  0.00  0.00     0.018 C 
ENDBRANCH   1   8
TORSDOF 1
ENDMDL
