MODEL 1
REMARK minimizedAffinity 4.31642103
REMARK minimizedRMSD -1
REMARK  1 active torsions:
REMARK  status: ('A' for Active; 'I' for Inactive)
REMARK    1  A    between atoms: C1_2  and  C2_3 
ROOT
ATOM      1  C2  UNL d   1       2.993   5.045   3.666  0.00  0.00    -0.076 A 
ATOM      2  C3  UNL d   1       1.616   4.858   3.450  0.00  0.00     0.004 A 
ATOM      3  C4  UNL d   1       0.682   5.227   4.416  0.00  0.00    -0.003 A 
ATOM      4  C5  UNL d   1       1.109   5.790   5.614  0.00  0.00     0.000 A 
ATOM      5  C6  UNL d   1       2.469   5.999   5.838  0.00  0.00     0.000 A 
ATOM      6  C7  UNL d   1       3.423   5.647   4.868  0.00  0.00    -0.073 A 
ATOM      7  C8  UNL d   1       4.878   5.889   5.165  0.00  0.00     0.078 C 
ENDROOT
BRANCH   1   8
ATOM      8  C1  UNL d   1       3.961   4.600   2.593  0.00  0.00     0.053 C 
ATOM      9  C   UNL d   1       3.421   3.447   1.763  0.00  0.00     0.018 C 
ENDBRANCH   1   8
TORSDOF 1
ENDMDL
