MODEL 1
REMARK minimizedAffinity 2.93277025
REMARK minimizedRMSD -1
REMARK  1 active torsions:
REMARK  status: ('A' for Active; 'I' for Inactive)
REMARK    1  A    between atoms: C1_2  and  C2_3 
ROOT
ATOM      1  C2  UNL d   1       2.257   4.155   3.675  0.00  0.00    -0.076 A 
ATOM      2  C3  UNL d   1       3.521   4.278   4.277  0.00  0.00     0.004 A 
ATOM      3  C4  UNL d   1       3.740   5.192   5.306  0.00  0.00    -0.003 A 
ATOM      4  C5  UNL d   1       2.697   5.997   5.751  0.00  0.00     0.000 A 
ATOM      5  C6  UNL d   1       1.432   5.876   5.178  0.00  0.00     0.000 A 
ATOM      6  C7  UNL d   1       1.191   4.948   4.150  0.00  0.00    -0.073 A 
ATOM      7  C8  UNL d   1      -0.192   4.863   3.564  0.00  0.00     0.078 C 
ENDROOT
BRANCH   1   8
ATOM      8  C1  UNL d   1       2.087   3.165   2.544  0.00  0.00     0.053 C 
ATOM      9  C   UNL d   1       3.416   2.722   1.953  0.00  0.00     0.018 C 
ENDBRANCH   1   8
TORSDOF 1
ENDMDL
