MODEL 1
REMARK minimizedAffinity 0.691295385
REMARK minimizedRMSD -1
REMARK  0 active torsions:
REMARK  status: ('A' for Active; 'I' for Inactive)
ROOT
ATOM      1  C   UNL d   1      -1.223  -0.048  -0.058  0.00  0.00     0.172 C 
ATOM      2  N   UNL d   1       0.196  -0.217   0.147  0.00  0.00    -0.070 N 
ATOM      3  C1  UNL d   1       1.068  -0.789  -0.740  0.00  0.00    -0.004 A 
ATOM      4  C2  UNL d   1       2.325  -0.761  -0.174  0.00  0.00    -0.047 A 
ATOM      5  C3  UNL d   1       2.203  -0.152   1.097  0.00  0.00    -0.047 A 
ATOM      6  C4  UNL d   1       0.875   0.174   1.271  0.00  0.00    -0.004 A 
ENDROOT
TORSDOF 0
ENDMDL
