MODEL 1
REMARK minimizedAffinity -3.63221383
REMARK minimizedRMSD -1
REMARK  0 active torsions:
REMARK  status: ('A' for Active; 'I' for Inactive)
ROOT
ATOM      1  C   UNL d   1      -0.230   0.344  -0.982  0.00  0.00     0.172 C 
ATOM      2  N   UNL d   1       0.229  -0.027   0.336  0.00  0.00    -0.070 N 
ATOM      3  C1  UNL d   1      -0.568  -0.427   1.376  0.00  0.00    -0.004 A 
ATOM      4  C2  UNL d   1       0.247  -0.690   2.455  0.00  0.00    -0.047 A 
ATOM      5  C3  UNL d   1       1.580  -0.438   2.050  0.00  0.00    -0.047 A 
ATOM      6  C4  UNL d   1       1.539  -0.029   0.734  0.00  0.00    -0.004 A 
ENDROOT
TORSDOF 0
ENDMDL
