MODEL 1
REMARK minimizedAffinity 0.220520511
REMARK minimizedRMSD -1
REMARK  0 active torsions:
REMARK  status: ('A' for Active; 'I' for Inactive)
ROOT
ATOM      1  C   UNL d   1       3.818   5.997   3.184  0.00  0.00     0.172 C 
ATOM      2  N   UNL d   1       2.706   5.985   4.105  0.00  0.00    -0.070 N 
ATOM      3  C1  UNL d   1       2.800   5.979   5.471  0.00  0.00    -0.004 A 
ATOM      4  C2  UNL d   1       1.521   5.968   5.982  0.00  0.00    -0.047 A 
ATOM      5  C3  UNL d   1       0.626   5.966   4.886  0.00  0.00    -0.047 A 
ATOM      6  C4  UNL d   1       1.387   5.976   3.736  0.00  0.00    -0.004 A 
ENDROOT
TORSDOF 0
ENDMDL
