MODEL 1
REMARK minimizedAffinity -2.62735868
REMARK minimizedRMSD -1
REMARK  0 active torsions:
REMARK  status: ('A' for Active; 'I' for Inactive)
ROOT
ATOM      1  C   UNL d   1      -2.395  -0.734   0.761  0.00  0.00     0.172 C 
ATOM      2  N   UNL d   1      -1.021  -0.436   1.090  0.00  0.00    -0.070 N 
ATOM      3  C1  UNL d   1      -0.440  -0.605   2.319  0.00  0.00    -0.004 A 
ATOM      4  C2  UNL d   1       0.876  -0.208   2.221  0.00  0.00    -0.047 A 
ATOM      5  C3  UNL d   1       1.093   0.216   0.889  0.00  0.00    -0.047 A 
ATOM      6  C4  UNL d   1      -0.098   0.064   0.210  0.00  0.00    -0.004 A 
ENDROOT
TORSDOF 0
ENDMDL
