MODEL 1
REMARK minimizedAffinity -2.69051003
REMARK minimizedRMSD -1
REMARK  0 active torsions:
REMARK  status: ('A' for Active; 'I' for Inactive)
ROOT
ATOM      1  C   UNL d   1       0.097  -0.022  -0.445  0.00  0.00     0.172 C 
ATOM      2  N   UNL d   1       0.440  -0.368   0.915  0.00  0.00    -0.070 N 
ATOM      3  C1  UNL d   1       1.692  -0.298   1.465  0.00  0.00    -0.004 A 
ATOM      4  C2  UNL d   1       1.600  -0.711   2.776  0.00  0.00    -0.047 A 
ATOM      5  C3  UNL d   1       0.247  -1.041   3.023  0.00  0.00    -0.047 A 
ATOM      6  C4  UNL d   1      -0.450  -0.819   1.854  0.00  0.00    -0.004 A 
ENDROOT
TORSDOF 0
ENDMDL
