MODEL 1
REMARK minimizedAffinity -2.99516058
REMARK minimizedRMSD -1
REMARK  0 active torsions:
REMARK  status: ('A' for Active; 'I' for Inactive)
ROOT
ATOM      1  C   UNL d   1      -1.420   0.445   1.184  0.00  0.00     0.172 C 
ATOM      2  N   UNL d   1      -0.267  -0.214   1.751  0.00  0.00    -0.070 N 
ATOM      3  C1  UNL d   1      -0.292  -1.138   2.760  0.00  0.00    -0.004 A 
ATOM      4  C2  UNL d   1       1.007  -1.525   3.011  0.00  0.00    -0.047 A 
ATOM      5  C3  UNL d   1       1.841  -0.807   2.122  0.00  0.00    -0.047 A 
ATOM      6  C4  UNL d   1       1.027  -0.003   1.353  0.00  0.00    -0.004 A 
ENDROOT
TORSDOF 0
ENDMDL
