MODEL 1
REMARK minimizedAffinity -1.33949363
REMARK minimizedRMSD -1
REMARK  0 active torsions:
REMARK  status: ('A' for Active; 'I' for Inactive)
ROOT
ATOM      1  C   UNL d   1      -0.546   1.827  -2.081  0.00  0.00     0.172 C 
ATOM      2  N   UNL d   1       0.119   0.859  -1.242  0.00  0.00    -0.070 N 
ATOM      3  C1  UNL d   1       0.239   0.932   0.120  0.00  0.00    -0.004 A 
ATOM      4  C2  UNL d   1       0.938  -0.178   0.543  0.00  0.00    -0.047 A 
ATOM      5  C3  UNL d   1       1.249  -0.945  -0.605  0.00  0.00    -0.047 A 
ATOM      6  C4  UNL d   1       0.730  -0.280  -1.696  0.00  0.00    -0.004 A 
ENDROOT
TORSDOF 0
ENDMDL
