MODEL 1
REMARK minimizedAffinity -1.76234233
REMARK minimizedRMSD -1
REMARK  0 active torsions:
REMARK  status: ('A' for Active; 'I' for Inactive)
ROOT
ATOM      1  C   UNL d   1      -2.145  -0.206   1.403  0.00  0.00     0.172 C 
ATOM      2  N   UNL d   1      -0.909  -0.238   0.656  0.00  0.00    -0.070 N 
ATOM      3  C1  UNL d   1      -0.788  -0.045  -0.695  0.00  0.00    -0.004 A 
ATOM      4  C2  UNL d   1       0.548  -0.153  -1.018  0.00  0.00    -0.047 A 
ATOM      5  C3  UNL d   1       1.253  -0.421   0.180  0.00  0.00    -0.047 A 
ATOM      6  C4  UNL d   1       0.327  -0.468   1.200  0.00  0.00    -0.004 A 
ENDROOT
TORSDOF 0
ENDMDL
