MODEL 1
REMARK minimizedAffinity -2.10493326
REMARK minimizedRMSD -1
REMARK  0 active torsions:
REMARK  status: ('A' for Active; 'I' for Inactive)
ROOT
ATOM      1  C   UNL d   1      -3.022   2.975  -3.203  0.00  0.00     0.172 C 
ATOM      2  N   UNL d   1      -1.585   3.105  -3.152  0.00  0.00    -0.070 N 
ATOM      3  C1  UNL d   1      -0.785   3.527  -4.181  0.00  0.00    -0.004 A 
ATOM      4  C2  UNL d   1       0.519   3.512  -3.734  0.00  0.00    -0.047 A 
ATOM      5  C3  UNL d   1       0.502   3.065  -2.392  0.00  0.00    -0.047 A 
ATOM      6  C4  UNL d   1      -0.813   2.820  -2.057  0.00  0.00    -0.004 A 
ENDROOT
TORSDOF 0
ENDMDL
