MODEL 1
REMARK minimizedAffinity -0.731676459
REMARK minimizedRMSD -1
REMARK  0 active torsions:
REMARK  status: ('A' for Active; 'I' for Inactive)
ROOT
ATOM      1  C   UNL d   1      -0.522  -0.334   0.014  0.00  0.00     0.172 C 
ATOM      2  N   UNL d   1       0.827  -0.508   0.499  0.00  0.00    -0.070 N 
ATOM      3  C1  UNL d   1       1.912  -0.851  -0.264  0.00  0.00    -0.004 A 
ATOM      4  C2  UNL d   1       3.009  -0.915   0.567  0.00  0.00    -0.047 A 
ATOM      5  C3  UNL d   1       2.569  -0.601   1.875  0.00  0.00    -0.047 A 
ATOM      6  C4  UNL d   1       1.214  -0.354   1.804  0.00  0.00    -0.004 A 
ENDROOT
TORSDOF 0
ENDMDL
