MODEL 1
REMARK minimizedAffinity -0.483970076
REMARK minimizedRMSD -1
REMARK  1 active torsions:
REMARK  status: ('A' for Active; 'I' for Inactive)
REMARK    1  A    between atoms: C1_2  and  C2_3 
ROOT
ATOM      1  C2  UNL d   1      -0.873   3.554  -5.964  0.00  0.00    -0.077 A 
ATOM      2  C3  UNL d   1      -2.275   3.562  -5.966  0.00  0.00     0.002 A 
ATOM      3  C4  UNL d   1      -2.974   4.770  -5.981  0.00  0.00     0.002 A 
ATOM      4  C5  UNL d   1      -2.281   5.978  -5.999  0.00  0.00    -0.004 A 
ATOM      5  C6  UNL d   1      -0.887   5.981  -5.996  0.00  0.00     0.002 A 
ATOM      6  C7  UNL d   1      -0.186   4.775  -5.979  0.00  0.00     0.002 A 
ENDROOT
BRANCH   1   7
ATOM      7  C1  UNL d   1      -0.116   2.252  -5.998  0.00  0.00     0.055 C 
ATOM      8  C   UNL d   1       1.387   2.484  -5.962  0.00  0.00     0.019 C 
ENDBRANCH   1   7
TORSDOF 1
ENDMDL
