MODEL 1
REMARK minimizedAffinity -2.27861929
REMARK minimizedRMSD -1
REMARK  1 active torsions:
REMARK  status: ('A' for Active; 'I' for Inactive)
REMARK    1  A    between atoms: C1_2  and  C2_3 
ROOT
ATOM      1  C2  UNL d   1      -2.283   4.782  -5.982  0.00  0.00    -0.077 A 
ATOM      2  C3  UNL d   1      -2.002   3.408  -5.989  0.00  0.00     0.002 A 
ATOM      3  C4  UNL d   1      -0.681   2.958  -6.000  0.00  0.00     0.002 A 
ATOM      4  C5  UNL d   1       0.369   3.874  -6.000  0.00  0.00    -0.004 A 
ATOM      5  C6  UNL d   1       0.100   5.242  -5.996  0.00  0.00     0.002 A 
ATOM      6  C7  UNL d   1      -1.220   5.694  -5.986  0.00  0.00     0.002 A 
ENDROOT
BRANCH   1   7
ATOM      7  C1  UNL d   1      -3.707   5.269  -5.921  0.00  0.00     0.055 C 
ATOM      8  C   UNL d   1      -4.667   4.135  -5.592  0.00  0.00     0.019 C 
ENDBRANCH   1   7
TORSDOF 1
ENDMDL
