MODEL 1
REMARK minimizedAffinity 1.9817661
REMARK minimizedRMSD -1
REMARK  1 active torsions:
REMARK  status: ('A' for Active; 'I' for Inactive)
REMARK    1  A    between atoms: C1_2  and  C2_3 
ROOT
ATOM      1  C2  UNL d   1      -0.886   3.738  -5.987  0.00  0.00    -0.077 A 
ATOM      2  C3  UNL d   1      -1.430   5.030  -5.982  0.00  0.00     0.002 A 
ATOM      3  C4  UNL d   1      -2.814   5.213  -5.987  0.00  0.00     0.002 A 
ATOM      4  C5  UNL d   1      -3.665   4.109  -5.992  0.00  0.00    -0.004 A 
ATOM      5  C6  UNL d   1      -3.133   2.820  -5.998  0.00  0.00     0.002 A 
ATOM      6  C7  UNL d   1      -1.750   2.635  -5.995  0.00  0.00     0.002 A 
ENDROOT
BRANCH   1   7
ATOM      7  C1  UNL d   1       0.606   3.538  -5.932  0.00  0.00     0.055 C 
ATOM      8  C   UNL d   1       1.345   4.867  -5.989  0.00  0.00     0.019 C 
ENDBRANCH   1   7
TORSDOF 1
ENDMDL
