MODEL 1
REMARK minimizedAffinity -1.07966876
REMARK minimizedRMSD -1
REMARK  1 active torsions:
REMARK  status: ('A' for Active; 'I' for Inactive)
REMARK    1  A    between atoms: C1_2  and  C2_3 
ROOT
ATOM      1  C2  UNL d   1      -1.158   4.427  -5.809  0.00  0.00    -0.077 A 
ATOM      2  C3  UNL d   1      -1.767   3.166  -5.866  0.00  0.00     0.002 A 
ATOM      3  C4  UNL d   1      -0.990   2.010  -5.964  0.00  0.00     0.002 A 
ATOM      4  C5  UNL d   1       0.399   2.104  -6.000  0.00  0.00    -0.004 A 
ATOM      5  C6  UNL d   1       1.015   3.354  -5.945  0.00  0.00     0.002 A 
ATOM      6  C7  UNL d   1       0.239   4.510  -5.849  0.00  0.00     0.002 A 
ENDROOT
BRANCH   1   7
ATOM      7  C1  UNL d   1      -1.993   5.672  -5.654  0.00  0.00     0.055 C 
ATOM      8  C   UNL d   1      -2.237   5.996  -4.187  0.00  0.00     0.019 C 
ENDBRANCH   1   7
TORSDOF 1
ENDMDL
