MODEL 1
REMARK minimizedAffinity 5.30281782
REMARK minimizedRMSD -1
REMARK  1 active torsions:
REMARK  status: ('A' for Active; 'I' for Inactive)
REMARK    1  A    between atoms: C1_2  and  C2_3 
ROOT
ATOM      1  C2  UNL d   1      -0.861   5.000  -5.901  0.00  0.00    -0.077 A 
ATOM      2  C3  UNL d   1      -1.034   3.611  -5.990  0.00  0.00     0.002 A 
ATOM      3  C4  UNL d   1      -2.315   3.057  -5.981  0.00  0.00     0.002 A 
ATOM      4  C5  UNL d   1      -3.433   3.883  -5.888  0.00  0.00    -0.004 A 
ATOM      5  C6  UNL d   1      -3.272   5.265  -5.796  0.00  0.00     0.002 A 
ATOM      6  C7  UNL d   1      -1.992   5.821  -5.804  0.00  0.00     0.002 A 
ENDROOT
BRANCH   1   7
ATOM      7  C1  UNL d   1       0.518   5.603  -5.960  0.00  0.00     0.055 C 
ATOM      8  C   UNL d   1       1.593   4.526  -5.981  0.00  0.00     0.019 C 
ENDBRANCH   1   7
TORSDOF 1
ENDMDL
