MODEL 1
REMARK minimizedAffinity 0.18235755
REMARK minimizedRMSD -1
REMARK  1 active torsions:
REMARK  status: ('A' for Active; 'I' for Inactive)
REMARK    1  A    between atoms: C1_2  and  C2_3 
ROOT
ATOM      1  C2  UNL d   1      -0.345   4.518  -5.926  0.00  0.00    -0.077 A 
ATOM      2  C3  UNL d   1      -0.782   3.188  -6.000  0.00  0.00     0.002 A 
ATOM      3  C4  UNL d   1      -2.146   2.890  -5.978  0.00  0.00     0.002 A 
ATOM      4  C5  UNL d   1      -3.083   3.917  -5.887  0.00  0.00    -0.004 A 
ATOM      5  C6  UNL d   1      -2.659   5.243  -5.811  0.00  0.00     0.002 A 
ATOM      6  C7  UNL d   1      -1.296   5.542  -5.832  0.00  0.00     0.002 A 
ENDROOT
BRANCH   1   7
ATOM      7  C1  UNL d   1       1.124   4.844  -5.999  0.00  0.00     0.055 C 
ATOM      8  C   UNL d   1       1.972   3.581  -6.000  0.00  0.00     0.019 C 
ENDBRANCH   1   7
TORSDOF 1
ENDMDL
