MODEL 1
REMARK minimizedAffinity -2.76892591
REMARK minimizedRMSD -1
REMARK  1 active torsions:
REMARK  status: ('A' for Active; 'I' for Inactive)
REMARK    1  A    between atoms: C1_2  and  C2_3 
ROOT
ATOM      1  C2  UNL d   1      -2.884   3.737  -5.579  0.00  0.00    -0.077 A 
ATOM      2  C3  UNL d   1      -1.835   3.342  -4.737  0.00  0.00     0.002 A 
ATOM      3  C4  UNL d   1      -0.880   4.269  -4.317  0.00  0.00     0.002 A 
ATOM      4  C5  UNL d   1      -0.967   5.597  -4.729  0.00  0.00    -0.004 A 
ATOM      5  C6  UNL d   1      -2.006   6.000  -5.567  0.00  0.00     0.002 A 
ATOM      6  C7  UNL d   1      -2.961   5.074  -5.990  0.00  0.00     0.002 A 
ENDROOT
BRANCH   1   7
ATOM      7  C1  UNL d   1      -3.943   2.749  -5.994  0.00  0.00     0.055 C 
ATOM      8  C   UNL d   1      -5.325   3.388  -5.999  0.00  0.00     0.019 C 
ENDBRANCH   1   7
TORSDOF 1
ENDMDL
