MODEL 1
REMARK minimizedAffinity -2.30291104
REMARK minimizedRMSD -1
REMARK  1 active torsions:
REMARK  status: ('A' for Active; 'I' for Inactive)
REMARK    1  A    between atoms: C1_2  and  C2_3 
ROOT
ATOM      1  C2  UNL d   1      -1.460   4.658  -5.995  0.00  0.00    -0.077 A 
ATOM      2  C3  UNL d   1      -1.270   3.269  -5.998  0.00  0.00     0.002 A 
ATOM      3  C4  UNL d   1       0.019   2.733  -6.000  0.00  0.00     0.002 A 
ATOM      4  C5  UNL d   1       1.127   3.578  -5.995  0.00  0.00    -0.004 A 
ATOM      5  C6  UNL d   1       0.948   4.961  -5.994  0.00  0.00     0.002 A 
ATOM      6  C7  UNL d   1      -0.340   5.498  -5.994  0.00  0.00     0.002 A 
ENDROOT
BRANCH   1   7
ATOM      7  C1  UNL d   1      -2.850   5.238  -5.944  0.00  0.00     0.055 C 
ATOM      8  C   UNL d   1      -3.908   4.145  -5.983  0.00  0.00     0.019 C 
ENDBRANCH   1   7
TORSDOF 1
ENDMDL
