MODEL 1
REMARK minimizedAffinity -1.92273962
REMARK minimizedRMSD -1
REMARK  1 active torsions:
REMARK  status: ('A' for Active; 'I' for Inactive)
REMARK    1  A    between atoms: C1_2  and  C2_3 
ROOT
ATOM      1  C2  UNL d   1       0.085   3.754  -5.964  0.00  0.00    -0.077 A 
ATOM      2  C3  UNL d   1      -0.818   2.682  -5.955  0.00  0.00     0.002 A 
ATOM      3  C4  UNL d   1      -2.194   2.918  -5.968  0.00  0.00     0.002 A 
ATOM      4  C5  UNL d   1      -2.679   4.224  -5.993  0.00  0.00    -0.004 A 
ATOM      5  C6  UNL d   1      -1.789   5.297  -5.999  0.00  0.00     0.002 A 
ATOM      6  C7  UNL d   1      -0.413   5.063  -5.986  0.00  0.00     0.002 A 
ENDROOT
BRANCH   1   7
ATOM      7  C1  UNL d   1       1.570   3.502  -6.000  0.00  0.00     0.055 C 
ATOM      8  C   UNL d   1       2.354   4.806  -5.984  0.00  0.00     0.019 C 
ENDBRANCH   1   7
TORSDOF 1
ENDMDL
