MODEL 1
REMARK minimizedAffinity 1.15283418
REMARK minimizedRMSD -1
REMARK  1 active torsions:
REMARK  status: ('A' for Active; 'I' for Inactive)
REMARK    1  A    between atoms: C1_2  and  C2_3 
ROOT
ATOM      1  C2  UNL d   1      -1.557   4.454  -5.768  0.00  0.00    -0.077 A 
ATOM      2  C3  UNL d   1      -2.443   3.371  -5.864  0.00  0.00     0.002 A 
ATOM      3  C4  UNL d   1      -3.822   3.582  -5.826  0.00  0.00     0.002 A 
ATOM      4  C5  UNL d   1      -4.329   4.874  -5.698  0.00  0.00    -0.004 A 
ATOM      5  C6  UNL d   1      -3.456   5.957  -5.600  0.00  0.00     0.002 A 
ATOM      6  C7  UNL d   1      -2.077   5.748  -5.636  0.00  0.00     0.002 A 
ENDROOT
BRANCH   1   7
ATOM      7  C1  UNL d   1      -0.070   4.234  -5.858  0.00  0.00     0.055 C 
ATOM      8  C   UNL d   1       0.680   5.554  -5.967  0.00  0.00     0.019 C 
ENDBRANCH   1   7
TORSDOF 1
ENDMDL
