MODEL 1
REMARK minimizedAffinity 4.72375965
REMARK minimizedRMSD -1
REMARK  0 active torsions:
REMARK  status: ('A' for Active; 'I' for Inactive)
ROOT
ATOM      1  C   UNL d   1      -0.263   3.498   0.081  0.00  0.00     0.078 C 
ATOM      2  C1  UNL d   1       0.485   2.782   1.165  0.00  0.00    -0.077 A 
ATOM      3  C2  UNL d   1       1.761   3.203   1.560  0.00  0.00    -0.001 A 
ATOM      4  C3  UNL d   1       2.450   2.520   2.564  0.00  0.00     0.003 A 
ATOM      5  C4  UNL d   1       1.872   1.412   3.180  0.00  0.00    -0.005 A 
ATOM      6  C5  UNL d   1       0.604   0.984   2.792  0.00  0.00     0.003 A 
ATOM      7  C6  UNL d   1      -0.086   1.665   1.788  0.00  0.00    -0.001 A 
ENDROOT
TORSDOF 0
ENDMDL
