MODEL 1
REMARK minimizedAffinity -0.234462097
REMARK minimizedRMSD -1
REMARK  0 active torsions:
REMARK  status: ('A' for Active; 'I' for Inactive)
ROOT
ATOM      1  C   UNL d   1       0.260   3.457  -0.358  0.00  0.00     0.078 C 
ATOM      2  C1  UNL d   1       0.680   2.023  -0.230  0.00  0.00    -0.077 A 
ATOM      3  C2  UNL d   1       0.605   1.149  -1.321  0.00  0.00    -0.001 A 
ATOM      4  C3  UNL d   1       0.990  -0.186  -1.185  0.00  0.00     0.003 A 
ATOM      5  C4  UNL d   1       1.453  -0.658   0.042  0.00  0.00    -0.005 A 
ATOM      6  C5  UNL d   1       1.529   0.203   1.134  0.00  0.00     0.003 A 
ATOM      7  C6  UNL d   1       1.144   1.538   1.000  0.00  0.00    -0.001 A 
ENDROOT
TORSDOF 0
ENDMDL
