MODEL 1
REMARK minimizedAffinity 8.56059933
REMARK minimizedRMSD -1
REMARK  0 active torsions:
REMARK  status: ('A' for Active; 'I' for Inactive)
ROOT
ATOM      1  C   UNL d   1      -5.082   4.066  -3.987  0.00  0.00     0.078 C 
ATOM      2  C1  UNL d   1      -4.824   2.696  -3.434  0.00  0.00    -0.077 A 
ATOM      3  C2  UNL d   1      -3.524   2.274  -3.129  0.00  0.00    -0.001 A 
ATOM      4  C3  UNL d   1      -3.298   0.992  -2.625  0.00  0.00     0.003 A 
ATOM      5  C4  UNL d   1      -4.367   0.122  -2.423  0.00  0.00    -0.005 A 
ATOM      6  C5  UNL d   1      -5.663   0.532  -2.726  0.00  0.00     0.003 A 
ATOM      7  C6  UNL d   1      -5.892   1.813  -3.230  0.00  0.00    -0.001 A 
ENDROOT
TORSDOF 0
ENDMDL
