MODEL 1
REMARK minimizedAffinity 6.99389553
REMARK minimizedRMSD -1
REMARK  0 active torsions:
REMARK  status: ('A' for Active; 'I' for Inactive)
ROOT
ATOM      1  C   UNL d   1       0.774   1.977   0.587  0.00  0.00     0.078 C 
ATOM      2  C1  UNL d   1       0.364   3.247  -0.097  0.00  0.00    -0.077 A 
ATOM      3  C2  UNL d   1      -0.987   3.587  -0.237  0.00  0.00    -0.001 A 
ATOM      4  C3  UNL d   1      -1.354   4.768  -0.885  0.00  0.00     0.003 A 
ATOM      5  C4  UNL d   1      -0.376   5.617  -1.399  0.00  0.00    -0.005 A 
ATOM      6  C5  UNL d   1       0.971   5.286  -1.266  0.00  0.00     0.003 A 
ATOM      7  C6  UNL d   1       1.340   4.106  -0.618  0.00  0.00    -0.001 A 
ENDROOT
TORSDOF 0
ENDMDL
