MODEL 1
REMARK minimizedAffinity 7.87910414
REMARK minimizedRMSD -1
REMARK  0 active torsions:
REMARK  status: ('A' for Active; 'I' for Inactive)
ROOT
ATOM      1  C   UNL d   1      -5.900   5.944  -6.000  0.00  0.00     0.078 C 
ATOM      2  C1  UNL d   1      -5.253   4.861  -5.190  0.00  0.00    -0.077 A 
ATOM      3  C2  UNL d   1      -6.000   3.783  -4.699  0.00  0.00    -0.001 A 
ATOM      4  C3  UNL d   1      -5.386   2.787  -3.938  0.00  0.00     0.003 A 
ATOM      5  C4  UNL d   1      -4.023   2.859  -3.660  0.00  0.00    -0.005 A 
ATOM      6  C5  UNL d   1      -3.272   3.929  -4.142  0.00  0.00     0.003 A 
ATOM      7  C6  UNL d   1      -3.884   4.926  -4.903  0.00  0.00    -0.001 A 
ENDROOT
TORSDOF 0
ENDMDL
