MODEL 1
REMARK minimizedAffinity 6.94641972
REMARK minimizedRMSD -1
REMARK  0 active torsions:
REMARK  status: ('A' for Active; 'I' for Inactive)
ROOT
ATOM      1  C   UNL d   1       0.873   5.997  -2.464  0.00  0.00     0.078 C 
ATOM      2  C1  UNL d   1       0.398   5.059  -1.394  0.00  0.00    -0.077 A 
ATOM      3  C2  UNL d   1       1.305   4.430  -0.533  0.00  0.00    -0.001 A 
ATOM      4  C3  UNL d   1       0.850   3.551   0.452  0.00  0.00     0.003 A 
ATOM      5  C4  UNL d   1      -0.513   3.294   0.584  0.00  0.00    -0.005 A 
ATOM      6  C5  UNL d   1      -1.423   3.914  -0.270  0.00  0.00     0.003 A 
ATOM      7  C6  UNL d   1      -0.970   4.793  -1.255  0.00  0.00    -0.001 A 
ENDROOT
TORSDOF 0
ENDMDL
