MODEL 1
REMARK minimizedAffinity -0.20141758
REMARK minimizedRMSD -1
REMARK  0 active torsions:
REMARK  status: ('A' for Active; 'I' for Inactive)
ROOT
ATOM      1  C1  DEN d   1       0.658   1.801   1.531  0.00  0.00     0.130 A 
ATOM      2  C2  DEN d   1      -0.595   1.226   1.049  0.00  0.00    -0.031 A 
ATOM      3  C3  DEN d   1      -0.993   1.958  -0.171  0.00  0.00     0.027 A 
ATOM      4  C4  DEN d   1       0.205   3.910  -1.356  0.00  0.00     0.027 A 
ATOM      5  C5  DEN d   1       1.295   4.750  -1.313  0.00  0.00    -0.003 A 
ATOM      6  C6  DEN d   1       2.224   4.689  -0.308  0.00  0.00     0.001 A 
ATOM      7  C7  DEN d   1       2.104   3.738   0.671  0.00  0.00     0.017 A 
ATOM      8  C8  DEN d   1       1.003   2.893   0.638  0.00  0.00    -0.094 A 
ATOM      9  C9  DEN d   1       0.081   2.962  -0.393  0.00  0.00    -0.072 A 
ENDROOT
TORSDOF 0
ENDMDL
