MODEL 1
REMARK minimizedAffinity 7.63434362
REMARK minimizedRMSD -1
REMARK  0 active torsions:
REMARK  status: ('A' for Active; 'I' for Inactive)
ROOT
ATOM      1  C1  DEN d   1      -0.489   1.222   1.473  0.00  0.00     0.130 A 
ATOM      2  C2  DEN d   1       0.273   2.310   0.865  0.00  0.00    -0.031 A 
ATOM      3  C3  DEN d   1       1.528   1.744   0.330  0.00  0.00     0.027 A 
ATOM      4  C4  DEN d   1       2.359  -0.697   0.380  0.00  0.00     0.027 A 
ATOM      5  C5  DEN d   1       2.062  -1.976   0.799  0.00  0.00    -0.003 A 
ATOM      6  C6  DEN d   1       0.920  -2.269   1.495  0.00  0.00     0.001 A 
ATOM      7  C7  DEN d   1       0.010  -1.279   1.755  0.00  0.00     0.017 A 
ATOM      8  C8  DEN d   1       0.306   0.014   1.343  0.00  0.00    -0.094 A 
ATOM      9  C9  DEN d   1       1.460   0.288   0.629  0.00  0.00    -0.072 A 
ENDROOT
TORSDOF 0
ENDMDL
