MODEL 1
REMARK minimizedAffinity 7.82107735
REMARK minimizedRMSD -1
REMARK  0 active torsions:
REMARK  status: ('A' for Active; 'I' for Inactive)
ROOT
ATOM      1  C1  DEN d   1      -0.727   0.748   1.960  0.00  0.00     0.130 A 
ATOM      2  C2  DEN d   1       0.666   1.182   1.887  0.00  0.00    -0.031 A 
ATOM      3  C3  DEN d   1       0.909   1.710   0.529  0.00  0.00     0.027 A 
ATOM      4  C4  DEN d   1      -0.727   1.900  -1.455  0.00  0.00     0.027 A 
ATOM      5  C5  DEN d   1      -2.015   1.651  -1.876  0.00  0.00    -0.003 A 
ATOM      6  C6  DEN d   1      -2.946   1.057  -1.066  0.00  0.00     0.001 A 
ATOM      7  C7  DEN d   1      -2.616   0.733   0.223  0.00  0.00     0.017 A 
ATOM      8  C8  DEN d   1      -1.318   0.975   0.653  0.00  0.00    -0.094 A 
ATOM      9  C9  DEN d   1      -0.394   1.587  -0.177  0.00  0.00    -0.072 A 
ENDROOT
TORSDOF 0
ENDMDL
