MODEL 1
REMARK minimizedAffinity 0.972885966
REMARK minimizedRMSD -1
REMARK  0 active torsions:
REMARK  status: ('A' for Active; 'I' for Inactive)
ROOT
ATOM      1  C1  DEN d   1      -0.840   1.857   1.380  0.00  0.00     0.130 A 
ATOM      2  C2  DEN d   1      -0.090   2.741   0.492  0.00  0.00    -0.031 A 
ATOM      3  C3  DEN d   1       1.169   2.060   0.127  0.00  0.00     0.027 A 
ATOM      4  C4  DEN d   1       2.022  -0.266   0.842  0.00  0.00     0.027 A 
ATOM      5  C5  DEN d   1       1.739  -1.382   1.598  0.00  0.00    -0.003 A 
ATOM      6  C6  DEN d   1       0.601  -1.482   2.355  0.00  0.00     0.001 A 
ATOM      7  C7  DEN d   1      -0.317  -0.465   2.337  0.00  0.00     0.017 A 
ATOM      8  C8  DEN d   1      -0.035   0.666   1.583  0.00  0.00    -0.094 A 
ATOM      9  C9  DEN d   1       1.115   0.743   0.815  0.00  0.00    -0.072 A 
ENDROOT
TORSDOF 0
ENDMDL
