MODEL 1
REMARK minimizedAffinity 1.20549822
REMARK minimizedRMSD -1
REMARK  0 active torsions:
REMARK  status: ('A' for Active; 'I' for Inactive)
ROOT
ATOM      1  C1  DEN d   1      -0.886   4.053  -1.294  0.00  0.00     0.130 A 
ATOM      2  C2  DEN d   1       0.216   5.000  -1.446  0.00  0.00    -0.031 A 
ATOM      3  C3  DEN d   1       1.361   4.497  -0.662  0.00  0.00     0.027 A 
ATOM      4  C4  DEN d   1       1.537   2.354   0.762  0.00  0.00     0.027 A 
ATOM      5  C5  DEN d   1       0.856   1.241   1.205  0.00  0.00    -0.003 A 
ATOM      6  C6  DEN d   1      -0.452   1.007   0.876  0.00  0.00     0.001 A 
ATOM      7  C7  DEN d   1      -1.109   1.875   0.044  0.00  0.00     0.017 A 
ATOM      8  C8  DEN d   1      -0.431   3.003  -0.400  0.00  0.00    -0.094 A 
ATOM      9  C9  DEN d   1       0.895   3.216  -0.066  0.00  0.00    -0.072 A 
ENDROOT
TORSDOF 0
ENDMDL
