MODEL 1
REMARK minimizedAffinity 7.54106474
REMARK minimizedRMSD -1
REMARK  0 active torsions:
REMARK  status: ('A' for Active; 'I' for Inactive)
ROOT
ATOM      1  C1  DEN d   1       1.799   2.674   1.898  0.00  0.00     0.130 A 
ATOM      2  C2  DEN d   1       0.808   1.613   2.059  0.00  0.00    -0.031 A 
ATOM      3  C3  DEN d   1      -0.016   1.569   0.834  0.00  0.00     0.027 A 
ATOM      4  C4  DEN d   1       0.147   3.028  -1.286  0.00  0.00     0.027 A 
ATOM      5  C5  DEN d   1       0.823   4.070  -1.882  0.00  0.00    -0.003 A 
ATOM      6  C6  DEN d   1       1.841   4.735  -1.253  0.00  0.00     0.001 A 
ATOM      7  C7  DEN d   1       2.243   4.337  -0.005  0.00  0.00     0.017 A 
ATOM      8  C8  DEN d   1       1.561   3.293   0.606  0.00  0.00    -0.094 A 
ATOM      9  C9  DEN d   1       0.542   2.625  -0.052  0.00  0.00    -0.072 A 
ENDROOT
TORSDOF 0
ENDMDL
