MODEL 1
REMARK minimizedAffinity 13.2837582
REMARK minimizedRMSD -1
REMARK  1 active torsions:
REMARK  status: ('A' for Active; 'I' for Inactive)
REMARK    1  A    between atoms: C1_2  and  C2_3 
ROOT
ATOM      1  C2  UNL d   1       0.748  -4.534  -1.517  0.00  0.00    -0.081 A 
ATOM      2  C3  UNL d   1       0.367  -3.724  -0.441  0.00  0.00     0.006 A 
ATOM      3  C4  UNL d   1      -0.763  -4.039   0.317  0.00  0.00     0.002 A 
ATOM      4  C5  UNL d   1      -1.526  -5.172   0.017  0.00  0.00    -0.080 A 
ATOM      5  C6  UNL d   1      -2.724  -5.538   0.841  0.00  0.00     0.076 C 
ATOM      6  C7  UNL d   1      -1.155  -5.972  -1.069  0.00  0.00     0.002 A 
ATOM      7  C8  UNL d   1      -0.026  -5.658  -1.828  0.00  0.00     0.006 A 
ENDROOT
BRANCH   1   8
ATOM      8  C1  UNL d   1       2.004  -4.234  -2.296  0.00  0.00     0.054 C 
ATOM      9  C   UNL d   1       3.141  -3.819  -1.374  0.00  0.00     0.018 C 
ENDBRANCH   1   8
TORSDOF 1
ENDMDL
