MODEL 1
REMARK minimizedAffinity 9.06910229
REMARK minimizedRMSD -1
REMARK  1 active torsions:
REMARK  status: ('A' for Active; 'I' for Inactive)
REMARK    1  A    between atoms: C1_2  and  C2_3 
ROOT
ATOM      1  C2  UNL d   1      -0.938  -3.537  -0.111  0.00  0.00    -0.081 A 
ATOM      2  C3  UNL d   1       0.234  -3.952   0.533  0.00  0.00     0.006 A 
ATOM      3  C4  UNL d   1       1.227  -4.635  -0.173  0.00  0.00     0.002 A 
ATOM      4  C5  UNL d   1       1.068  -4.908  -1.536  0.00  0.00    -0.080 A 
ATOM      5  C6  UNL d   1       2.139  -5.613  -2.313  0.00  0.00     0.076 C 
ATOM      6  C7  UNL d   1      -0.110  -4.509  -2.176  0.00  0.00     0.002 A 
ATOM      7  C8  UNL d   1      -1.103  -3.827  -1.470  0.00  0.00     0.006 A 
ENDROOT
BRANCH   1   8
ATOM      8  C1  UNL d   1      -1.981  -2.744   0.633  0.00  0.00     0.054 C 
ATOM      9  C   UNL d   1      -1.779  -1.248   0.442  0.00  0.00     0.018 C 
ENDBRANCH   1   8
TORSDOF 1
ENDMDL
