MODEL 1
REMARK minimizedAffinity 17.6795311
REMARK minimizedRMSD -1
REMARK  1 active torsions:
REMARK  status: ('A' for Active; 'I' for Inactive)
REMARK    1  A    between atoms: C1_2  and  C2_3 
ROOT
ATOM      1  C2  UNL d   1      -3.763   2.364  -3.651  0.00  0.00    -0.081 A 
ATOM      2  C3  UNL d   1      -3.393   2.967  -4.860  0.00  0.00     0.006 A 
ATOM      3  C4  UNL d   1      -4.122   4.046  -5.365  0.00  0.00     0.002 A 
ATOM      4  C5  UNL d   1      -5.227   4.545  -4.667  0.00  0.00    -0.080 A 
ATOM      5  C6  UNL d   1      -6.000   5.723  -5.183  0.00  0.00     0.076 C 
ATOM      6  C7  UNL d   1      -5.607   3.932  -3.468  0.00  0.00     0.002 A 
ATOM      7  C8  UNL d   1      -4.879   2.853  -2.963  0.00  0.00     0.006 A 
ENDROOT
BRANCH   1   8
ATOM      8  C1  UNL d   1      -2.940   1.242  -3.071  0.00  0.00     0.054 C 
ATOM      9  C   UNL d   1      -3.793   0.009  -2.810  0.00  0.00     0.018 C 
ENDBRANCH   1   8
TORSDOF 1
ENDMDL
