MODEL 1
REMARK minimizedAffinity 13.5349607
REMARK minimizedRMSD -1
REMARK  1 active torsions:
REMARK  status: ('A' for Active; 'I' for Inactive)
REMARK    1  A    between atoms: C1_2  and  C2_3 
ROOT
ATOM      1  C2  UNL d   1       3.805  -3.743  -0.047  0.00  0.00    -0.081 A 
ATOM      2  C3  UNL d   1       5.200  -3.847   0.031  0.00  0.00     0.006 A 
ATOM      3  C4  UNL d   1       5.909  -4.585  -0.919  0.00  0.00     0.002 A 
ATOM      4  C5  UNL d   1       5.238  -5.225  -1.967  0.00  0.00    -0.080 A 
ATOM      5  C6  UNL d   1       5.990  -5.995  -3.011  0.00  0.00     0.076 C 
ATOM      6  C7  UNL d   1       3.843  -5.136  -2.035  0.00  0.00     0.002 A 
ATOM      7  C8  UNL d   1       3.133  -4.398  -1.084  0.00  0.00     0.006 A 
ENDROOT
BRANCH   1   8
ATOM      8  C1  UNL d   1       3.044  -2.895   0.939  0.00  0.00     0.054 C 
ATOM      9  C   UNL d   1       2.806  -1.493   0.396  0.00  0.00     0.018 C 
ENDBRANCH   1   8
TORSDOF 1
ENDMDL
