MODEL 1
REMARK minimizedAffinity 8.44452858
REMARK minimizedRMSD -1
REMARK  1 active torsions:
REMARK  status: ('A' for Active; 'I' for Inactive)
REMARK    1  A    between atoms: C1_2  and  C2_3 
ROOT
ATOM      1  C2  UNL d   1       1.845  -1.529   2.143  0.00  0.00    -0.081 A 
ATOM      2  C3  UNL d   1       2.311  -2.842   2.283  0.00  0.00     0.006 A 
ATOM      3  C4  UNL d   1       2.298  -3.469   3.531  0.00  0.00     0.002 A 
ATOM      4  C5  UNL d   1       1.810  -2.797   4.658  0.00  0.00    -0.080 A 
ATOM      5  C6  UNL d   1       1.762  -3.470   5.998  0.00  0.00     0.076 C 
ATOM      6  C7  UNL d   1       1.361  -1.480   4.521  0.00  0.00     0.002 A 
ATOM      7  C8  UNL d   1       1.375  -0.852   3.274  0.00  0.00     0.006 A 
ENDROOT
BRANCH   1   8
ATOM      8  C1  UNL d   1       1.798  -0.872   0.787  0.00  0.00     0.054 C 
ATOM      9  C   UNL d   1       3.156  -0.923   0.101  0.00  0.00     0.018 C 
ENDBRANCH   1   8
TORSDOF 1
ENDMDL
