MODEL 1
REMARK minimizedAffinity 12.869483
REMARK minimizedRMSD -1
REMARK  1 active torsions:
REMARK  status: ('A' for Active; 'I' for Inactive)
REMARK    1  A    between atoms: C1_2  and  C2_3 
ROOT
ATOM      1  C2  UNL d   1       0.232  -2.580   1.063  0.00  0.00    -0.081 A 
ATOM      2  C3  UNL d   1      -1.124  -2.256   0.923  0.00  0.00     0.006 A 
ATOM      3  C4  UNL d   1      -2.027  -3.194   0.418  0.00  0.00     0.002 A 
ATOM      4  C5  UNL d   1      -1.593  -4.472   0.050  0.00  0.00    -0.080 A 
ATOM      5  C6  UNL d   1      -2.558  -5.498  -0.466  0.00  0.00     0.076 C 
ATOM      6  C7  UNL d   1      -0.236  -4.789   0.173  0.00  0.00     0.002 A 
ATOM      7  C8  UNL d   1       0.668  -3.852   0.678  0.00  0.00     0.006 A 
ENDROOT
BRANCH   1   8
ATOM      8  C1  UNL d   1       1.197  -1.593   1.668  0.00  0.00     0.054 C 
ATOM      9  C   UNL d   1       2.493  -1.527   0.873  0.00  0.00     0.018 C 
ENDBRANCH   1   8
TORSDOF 1
ENDMDL
