MODEL 1
REMARK minimizedAffinity -2.48322487
REMARK minimizedRMSD -1
REMARK  1 active torsions:
REMARK  status: ('A' for Active; 'I' for Inactive)
REMARK    1  A    between atoms: C1_2  and  C2_3 
ROOT
ATOM      1  C2  UNL d   1       0.375   0.204  -2.123  0.00  0.00    -0.081 A 
ATOM      2  C3  UNL d   1      -0.232   1.365  -1.630  0.00  0.00     0.006 A 
ATOM      3  C4  UNL d   1      -0.778   1.388  -0.344  0.00  0.00     0.002 A 
ATOM      4  C5  UNL d   1      -0.718   0.253   0.472  0.00  0.00    -0.080 A 
ATOM      5  C6  UNL d   1      -1.273   0.273   1.866  0.00  0.00     0.076 C 
ATOM      6  C7  UNL d   1      -0.127  -0.913  -0.027  0.00  0.00     0.002 A 
ATOM      7  C8  UNL d   1       0.417  -0.936  -1.313  0.00  0.00     0.006 A 
ENDROOT
BRANCH   1   8
ATOM      8  C1  UNL d   1       1.021   0.196  -3.485  0.00  0.00     0.054 C 
ATOM      9  C   UNL d   1       1.520   1.582  -3.868  0.00  0.00     0.018 C 
ENDBRANCH   1   8
TORSDOF 1
ENDMDL
