MODEL 1
REMARK minimizedAffinity 3.64742231
REMARK minimizedRMSD -1
REMARK  1 active torsions:
REMARK  status: ('A' for Active; 'I' for Inactive)
REMARK    1  A    between atoms: C1_2  and  C2_3 
ROOT
ATOM      1  C2  UNL d   1      -3.086  -0.286  -0.611  0.00  0.00    -0.081 A 
ATOM      2  C3  UNL d   1      -2.663   0.456   0.498  0.00  0.00     0.006 A 
ATOM      3  C4  UNL d   1      -1.313   0.493   0.854  0.00  0.00     0.002 A 
ATOM      4  C5  UNL d   1      -0.362  -0.206   0.102  0.00  0.00    -0.080 A 
ATOM      5  C6  UNL d   1       1.095  -0.150   0.454  0.00  0.00     0.076 C 
ATOM      6  C7  UNL d   1      -0.786  -0.962  -0.996  0.00  0.00     0.002 A 
ATOM      7  C8  UNL d   1      -2.136  -0.999  -1.351  0.00  0.00     0.006 A 
ENDROOT
BRANCH   1   8
ATOM      8  C1  UNL d   1      -4.532  -0.276  -1.035  0.00  0.00     0.054 C 
ATOM      9  C   UNL d   1      -4.986  -1.656  -1.488  0.00  0.00     0.018 C 
ENDBRANCH   1   8
TORSDOF 1
ENDMDL
