MODEL 1
REMARK minimizedAffinity -2.42832851
REMARK minimizedRMSD -1
REMARK  1 active torsions:
REMARK  status: ('A' for Active; 'I' for Inactive)
REMARK    1  A    between atoms: C1_2  and  C2_3 
ROOT
ATOM      1  C2  UNL d   1      -0.627   0.132   1.516  0.00  0.00    -0.081 A 
ATOM      2  C3  UNL d   1       0.685  -0.284   1.257  0.00  0.00     0.006 A 
ATOM      3  C4  UNL d   1       1.106  -0.524  -0.053  0.00  0.00     0.002 A 
ATOM      4  C5  UNL d   1       0.226  -0.345  -1.126  0.00  0.00    -0.080 A 
ATOM      5  C6  UNL d   1       0.675  -0.570  -2.539  0.00  0.00     0.076 C 
ATOM      6  C7  UNL d   1      -1.090   0.053  -0.866  0.00  0.00     0.002 A 
ATOM      7  C8  UNL d   1      -1.512   0.293   0.443  0.00  0.00     0.006 A 
ENDROOT
BRANCH   1   8
ATOM      8  C1  UNL d   1      -1.066   0.454   2.921  0.00  0.00     0.054 C 
ATOM      9  C   UNL d   1       0.012   0.095   3.933  0.00  0.00     0.018 C 
ENDBRANCH   1   8
TORSDOF 1
ENDMDL
