MODEL 1
REMARK minimizedAffinity -4.93286085
REMARK minimizedRMSD -1
REMARK  1 active torsions:
REMARK  status: ('A' for Active; 'I' for Inactive)
REMARK    1  A    between atoms: C1_2  and  C2_3 
ROOT
ATOM      1  C2  UNL d   1      -0.180  -0.724  -0.409  0.00  0.00    -0.081 A 
ATOM      2  C3  UNL d   1      -1.378  -0.032  -0.194  0.00  0.00     0.006 A 
ATOM      3  C4  UNL d   1      -1.601   0.640   1.010  0.00  0.00     0.002 A 
ATOM      4  C5  UNL d   1      -0.628   0.638   2.015  0.00  0.00    -0.080 A 
ATOM      5  C6  UNL d   1      -0.843   1.381   3.300  0.00  0.00     0.076 C 
ATOM      6  C7  UNL d   1       0.562  -0.068   1.807  0.00  0.00     0.002 A 
ATOM      7  C8  UNL d   1       0.785  -0.741   0.603  0.00  0.00     0.006 A 
ENDROOT
BRANCH   1   8
ATOM      8  C1  UNL d   1       0.091  -1.396  -1.732  0.00  0.00     0.054 C 
ATOM      9  C   UNL d   1       0.818  -0.461  -2.688  0.00  0.00     0.018 C 
ENDBRANCH   1   8
TORSDOF 1
ENDMDL
