MODEL 1
REMARK minimizedAffinity -2.82993507
REMARK minimizedRMSD -1
REMARK  1 active torsions:
REMARK  status: ('A' for Active; 'I' for Inactive)
REMARK    1  A    between atoms: C1_2  and  C2_3 
ROOT
ATOM      1  C2  UNL d   1      -0.304  -1.516  -4.602  0.00  0.00    -0.081 A 
ATOM      2  C3  UNL d   1      -0.727  -2.276  -3.505  0.00  0.00     0.006 A 
ATOM      3  C4  UNL d   1      -0.371  -1.905  -2.206  0.00  0.00     0.002 A 
ATOM      4  C5  UNL d   1       0.407  -0.764  -1.982  0.00  0.00    -0.080 A 
ATOM      5  C6  UNL d   1       0.771  -0.337  -0.591  0.00  0.00     0.076 C 
ATOM      6  C7  UNL d   1       0.845  -0.014  -3.079  0.00  0.00     0.002 A 
ATOM      7  C8  UNL d   1       0.490  -0.385  -4.378  0.00  0.00     0.006 A 
ENDROOT
BRANCH   1   8
ATOM      8  C1  UNL d   1      -0.740  -1.877  -5.999  0.00  0.00     0.054 C 
ATOM      9  C   UNL d   1      -1.666  -3.084  -5.995  0.00  0.00     0.018 C 
ENDBRANCH   1   8
TORSDOF 1
ENDMDL
