MODEL 1
REMARK minimizedAffinity 6.55296612
REMARK minimizedRMSD -1
REMARK  1 active torsions:
REMARK  status: ('A' for Active; 'I' for Inactive)
REMARK    1  A    between atoms: C1_2  and  C2_3 
ROOT
ATOM      1  C2  UNL d   1      -3.518   1.056   0.556  0.00  0.00    -0.081 A 
ATOM      2  C3  UNL d   1      -3.010   2.298   0.957  0.00  0.00     0.006 A 
ATOM      3  C4  UNL d   1      -1.892   2.369   1.792  0.00  0.00     0.002 A 
ATOM      4  C5  UNL d   1      -1.259   1.201   2.232  0.00  0.00    -0.080 A 
ATOM      5  C6  UNL d   1      -0.040   1.264   3.103  0.00  0.00     0.076 C 
ATOM      6  C7  UNL d   1      -1.777  -0.039   1.845  0.00  0.00     0.002 A 
ATOM      7  C8  UNL d   1      -2.895  -0.111   1.011  0.00  0.00     0.006 A 
ENDROOT
BRANCH   1   8
ATOM      8  C1  UNL d   1      -4.684   0.977  -0.396  0.00  0.00     0.054 C 
ATOM      9  C   UNL d   1      -4.455  -0.083  -1.464  0.00  0.00     0.018 C 
ENDBRANCH   1   8
TORSDOF 1
ENDMDL
