MODEL 1
REMARK minimizedAffinity -1.82042658
REMARK minimizedRMSD -1
REMARK  0 active torsions:
REMARK  status: ('A' for Active; 'I' for Inactive)
ROOT
ATOM      1  C   UNL d   1      -1.839   1.247   0.426  0.00  0.00     0.020 A 
ATOM      2  C1  UNL d   1      -1.715   2.221  -0.564  0.00  0.00     0.020 A 
ATOM      3  C2  UNL d   1      -0.974   1.955  -1.717  0.00  0.00     0.034 A 
ATOM      4  C3  UNL d   1      -0.353   0.711  -1.883  0.00  0.00     0.017 A 
ATOM      5  C4  UNL d   1      -0.478  -0.266  -0.888  0.00  0.00     0.017 A 
ATOM      6  C5  UNL d   1      -1.221   0.006   0.264  0.00  0.00     0.034 A 
ATOM      7 Cl   UNL d   1       0.259  -1.824  -1.022  0.00  0.00    -0.070 Cl
ATOM      8 Cl1  UNL d   1       0.548   0.450  -3.334  0.00  0.00    -0.070 Cl
ENDROOT
TORSDOF 0
ENDMDL
