MODEL 1
REMARK minimizedAffinity -0.940152347
REMARK minimizedRMSD -1
REMARK  0 active torsions:
REMARK  status: ('A' for Active; 'I' for Inactive)
ROOT
ATOM      1  C   UNL d   1       0.577   0.853  -2.845  0.00  0.00     0.020 A 
ATOM      2  C1  UNL d   1      -0.125   1.835  -2.148  0.00  0.00     0.020 A 
ATOM      3  C2  UNL d   1      -0.438   1.647  -0.800  0.00  0.00     0.034 A 
ATOM      4  C3  UNL d   1      -0.049   0.473  -0.145  0.00  0.00     0.017 A 
ATOM      5  C4  UNL d   1       0.656  -0.513  -0.845  0.00  0.00     0.017 A 
ATOM      6  C5  UNL d   1       0.967  -0.318  -2.195  0.00  0.00     0.034 A 
ATOM      7 Cl   UNL d   1       1.171  -1.987  -0.104  0.00  0.00    -0.070 Cl
ATOM      8 Cl1  UNL d   1      -0.469   0.307   1.523  0.00  0.00    -0.070 Cl
ENDROOT
TORSDOF 0
ENDMDL
