MODEL 1
REMARK minimizedAffinity -5.37109423
REMARK minimizedRMSD -1
REMARK  0 active torsions:
REMARK  status: ('A' for Active; 'I' for Inactive)
ROOT
ATOM      1  C   UNL d   1      -1.093   2.853   1.583  0.00  0.00     0.020 A 
ATOM      2  C1  UNL d   1      -0.654   1.630   2.088  0.00  0.00     0.020 A 
ATOM      3  C2  UNL d   1      -0.151   0.657   1.222  0.00  0.00     0.034 A 
ATOM      4  C3  UNL d   1      -0.088   0.904  -0.154  0.00  0.00     0.017 A 
ATOM      5  C4  UNL d   1      -0.529   2.132  -0.660  0.00  0.00     0.017 A 
ATOM      6  C5  UNL d   1      -1.031   3.103   0.212  0.00  0.00     0.034 A 
ATOM      7 Cl   UNL d   1      -0.481   2.510  -2.346  0.00  0.00    -0.070 Cl
ATOM      8 Cl1  UNL d   1       0.545  -0.345  -1.166  0.00  0.00    -0.070 Cl
ENDROOT
TORSDOF 0
ENDMDL
