MODEL 1
REMARK minimizedAffinity -2.34159374
REMARK minimizedRMSD -1
REMARK  0 active torsions:
REMARK  status: ('A' for Active; 'I' for Inactive)
ROOT
ATOM      1  C   UNL d   1       1.209  -0.362  -1.278  0.00  0.00     0.020 A 
ATOM      2  C1  UNL d   1       1.276  -0.590   0.096  0.00  0.00     0.020 A 
ATOM      3  C2  UNL d   1       0.463   0.142   0.965  0.00  0.00     0.034 A 
ATOM      4  C3  UNL d   1      -0.419   1.105   0.461  0.00  0.00     0.017 A 
ATOM      5  C4  UNL d   1      -0.485   1.332  -0.919  0.00  0.00     0.017 A 
ATOM      6  C5  UNL d   1       0.331   0.596  -1.784  0.00  0.00     0.034 A 
ATOM      7 Cl   UNL d   1      -1.549   2.503  -1.615  0.00  0.00    -0.070 Cl
ATOM      8 Cl1  UNL d   1      -1.394   1.972   1.593  0.00  0.00    -0.070 Cl
ENDROOT
TORSDOF 0
ENDMDL
