MODEL 1
REMARK minimizedAffinity -5.6021657
REMARK minimizedRMSD -1
REMARK  0 active torsions:
REMARK  status: ('A' for Active; 'I' for Inactive)
ROOT
ATOM      1  C   UNL d   1      -1.346   3.121  -0.926  0.00  0.00     0.020 A 
ATOM      2  C1  UNL d   1      -1.424   3.544   0.401  0.00  0.00     0.020 A 
ATOM      3  C2  UNL d   1      -0.781   2.817   1.405  0.00  0.00     0.034 A 
ATOM      4  C3  UNL d   1      -0.056   1.663   1.084  0.00  0.00     0.017 A 
ATOM      5  C4  UNL d   1       0.023   1.240  -0.248  0.00  0.00     0.017 A 
ATOM      6  C5  UNL d   1      -0.624   1.971  -1.249  0.00  0.00     0.034 A 
ATOM      7 Cl   UNL d   1       0.898  -0.173  -0.721  0.00  0.00    -0.070 Cl
ATOM      8 Cl1  UNL d   1       0.715   0.813   2.376  0.00  0.00    -0.070 Cl
ENDROOT
TORSDOF 0
ENDMDL
