MODEL 1
REMARK minimizedAffinity -3.94667196
REMARK minimizedRMSD -1
REMARK  0 active torsions:
REMARK  status: ('A' for Active; 'I' for Inactive)
ROOT
ATOM      1  C   UNL d   1      -0.225   2.906   0.826  0.00  0.00     0.020 A 
ATOM      2  C1  UNL d   1      -0.153   1.795   1.665  0.00  0.00     0.020 A 
ATOM      3  C2  UNL d   1       0.133   0.536   1.133  0.00  0.00     0.034 A 
ATOM      4  C3  UNL d   1       0.347   0.385  -0.242  0.00  0.00     0.017 A 
ATOM      5  C4  UNL d   1       0.274   1.501  -1.083  0.00  0.00     0.017 A 
ATOM      6  C5  UNL d   1      -0.012   2.759  -0.545  0.00  0.00     0.034 A 
ATOM      7 Cl   UNL d   1       0.526   1.393  -2.790  0.00  0.00    -0.070 Cl
ATOM      8 Cl1  UNL d   1       0.696  -1.201  -0.831  0.00  0.00    -0.070 Cl
ENDROOT
TORSDOF 0
ENDMDL
