MODEL 1
REMARK minimizedAffinity -2.29540133
REMARK minimizedRMSD -1
REMARK  0 active torsions:
REMARK  status: ('A' for Active; 'I' for Inactive)
ROOT
ATOM      1  C   UNL d   1      -0.629   1.639   1.968  0.00  0.00     0.020 A 
ATOM      2  C1  UNL d   1      -1.102   2.899   1.606  0.00  0.00     0.020 A 
ATOM      3  C2  UNL d   1      -1.036   3.313   0.274  0.00  0.00     0.034 A 
ATOM      4  C3  UNL d   1      -0.497   2.466  -0.701  0.00  0.00     0.017 A 
ATOM      5  C4  UNL d   1      -0.023   1.200  -0.336  0.00  0.00     0.017 A 
ATOM      6  C5  UNL d   1      -0.091   0.791   0.999  0.00  0.00     0.034 A 
ATOM      7 Cl   UNL d   1       0.656   0.099  -1.483  0.00  0.00    -0.070 Cl
ATOM      8 Cl1  UNL d   1      -0.447   3.042  -2.329  0.00  0.00    -0.070 Cl
ENDROOT
TORSDOF 0
ENDMDL
