MODEL 1
REMARK minimizedAffinity -1.54700541
REMARK minimizedRMSD -1
REMARK  0 active torsions:
REMARK  status: ('A' for Active; 'I' for Inactive)
ROOT
ATOM      1  C   UNL d   1       0.863  -0.161  -0.911  0.00  0.00     0.020 A 
ATOM      2  C1  UNL d   1       0.904  -0.264   0.479  0.00  0.00     0.020 A 
ATOM      3  C2  UNL d   1       0.070   0.536   1.263  0.00  0.00     0.034 A 
ATOM      4  C3  UNL d   1      -0.810   1.441   0.658  0.00  0.00     0.017 A 
ATOM      5  C4  UNL d   1      -0.850   1.543  -0.738  0.00  0.00     0.017 A 
ATOM      6  C5  UNL d   1      -0.012   0.740  -1.518  0.00  0.00     0.034 A 
ATOM      7 Cl   UNL d   1      -1.908   2.637  -1.557  0.00  0.00    -0.070 Cl
ATOM      8 Cl1  UNL d   1      -1.813   2.398   1.689  0.00  0.00    -0.070 Cl
ENDROOT
TORSDOF 0
ENDMDL
