MODEL 1
REMARK minimizedAffinity -3.66292906
REMARK minimizedRMSD -1
REMARK  0 active torsions:
REMARK  status: ('A' for Active; 'I' for Inactive)
ROOT
ATOM      1  C   UNL d   1      -1.473   3.135   0.418  0.00  0.00     0.020 A 
ATOM      2  C1  UNL d   1      -1.394   2.828   1.776  0.00  0.00     0.020 A 
ATOM      3  C2  UNL d   1      -0.887   1.594   2.185  0.00  0.00     0.034 A 
ATOM      4  C3  UNL d   1      -0.455   0.660   1.235  0.00  0.00     0.017 A 
ATOM      5  C4  UNL d   1      -0.535   0.969  -0.128  0.00  0.00     0.017 A 
ATOM      6  C5  UNL d   1      -1.044   2.207  -0.532  0.00  0.00     0.034 A 
ATOM      7 Cl   UNL d   1      -0.022  -0.132  -1.358  0.00  0.00    -0.070 Cl
ATOM      8 Cl1  UNL d   1       0.162  -0.847   1.812  0.00  0.00    -0.070 Cl
ENDROOT
TORSDOF 0
ENDMDL
