MODEL 1
REMARK minimizedAffinity -2.21342063
REMARK minimizedRMSD -1
REMARK  0 active torsions:
REMARK  status: ('A' for Active; 'I' for Inactive)
ROOT
ATOM      1  C   UNL d   1       1.769  -0.459   2.400  0.00  0.00     0.078 C 
ATOM      2  C1  UNL d   1       1.288  -0.383   0.982  0.00  0.00    -0.077 A 
ATOM      3  C2  UNL d   1       0.113   0.305   0.654  0.00  0.00    -0.001 A 
ATOM      4  C3  UNL d   1      -0.328   0.359  -0.669  0.00  0.00     0.003 A 
ATOM      5  C4  UNL d   1       0.399  -0.274  -1.675  0.00  0.00    -0.005 A 
ATOM      6  C5  UNL d   1       1.568  -0.963  -1.359  0.00  0.00     0.003 A 
ATOM      7  C6  UNL d   1       2.011  -1.018  -0.036  0.00  0.00    -0.001 A 
ENDROOT
TORSDOF 0
ENDMDL
