MODEL 1
REMARK minimizedAffinity -4.01258707
REMARK minimizedRMSD -1
REMARK  0 active torsions:
REMARK  status: ('A' for Active; 'I' for Inactive)
ROOT
ATOM      1  C   UNL d   1       0.808  -0.776   2.589  0.00  0.00     0.078 C 
ATOM      2  C1  UNL d   1       0.158  -0.305   1.322  0.00  0.00    -0.077 A 
ATOM      3  C2  UNL d   1      -1.187   0.082   1.303  0.00  0.00    -0.001 A 
ATOM      4  C3  UNL d   1      -1.782   0.509   0.115  0.00  0.00     0.003 A 
ATOM      5  C4  UNL d   1      -1.040   0.552  -1.063  0.00  0.00    -0.005 A 
ATOM      6  C5  UNL d   1       0.299   0.167  -1.055  0.00  0.00     0.003 A 
ATOM      7  C6  UNL d   1       0.896  -0.261   0.133  0.00  0.00    -0.001 A 
ENDROOT
TORSDOF 0
ENDMDL
