MODEL 1
REMARK minimizedAffinity -2.26450133
REMARK minimizedRMSD -1
REMARK  0 active torsions:
REMARK  status: ('A' for Active; 'I' for Inactive)
ROOT
ATOM      1  C   UNL d   1      -1.454   0.629  -1.794  0.00  0.00     0.078 C 
ATOM      2  C1  UNL d   1      -0.196   0.221  -1.088  0.00  0.00    -0.077 A 
ATOM      3  C2  UNL d   1      -0.089   0.310   0.305  0.00  0.00    -0.001 A 
ATOM      4  C3  UNL d   1       1.092  -0.064   0.948  0.00  0.00     0.003 A 
ATOM      5  C4  UNL d   1       2.176  -0.528   0.206  0.00  0.00    -0.005 A 
ATOM      6  C5  UNL d   1       2.080  -0.618  -1.181  0.00  0.00     0.003 A 
ATOM      7  C6  UNL d   1       0.900  -0.244  -1.826  0.00  0.00    -0.001 A 
ENDROOT
TORSDOF 0
ENDMDL
