MODEL 1
REMARK minimizedAffinity -2.28216624
REMARK minimizedRMSD -1
REMARK  0 active torsions:
REMARK  status: ('A' for Active; 'I' for Inactive)
ROOT
ATOM      1  C   UNL d   1      -1.655  -0.185   0.386  0.00  0.00     0.078 C 
ATOM      2  C1  UNL d   1      -0.162  -0.227   0.520  0.00  0.00    -0.077 A 
ATOM      3  C2  UNL d   1       0.659  -0.366  -0.606  0.00  0.00    -0.001 A 
ATOM      4  C3  UNL d   1       2.047  -0.414  -0.466  0.00  0.00     0.003 A 
ATOM      5  C4  UNL d   1       2.626  -0.325   0.799  0.00  0.00    -0.005 A 
ATOM      6  C5  UNL d   1       1.817  -0.189   1.925  0.00  0.00     0.003 A 
ATOM      7  C6  UNL d   1       0.429  -0.141   1.786  0.00  0.00    -0.001 A 
ENDROOT
TORSDOF 0
ENDMDL
