MODEL 1
REMARK minimizedAffinity -5.48897457
REMARK minimizedRMSD -1
REMARK  0 active torsions:
REMARK  status: ('A' for Active; 'I' for Inactive)
ROOT
ATOM      1  C   UNL d   1      -0.907   0.092   1.809  0.00  0.00     0.078 C 
ATOM      2  C1  UNL d   1       0.280  -0.763   1.479  0.00  0.00    -0.077 A 
ATOM      3  C2  UNL d   1       0.852  -0.741   0.201  0.00  0.00    -0.001 A 
ATOM      4  C3  UNL d   1       1.950  -1.550  -0.094  0.00  0.00     0.003 A 
ATOM      5  C4  UNL d   1       2.486  -2.387   0.882  0.00  0.00    -0.005 A 
ATOM      6  C5  UNL d   1       1.923  -2.417   2.156  0.00  0.00     0.003 A 
ATOM      7  C6  UNL d   1       0.824  -1.609   2.454  0.00  0.00    -0.001 A 
ENDROOT
TORSDOF 0
ENDMDL
