MODEL 1
REMARK minimizedAffinity -3.5483861
REMARK minimizedRMSD -1
REMARK  0 active torsions:
REMARK  status: ('A' for Active; 'I' for Inactive)
ROOT
ATOM      1  C   UNL d   1       0.063  -0.174  -1.547  0.00  0.00     0.078 C 
ATOM      2  C1  UNL d   1      -0.119  -0.338  -0.068  0.00  0.00    -0.077 A 
ATOM      3  C2  UNL d   1       0.962  -0.665   0.760  0.00  0.00    -0.001 A 
ATOM      4  C3  UNL d   1       0.777  -0.824   2.134  0.00  0.00     0.003 A 
ATOM      5  C4  UNL d   1      -0.489  -0.658   2.693  0.00  0.00    -0.005 A 
ATOM      6  C5  UNL d   1      -1.571  -0.334   1.877  0.00  0.00     0.003 A 
ATOM      7  C6  UNL d   1      -1.387  -0.175   0.503  0.00  0.00    -0.001 A 
ENDROOT
TORSDOF 0
ENDMDL
