MODEL 1
REMARK minimizedAffinity -5.4437418
REMARK minimizedRMSD -1
REMARK  0 active torsions:
REMARK  status: ('A' for Active; 'I' for Inactive)
ROOT
ATOM      1  C   UNL d   1      -0.714   0.458  -1.152  0.00  0.00     0.078 C 
ATOM      2  C1  UNL d   1      -0.143  -0.016   0.151  0.00  0.00    -0.077 A 
ATOM      3  C2  UNL d   1      -0.974  -0.296   1.243  0.00  0.00    -0.001 A 
ATOM      4  C3  UNL d   1      -0.428  -0.727   2.453  0.00  0.00     0.003 A 
ATOM      5  C4  UNL d   1       0.951  -0.881   2.583  0.00  0.00    -0.005 A 
ATOM      6  C5  UNL d   1       1.786  -0.603   1.502  0.00  0.00     0.003 A 
ATOM      7  C6  UNL d   1       1.241  -0.171   0.292  0.00  0.00    -0.001 A 
ENDROOT
TORSDOF 0
ENDMDL
