MODEL 1
REMARK minimizedAffinity -4.04470444
REMARK minimizedRMSD -1
REMARK  0 active torsions:
REMARK  status: ('A' for Active; 'I' for Inactive)
ROOT
ATOM      1  C4' PXY d   1       0.913   1.872   2.566  0.00  0.00     0.077 C 
ATOM      2  C1' PXY d   1       1.696  -0.218  -2.766  0.00  0.00     0.077 C 
ATOM      3  C1  PXY d   1       1.501   0.339  -1.370  0.00  0.00    -0.082 A 
ATOM      4  C2  PXY d   1       0.914  -0.405  -0.446  0.00  0.00     0.003 A 
ATOM      5  C3  PXY d   1       0.700   0.094   0.813  0.00  0.00     0.003 A 
ATOM      6  C4  PXY d   1       1.140   1.348   1.145  0.00  0.00    -0.082 A 
ATOM      7  C5  PXY d   1       1.749   2.108   0.211  0.00  0.00     0.003 A 
ATOM      8  C6  PXY d   1       1.919   1.599  -1.073  0.00  0.00     0.003 A 
ENDROOT
TORSDOF 0
ENDMDL
