MODEL 1
REMARK minimizedAffinity -4.21529579
REMARK minimizedRMSD -1
REMARK  0 active torsions:
REMARK  status: ('A' for Active; 'I' for Inactive)
ROOT
ATOM      1  C4' PXY d   1      -0.091   0.785   1.722  0.00  0.00     0.077 C 
ATOM      2  C1' PXY d   1       2.242  -0.723  -3.348  0.00  0.00     0.077 C 
ATOM      3  C1  PXY d   1       1.622  -0.337  -2.019  0.00  0.00    -0.082 A 
ATOM      4  C2  PXY d   1       1.756   0.900  -1.569  0.00  0.00     0.003 A 
ATOM      5  C3  PXY d   1       1.228   1.257  -0.355  0.00  0.00     0.003 A 
ATOM      6  C4  PXY d   1       0.510   0.353   0.381  0.00  0.00    -0.082 A 
ATOM      7  C5  PXY d   1       0.360  -0.908  -0.076  0.00  0.00     0.003 A 
ATOM      8  C6  PXY d   1       0.938  -1.262  -1.292  0.00  0.00     0.003 A 
ENDROOT
TORSDOF 0
ENDMDL
