MODEL 1
REMARK minimizedAffinity -2.59556007
REMARK minimizedRMSD -1
REMARK  0 active torsions:
REMARK  status: ('A' for Active; 'I' for Inactive)
ROOT
ATOM      1  C4' PXY d   1       0.312  -2.670  -0.391  0.00  0.00     0.077 C 
ATOM      2  C1' PXY d   1       1.492   2.979  -0.065  0.00  0.00     0.077 C 
ATOM      3  C1  PXY d   1       1.180   1.497  -0.138  0.00  0.00    -0.082 A 
ATOM      4  C2  PXY d   1       1.718   0.762  -1.096  0.00  0.00     0.003 A 
ATOM      5  C3  PXY d   1       1.421  -0.573  -1.196  0.00  0.00     0.003 A 
ATOM      6  C4  PXY d   1       0.607  -1.173  -0.273  0.00  0.00    -0.082 A 
ATOM      7  C5  PXY d   1       0.062  -0.431   0.715  0.00  0.00     0.003 A 
ATOM      8  C6  PXY d   1       0.343   0.931   0.774  0.00  0.00     0.003 A 
ENDROOT
TORSDOF 0
ENDMDL
