MODEL 1
REMARK minimizedAffinity -2.50413418
REMARK minimizedRMSD -1
REMARK  0 active torsions:
REMARK  status: ('A' for Active; 'I' for Inactive)
ROOT
ATOM      1  C4' PXY d   1      -1.987  -0.418   1.167  0.00  0.00     0.077 C 
ATOM      2  C1' PXY d   1       2.736   0.421  -2.058  0.00  0.00     0.077 C 
ATOM      3  C1  PXY d   1       1.496   0.189  -1.217  0.00  0.00    -0.082 A 
ATOM      4  C2  PXY d   1       0.805   1.226  -0.771  0.00  0.00     0.003 A 
ATOM      5  C3  PXY d   1      -0.301   1.035   0.017  0.00  0.00     0.003 A 
ATOM      6  C4  PXY d   1      -0.734  -0.231   0.307  0.00  0.00    -0.082 A 
ATOM      7  C5  PXY d   1      -0.041  -1.294  -0.153  0.00  0.00     0.003 A 
ATOM      8  C6  PXY d   1       1.103  -1.078  -0.917  0.00  0.00     0.003 A 
ENDROOT
TORSDOF 0
ENDMDL
