MODEL 1
REMARK minimizedAffinity -0.812007785
REMARK minimizedRMSD -1
REMARK  0 active torsions:
REMARK  status: ('A' for Active; 'I' for Inactive)
ROOT
ATOM      1  C4' PXY d   1       2.228   3.228   3.836  0.00  0.00     0.077 C 
ATOM      2  C1' PXY d   1      -1.233   0.018   0.501  0.00  0.00     0.077 C 
ATOM      3  C1  PXY d   1      -0.334   0.858   1.386  0.00  0.00    -0.082 A 
ATOM      4  C2  PXY d   1       0.469   1.756   0.838  0.00  0.00     0.003 A 
ATOM      5  C3  PXY d   1       1.312   2.502   1.620  0.00  0.00     0.003 A 
ATOM      6  C4  PXY d   1       1.296   2.364   2.983  0.00  0.00    -0.082 A 
ATOM      7  C5  PXY d   1       0.473   1.457   3.550  0.00  0.00     0.003 A 
ATOM      8  C6  PXY d   1      -0.346   0.681   2.735  0.00  0.00     0.003 A 
ENDROOT
TORSDOF 0
ENDMDL
