MODEL 1
REMARK minimizedAffinity 0.871942639
REMARK minimizedRMSD -1
REMARK  0 active torsions:
REMARK  status: ('A' for Active; 'I' for Inactive)
ROOT
ATOM      1  C4' PXY d   1      -2.879   0.709   2.259  0.00  0.00     0.077 C 
ATOM      2  C1' PXY d   1       1.223  -0.955  -1.458  0.00  0.00     0.077 C 
ATOM      3  C1  PXY d   1       0.147  -0.531  -0.479  0.00  0.00    -0.082 A 
ATOM      4  C2  PXY d   1      -0.613   0.516  -0.755  0.00  0.00     0.003 A 
ATOM      5  C3  PXY d   1      -1.570   0.933   0.135  0.00  0.00     0.003 A 
ATOM      6  C4  PXY d   1      -1.786   0.239   1.295  0.00  0.00    -0.082 A 
ATOM      7  C5  PXY d   1      -1.022  -0.837   1.579  0.00  0.00     0.003 A 
ATOM      8  C6  PXY d   1      -0.029  -1.220   0.682  0.00  0.00     0.003 A 
ENDROOT
TORSDOF 0
ENDMDL
