MODEL 1
REMARK minimizedAffinity -3.85137701
REMARK minimizedRMSD -1
REMARK  0 active torsions:
REMARK  status: ('A' for Active; 'I' for Inactive)
ROOT
ATOM      1  C4' PXY d   1       2.268   2.622   2.018  0.00  0.00     0.077 C 
ATOM      2  C1' PXY d   1       1.378   0.016  -3.064  0.00  0.00     0.077 C 
ATOM      3  C1  PXY d   1       1.599   0.703  -1.731  0.00  0.00    -0.082 A 
ATOM      4  C2  PXY d   1       2.807   1.140  -1.412  0.00  0.00     0.003 A 
ATOM      5  C3  PXY d   1       3.031   1.734  -0.197  0.00  0.00     0.003 A 
ATOM      6  C4  PXY d   1       1.997   1.931   0.679  0.00  0.00    -0.082 A 
ATOM      7  C5  PXY d   1       0.760   1.498   0.356  0.00  0.00     0.003 A 
ATOM      8  C6  PXY d   1       0.562   0.860  -0.865  0.00  0.00     0.003 A 
ENDROOT
TORSDOF 0
ENDMDL
