MODEL 1
REMARK minimizedAffinity 2.88853073
REMARK minimizedRMSD -1
REMARK  0 active torsions:
REMARK  status: ('A' for Active; 'I' for Inactive)
ROOT
ATOM      1  C4' PXY d   1       3.512   0.634  -1.147  0.00  0.00     0.077 C 
ATOM      2  C1' PXY d   1      -1.979  -0.403   0.330  0.00  0.00     0.077 C 
ATOM      3  C1  PXY d   1      -0.539  -0.143  -0.064  0.00  0.00    -0.082 A 
ATOM      4  C2  PXY d   1       0.213   0.643   0.690  0.00  0.00     0.003 A 
ATOM      5  C3  PXY d   1       1.508   0.915   0.331  0.00  0.00     0.003 A 
ATOM      6  C4  PXY d   1       2.055   0.335  -0.782  0.00  0.00    -0.082 A 
ATOM      7  C5  PXY d   1       1.297  -0.476  -1.551  0.00  0.00     0.003 A 
ATOM      8  C6  PXY d   1      -0.027  -0.707  -1.191  0.00  0.00     0.003 A 
ENDROOT
TORSDOF 0
ENDMDL
