MODEL 1
REMARK minimizedAffinity -0.618077695
REMARK minimizedRMSD -1
REMARK  0 active torsions:
REMARK  status: ('A' for Active; 'I' for Inactive)
ROOT
ATOM      1  C4' PXY d   1       1.621  -0.016  -3.307  0.00  0.00     0.077 C 
ATOM      2  C1' PXY d   1      -1.133  -0.317   1.767  0.00  0.00     0.077 C 
ATOM      3  C1  PXY d   1      -0.412  -0.225   0.436  0.00  0.00    -0.082 A 
ATOM      4  C2  PXY d   1      -0.407  -1.267  -0.378  0.00  0.00     0.003 A 
ATOM      5  C3  PXY d   1       0.267  -1.212  -1.571  0.00  0.00     0.003 A 
ATOM      6  C4  PXY d   1       0.898  -0.060  -1.958  0.00  0.00    -0.082 A 
ATOM      7  C5  PXY d   1       0.888   1.011  -1.137  0.00  0.00     0.003 A 
ATOM      8  C6  PXY d   1       0.233   0.922   0.088  0.00  0.00     0.003 A 
ENDROOT
TORSDOF 0
ENDMDL
