MODEL 1
REMARK minimizedAffinity -2.90516376
REMARK minimizedRMSD -1
REMARK  0 active torsions:
REMARK  status: ('A' for Active; 'I' for Inactive)
ROOT
ATOM      1  C4' PXY d   1       2.519   0.061  -2.657  0.00  0.00     0.077 C 
ATOM      2  C1' PXY d   1      -1.931  -0.380   1.006  0.00  0.00     0.077 C 
ATOM      3  C1  PXY d   1      -0.764  -0.277   0.044  0.00  0.00    -0.082 A 
ATOM      4  C2  PXY d   1       0.022   0.786   0.081  0.00  0.00     0.003 A 
ATOM      5  C3  PXY d   1       1.063   0.910  -0.803  0.00  0.00     0.003 A 
ATOM      6  C4  PXY d   1       1.334  -0.089  -1.698  0.00  0.00    -0.082 A 
ATOM      7  C5  PXY d   1       0.543  -1.183  -1.735  0.00  0.00     0.003 A 
ATOM      8  C6  PXY d   1      -0.533  -1.270  -0.857  0.00  0.00     0.003 A 
ENDROOT
TORSDOF 0
ENDMDL
