MODEL 1
REMARK minimizedAffinity -3.02866983
REMARK minimizedRMSD -1
REMARK  0 active torsions:
REMARK  status: ('A' for Active; 'I' for Inactive)
ROOT
ATOM      1  C4' PXY d   1      -0.115   0.576   2.106  0.00  0.00     0.077 C 
ATOM      2  C1' PXY d   1       1.885  -0.196  -3.263  0.00  0.00     0.077 C 
ATOM      3  C1  PXY d   1       1.351  -0.002  -1.857  0.00  0.00    -0.082 A 
ATOM      4  C2  PXY d   1       1.607   1.123  -1.210  0.00  0.00     0.003 A 
ATOM      5  C3  PXY d   1       1.159   1.302   0.074  0.00  0.00     0.003 A 
ATOM      6  C4  PXY d   1       0.396   0.341   0.682  0.00  0.00    -0.082 A 
ATOM      7  C5  PXY d   1       0.122  -0.805   0.024  0.00  0.00     0.003 A 
ATOM      8  C6  PXY d   1       0.621  -0.984  -1.263  0.00  0.00     0.003 A 
ENDROOT
TORSDOF 0
ENDMDL
