MODEL 1
REMARK minimizedAffinity -3.21677327
REMARK minimizedRMSD -1
REMARK  0 active torsions:
REMARK  status: ('A' for Active; 'I' for Inactive)
ROOT
ATOM      1  C4' PXY d   1      -3.690   0.342   2.060  0.00  0.00     0.077 C 
ATOM      2  C1' PXY d   1       1.714   1.264   3.892  0.00  0.00     0.077 C 
ATOM      3  C1  PXY d   1       0.302   1.019   3.400  0.00  0.00    -0.082 A 
ATOM      4  C2  PXY d   1      -0.718   1.575   4.034  0.00  0.00     0.003 A 
ATOM      5  C3  PXY d   1      -2.004   1.339   3.622  0.00  0.00     0.003 A 
ATOM      6  C4  PXY d   1      -2.246   0.569   2.516  0.00  0.00    -0.082 A 
ATOM      7  C5  PXY d   1      -1.211   0.006   1.857  0.00  0.00     0.003 A 
ATOM      8  C6  PXY d   1       0.085   0.225   2.317  0.00  0.00     0.003 A 
ENDROOT
TORSDOF 0
ENDMDL
