MODEL 1
REMARK minimizedAffinity -4.3314743
REMARK minimizedRMSD -1
REMARK  0 active torsions:
REMARK  status: ('A' for Active; 'I' for Inactive)
ROOT
ATOM      1  C4' PXY d   1      -1.851  -0.036   0.822  0.00  0.00     0.077 C 
ATOM      2  C1' PXY d   1       2.015  -0.157  -3.474  0.00  0.00     0.077 C 
ATOM      3  C1  PXY d   1       1.010  -0.125  -2.339  0.00  0.00    -0.082 A 
ATOM      4  C2  PXY d   1      -0.221  -0.563  -2.543  0.00  0.00     0.003 A 
ATOM      5  C3  PXY d   1      -1.151  -0.512  -1.536  0.00  0.00     0.003 A 
ATOM      6  C4  PXY d   1      -0.802  -0.058  -0.293  0.00  0.00    -0.082 A 
ATOM      7  C5  PXY d   1       0.456   0.381  -0.074  0.00  0.00     0.003 A 
ATOM      8  C6  PXY d   1       1.374   0.359  -1.120  0.00  0.00     0.003 A 
ENDROOT
TORSDOF 0
ENDMDL
