MODEL 1
REMARK minimizedAffinity -4.07755756
REMARK minimizedRMSD -1
REMARK  0 active torsions:
REMARK  status: ('A' for Active; 'I' for Inactive)
ROOT
ATOM      1  C4' PXY d   1      -2.295   0.485   0.992  0.00  0.00     0.077 C 
ATOM      2  C1' PXY d   1       2.192   0.341  -2.650  0.00  0.00     0.077 C 
ATOM      3  C1  PXY d   1       1.019   0.368  -1.689  0.00  0.00    -0.082 A 
ATOM      4  C2  PXY d   1      -0.078   1.031  -2.015  0.00  0.00     0.003 A 
ATOM      5  C3  PXY d   1      -1.136   1.092  -1.144  0.00  0.00     0.003 A 
ATOM      6  C4  PXY d   1      -1.090   0.423   0.049  0.00  0.00    -0.082 A 
ATOM      7  C5  PXY d   1       0.022  -0.265   0.384  0.00  0.00     0.003 A 
ATOM      8  C6  PXY d   1       1.101  -0.280  -0.496  0.00  0.00     0.003 A 
ENDROOT
TORSDOF 0
ENDMDL
