MODEL 1
REMARK minimizedAffinity -3.71929169
REMARK minimizedRMSD -1
REMARK  0 active torsions:
REMARK  status: ('A' for Active; 'I' for Inactive)
ROOT
ATOM      1  C4' PXY d   1      -2.318   0.294   0.297  0.00  0.00     0.077 C 
ATOM      2  C1' PXY d   1       2.991   0.246  -1.989  0.00  0.00     0.077 C 
ATOM      3  C1  PXY d   1       1.593   0.256  -1.401  0.00  0.00    -0.082 A 
ATOM      4  C2  PXY d   1       1.358   0.927  -0.285  0.00  0.00     0.003 A 
ATOM      5  C3  PXY d   1       0.107   0.920   0.277  0.00  0.00     0.003 A 
ATOM      6  C4  PXY d   1      -0.925   0.263  -0.337  0.00  0.00    -0.082 A 
ATOM      7  C5  PXY d   1      -0.695  -0.414  -1.481  0.00  0.00     0.003 A 
ATOM      8  C6  PXY d   1       0.590  -0.429  -2.014  0.00  0.00     0.003 A 
ENDROOT
TORSDOF 0
ENDMDL
