MODEL 1
REMARK minimizedAffinity 0.893631399
REMARK minimizedRMSD -1
REMARK  0 active torsions:
REMARK  status: ('A' for Active; 'I' for Inactive)
ROOT
ATOM      1  C4' PXY d   1       0.548   1.921   0.170  0.00  0.00     0.077 C 
ATOM      2  C1' PXY d   1       0.079  -3.674  -1.205  0.00  0.00     0.077 C 
ATOM      3  C1  PXY d   1       0.209  -2.204  -0.855  0.00  0.00    -0.082 A 
ATOM      4  C2  PXY d   1       0.083  -1.818   0.404  0.00  0.00     0.003 A 
ATOM      5  C3  PXY d   1       0.165  -0.490   0.734  0.00  0.00     0.003 A 
ATOM      6  C4  PXY d   1       0.433   0.447  -0.228  0.00  0.00    -0.082 A 
ATOM      7  C5  PXY d   1       0.574   0.060  -1.514  0.00  0.00     0.003 A 
ATOM      8  C6  PXY d   1       0.445  -1.289  -1.833  0.00  0.00     0.003 A 
ENDROOT
TORSDOF 0
ENDMDL
