MODEL 1
REMARK minimizedAffinity -0.624101162
REMARK minimizedRMSD -1
REMARK  0 active torsions:
REMARK  status: ('A' for Active; 'I' for Inactive)
ROOT
ATOM      1  C4' PXY d   1       0.164  -0.799  -2.196  0.00  0.00     0.077 C 
ATOM      2  C1' PXY d   1       0.829   1.356   3.127  0.00  0.00     0.077 C 
ATOM      3  C1  PXY d   1       0.654   0.779   1.736  0.00  0.00    -0.082 A 
ATOM      4  C2  PXY d   1       1.059   1.473   0.684  0.00  0.00     0.003 A 
ATOM      5  C3  PXY d   1       0.879   0.980  -0.583  0.00  0.00     0.003 A 
ATOM      6  C4  PXY d   1       0.328  -0.260  -0.772  0.00  0.00    -0.082 A 
ATOM      7  C5  PXY d   1      -0.077  -0.978   0.296  0.00  0.00     0.003 A 
ATOM      8  C6  PXY d   1       0.077  -0.442   1.572  0.00  0.00     0.003 A 
ENDROOT
TORSDOF 0
ENDMDL
