MODEL 1
REMARK minimizedAffinity -0.218589082
REMARK minimizedRMSD -1
REMARK  0 active torsions:
REMARK  status: ('A' for Active; 'I' for Inactive)
ROOT
ATOM      1  C4' PXY d   1       2.745   3.429   2.984  0.00  0.00     0.077 C 
ATOM      2  C1' PXY d   1      -0.007   0.465  -1.146  0.00  0.00     0.077 C 
ATOM      3  C1  PXY d   1       0.723   1.247  -0.072  0.00  0.00    -0.082 A 
ATOM      4  C2  PXY d   1       0.717   0.807   1.176  0.00  0.00     0.003 A 
ATOM      5  C3  PXY d   1       1.344   1.519   2.165  0.00  0.00     0.003 A 
ATOM      6  C4  PXY d   1       2.030   2.666   1.865  0.00  0.00    -0.082 A 
ATOM      7  C5  PXY d   1       2.050   3.116   0.593  0.00  0.00     0.003 A 
ATOM      8  C6  PXY d   1       1.372   2.400  -0.390  0.00  0.00     0.003 A 
ENDROOT
TORSDOF 0
ENDMDL
