MODEL 1
REMARK minimizedAffinity -3.08091736
REMARK minimizedRMSD -1
REMARK  0 active torsions:
REMARK  status: ('A' for Active; 'I' for Inactive)
ROOT
ATOM      1  C4' PXY d   1      -4.861  -0.022  -6.000  0.00  0.00     0.077 C 
ATOM      2  C1' PXY d   1      -4.573   5.751  -5.971  0.00  0.00     0.077 C 
ATOM      3  C1  PXY d   1      -4.660   4.238  -5.973  0.00  0.00    -0.082 A 
ATOM      4  C2  PXY d   1      -3.550   3.518  -5.965  0.00  0.00     0.003 A 
ATOM      5  C3  PXY d   1      -3.610   2.149  -6.000  0.00  0.00     0.003 A 
ATOM      6  C4  PXY d   1      -4.820   1.509  -5.988  0.00  0.00    -0.082 A 
ATOM      7  C5  PXY d   1      -5.958   2.235  -5.985  0.00  0.00     0.003 A 
ATOM      8  C6  PXY d   1      -5.875   3.625  -5.992  0.00  0.00     0.003 A 
ENDROOT
TORSDOF 0
ENDMDL
