MODEL 1
REMARK minimizedAffinity 4.24509048
REMARK minimizedRMSD -1
REMARK  0 active torsions:
REMARK  status: ('A' for Active; 'I' for Inactive)
ROOT
ATOM      1  C4' PXY d   1      -2.702   5.720  -5.999  0.00  0.00     0.077 C 
ATOM      2  C1' PXY d   1      -5.520   0.715  -5.350  0.00  0.00     0.077 C 
ATOM      3  C1  PXY d   1      -4.791   2.032  -5.528  0.00  0.00    -0.082 A 
ATOM      4  C2  PXY d   1      -3.476   2.077  -5.383  0.00  0.00     0.003 A 
ATOM      5  C3  PXY d   1      -2.805   3.265  -5.508  0.00  0.00     0.003 A 
ATOM      6  C4  PXY d   1      -3.479   4.411  -5.838  0.00  0.00    -0.082 A 
ATOM      7  C5  PXY d   1      -4.819   4.371  -5.998  0.00  0.00     0.003 A 
ATOM      8  C6  PXY d   1      -5.487   3.163  -5.826  0.00  0.00     0.003 A 
ENDROOT
TORSDOF 0
ENDMDL
