MODEL 1
REMARK minimizedAffinity 7.5430274
REMARK minimizedRMSD -1
REMARK  0 active torsions:
REMARK  status: ('A' for Active; 'I' for Inactive)
ROOT
ATOM      1  C   UNL d   1       4.704  -4.503   2.453  0.00  0.00     0.172 C 
ATOM      2  N   UNL d   1       4.923  -4.529   3.881  0.00  0.00    -0.070 N 
ATOM      3  C1  UNL d   1       4.571  -5.549   4.724  0.00  0.00    -0.004 A 
ATOM      4  C2  UNL d   1       4.950  -5.191   6.000  0.00  0.00    -0.047 A 
ATOM      5  C3  UNL d   1       5.548  -3.911   5.921  0.00  0.00    -0.047 A 
ATOM      6  C4  UNL d   1       5.519  -3.525   4.597  0.00  0.00    -0.004 A 
ENDROOT
TORSDOF 0
ENDMDL
