MODEL 1
REMARK minimizedAffinity -1.21875763
REMARK minimizedRMSD -1
REMARK  0 active torsions:
REMARK  status: ('A' for Active; 'I' for Inactive)
ROOT
ATOM      1  C   UNL d   1       3.634   5.902   5.575  0.00  0.00     0.172 C 
ATOM      2  N   UNL d   1       2.463   5.385   4.908  0.00  0.00    -0.070 N 
ATOM      3  C1  UNL d   1       1.241   6.000   4.849  0.00  0.00    -0.004 A 
ATOM      4  C2  UNL d   1       0.394   5.188   4.125  0.00  0.00    -0.047 A 
ATOM      5  C3  UNL d   1       1.133   4.045   3.737  0.00  0.00    -0.047 A 
ATOM      6  C4  UNL d   1       2.410   4.193   4.235  0.00  0.00    -0.004 A 
ENDROOT
TORSDOF 0
ENDMDL
