MODEL 1
REMARK minimizedAffinity -0.987275064
REMARK minimizedRMSD -1
REMARK  0 active torsions:
REMARK  status: ('A' for Active; 'I' for Inactive)
ROOT
ATOM      1  C   UNL d   1       5.812   5.111  -5.983  0.00  0.00     0.172 C 
ATOM      2  N   UNL d   1       4.386   4.881  -5.986  0.00  0.00    -0.070 N 
ATOM      3  C1  UNL d   1       3.421   5.852  -5.977  0.00  0.00    -0.004 A 
ATOM      4  C2  UNL d   1       2.193   5.227  -5.985  0.00  0.00    -0.047 A 
ATOM      5  C3  UNL d   1       2.428   3.831  -5.997  0.00  0.00    -0.047 A 
ATOM      6  C4  UNL d   1       3.795   3.645  -5.998  0.00  0.00    -0.004 A 
ENDROOT
TORSDOF 0
ENDMDL
