MODEL 1
REMARK minimizedAffinity -2.44647884
REMARK minimizedRMSD -1
REMARK  0 active torsions:
REMARK  status: ('A' for Active; 'I' for Inactive)
ROOT
ATOM      1  C   UNL d   1       5.814   2.903  -5.625  0.00  0.00     0.172 C 
ATOM      2  N   UNL d   1       4.857   3.984  -5.624  0.00  0.00    -0.070 N 
ATOM      3  C1  UNL d   1       5.112   5.277  -5.251  0.00  0.00    -0.004 A 
ATOM      4  C2  UNL d   1       3.944   5.995  -5.392  0.00  0.00    -0.047 A 
ATOM      5  C3  UNL d   1       2.953   5.103  -5.865  0.00  0.00    -0.047 A 
ATOM      6  C4  UNL d   1       3.545   3.865  -6.000  0.00  0.00    -0.004 A 
ENDROOT
TORSDOF 0
ENDMDL
