MODEL 1
REMARK minimizedAffinity -1.0909065
REMARK minimizedRMSD -1
REMARK  0 active torsions:
REMARK  status: ('A' for Active; 'I' for Inactive)
ROOT
ATOM      1  C   UNL d   1       4.067   5.998   5.985  0.00  0.00     0.172 C 
ATOM      2  N   UNL d   1       2.954   5.457   5.240  0.00  0.00    -0.070 N 
ATOM      3  C1  UNL d   1       1.699   6.000   5.174  0.00  0.00    -0.004 A 
ATOM      4  C2  UNL d   1       0.931   5.189   4.366  0.00  0.00    -0.047 A 
ATOM      5  C3  UNL d   1       1.753   4.122   3.933  0.00  0.00    -0.047 A 
ATOM      6  C4  UNL d   1       3.000   4.313   4.489  0.00  0.00    -0.004 A 
ENDROOT
TORSDOF 0
ENDMDL
