MODEL 1
REMARK minimizedAffinity -0.474368244
REMARK minimizedRMSD -1
REMARK  0 active torsions:
REMARK  status: ('A' for Active; 'I' for Inactive)
ROOT
ATOM      1  C   UNL d   1       2.997   3.744   3.310  0.00  0.00     0.172 C 
ATOM      2  N   UNL d   1       2.392   4.660   4.248  0.00  0.00    -0.070 N 
ATOM      3  C1  UNL d   1       1.118   5.154   4.173  0.00  0.00    -0.004 A 
ATOM      4  C2  UNL d   1       0.925   5.990   5.251  0.00  0.00    -0.047 A 
ATOM      5  C3  UNL d   1       2.126   6.000   6.000  0.00  0.00    -0.047 A 
ATOM      6  C4  UNL d   1       3.017   5.168   5.356  0.00  0.00    -0.004 A 
ENDROOT
TORSDOF 0
ENDMDL
