MODEL 1
REMARK minimizedAffinity -3.20453215
REMARK minimizedRMSD -1
REMARK  0 active torsions:
REMARK  status: ('A' for Active; 'I' for Inactive)
ROOT
ATOM      1  C   UNL d   1       5.990   2.940  -5.999  0.00  0.00     0.172 C 
ATOM      2  N   UNL d   1       4.771   3.711  -5.928  0.00  0.00    -0.070 N 
ATOM      3  C1  UNL d   1       3.501   3.204  -5.999  0.00  0.00    -0.004 A 
ATOM      4  C2  UNL d   1       2.619   4.258  -5.892  0.00  0.00    -0.047 A 
ATOM      5  C3  UNL d   1       3.387   5.439  -5.752  0.00  0.00    -0.047 A 
ATOM      6  C4  UNL d   1       4.715   5.071  -5.777  0.00  0.00    -0.004 A 
ENDROOT
TORSDOF 0
ENDMDL
