MODEL 1
REMARK minimizedAffinity -0.153324783
REMARK minimizedRMSD -1
REMARK  0 active torsions:
REMARK  status: ('A' for Active; 'I' for Inactive)
ROOT
ATOM      1  C   UNL d   1       4.672   6.000   5.289  0.00  0.00     0.172 C 
ATOM      2  N   UNL d   1       3.315   5.687   4.908  0.00  0.00    -0.070 N 
ATOM      3  C1  UNL d   1       2.191   6.000   5.625  0.00  0.00    -0.004 A 
ATOM      4  C2  UNL d   1       1.100   5.531   4.926  0.00  0.00    -0.047 A 
ATOM      5  C3  UNL d   1       1.584   4.914   3.748  0.00  0.00    -0.047 A 
ATOM      6  C4  UNL d   1       2.959   5.025   3.762  0.00  0.00    -0.004 A 
ENDROOT
TORSDOF 0
ENDMDL
