MODEL 1
REMARK minimizedAffinity -0.533341944
REMARK minimizedRMSD -1
REMARK  0 active torsions:
REMARK  status: ('A' for Active; 'I' for Inactive)
ROOT
ATOM      1  C   UNL d   1       1.921  -3.437   1.445  0.00  0.00     0.172 C 
ATOM      2  N   UNL d   1       1.133  -2.229   1.372  0.00  0.00    -0.070 N 
ATOM      3  C1  UNL d   1       0.938  -1.469   0.250  0.00  0.00    -0.004 A 
ATOM      4  C2  UNL d   1       0.131  -0.406   0.594  0.00  0.00    -0.047 A 
ATOM      5  C3  UNL d   1      -0.170  -0.532   1.971  0.00  0.00    -0.047 A 
ATOM      6  C4  UNL d   1       0.463  -1.669   2.428  0.00  0.00    -0.004 A 
ENDROOT
TORSDOF 0
ENDMDL
