MODEL 1
REMARK minimizedAffinity 2.61691499
REMARK minimizedRMSD -1
REMARK  0 active torsions:
REMARK  status: ('A' for Active; 'I' for Inactive)
ROOT
ATOM      1  C   UNL d   1       3.252   5.928   5.965  0.00  0.00     0.172 C 
ATOM      2  N   UNL d   1       1.945   5.595   5.448  0.00  0.00    -0.070 N 
ATOM      3  C1  UNL d   1       0.749   5.995   5.983  0.00  0.00    -0.004 A 
ATOM      4  C2  UNL d   1      -0.259   5.472   5.202  0.00  0.00    -0.047 A 
ATOM      5  C3  UNL d   1       0.352   4.731   4.163  0.00  0.00    -0.047 A 
ATOM      6  C4  UNL d   1       1.717   4.824   4.339  0.00  0.00    -0.004 A 
ENDROOT
TORSDOF 0
ENDMDL
