MODEL 1
REMARK minimizedAffinity -1.9591248
REMARK minimizedRMSD -1
REMARK  0 active torsions:
REMARK  status: ('A' for Active; 'I' for Inactive)
ROOT
ATOM      1  C   UNL d   1       4.158   5.989   2.855  0.00  0.00     0.172 C 
ATOM      2  N   UNL d   1       3.078   5.993   3.814  0.00  0.00    -0.070 N 
ATOM      3  C1  UNL d   1       3.221   5.996   5.176  0.00  0.00    -0.004 A 
ATOM      4  C2  UNL d   1       1.960   6.000   5.733  0.00  0.00    -0.047 A 
ATOM      5  C3  UNL d   1       1.027   5.998   4.668  0.00  0.00    -0.047 A 
ATOM      6  C4  UNL d   1       1.747   5.993   3.492  0.00  0.00    -0.004 A 
ENDROOT
TORSDOF 0
ENDMDL
