MODEL 1
REMARK minimizedAffinity 0.69868207
REMARK minimizedRMSD -1
REMARK  0 active torsions:
REMARK  status: ('A' for Active; 'I' for Inactive)
ROOT
ATOM      1  C   UNL d   1       0.822   6.000   4.245  0.00  0.00     0.172 C 
ATOM      2  N   UNL d   1       1.929   5.364   3.569  0.00  0.00    -0.070 N 
ATOM      3  C1  UNL d   1       2.283   4.046   3.684  0.00  0.00    -0.004 A 
ATOM      4  C2  UNL d   1       3.386   3.835   2.885  0.00  0.00    -0.047 A 
ATOM      5  C3  UNL d   1       3.705   5.068   2.269  0.00  0.00    -0.047 A 
ATOM      6  C4  UNL d   1       2.787   5.997   2.710  0.00  0.00    -0.004 A 
ENDROOT
TORSDOF 0
ENDMDL
