MODEL 1
REMARK minimizedAffinity -1.59924591
REMARK minimizedRMSD -1
REMARK  0 active torsions:
REMARK  status: ('A' for Active; 'I' for Inactive)
ROOT
ATOM      1  C   UNL d   1       3.892   6.000   2.709  0.00  0.00     0.172 C 
ATOM      2  N   UNL d   1       2.831   5.996   3.689  0.00  0.00    -0.070 N 
ATOM      3  C1  UNL d   1       1.490   5.990   3.414  0.00  0.00    -0.004 A 
ATOM      4  C2  UNL d   1       0.813   5.988   4.615  0.00  0.00    -0.047 A 
ATOM      5  C3  UNL d   1       1.781   5.994   5.647  0.00  0.00    -0.047 A 
ATOM      6  C4  UNL d   1       3.022   5.999   5.045  0.00  0.00    -0.004 A 
ENDROOT
TORSDOF 0
ENDMDL
