MODEL 1
REMARK minimizedAffinity -2.02325463
REMARK minimizedRMSD -1
REMARK  0 active torsions:
REMARK  status: ('A' for Active; 'I' for Inactive)
ROOT
ATOM      1  C   UNL d   1       3.930   5.996   1.881  0.00  0.00     0.172 C 
ATOM      2  N   UNL d   1       3.247   5.997   3.153  0.00  0.00    -0.070 N 
ATOM      3  C1  UNL d   1       3.849   5.996   4.383  0.00  0.00    -0.004 A 
ATOM      4  C2  UNL d   1       2.856   5.998   5.339  0.00  0.00    -0.047 A 
ATOM      5  C3  UNL d   1       1.615   6.000   4.661  0.00  0.00    -0.047 A 
ATOM      6  C4  UNL d   1       1.886   5.999   3.309  0.00  0.00    -0.004 A 
ENDROOT
TORSDOF 0
ENDMDL
