MODEL 1
REMARK minimizedAffinity 14.2807894
REMARK minimizedRMSD -1
REMARK  1 active torsions:
REMARK  status: ('A' for Active; 'I' for Inactive)
REMARK    1  A    between atoms: C1_2  and  C2_3 
ROOT
ATOM      1  C2  UNL d   1       1.425  -3.491  -1.771  0.00  0.00    -0.076 A 
ATOM      2  C3  UNL d   1       1.034  -2.199  -2.163  0.00  0.00     0.004 A 
ATOM      3  C4  UNL d   1       1.614  -1.069  -1.589  0.00  0.00    -0.003 A 
ATOM      4  C5  UNL d   1       2.595  -1.213  -0.615  0.00  0.00     0.000 A 
ATOM      5  C6  UNL d   1       3.008  -2.487  -0.227  0.00  0.00     0.000 A 
ATOM      6  C7  UNL d   1       2.445  -3.637  -0.807  0.00  0.00    -0.073 A 
ATOM      7  C8  UNL d   1       2.923  -4.986  -0.346  0.00  0.00     0.078 C 
ENDROOT
BRANCH   1   8
ATOM      8  C1  UNL d   1       0.740  -4.679  -2.409  0.00  0.00     0.053 C 
ATOM      9  C   UNL d   1      -0.767  -4.504  -2.500  0.00  0.00     0.018 C 
ENDBRANCH   1   8
TORSDOF 1
ENDMDL
