MODEL 1
REMARK minimizedAffinity 6.74168777
REMARK minimizedRMSD -1
REMARK  1 active torsions:
REMARK  status: ('A' for Active; 'I' for Inactive)
REMARK    1  A    between atoms: C1_2  and  C2_3 
ROOT
ATOM      1  C2  UNL d   1      -3.618  -2.459  -5.405  0.00  0.00    -0.076 A 
ATOM      2  C3  UNL d   1      -3.842  -3.713  -6.000  0.00  0.00     0.004 A 
ATOM      3  C4  UNL d   1      -3.220  -4.861  -5.510  0.00  0.00    -0.003 A 
ATOM      4  C5  UNL d   1      -2.364  -4.773  -4.418  0.00  0.00     0.000 A 
ATOM      5  C6  UNL d   1      -2.144  -3.540  -3.805  0.00  0.00     0.000 A 
ATOM      6  C7  UNL d   1      -2.776  -2.376  -4.276  0.00  0.00    -0.073 A 
ATOM      7  C8  UNL d   1      -2.498  -1.072  -3.580  0.00  0.00     0.078 C 
ENDROOT
BRANCH   1   8
ATOM      8  C1  UNL d   1      -4.298  -1.246  -5.997  0.00  0.00     0.053 C 
ATOM      9  C   UNL d   1      -5.814  -1.367  -5.991  0.00  0.00     0.018 C 
ENDBRANCH   1   8
TORSDOF 1
ENDMDL
