MODEL 1
REMARK minimizedAffinity 10.0227518
REMARK minimizedRMSD -1
REMARK  1 active torsions:
REMARK  status: ('A' for Active; 'I' for Inactive)
REMARK    1  A    between atoms: C1_2  and  C2_3 
ROOT
ATOM      1  C2  UNL d   1       2.564  -0.505  -0.858  0.00  0.00    -0.076 A 
ATOM      2  C3  UNL d   1       3.070  -1.547  -0.062  0.00  0.00     0.004 A 
ATOM      3  C4  UNL d   1       2.793  -2.879  -0.363  0.00  0.00    -0.003 A 
ATOM      4  C5  UNL d   1       2.006  -3.192  -1.466  0.00  0.00     0.000 A 
ATOM      5  C6  UNL d   1       1.510  -2.172  -2.277  0.00  0.00     0.000 A 
ATOM      6  C7  UNL d   1       1.793  -0.824  -1.997  0.00  0.00    -0.073 A 
ATOM      7  C8  UNL d   1       1.227   0.236  -2.902  0.00  0.00     0.078 C 
ENDROOT
BRANCH   1   8
ATOM      8  C1  UNL d   1       2.875   0.922  -0.467  0.00  0.00     0.053 C 
ATOM      9  C   UNL d   1       4.232   1.383  -0.975  0.00  0.00     0.018 C 
ENDBRANCH   1   8
TORSDOF 1
ENDMDL
