MODEL 1
REMARK minimizedAffinity 16.774374
REMARK minimizedRMSD -1
REMARK  1 active torsions:
REMARK  status: ('A' for Active; 'I' for Inactive)
REMARK    1  A    between atoms: C1_2  and  C2_3 
ROOT
ATOM      1  C2  UNL d   1      -2.684  -4.637  -3.540  0.00  0.00    -0.076 A 
ATOM      2  C3  UNL d   1      -3.966  -4.750  -4.105  0.00  0.00     0.004 A 
ATOM      3  C4  UNL d   1      -4.395  -3.863  -5.092  0.00  0.00    -0.003 A 
ATOM      4  C5  UNL d   1      -3.549  -2.850  -5.529  0.00  0.00     0.000 A 
ATOM      5  C6  UNL d   1      -2.267  -2.735  -4.992  0.00  0.00     0.000 A 
ATOM      6  C7  UNL d   1      -1.813  -3.630  -4.008  0.00  0.00    -0.073 A 
ATOM      7  C8  UNL d   1      -0.424  -3.455  -3.459  0.00  0.00     0.078 C 
ENDROOT
BRANCH   1   8
ATOM      8  C1  UNL d   1      -2.283  -5.611  -2.455  0.00  0.00     0.053 C 
ATOM      9  C   UNL d   1      -2.669  -5.126  -1.066  0.00  0.00     0.018 C 
ENDBRANCH   1   8
TORSDOF 1
ENDMDL
