MODEL 1
REMARK minimizedAffinity 19.3677711
REMARK minimizedRMSD -1
REMARK  1 active torsions:
REMARK  status: ('A' for Active; 'I' for Inactive)
REMARK    1  A    between atoms: C1_2  and  C2_3 
ROOT
ATOM      1  C2  UNL d   1       1.860   3.037   0.744  0.00  0.00    -0.076 A 
ATOM      2  C3  UNL d   1       2.653   3.219  -0.403  0.00  0.00     0.004 A 
ATOM      3  C4  UNL d   1       3.712   2.359  -0.687  0.00  0.00    -0.003 A 
ATOM      4  C5  UNL d   1       3.995   1.301   0.170  0.00  0.00     0.000 A 
ATOM      5  C6  UNL d   1       3.208   1.095   1.303  0.00  0.00     0.000 A 
ATOM      6  C7  UNL d   1       2.126   1.943   1.595  0.00  0.00    -0.073 A 
ATOM      7  C8  UNL d   1       1.314   1.677   2.833  0.00  0.00     0.078 C 
ENDROOT
BRANCH   1   8
ATOM      8  C1  UNL d   1       0.742   4.018   1.014  0.00  0.00     0.053 C 
ATOM      9  C   UNL d   1       0.869   5.288   0.188  0.00  0.00     0.018 C 
ENDBRANCH   1   8
TORSDOF 1
ENDMDL
