MODEL 1
REMARK minimizedAffinity 0.482067734
REMARK minimizedRMSD -1
REMARK  1 active torsions:
REMARK  status: ('A' for Active; 'I' for Inactive)
REMARK    1  A    between atoms: C1_2  and  C2_3 
ROOT
ATOM      1  C2  UNL d   1       2.355  -1.880  -2.122  0.00  0.00    -0.076 A 
ATOM      2  C3  UNL d   1       1.878  -0.600  -2.453  0.00  0.00     0.004 A 
ATOM      3  C4  UNL d   1       2.053   0.477  -1.587  0.00  0.00    -0.003 A 
ATOM      4  C5  UNL d   1       2.710   0.292  -0.375  0.00  0.00     0.000 A 
ATOM      5  C6  UNL d   1       3.205  -0.967  -0.038  0.00  0.00     0.000 A 
ATOM      6  C7  UNL d   1       3.050  -2.060  -0.908  0.00  0.00    -0.073 A 
ATOM      7  C8  UNL d   1       3.599  -3.398  -0.491  0.00  0.00     0.078 C 
ENDROOT
BRANCH   1   8
ATOM      8  C1  UNL d   1       2.111  -3.016  -3.090  0.00  0.00     0.053 C 
ATOM      9  C   UNL d   1       2.829  -2.816  -4.416  0.00  0.00     0.018 C 
ENDBRANCH   1   8
TORSDOF 1
ENDMDL
