MODEL 1
REMARK minimizedAffinity 12.0515614
REMARK minimizedRMSD -1
REMARK  1 active torsions:
REMARK  status: ('A' for Active; 'I' for Inactive)
REMARK    1  A    between atoms: C1_2  and  C2_3 
ROOT
ATOM      1  C2  UNL d   1       2.576  -0.710  -0.917  0.00  0.00    -0.076 A 
ATOM      2  C3  UNL d   1       2.018  -0.820  -2.202  0.00  0.00     0.004 A 
ATOM      3  C4  UNL d   1       1.943   0.284  -3.049  0.00  0.00    -0.003 A 
ATOM      4  C5  UNL d   1       2.426   1.517  -2.625  0.00  0.00     0.000 A 
ATOM      5  C6  UNL d   1       3.000   1.641  -1.360  0.00  0.00     0.000 A 
ATOM      6  C7  UNL d   1       3.097   0.534  -0.500  0.00  0.00    -0.073 A 
ATOM      7  C8  UNL d   1       3.720   0.726   0.856  0.00  0.00     0.078 C 
ENDROOT
BRANCH   1   8
ATOM      8  C1  UNL d   1       2.606  -1.935  -0.032  0.00  0.00     0.053 C 
ATOM      9  C   UNL d   1       4.000  -2.529   0.095  0.00  0.00     0.018 C 
ENDBRANCH   1   8
TORSDOF 1
ENDMDL
