MODEL 1
REMARK minimizedAffinity 9.82685757
REMARK minimizedRMSD -1
REMARK  1 active torsions:
REMARK  status: ('A' for Active; 'I' for Inactive)
REMARK    1  A    between atoms: C1_2  and  C2_3 
ROOT
ATOM      1  C2  UNL d   1       2.076  -2.842  -1.370  0.00  0.00    -0.076 A 
ATOM      2  C3  UNL d   1       1.597  -3.849  -2.225  0.00  0.00     0.004 A 
ATOM      3  C4  UNL d   1       0.818  -3.535  -3.338  0.00  0.00    -0.003 A 
ATOM      4  C5  UNL d   1       0.508  -2.208  -3.614  0.00  0.00     0.000 A 
ATOM      5  C6  UNL d   1       0.990  -1.195  -2.787  0.00  0.00     0.000 A 
ATOM      6  C7  UNL d   1       1.789  -1.493  -1.670  0.00  0.00    -0.073 A 
ATOM      7  C8  UNL d   1       2.277  -0.360  -0.808  0.00  0.00     0.078 C 
ENDROOT
BRANCH   1   8
ATOM      8  C1  UNL d   1       2.893  -3.244  -0.163  0.00  0.00     0.053 C 
ATOM      9  C   UNL d   1       3.502  -4.631  -0.307  0.00  0.00     0.018 C 
ENDBRANCH   1   8
TORSDOF 1
ENDMDL
