MODEL 1
REMARK minimizedAffinity 19.1415215
REMARK minimizedRMSD -1
REMARK  1 active torsions:
REMARK  status: ('A' for Active; 'I' for Inactive)
REMARK    1  A    between atoms: C1_2  and  C2_3 
ROOT
ATOM      1  C2  UNL d   1      -3.211   1.303   2.854  0.00  0.00    -0.076 A 
ATOM      2  C3  UNL d   1      -2.352   2.369   2.536  0.00  0.00     0.004 A 
ATOM      3  C4  UNL d   1      -1.027   2.138   2.171  0.00  0.00    -0.003 A 
ATOM      4  C5  UNL d   1      -0.539   0.837   2.117  0.00  0.00     0.000 A 
ATOM      5  C6  UNL d   1      -1.382  -0.233   2.412  0.00  0.00     0.000 A 
ATOM      6  C7  UNL d   1      -2.726  -0.019   2.767  0.00  0.00    -0.073 A 
ATOM      7  C8  UNL d   1      -3.588  -1.210   3.081  0.00  0.00     0.078 C 
ENDROOT
BRANCH   1   8
ATOM      8  C1  UNL d   1      -4.631   1.616   3.270  0.00  0.00     0.053 C 
ATOM      9  C   UNL d   1      -4.753   2.970   3.954  0.00  0.00     0.018 C 
ENDBRANCH   1   8
TORSDOF 1
ENDMDL
