MODEL 1
REMARK minimizedAffinity 8.98625946
REMARK minimizedRMSD -1
REMARK  1 active torsions:
REMARK  status: ('A' for Active; 'I' for Inactive)
REMARK    1  A    between atoms: C1_2  and  C2_3 
ROOT
ATOM      1  C2  UNL d   1       1.528   3.676  -1.558  0.00  0.00    -0.076 A 
ATOM      2  C3  UNL d   1       1.135   4.943  -2.024  0.00  0.00     0.004 A 
ATOM      3  C4  UNL d   1       0.646   5.910  -1.148  0.00  0.00    -0.003 A 
ATOM      4  C5  UNL d   1       0.542   5.626   0.209  0.00  0.00     0.000 A 
ATOM      5  C6  UNL d   1       0.943   4.381   0.692  0.00  0.00     0.000 A 
ATOM      6  C7  UNL d   1       1.454   3.400  -0.176  0.00  0.00    -0.073 A 
ATOM      7  C8  UNL d   1       1.866   2.072   0.397  0.00  0.00     0.078 C 
ENDROOT
BRANCH   1   8
ATOM      8  C1  UNL d   1       2.025   2.658  -2.560  0.00  0.00     0.053 C 
ATOM      9  C   UNL d   1       1.074   2.483  -3.734  0.00  0.00     0.018 C 
ENDBRANCH   1   8
TORSDOF 1
ENDMDL
