MODEL 1
REMARK minimizedAffinity 16.910368
REMARK minimizedRMSD -1
REMARK  1 active torsions:
REMARK  status: ('A' for Active; 'I' for Inactive)
REMARK    1  A    between atoms: C1_2  and  C2_3 
ROOT
ATOM      1  C2  UNL d   1       2.659  -3.382   0.330  0.00  0.00    -0.076 A 
ATOM      2  C3  UNL d   1       1.318  -3.704   0.601  0.00  0.00     0.004 A 
ATOM      3  C4  UNL d   1       0.949  -5.000   0.956  0.00  0.00    -0.003 A 
ATOM      4  C5  UNL d   1       1.916  -5.996   1.047  0.00  0.00     0.000 A 
ATOM      5  C6  UNL d   1       3.254  -5.690   0.799  0.00  0.00     0.000 A 
ATOM      6  C7  UNL d   1       3.645  -4.384   0.455  0.00  0.00    -0.073 A 
ATOM      7  C8  UNL d   1       5.100  -4.112   0.193  0.00  0.00     0.078 C 
ENDROOT
BRANCH   1   8
ATOM      8  C1  UNL d   1       2.996  -1.965  -0.077  0.00  0.00     0.053 C 
ATOM      9  C   UNL d   1       1.758  -1.140  -0.393  0.00  0.00     0.018 C 
ENDBRANCH   1   8
TORSDOF 1
ENDMDL
