MODEL 1
REMARK minimizedAffinity 19.6503448
REMARK minimizedRMSD -1
REMARK  1 active torsions:
REMARK  status: ('A' for Active; 'I' for Inactive)
REMARK    1  A    between atoms: C1_2  and  C2_3 
ROOT
ATOM      1  C2  UNL d   1       2.333  -2.487  -0.981  0.00  0.00    -0.076 A 
ATOM      2  C3  UNL d   1       2.725  -1.324  -0.296  0.00  0.00     0.004 A 
ATOM      3  C4  UNL d   1       2.481  -0.060  -0.832  0.00  0.00    -0.003 A 
ATOM      4  C5  UNL d   1       1.839   0.060  -2.059  0.00  0.00     0.000 A 
ATOM      5  C6  UNL d   1       1.427  -1.083  -2.744  0.00  0.00     0.000 A 
ATOM      6  C7  UNL d   1       1.652  -2.364  -2.210  0.00  0.00    -0.073 A 
ATOM      7  C8  UNL d   1       1.192  -3.562  -2.994  0.00  0.00     0.078 C 
ENDROOT
BRANCH   1   8
ATOM      8  C1  UNL d   1       2.649  -3.831  -0.364  0.00  0.00     0.053 C 
ATOM      9  C   UNL d   1       4.117  -3.970   0.010  0.00  0.00     0.018 C 
ENDBRANCH   1   8
TORSDOF 1
ENDMDL
