MODEL 1
REMARK minimizedAffinity 12.1761026
REMARK minimizedRMSD -1
REMARK  1 active torsions:
REMARK  status: ('A' for Active; 'I' for Inactive)
REMARK    1  A    between atoms: C1_2  and  C2_3 
ROOT
ATOM      1  C2  UNL d   1       2.171  -2.705  -1.084  0.00  0.00    -0.076 A 
ATOM      2  C3  UNL d   1       2.250  -1.468  -0.420  0.00  0.00     0.004 A 
ATOM      3  C4  UNL d   1       1.802  -0.297  -1.029  0.00  0.00    -0.003 A 
ATOM      4  C5  UNL d   1       1.269  -0.344  -2.312  0.00  0.00     0.000 A 
ATOM      5  C6  UNL d   1       1.167  -1.564  -2.979  0.00  0.00     0.000 A 
ATOM      6  C7  UNL d   1       1.598  -2.757  -2.372  0.00  0.00    -0.073 A 
ATOM      7  C8  UNL d   1       1.470  -4.044  -3.140  0.00  0.00     0.078 C 
ENDROOT
BRANCH   1   8
ATOM      8  C1  UNL d   1       2.696  -3.938  -0.384  0.00  0.00     0.053 C 
ATOM      9  C   UNL d   1       4.169  -3.820  -0.023  0.00  0.00     0.018 C 
ENDBRANCH   1   8
TORSDOF 1
ENDMDL
