MODEL 1
REMARK minimizedAffinity 4.81988478
REMARK minimizedRMSD -1
REMARK  1 active torsions:
REMARK  status: ('A' for Active; 'I' for Inactive)
REMARK    1  A    between atoms: C1_2  and  C2_3 
ROOT
ATOM      1  C2  UNL d   1      -4.624  -3.571  -5.905  0.00  0.00    -0.076 A 
ATOM      2  C3  UNL d   1      -3.500  -2.727  -5.900  0.00  0.00     0.004 A 
ATOM      3  C4  UNL d   1      -2.209  -3.252  -5.935  0.00  0.00    -0.003 A 
ATOM      4  C5  UNL d   1      -2.022  -4.629  -5.975  0.00  0.00     0.000 A 
ATOM      5  C6  UNL d   1      -3.126  -5.480  -5.998  0.00  0.00     0.000 A 
ATOM      6  C7  UNL d   1      -4.434  -4.967  -5.980  0.00  0.00    -0.073 A 
ATOM      7  C8  UNL d   1      -5.588  -5.931  -6.000  0.00  0.00     0.078 C 
ENDROOT
BRANCH   1   8
ATOM      8  C1  UNL d   1      -5.999  -2.945  -5.839  0.00  0.00     0.053 C 
ATOM      9  C   UNL d   1      -5.960  -1.433  -6.000  0.00  0.00     0.018 C 
ENDBRANCH   1   8
TORSDOF 1
ENDMDL
