MODEL 1
REMARK minimizedAffinity 7.49004173
REMARK minimizedRMSD -1
REMARK  1 active torsions:
REMARK  status: ('A' for Active; 'I' for Inactive)
REMARK    1  A    between atoms: C1_2  and  C2_3 
ROOT
ATOM      1  C2  UNL d   1       2.564   3.629  -0.055  0.00  0.00    -0.076 A 
ATOM      2  C3  UNL d   1       3.733   3.694  -0.832  0.00  0.00     0.004 A 
ATOM      3  C4  UNL d   1       4.886   3.009  -0.452  0.00  0.00    -0.003 A 
ATOM      4  C5  UNL d   1       4.888   2.249   0.712  0.00  0.00     0.000 A 
ATOM      5  C6  UNL d   1       3.732   2.159   1.486  0.00  0.00     0.000 A 
ATOM      6  C7  UNL d   1       2.556   2.830   1.108  0.00  0.00    -0.073 A 
ATOM      7  C8  UNL d   1       1.340   2.703   1.984  0.00  0.00     0.078 C 
ENDROOT
BRANCH   1   8
ATOM      8  C1  UNL d   1       1.352   4.415  -0.503  0.00  0.00     0.053 C 
ATOM      9  C   UNL d   1       0.899   5.430   0.535  0.00  0.00     0.018 C 
ENDBRANCH   1   8
TORSDOF 1
ENDMDL
