MODEL 1
REMARK minimizedAffinity 4.79276466
REMARK minimizedRMSD -1
REMARK  1 active torsions:
REMARK  status: ('A' for Active; 'I' for Inactive)
REMARK    1  A    between atoms: C1_2  and  C2_3 
ROOT
ATOM      1  C2  UNL d   1       2.069  -3.377  -1.822  0.00  0.00    -0.076 A 
ATOM      2  C3  UNL d   1       1.162  -3.940  -2.736  0.00  0.00     0.004 A 
ATOM      3  C4  UNL d   1       1.333  -5.240  -3.208  0.00  0.00    -0.003 A 
ATOM      4  C5  UNL d   1       2.415  -5.999  -2.773  0.00  0.00     0.000 A 
ATOM      5  C6  UNL d   1       3.315  -5.462  -1.853  0.00  0.00     0.000 A 
ATOM      6  C7  UNL d   1       3.147  -4.159  -1.354  0.00  0.00    -0.073 A 
ATOM      7  C8  UNL d   1       4.152  -3.628  -0.368  0.00  0.00     0.078 C 
ENDROOT
BRANCH   1   8
ATOM      8  C1  UNL d   1       1.847  -1.952  -1.365  0.00  0.00     0.053 C 
ATOM      9  C   UNL d   1       1.546  -1.011  -2.521  0.00  0.00     0.018 C 
ENDBRANCH   1   8
TORSDOF 1
ENDMDL
