MODEL 1
REMARK minimizedAffinity 16.3187466
REMARK minimizedRMSD -1
REMARK  1 active torsions:
REMARK  status: ('A' for Active; 'I' for Inactive)
REMARK    1  A    between atoms: C1_2  and  C2_3 
ROOT
ATOM      1  C2  UNL d   1       3.478   1.356  -0.462  0.00  0.00    -0.076 A 
ATOM      2  C3  UNL d   1       2.534   1.603   0.550  0.00  0.00     0.004 A 
ATOM      3  C4  UNL d   1       2.816   2.480   1.597  0.00  0.00    -0.003 A 
ATOM      4  C5  UNL d   1       4.047   3.124   1.648  0.00  0.00     0.000 A 
ATOM      5  C6  UNL d   1       4.989   2.904   0.644  0.00  0.00     0.000 A 
ATOM      6  C7  UNL d   1       4.714   2.036  -0.427  0.00  0.00    -0.073 A 
ATOM      7  C8  UNL d   1       5.769   1.832  -1.480  0.00  0.00     0.078 C 
ENDROOT
BRANCH   1   8
ATOM      8  C1  UNL d   1       3.126   0.375  -1.557  0.00  0.00     0.053 C 
ATOM      9  C   UNL d   1       2.615  -0.949  -1.010  0.00  0.00     0.018 C 
ENDBRANCH   1   8
TORSDOF 1
ENDMDL
