MODEL 1
REMARK minimizedAffinity 21.7671814
REMARK minimizedRMSD -1
REMARK  1 active torsions:
REMARK  status: ('A' for Active; 'I' for Inactive)
REMARK    1  A    between atoms: C1_2  and  C2_3 
ROOT
ATOM      1  C2  UNL d   1      -3.814  -0.547   2.592  0.00  0.00    -0.076 A 
ATOM      2  C3  UNL d   1      -4.420  -0.657   1.329  0.00  0.00     0.004 A 
ATOM      3  C4  UNL d   1      -5.504  -1.509   1.125  0.00  0.00    -0.003 A 
ATOM      4  C5  UNL d   1      -6.000  -2.265   2.181  0.00  0.00     0.000 A 
ATOM      5  C6  UNL d   1      -5.421  -2.156   3.445  0.00  0.00     0.000 A 
ATOM      6  C7  UNL d   1      -4.339  -1.289   3.672  0.00  0.00    -0.073 A 
ATOM      7  C8  UNL d   1      -3.750  -1.215   5.054  0.00  0.00     0.078 C 
ENDROOT
BRANCH   1   8
ATOM      8  C1  UNL d   1      -2.624   0.373   2.747  0.00  0.00     0.053 C 
ATOM      9  C   UNL d   1      -2.998   1.708   3.374  0.00  0.00     0.018 C 
ENDBRANCH   1   8
TORSDOF 1
ENDMDL
