MODEL 1
REMARK minimizedAffinity -3.849581
REMARK minimizedRMSD -1
REMARK  0 active torsions:
REMARK  status: ('A' for Active; 'I' for Inactive)
ROOT
ATOM      1  C   UNL d   1      -0.205   0.393  -0.596  0.00  0.00     0.172 C 
ATOM      2  N   UNL d   1      -0.232   0.007   0.796  0.00  0.00    -0.070 N 
ATOM      3  C1  UNL d   1      -1.322  -0.480   1.467  0.00  0.00    -0.004 A 
ATOM      4  C2  UNL d   1      -0.940  -0.727   2.768  0.00  0.00    -0.047 A 
ATOM      5  C3  UNL d   1       0.427  -0.376   2.882  0.00  0.00    -0.047 A 
ATOM      6  C4  UNL d   1       0.839   0.076   1.646  0.00  0.00    -0.004 A 
ENDROOT
TORSDOF 0
ENDMDL
