MODEL 1
REMARK minimizedAffinity -3.58706832
REMARK minimizedRMSD -1
REMARK  0 active torsions:
REMARK  status: ('A' for Active; 'I' for Inactive)
ROOT
ATOM      1  C   UNL d   1       0.027   0.298  -0.581  0.00  0.00     0.172 C 
ATOM      2  N   UNL d   1      -0.135  -0.052   0.810  0.00  0.00    -0.070 N 
ATOM      3  C1  UNL d   1      -1.250  -0.622   1.365  0.00  0.00    -0.004 A 
ATOM      4  C2  UNL d   1      -1.009  -0.799   2.710  0.00  0.00    -0.047 A 
ATOM      5  C3  UNL d   1       0.296  -0.318   2.973  0.00  0.00    -0.047 A 
ATOM      6  C4  UNL d   1       0.814   0.138   1.779  0.00  0.00    -0.004 A 
ENDROOT
TORSDOF 0
ENDMDL
