MODEL 1
REMARK minimizedAffinity -3.03590775
REMARK minimizedRMSD -1
REMARK  0 active torsions:
REMARK  status: ('A' for Active; 'I' for Inactive)
ROOT
ATOM      1  C   UNL d   1      -0.403  -0.692   2.480  0.00  0.00     0.172 C 
ATOM      2  N   UNL d   1       0.025   0.035   1.307  0.00  0.00    -0.070 N 
ATOM      3  C1  UNL d   1       1.296   0.483   1.065  0.00  0.00    -0.004 A 
ATOM      4  C2  UNL d   1       1.292   1.126  -0.154  0.00  0.00    -0.047 A 
ATOM      5  C3  UNL d   1      -0.028   1.063  -0.662  0.00  0.00    -0.047 A 
ATOM      6  C4  UNL d   1      -0.792   0.383   0.263  0.00  0.00    -0.004 A 
ENDROOT
TORSDOF 0
ENDMDL
