MODEL 1
REMARK minimizedAffinity -4.0648284
REMARK minimizedRMSD -1
REMARK  0 active torsions:
REMARK  status: ('A' for Active; 'I' for Inactive)
ROOT
ATOM      1  C   UNL d   1       0.728  -0.030   1.121  0.00  0.00     0.172 C 
ATOM      2  N   UNL d   1      -0.612   0.065   1.651  0.00  0.00    -0.070 N 
ATOM      3  C1  UNL d   1      -0.944   0.096   2.979  0.00  0.00    -0.004 A 
ATOM      4  C2  UNL d   1      -2.316   0.191   3.068  0.00  0.00    -0.047 A 
ATOM      5  C3  UNL d   1      -2.826   0.217   1.748  0.00  0.00    -0.047 A 
ATOM      6  C4  UNL d   1      -1.749   0.138   0.891  0.00  0.00    -0.004 A 
ENDROOT
TORSDOF 0
ENDMDL
