MODEL 1
REMARK minimizedAffinity -3.77143168
REMARK minimizedRMSD -1
REMARK  0 active torsions:
REMARK  status: ('A' for Active; 'I' for Inactive)
ROOT
ATOM      1  C   UNL d   1      -0.790  -0.700   2.420  0.00  0.00     0.172 C 
ATOM      2  N   UNL d   1      -0.680  -0.173   1.080  0.00  0.00    -0.070 N 
ATOM      3  C1  UNL d   1       0.488   0.167   0.450  0.00  0.00    -0.004 A 
ATOM      4  C2  UNL d   1       0.169   0.627  -0.809  0.00  0.00    -0.047 A 
ATOM      5  C3  UNL d   1      -1.239   0.562  -0.940  0.00  0.00    -0.047 A 
ATOM      6  C4  UNL d   1      -1.739   0.064   0.244  0.00  0.00    -0.004 A 
ENDROOT
TORSDOF 0
ENDMDL
