MODEL 1
REMARK minimizedAffinity -2.56434298
REMARK minimizedRMSD -1
REMARK  0 active torsions:
REMARK  status: ('A' for Active; 'I' for Inactive)
ROOT
ATOM      1  C   UNL d   1       1.218  -0.173  -2.873  0.00  0.00     0.172 C 
ATOM      2  N   UNL d   1       0.649   0.064  -1.567  0.00  0.00    -0.070 N 
ATOM      3  C1  UNL d   1       1.229  -0.266  -0.371  0.00  0.00    -0.004 A 
ATOM      4  C2  UNL d   1       0.373   0.125   0.636  0.00  0.00    -0.047 A 
ATOM      5  C3  UNL d   1      -0.762   0.708   0.024  0.00  0.00    -0.047 A 
ATOM      6  C4  UNL d   1      -0.565   0.657  -1.340  0.00  0.00    -0.004 A 
ENDROOT
TORSDOF 0
ENDMDL
