MODEL 1
REMARK minimizedAffinity -2.06627893
REMARK minimizedRMSD -1
REMARK  0 active torsions:
REMARK  status: ('A' for Active; 'I' for Inactive)
ROOT
ATOM      1  C   UNL d   1      -0.549  -0.736   2.846  0.00  0.00     0.172 C 
ATOM      2  N   UNL d   1      -0.453  -0.275   1.481  0.00  0.00    -0.070 N 
ATOM      3  C1  UNL d   1       0.660   0.270   0.898  0.00  0.00    -0.004 A 
ATOM      4  C2  UNL d   1       0.345   0.579  -0.407  0.00  0.00    -0.047 A 
ATOM      5  C3  UNL d   1      -1.005   0.207  -0.617  0.00  0.00    -0.047 A 
ATOM      6  C4  UNL d   1      -1.474  -0.318   0.569  0.00  0.00    -0.004 A 
ENDROOT
TORSDOF 0
ENDMDL
