MODEL 1
REMARK minimizedAffinity -3.81651998
REMARK minimizedRMSD -1
REMARK  0 active torsions:
REMARK  status: ('A' for Active; 'I' for Inactive)
ROOT
ATOM      1  C   UNL d   1       0.129  -0.109  -1.569  0.00  0.00     0.172 C 
ATOM      2  N   UNL d   1       0.020  -0.042  -0.130  0.00  0.00    -0.070 N 
ATOM      3  C1  UNL d   1      -1.144   0.109   0.576  0.00  0.00    -0.004 A 
ATOM      4  C2  UNL d   1      -0.825   0.126   1.916  0.00  0.00    -0.047 A 
ATOM      5  C3  UNL d   1       0.579  -0.019   2.020  0.00  0.00    -0.047 A 
ATOM      6  C4  UNL d   1       1.076  -0.120   0.738  0.00  0.00    -0.004 A 
ENDROOT
TORSDOF 0
ENDMDL
