MODEL 1
REMARK minimizedAffinity -3.79088664
REMARK minimizedRMSD -1
REMARK  0 active torsions:
REMARK  status: ('A' for Active; 'I' for Inactive)
ROOT
ATOM      1  C   UNL d   1      -2.791   0.621   1.492  0.00  0.00     0.172 C 
ATOM      2  N   UNL d   1      -1.416   0.201   1.625  0.00  0.00    -0.070 N 
ATOM      3  C1  UNL d   1      -0.830  -0.261   2.773  0.00  0.00    -0.004 A 
ATOM      4  C2  UNL d   1       0.485  -0.555   2.487  0.00  0.00    -0.047 A 
ATOM      5  C3  UNL d   1       0.698  -0.258   1.120  0.00  0.00    -0.047 A 
ATOM      6  C4  UNL d   1      -0.496   0.209   0.610  0.00  0.00    -0.004 A 
ENDROOT
TORSDOF 0
ENDMDL
