MODEL 1
REMARK minimizedAffinity -3.95206857
REMARK minimizedRMSD -1
REMARK  0 active torsions:
REMARK  status: ('A' for Active; 'I' for Inactive)
ROOT
ATOM      1  C   UNL d   1      -1.900   1.022  -0.852  0.00  0.00     0.172 C 
ATOM      2  N   UNL d   1      -1.345   0.701   0.442  0.00  0.00    -0.070 N 
ATOM      3  C1  UNL d   1      -0.013   0.555   0.725  0.00  0.00    -0.004 A 
ATOM      4  C2  UNL d   1       0.103   0.252   2.064  0.00  0.00    -0.047 A 
ATOM      5  C3  UNL d   1      -1.204   0.213   2.605  0.00  0.00    -0.047 A 
ATOM      6  C4  UNL d   1      -2.081   0.494   1.578  0.00  0.00    -0.004 A 
ENDROOT
TORSDOF 0
ENDMDL
