MODEL 1
REMARK minimizedAffinity -1.04205394
REMARK minimizedRMSD -1
REMARK  0 active torsions:
REMARK  status: ('A' for Active; 'I' for Inactive)
ROOT
ATOM      1  C   UNL d   1       0.180   0.188  -0.568  0.00  0.00     0.172 C 
ATOM      2  N   UNL d   1      -0.334  -0.125   0.745  0.00  0.00    -0.070 N 
ATOM      3  C1  UNL d   1      -1.022  -1.260   1.082  0.00  0.00    -0.004 A 
ATOM      4  C2  UNL d   1      -1.336  -1.181   2.422  0.00  0.00    -0.047 A 
ATOM      5  C3  UNL d   1      -0.819   0.045   2.906  0.00  0.00    -0.047 A 
ATOM      6  C4  UNL d   1      -0.204   0.678   1.847  0.00  0.00    -0.004 A 
ENDROOT
TORSDOF 0
ENDMDL
