MODEL 1
REMARK minimizedAffinity -4.18905783
REMARK minimizedRMSD -1
REMARK  0 active torsions:
REMARK  status: ('A' for Active; 'I' for Inactive)
ROOT
ATOM      1  C   UNL d   1       0.094   0.369  -0.593  0.00  0.00     0.172 C 
ATOM      2  N   UNL d   1      -0.139  -0.024   0.777  0.00  0.00    -0.070 N 
ATOM      3  C1  UNL d   1      -1.354  -0.354   1.317  0.00  0.00    -0.004 A 
ATOM      4  C2  UNL d   1      -1.155  -0.670   2.643  0.00  0.00    -0.047 A 
ATOM      5  C3  UNL d   1       0.228  -0.524   2.910  0.00  0.00    -0.047 A 
ATOM      6  C4  UNL d   1       0.832  -0.123   1.738  0.00  0.00    -0.004 A 
ENDROOT
TORSDOF 0
ENDMDL
