MODEL 1
REMARK minimizedAffinity -4.02877474
REMARK minimizedRMSD -1
REMARK  0 active torsions:
REMARK  status: ('A' for Active; 'I' for Inactive)
ROOT
ATOM      1  C   UNL d   1       0.971   0.113   0.725  0.00  0.00     0.172 C 
ATOM      2  N   UNL d   1      -0.346   0.171   1.315  0.00  0.00    -0.070 N 
ATOM      3  C1  UNL d   1      -1.529   0.197   0.626  0.00  0.00    -0.004 A 
ATOM      4  C2  UNL d   1      -2.552   0.252   1.547  0.00  0.00    -0.047 A 
ATOM      5  C3  UNL d   1      -1.964   0.260   2.834  0.00  0.00    -0.047 A 
ATOM      6  C4  UNL d   1      -0.597   0.210   2.661  0.00  0.00    -0.004 A 
ENDROOT
TORSDOF 0
ENDMDL
