MODEL 1
REMARK minimizedAffinity -3.94110179
REMARK minimizedRMSD -1
REMARK  0 active torsions:
REMARK  status: ('A' for Active; 'I' for Inactive)
ROOT
ATOM      1  C   UNL d   1       0.729   0.357   0.216  0.00  0.00     0.172 C 
ATOM      2  N   UNL d   1      -0.244   0.123   1.257  0.00  0.00    -0.070 N 
ATOM      3  C1  UNL d   1      -0.043   0.321   2.597  0.00  0.00    -0.004 A 
ATOM      4  C2  UNL d   1      -1.207  -0.016   3.253  0.00  0.00    -0.047 A 
ATOM      5  C3  UNL d   1      -2.140  -0.431   2.274  0.00  0.00    -0.047 A 
ATOM      6  C4  UNL d   1      -1.518  -0.335   1.047  0.00  0.00    -0.004 A 
ENDROOT
TORSDOF 0
ENDMDL
