MODEL 1
REMARK minimizedAffinity -1.16063893
REMARK minimizedRMSD -1
REMARK  0 active torsions:
REMARK  status: ('A' for Active; 'I' for Inactive)
ROOT
ATOM      1  C   UNL d   1       1.000  -0.012  -2.965  0.00  0.00     0.172 C 
ATOM      2  N   UNL d   1       0.257   0.244  -1.753  0.00  0.00    -0.070 N 
ATOM      3  C1  UNL d   1       0.662  -0.079  -0.486  0.00  0.00    -0.004 A 
ATOM      4  C2  UNL d   1      -0.321   0.330   0.389  0.00  0.00    -0.047 A 
ATOM      5  C3  UNL d   1      -1.354   0.918  -0.380  0.00  0.00    -0.047 A 
ATOM      6  C4  UNL d   1      -0.970   0.852  -1.703  0.00  0.00    -0.004 A 
ENDROOT
TORSDOF 0
ENDMDL
