MODEL 1
REMARK minimizedAffinity -2.2245121
REMARK minimizedRMSD -1
REMARK  0 active torsions:
REMARK  status: ('A' for Active; 'I' for Inactive)
ROOT
ATOM      1  C   UNL d   1      -1.589  -1.643   1.957  0.00  0.00     0.172 C 
ATOM      2  N   UNL d   1      -0.767  -0.682   1.260  0.00  0.00    -0.070 N 
ATOM      3  C1  UNL d   1       0.063   0.235   1.849  0.00  0.00    -0.004 A 
ATOM      4  C2  UNL d   1       0.668   0.961   0.846  0.00  0.00    -0.047 A 
ATOM      5  C3  UNL d   1       0.184   0.465  -0.388  0.00  0.00    -0.047 A 
ATOM      6  C4  UNL d   1      -0.703  -0.551  -0.102  0.00  0.00    -0.004 A 
ENDROOT
TORSDOF 0
ENDMDL
