MODEL 1
REMARK minimizedAffinity -4.01917553
REMARK minimizedRMSD -1
REMARK  0 active torsions:
REMARK  status: ('A' for Active; 'I' for Inactive)
ROOT
ATOM      1  C   UNL d   1      -0.239  -0.247  -0.819  0.00  0.00     0.172 C 
ATOM      2  N   UNL d   1      -0.414  -0.345   0.612  0.00  0.00    -0.070 N 
ATOM      3  C1  UNL d   1      -1.610  -0.496   1.261  0.00  0.00    -0.004 A 
ATOM      4  C2  UNL d   1      -1.351  -0.548   2.614  0.00  0.00    -0.047 A 
ATOM      5  C3  UNL d   1       0.048  -0.422   2.783  0.00  0.00    -0.047 A 
ATOM      6  C4  UNL d   1       0.604  -0.298   1.528  0.00  0.00    -0.004 A 
ENDROOT
TORSDOF 0
ENDMDL
