MODEL 1
REMARK minimizedAffinity -2.50107694
REMARK minimizedRMSD -1
REMARK  0 active torsions:
REMARK  status: ('A' for Active; 'I' for Inactive)
ROOT
ATOM      1  C   UNL d   1      -2.424  -0.429   0.831  0.00  0.00     0.172 C 
ATOM      2  N   UNL d   1      -1.079  -0.026   0.493  0.00  0.00    -0.070 N 
ATOM      3  C1  UNL d   1      -0.675   0.474  -0.716  0.00  0.00    -0.004 A 
ATOM      4  C2  UNL d   1       0.676   0.736  -0.634  0.00  0.00    -0.047 A 
ATOM      5  C3  UNL d   1       1.098   0.380   0.669  0.00  0.00    -0.047 A 
ATOM      6  C4  UNL d   1      -0.008  -0.088   1.345  0.00  0.00    -0.004 A 
ENDROOT
TORSDOF 0
ENDMDL
