MODEL 1
REMARK minimizedAffinity 5.78275299
REMARK minimizedRMSD -1
REMARK  0 active torsions:
REMARK  status: ('A' for Active; 'I' for Inactive)
ROOT
ATOM      1  C2' OXE d   1      -2.108   0.439   3.028  0.00  0.00     0.078 C 
ATOM      2  C1' OXE d   1      -1.851  -1.686   1.211  0.00  0.00     0.078 C 
ATOM      3  C1  OXE d   1      -0.603  -1.195   1.901  0.00  0.00    -0.078 A 
ATOM      4  C2  OXE d   1      -0.731  -0.124   2.753  0.00  0.00    -0.078 A 
ATOM      5  C3  OXE d   1       0.380   0.334   3.456  0.00  0.00     0.003 A 
ATOM      6  C4  OXE d   1       1.652  -0.186   3.188  0.00  0.00    -0.002 A 
ATOM      7  C5  OXE d   1       1.810  -1.250   2.294  0.00  0.00    -0.002 A 
ATOM      8  C6  OXE d   1       0.690  -1.793   1.675  0.00  0.00     0.003 A 
ENDROOT
TORSDOF 0
ENDMDL
