MODEL 1
REMARK minimizedAffinity 6.54887247
REMARK minimizedRMSD -1
REMARK  0 active torsions:
REMARK  status: ('A' for Active; 'I' for Inactive)
ROOT
ATOM      1  C2' OXE d   1      -4.550  -1.899  -4.123  0.00  0.00     0.078 C 
ATOM      2  C1' OXE d   1      -5.999   0.386  -3.376  0.00  0.00     0.078 C 
ATOM      3  C1  OXE d   1      -4.831   0.568  -4.312  0.00  0.00    -0.078 A 
ATOM      4  C2  OXE d   1      -4.099  -0.549  -4.635  0.00  0.00    -0.078 A 
ATOM      5  C3  OXE d   1      -3.045  -0.445  -5.538  0.00  0.00     0.003 A 
ATOM      6  C4  OXE d   1      -2.628   0.810  -6.000  0.00  0.00    -0.002 A 
ATOM      7  C5  OXE d   1      -3.335   1.965  -5.652  0.00  0.00    -0.002 A 
ATOM      8  C6  OXE d   1      -4.462   1.857  -4.845  0.00  0.00     0.003 A 
ENDROOT
TORSDOF 0
ENDMDL
