MODEL 1
REMARK minimizedAffinity 3.07575989
REMARK minimizedRMSD -1
REMARK  0 active torsions:
REMARK  status: ('A' for Active; 'I' for Inactive)
ROOT
ATOM      1  C2' OXE d   1       2.319  -0.976   3.615  0.00  0.00     0.078 C 
ATOM      2  C1' OXE d   1      -0.468  -0.962   3.280  0.00  0.00     0.078 C 
ATOM      3  C1  OXE d   1       0.389  -1.048   2.042  0.00  0.00    -0.078 A 
ATOM      4  C2  OXE d   1       1.752  -1.007   2.212  0.00  0.00    -0.078 A 
ATOM      5  C3  OXE d   1       2.589  -1.139   1.108  0.00  0.00     0.003 A 
ATOM      6  C4  OXE d   1       2.057  -1.157  -0.187  0.00  0.00    -0.002 A 
ATOM      7  C5  OXE d   1       0.672  -1.160  -0.385  0.00  0.00    -0.002 A 
ATOM      8  C6  OXE d   1      -0.174  -1.149   0.718  0.00  0.00     0.003 A 
ENDROOT
TORSDOF 0
ENDMDL
