MODEL 1
REMARK minimizedAffinity 8.57468033
REMARK minimizedRMSD -1
REMARK  0 active torsions:
REMARK  status: ('A' for Active; 'I' for Inactive)
ROOT
ATOM      1  C2' OXE d   1       1.175  -0.654  -1.733  0.00  0.00     0.078 C 
ATOM      2  C1' OXE d   1       3.039  -1.977  -0.105  0.00  0.00     0.078 C 
ATOM      3  C1  OXE d   1       1.705  -1.619   0.501  0.00  0.00    -0.078 A 
ATOM      4  C2  OXE d   1       0.817  -0.930  -0.289  0.00  0.00    -0.078 A 
ATOM      5  C3  OXE d   1      -0.449  -0.624   0.203  0.00  0.00     0.003 A 
ATOM      6  C4  OXE d   1      -0.768  -0.874   1.543  0.00  0.00    -0.002 A 
ATOM      7  C5  OXE d   1       0.137  -1.539   2.376  0.00  0.00    -0.002 A 
ATOM      8  C6  OXE d   1       1.359  -1.956   1.860  0.00  0.00     0.003 A 
ENDROOT
TORSDOF 0
ENDMDL
