MODEL 1
REMARK minimizedAffinity 8.86057186
REMARK minimizedRMSD -1
REMARK  0 active torsions:
REMARK  status: ('A' for Active; 'I' for Inactive)
ROOT
ATOM      1  C2' OXE d   1      -0.016  -0.880  -0.411  0.00  0.00     0.078 C 
ATOM      2  C1' OXE d   1       2.569  -1.787   0.201  0.00  0.00     0.078 C 
ATOM      3  C1  OXE d   1       1.713  -1.284   1.336  0.00  0.00    -0.078 A 
ATOM      4  C2  OXE d   1       0.467  -0.799   1.021  0.00  0.00    -0.078 A 
ATOM      5  C3  OXE d   1      -0.384  -0.373   2.038  0.00  0.00     0.003 A 
ATOM      6  C4  OXE d   1       0.074  -0.292   3.358  0.00  0.00    -0.002 A 
ATOM      7  C5  OXE d   1       1.354  -0.744   3.695  0.00  0.00    -0.002 A 
ATOM      8  C6  OXE d   1       2.169  -1.282   2.704  0.00  0.00     0.003 A 
ENDROOT
TORSDOF 0
ENDMDL
