MODEL 1
REMARK minimizedAffinity 2.92860317
REMARK minimizedRMSD -1
REMARK  0 active torsions:
REMARK  status: ('A' for Active; 'I' for Inactive)
ROOT
ATOM      1  C2' OXE d   1       1.157  -0.400  -0.712  0.00  0.00     0.078 C 
ATOM      2  C1' OXE d   1       0.402  -0.581   1.986  0.00  0.00     0.078 C 
ATOM      3  C1  OXE d   1       1.567  -1.420   1.524  0.00  0.00    -0.078 A 
ATOM      4  C2  OXE d   1       1.900  -1.360   0.192  0.00  0.00    -0.078 A 
ATOM      5  C3  OXE d   1       3.002  -2.071  -0.275  0.00  0.00     0.003 A 
ATOM      6  C4  OXE d   1       3.677  -2.965   0.565  0.00  0.00    -0.002 A 
ATOM      7  C5  OXE d   1       3.329  -3.071   1.916  0.00  0.00    -0.002 A 
ATOM      8  C6  OXE d   1       2.306  -2.275   2.420  0.00  0.00     0.003 A 
ENDROOT
TORSDOF 0
ENDMDL
