MODEL 1
REMARK minimizedAffinity 1.51301205
REMARK minimizedRMSD -1
REMARK  0 active torsions:
REMARK  status: ('A' for Active; 'I' for Inactive)
ROOT
ATOM      1  C2' OXE d   1       0.688  -1.068  -1.015  0.00  0.00     0.078 C 
ATOM      2  C1' OXE d   1       2.717  -2.115   0.617  0.00  0.00     0.078 C 
ATOM      3  C1  OXE d   1       1.540  -1.457   1.293  0.00  0.00    -0.078 A 
ATOM      4  C2  OXE d   1       0.575  -0.905   0.485  0.00  0.00    -0.078 A 
ATOM      5  C3  OXE d   1      -0.559  -0.335   1.057  0.00  0.00     0.003 A 
ATOM      6  C4  OXE d   1      -0.650  -0.180   2.446  0.00  0.00    -0.002 A 
ATOM      7  C5  OXE d   1       0.341  -0.698   3.285  0.00  0.00    -0.002 A 
ATOM      8  C6  OXE d   1       1.420  -1.376   2.727  0.00  0.00     0.003 A 
ENDROOT
TORSDOF 0
ENDMDL
