MODEL 1
REMARK minimizedAffinity 1.12779641
REMARK minimizedRMSD -1
REMARK  0 active torsions:
REMARK  status: ('A' for Active; 'I' for Inactive)
ROOT
ATOM      1  C2' OXE d   1       1.057  -0.689  -0.845  0.00  0.00     0.078 C 
ATOM      2  C1' OXE d   1       3.358  -2.168  -0.212  0.00  0.00     0.078 C 
ATOM      3  C1  OXE d   1       2.389  -1.863   0.903  0.00  0.00    -0.078 A 
ATOM      4  C2  OXE d   1       1.289  -1.099   0.593  0.00  0.00    -0.078 A 
ATOM      5  C3  OXE d   1       0.336  -0.835   1.572  0.00  0.00     0.003 A 
ATOM      6  C4  OXE d   1       0.563  -1.210   2.902  0.00  0.00    -0.002 A 
ATOM      7  C5  OXE d   1       1.696  -1.954   3.247  0.00  0.00    -0.002 A 
ATOM      8  C6  OXE d   1       2.595  -2.325   2.253  0.00  0.00     0.003 A 
ENDROOT
TORSDOF 0
ENDMDL
