MODEL 1
REMARK minimizedAffinity 5.91019583
REMARK minimizedRMSD -1
REMARK  0 active torsions:
REMARK  status: ('A' for Active; 'I' for Inactive)
ROOT
ATOM      1  C2' OXE d   1       0.383  -0.578  -0.851  0.00  0.00     0.078 C 
ATOM      2  C1' OXE d   1       2.847  -1.601   0.020  0.00  0.00     0.078 C 
ATOM      3  C1  OXE d   1       1.828  -1.232   1.069  0.00  0.00    -0.078 A 
ATOM      4  C2  OXE d   1       0.643  -0.689   0.635  0.00  0.00    -0.078 A 
ATOM      5  C3  OXE d   1      -0.353  -0.381   1.558  0.00  0.00     0.003 A 
ATOM      6  C4  OXE d   1      -0.101  -0.477   2.932  0.00  0.00    -0.002 A 
ATOM      7  C5  OXE d   1       1.115  -0.991   3.396  0.00  0.00    -0.002 A 
ATOM      8  C6  OXE d   1       2.071  -1.412   2.479  0.00  0.00     0.003 A 
ENDROOT
TORSDOF 0
ENDMDL
