MODEL 1
REMARK minimizedAffinity 8.15140724
REMARK minimizedRMSD -1
REMARK  1 active torsions:
REMARK  status: ('A' for Active; 'I' for Inactive)
REMARK    1  A    between atoms: N_2  and  C1_3 
ROOT
ATOM      1  C1  UNL d   1       3.616  -3.578   2.824  0.00  0.00     0.143 A 
ATOM      2  C2  UNL d   1       3.338  -3.639   4.194  0.00  0.00    -0.057 A 
ATOM      3  C3  UNL d   1       2.436  -2.751   4.792  0.00  0.00     0.033 A 
ATOM      4  C4  UNL d   1       1.816  -1.764   4.033  0.00  0.00    -0.042 A 
ATOM      5  C5  UNL d   1       2.096  -1.669   2.675  0.00  0.00     0.033 A 
ATOM      6  C6  UNL d   1       2.993  -2.563   2.082  0.00  0.00    -0.057 A 
ENDROOT
BRANCH   1   7
ATOM      7  N   UNL d   1       4.577  -4.369   2.189  0.00  0.00    -0.732 N 
ATOM      8  C   UNL d   1       5.964  -3.957   2.154  0.00  0.00     0.284 C 
ATOM      9  H3  UNL d   1       4.442  -5.362   2.367  0.00  0.00     0.395 HD
ENDBRANCH   1   7
TORSDOF 1
ENDMDL
