MODEL 1
REMARK minimizedAffinity -0.0495135337
REMARK minimizedRMSD -1
REMARK  1 active torsions:
REMARK  status: ('A' for Active; 'I' for Inactive)
REMARK    1  A    between atoms: N_2  and  C1_3 
ROOT
ATOM      1  C1  UNL d   1       3.024  -4.220   0.377  0.00  0.00     0.143 A 
ATOM      2  C2  UNL d   1       2.607  -5.554   0.415  0.00  0.00    -0.057 A 
ATOM      3  C3  UNL d   1       1.524  -5.999  -0.354  0.00  0.00     0.033 A 
ATOM      4  C4  UNL d   1       0.820  -5.106  -1.155  0.00  0.00    -0.042 A 
ATOM      5  C5  UNL d   1       1.201  -3.770  -1.190  0.00  0.00     0.033 A 
ATOM      6  C6  UNL d   1       2.287  -3.334  -0.425  0.00  0.00    -0.057 A 
ENDROOT
BRANCH   1   7
ATOM      7  N   UNL d   1       4.031  -3.696   1.192  0.00  0.00    -0.732 N 
ATOM      8  C   UNL d   1       3.738  -3.273   2.545  0.00  0.00     0.284 C 
ATOM      9  H3  UNL d   1       4.910  -4.198   1.095  0.00  0.00     0.395 HD
ENDBRANCH   1   7
TORSDOF 1
ENDMDL
