MODEL 1
REMARK minimizedAffinity 4.91714764
REMARK minimizedRMSD -1
REMARK  1 active torsions:
REMARK  status: ('A' for Active; 'I' for Inactive)
REMARK    1  A    between atoms: N_2  and  C1_3 
ROOT
ATOM      1  C1  UNL d   1       4.132  -3.487  -5.079  0.00  0.00     0.143 A 
ATOM      2  C2  UNL d   1       5.372  -3.587  -5.719  0.00  0.00    -0.057 A 
ATOM      3  C3  UNL d   1       5.988  -4.828  -5.920  0.00  0.00     0.033 A 
ATOM      4  C4  UNL d   1       5.386  -5.993  -5.456  0.00  0.00    -0.042 A 
ATOM      5  C5  UNL d   1       4.166  -5.916  -4.795  0.00  0.00     0.033 A 
ATOM      6  C6  UNL d   1       3.552  -4.674  -4.604  0.00  0.00    -0.057 A 
ENDROOT
BRANCH   1   7
ATOM      7  N   UNL d   1       3.515  -2.275  -4.763  0.00  0.00    -0.732 N 
ATOM      8  C   UNL d   1       2.317  -2.247  -3.951  0.00  0.00     0.284 C 
ATOM      9  H3  UNL d   1       4.187  -1.544  -4.538  0.00  0.00     0.395 HD
ENDBRANCH   1   7
TORSDOF 1
ENDMDL
