MODEL 1
REMARK minimizedAffinity 9.52567482
REMARK minimizedRMSD -1
REMARK  1 active torsions:
REMARK  status: ('A' for Active; 'I' for Inactive)
REMARK    1  A    between atoms: N_2  and  C1_3 
ROOT
ATOM      1  C1  UNL d   1       4.844  -4.004   2.147  0.00  0.00     0.143 A 
ATOM      2  C2  UNL d   1       4.187  -4.151   3.373  0.00  0.00    -0.057 A 
ATOM      3  C3  UNL d   1       3.092  -3.346   3.711  0.00  0.00     0.033 A 
ATOM      4  C4  UNL d   1       2.653  -2.356   2.838  0.00  0.00    -0.042 A 
ATOM      5  C5  UNL d   1       3.307  -2.175   1.624  0.00  0.00     0.033 A 
ATOM      6  C6  UNL d   1       4.395  -2.987   1.290  0.00  0.00    -0.057 A 
ENDROOT
BRANCH   1   7
ATOM      7  N   UNL d   1       5.999  -4.707   1.794  0.00  0.00    -0.732 N 
ATOM      8  C   UNL d   1       5.970  -5.685   0.728  0.00  0.00     0.284 C 
ATOM      9  H3  UNL d   1       6.828  -4.117   1.795  0.00  0.00     0.395 HD
ENDBRANCH   1   7
TORSDOF 1
ENDMDL
