MODEL 1
REMARK minimizedAffinity 4.47021532
REMARK minimizedRMSD -1
REMARK  1 active torsions:
REMARK  status: ('A' for Active; 'I' for Inactive)
REMARK    1  A    between atoms: N_2  and  C1_3 
ROOT
ATOM      1  C1  UNL d   1      -4.199  -0.274  -3.417  0.00  0.00     0.143 A 
ATOM      2  C2  UNL d   1      -4.762   0.950  -3.040  0.00  0.00    -0.057 A 
ATOM      3  C3  UNL d   1      -4.018   1.905  -2.337  0.00  0.00     0.033 A 
ATOM      4  C4  UNL d   1      -2.702   1.640  -1.972  0.00  0.00    -0.042 A 
ATOM      5  C5  UNL d   1      -2.130   0.420  -2.315  0.00  0.00     0.033 A 
ATOM      6  C6  UNL d   1      -2.876  -0.527  -3.023  0.00  0.00    -0.057 A 
ENDROOT
BRANCH   1   7
ATOM      7  N   UNL d   1      -4.916  -1.304  -4.031  0.00  0.00    -0.732 N 
ATOM      8  C   UNL d   1      -5.823  -1.022  -5.123  0.00  0.00     0.284 C 
ATOM      9  H3  UNL d   1      -4.356  -2.143  -4.162  0.00  0.00     0.395 HD
ENDBRANCH   1   7
TORSDOF 1
ENDMDL
