MODEL 1
REMARK minimizedAffinity -1.70644796
REMARK minimizedRMSD -1
REMARK  1 active torsions:
REMARK  status: ('A' for Active; 'I' for Inactive)
REMARK    1  A    between atoms: N_2  and  C1_3 
ROOT
ATOM      1  C1  UNL d   1       5.989  -3.225  -4.806  0.00  0.00     0.143 A 
ATOM      2  C2  UNL d   1       5.903  -2.501  -6.000  0.00  0.00    -0.057 A 
ATOM      3  C3  UNL d   1       5.877  -1.101  -6.000  0.00  0.00     0.033 A 
ATOM      4  C4  UNL d   1       5.907  -0.399  -4.799  0.00  0.00    -0.042 A 
ATOM      5  C5  UNL d   1       5.967  -1.098  -3.599  0.00  0.00     0.033 A 
ATOM      6  C6  UNL d   1       6.000  -2.496  -3.606  0.00  0.00    -0.057 A 
ENDROOT
BRANCH   1   7
ATOM      7  N   UNL d   1       5.919  -4.618  -4.735  0.00  0.00    -0.732 N 
ATOM      8  C   UNL d   1       6.000  -5.423  -5.935  0.00  0.00     0.284 C 
ATOM      9  H3  UNL d   1       6.443  -4.994  -3.947  0.00  0.00     0.395 HD
ENDBRANCH   1   7
TORSDOF 1
ENDMDL
