MODEL 1
REMARK minimizedAffinity 2.4130156
REMARK minimizedRMSD -1
REMARK  2 active torsions:
REMARK  status: ('A' for Active; 'I' for Inactive)
REMARK    1  A    between atoms: C1_2  and  C2_3 
REMARK    2  A    between atoms: C2_3  and  C3_4 
ROOT
ATOM      1  C3  UNL d   1       1.882  -0.506   3.253  0.00  0.00    -0.075 A 
ATOM      2  C4  UNL d   1       2.609  -0.294   2.073  0.00  0.00     0.002 A 
ATOM      3  C5  UNL d   1       2.987   0.995   1.695  0.00  0.00     0.002 A 
ATOM      4  C6  UNL d   1       2.635   2.087   2.486  0.00  0.00    -0.004 A 
ATOM      5  C7  UNL d   1       1.899   1.890   3.652  0.00  0.00     0.002 A 
ATOM      6  C8  UNL d   1       1.523   0.601   4.034  0.00  0.00     0.002 A 
ENDROOT
BRANCH   1   7
ATOM      7  C2  UNL d   1       1.496  -1.901   3.682  0.00  0.00     0.056 C 
BRANCH   7   8
ATOM      8  C1  UNL d   1       1.248  -2.866   2.518  0.00  0.00     0.007 C 
ATOM      9  C   UNL d   1       2.058  -4.152   2.621  0.00  0.00     0.009 C 
ENDBRANCH   7   8
ENDBRANCH   1   7
TORSDOF 2
ENDMDL
