MODEL 1
REMARK minimizedAffinity -0.531392574
REMARK minimizedRMSD -1
REMARK  2 active torsions:
REMARK  status: ('A' for Active; 'I' for Inactive)
REMARK    1  A    between atoms: C1_2  and  C2_3 
REMARK    2  A    between atoms: C2_3  and  C3_4 
ROOT
ATOM      1  C3  UNL d   1       1.779  -2.307   3.006  0.00  0.00    -0.075 A 
ATOM      2  C4  UNL d   1       1.619  -2.139   4.390  0.00  0.00     0.002 A 
ATOM      3  C5  UNL d   1       1.933  -3.175   5.270  0.00  0.00     0.002 A 
ATOM      4  C6  UNL d   1       2.399  -4.393   4.780  0.00  0.00    -0.004 A 
ATOM      5  C7  UNL d   1       2.546  -4.576   3.407  0.00  0.00     0.002 A 
ATOM      6  C8  UNL d   1       2.237  -3.540   2.524  0.00  0.00     0.002 A 
ENDROOT
BRANCH   1   7
ATOM      7  C2  UNL d   1       1.469  -1.180   2.050  0.00  0.00     0.056 C 
BRANCH   7   8
ATOM      8  C1  UNL d   1       2.047   0.174   2.475  0.00  0.00     0.007 C 
ATOM      9  C   UNL d   1       2.838   0.862   1.371  0.00  0.00     0.009 C 
ENDBRANCH   7   8
ENDBRANCH   1   7
TORSDOF 2
ENDMDL
