MODEL 1
REMARK minimizedAffinity 5.20170021
REMARK minimizedRMSD -1
REMARK  2 active torsions:
REMARK  status: ('A' for Active; 'I' for Inactive)
REMARK    1  A    between atoms: C1_2  and  C2_3 
REMARK    2  A    between atoms: C2_3  and  C3_4 
ROOT
ATOM      1  C3  UNL d   1       3.195  -5.957  -2.227  0.00  0.00    -0.075 A 
ATOM      2  C4  UNL d   1       1.863  -5.995  -1.789  0.00  0.00     0.002 A 
ATOM      3  C5  UNL d   1       1.563  -5.929  -0.428  0.00  0.00     0.002 A 
ATOM      4  C6  UNL d   1       2.588  -5.835   0.511  0.00  0.00    -0.004 A 
ATOM      5  C7  UNL d   1       3.916  -5.814   0.088  0.00  0.00     0.002 A 
ATOM      6  C8  UNL d   1       4.218  -5.876  -1.274  0.00  0.00     0.002 A 
ENDROOT
BRANCH   1   7
ATOM      7  C2  UNL d   1       3.525  -5.999  -3.700  0.00  0.00     0.056 C 
BRANCH   7   8
ATOM      8  C1  UNL d   1       2.486  -5.311  -4.592  0.00  0.00     0.007 C 
ATOM      9  C   UNL d   1       2.359  -5.950  -5.968  0.00  0.00     0.009 C 
ENDBRANCH   7   8
ENDBRANCH   1   7
TORSDOF 2
ENDMDL
