MODEL 1
REMARK minimizedAffinity -1.20594251
REMARK minimizedRMSD -1
REMARK  2 active torsions:
REMARK  status: ('A' for Active; 'I' for Inactive)
REMARK    1  A    between atoms: C1_2  and  C2_3 
REMARK    2  A    between atoms: C2_3  and  C3_4 
ROOT
ATOM      1  C3  UNL d   1       2.544  -2.089   2.825  0.00  0.00    -0.075 A 
ATOM      2  C4  UNL d   1       3.094  -3.379   2.829  0.00  0.00     0.002 A 
ATOM      3  C5  UNL d   1       2.519  -4.391   3.598  0.00  0.00     0.002 A 
ATOM      4  C6  UNL d   1       1.398  -4.124   4.380  0.00  0.00    -0.004 A 
ATOM      5  C7  UNL d   1       0.853  -2.842   4.397  0.00  0.00     0.002 A 
ATOM      6  C8  UNL d   1       1.423  -1.829   3.624  0.00  0.00     0.002 A 
ENDROOT
BRANCH   1   7
ATOM      7  C2  UNL d   1       3.143  -0.996   1.971  0.00  0.00     0.056 C 
BRANCH   7   8
ATOM      8  C1  UNL d   1       2.109  -0.048   1.355  0.00  0.00     0.007 C 
ATOM      9  C   UNL d   1       2.656   1.349   1.095  0.00  0.00     0.009 C 
ENDBRANCH   7   8
ENDBRANCH   1   7
TORSDOF 2
ENDMDL
