MODEL 1
REMARK minimizedAffinity 2.73204422
REMARK minimizedRMSD -1
REMARK  2 active torsions:
REMARK  status: ('A' for Active; 'I' for Inactive)
REMARK    1  A    between atoms: C1_2  and  C2_3 
REMARK    2  A    between atoms: C2_3  and  C3_4 
ROOT
ATOM      1  C3  UNL d   1       2.018  -0.424   2.176  0.00  0.00    -0.075 A 
ATOM      2  C4  UNL d   1       2.816  -0.034   1.091  0.00  0.00     0.002 A 
ATOM      3  C5  UNL d   1       3.494   1.185   1.112  0.00  0.00     0.002 A 
ATOM      4  C6  UNL d   1       3.376   2.032   2.211  0.00  0.00    -0.004 A 
ATOM      5  C7  UNL d   1       2.573   1.662   3.288  0.00  0.00     0.002 A 
ATOM      6  C8  UNL d   1       1.897   0.441   3.272  0.00  0.00     0.002 A 
ENDROOT
BRANCH   1   7
ATOM      7  C2  UNL d   1       1.305  -1.755   2.172  0.00  0.00     0.056 C 
BRANCH   7   8
ATOM      8  C1  UNL d   1       1.998  -2.837   3.007  0.00  0.00     0.007 C 
ATOM      9  C   UNL d   1       1.775  -4.245   2.470  0.00  0.00     0.009 C 
ENDBRANCH   7   8
ENDBRANCH   1   7
TORSDOF 2
ENDMDL
