MODEL 1
REMARK minimizedAffinity -0.869718254
REMARK minimizedRMSD -1
REMARK  0 active torsions:
REMARK  status: ('A' for Active; 'I' for Inactive)
ROOT
ATOM      1  C1  BNZ d   1      -0.966   0.162  -0.473  0.00  0.00     0.000 A 
ATOM      2  C2  BNZ d   1      -1.009  -1.145  -0.879  0.00  0.00     0.000 A 
ATOM      3  C3  BNZ d   1       0.029  -1.995  -0.615  0.00  0.00     0.000 A 
ATOM      4  C4  BNZ d   1       1.124  -1.527   0.018  0.00  0.00     0.000 A 
ATOM      5  C5  BNZ d   1       1.186  -0.209   0.425  0.00  0.00     0.000 A 
ATOM      6  C6  BNZ d   1       0.124   0.633   0.192  0.00  0.00     0.000 A 
ENDROOT
TORSDOF 0
ENDMDL
