MODEL 1
REMARK minimizedAffinity -3.18901992
REMARK minimizedRMSD -1
REMARK  0 active torsions:
REMARK  status: ('A' for Active; 'I' for Inactive)
ROOT
ATOM      1  C1  BNZ d   1       1.718   0.045   0.945  0.00  0.00     0.000 A 
ATOM      2  C2  BNZ d   1       1.003   1.188   0.703  0.00  0.00     0.000 A 
ATOM      3  C3  BNZ d   1      -0.226   1.132   0.108  0.00  0.00     0.000 A 
ATOM      4  C4  BNZ d   1      -0.721  -0.061  -0.281  0.00  0.00     0.000 A 
ATOM      5  C5  BNZ d   1      -0.008  -1.221  -0.052  0.00  0.00     0.000 A 
ATOM      6  C6  BNZ d   1       1.212  -1.165   0.582  0.00  0.00     0.000 A 
ENDROOT
TORSDOF 0
ENDMDL
