MODEL 1
REMARK minimizedAffinity 1.75037754
REMARK minimizedRMSD -1
REMARK  0 active torsions:
REMARK  status: ('A' for Active; 'I' for Inactive)
ROOT
ATOM      1  C1  BNZ d   1       0.301  -0.771  -0.406  0.00  0.00     0.000 A 
ATOM      2  C2  BNZ d   1      -0.469  -1.604   0.361  0.00  0.00     0.000 A 
ATOM      3  C3  BNZ d   1       0.024  -2.796   0.811  0.00  0.00     0.000 A 
ATOM      4  C4  BNZ d   1       1.271  -3.172   0.462  0.00  0.00     0.000 A 
ATOM      5  C5  BNZ d   1       2.057  -2.348  -0.319  0.00  0.00     0.000 A 
ATOM      6  C6  BNZ d   1       1.571  -1.131  -0.738  0.00  0.00     0.000 A 
ENDROOT
TORSDOF 0
ENDMDL
