MODEL 1
REMARK minimizedAffinity -4.59960508
REMARK minimizedRMSD -1
REMARK  0 active torsions:
REMARK  status: ('A' for Active; 'I' for Inactive)
ROOT
ATOM      1  C1  BNZ d   1       0.357  -1.384  -0.937  0.00  0.00     0.000 A 
ATOM      2  C2  BNZ d   1       1.502  -1.655  -0.237  0.00  0.00     0.000 A 
ATOM      3  C3  BNZ d   1       2.102  -0.691   0.523  0.00  0.00     0.000 A 
ATOM      4  C4  BNZ d   1       1.581   0.553   0.550  0.00  0.00     0.000 A 
ATOM      5  C5  BNZ d   1       0.432   0.844  -0.159  0.00  0.00     0.000 A 
ATOM      6  C6  BNZ d   1      -0.191  -0.139  -0.891  0.00  0.00     0.000 A 
ENDROOT
TORSDOF 0
ENDMDL
