MODEL 1
REMARK minimizedAffinity -4.71644402
REMARK minimizedRMSD -1
REMARK  0 active torsions:
REMARK  status: ('A' for Active; 'I' for Inactive)
ROOT
ATOM      1  C1  BNZ d   1       2.455  -0.544   1.084  0.00  0.00     0.000 A 
ATOM      2  C2  BNZ d   1       1.282   0.119   0.838  0.00  0.00     0.000 A 
ATOM      3  C3  BNZ d   1       0.339  -0.414   0.005  0.00  0.00     0.000 A 
ATOM      4  C4  BNZ d   1       0.585  -1.588  -0.611  0.00  0.00     0.000 A 
ATOM      5  C5  BNZ d   1       1.766  -2.264  -0.380  0.00  0.00     0.000 A 
ATOM      6  C6  BNZ d   1       2.697  -1.744   0.490  0.00  0.00     0.000 A 
ENDROOT
TORSDOF 0
ENDMDL
