MODEL 1
REMARK minimizedAffinity -3.96049833
REMARK minimizedRMSD -1
REMARK  0 active torsions:
REMARK  status: ('A' for Active; 'I' for Inactive)
ROOT
ATOM      1  C1  BNZ d   1       0.025   0.534  -0.045  0.00  0.00     0.000 A 
ATOM      2  C2  BNZ d   1       1.351   0.308   0.212  0.00  0.00     0.000 A 
ATOM      3  C3  BNZ d   1       1.872  -0.954   0.143  0.00  0.00     0.000 A 
ATOM      4  C4  BNZ d   1       1.059  -1.992  -0.142  0.00  0.00     0.000 A 
ATOM      5  C5  BNZ d   1      -0.282  -1.782  -0.394  0.00  0.00     0.000 A 
ATOM      6  C6  BNZ d   1      -0.795  -0.505  -0.363  0.00  0.00     0.000 A 
ENDROOT
TORSDOF 0
ENDMDL
