MODEL 1
REMARK minimizedAffinity -3.51651931
REMARK minimizedRMSD -1
REMARK  1 active torsions:
REMARK  status: ('A' for Active; 'I' for Inactive)
REMARK    1  A    between atoms: C1_2  and  C2_3 
ROOT
ATOM      1  C2  UNL d   1      -0.453   0.383  -0.772  0.00  0.00    -0.081 A 
ATOM      2  C3  UNL d   1       0.716   1.133  -0.954  0.00  0.00     0.006 A 
ATOM      3  C4  UNL d   1       1.769   1.036  -0.042  0.00  0.00     0.002 A 
ATOM      4  C5  UNL d   1       1.674   0.182   1.063  0.00  0.00    -0.080 A 
ATOM      5  C6  UNL d   1       2.810   0.046   2.033  0.00  0.00     0.076 C 
ATOM      6  C7  UNL d   1       0.500  -0.553   1.254  0.00  0.00     0.002 A 
ATOM      7  C8  UNL d   1      -0.554  -0.456   0.343  0.00  0.00     0.006 A 
ENDROOT
BRANCH   1   8
ATOM      8  C1  UNL d   1      -1.564   0.437  -1.789  0.00  0.00     0.054 C 
ATOM      9  C   UNL d   1      -2.656  -0.574  -1.470  0.00  0.00     0.018 C 
ENDBRANCH   1   8
TORSDOF 1
ENDMDL
