MODEL 1
REMARK minimizedAffinity -3.64631629
REMARK minimizedRMSD -1
REMARK  1 active torsions:
REMARK  status: ('A' for Active; 'I' for Inactive)
REMARK    1  A    between atoms: C1_2  and  C2_3 
ROOT
ATOM      1  C2  UNL d   1       1.498   0.346   0.763  0.00  0.00    -0.081 A 
ATOM      2  C3  UNL d   1       0.359  -0.344   1.196  0.00  0.00     0.006 A 
ATOM      3  C4  UNL d   1      -0.733  -0.517   0.342  0.00  0.00     0.002 A 
ATOM      4  C5  UNL d   1      -0.701  -0.010  -0.961  0.00  0.00    -0.080 A 
ATOM      5  C6  UNL d   1      -1.854  -0.215  -1.898  0.00  0.00     0.076 C 
ATOM      6  C7  UNL d   1       0.429   0.695  -1.389  0.00  0.00     0.002 A 
ATOM      7  C8  UNL d   1       1.521   0.868  -0.535  0.00  0.00     0.006 A 
ENDROOT
BRANCH   1   8
ATOM      8  C1  UNL d   1       2.702   0.478   1.660  0.00  0.00     0.054 C 
ATOM      9  C   UNL d   1       2.993  -0.825   2.391  0.00  0.00     0.018 C 
ENDBRANCH   1   8
TORSDOF 1
ENDMDL
