MODEL 1
REMARK minimizedAffinity -3.11272955
REMARK minimizedRMSD -1
REMARK  1 active torsions:
REMARK  status: ('A' for Active; 'I' for Inactive)
REMARK    1  A    between atoms: C1_2  and  C2_3 
ROOT
ATOM      1  C2  UNL d   1       1.175   0.766   0.384  0.00  0.00    -0.081 A 
ATOM      2  C3  UNL d   1      -0.067   0.950   1.004  0.00  0.00     0.006 A 
ATOM      3  C4  UNL d   1      -1.251   0.734   0.294  0.00  0.00     0.002 A 
ATOM      4  C5  UNL d   1      -1.213   0.323  -1.042  0.00  0.00    -0.080 A 
ATOM      5  C6  UNL d   1      -2.477   0.059  -1.806  0.00  0.00     0.076 C 
ATOM      6  C7  UNL d   1       0.028   0.156  -1.667  0.00  0.00     0.002 A 
ATOM      7  C8  UNL d   1       1.212   0.373  -0.958  0.00  0.00     0.006 A 
ENDROOT
BRANCH   1   8
ATOM      8  C1  UNL d   1       2.453   0.935   1.165  0.00  0.00     0.054 C 
ATOM      9  C   UNL d   1       2.813  -0.337   1.920  0.00  0.00     0.018 C 
ENDBRANCH   1   8
TORSDOF 1
ENDMDL
