MODEL 1
REMARK minimizedAffinity -4.93797207
REMARK minimizedRMSD -1
REMARK  1 active torsions:
REMARK  status: ('A' for Active; 'I' for Inactive)
REMARK    1  A    between atoms: C1_2  and  C2_3 
ROOT
ATOM      1  C2  UNL d   1      -1.109   0.473  -0.631  0.00  0.00    -0.081 A 
ATOM      2  C3  UNL d   1       0.045   1.203  -0.939  0.00  0.00     0.006 A 
ATOM      3  C4  UNL d   1       1.269   0.874  -0.350  0.00  0.00     0.002 A 
ATOM      4  C5  UNL d   1       1.360  -0.194   0.549  0.00  0.00    -0.080 A 
ATOM      5  C6  UNL d   1       2.673  -0.576   1.165  0.00  0.00     0.076 C 
ATOM      6  C7  UNL d   1       0.203  -0.912   0.870  0.00  0.00     0.002 A 
ATOM      7  C8  UNL d   1      -1.021  -0.583   0.282  0.00  0.00     0.006 A 
ENDROOT
BRANCH   1   8
ATOM      8  C1  UNL d   1      -2.417   0.784  -1.313  0.00  0.00     0.054 C 
ATOM      9  C   UNL d   1      -2.537   0.049  -2.641  0.00  0.00     0.018 C 
ENDBRANCH   1   8
TORSDOF 1
ENDMDL
