MODEL 1
REMARK minimizedAffinity -2.91948247
REMARK minimizedRMSD -1
REMARK  1 active torsions:
REMARK  status: ('A' for Active; 'I' for Inactive)
REMARK    1  A    between atoms: C1_2  and  C2_3 
ROOT
ATOM      1  C2  UNL d   1      -0.626   0.028  -0.124  0.00  0.00    -0.081 A 
ATOM      2  C3  UNL d   1      -0.286  -1.193   0.470  0.00  0.00     0.006 A 
ATOM      3  C4  UNL d   1       1.023  -1.433   0.896  0.00  0.00     0.002 A 
ATOM      4  C5  UNL d   1       2.010  -0.454   0.743  0.00  0.00    -0.080 A 
ATOM      5  C6  UNL d   1       3.411  -0.687   1.223  0.00  0.00     0.076 C 
ATOM      6  C7  UNL d   1       1.674   0.760   0.133  0.00  0.00     0.002 A 
ATOM      7  C8  UNL d   1       0.366   1.000  -0.293  0.00  0.00     0.006 A 
ENDROOT
BRANCH   1   8
ATOM      8  C1  UNL d   1      -2.051   0.314  -0.525  0.00  0.00     0.054 C 
ATOM      9  C   UNL d   1      -2.273   0.043  -2.007  0.00  0.00     0.018 C 
ENDBRANCH   1   8
TORSDOF 1
ENDMDL
