MODEL 1
REMARK minimizedAffinity -0.836612582
REMARK minimizedRMSD -1
REMARK  1 active torsions:
REMARK  status: ('A' for Active; 'I' for Inactive)
REMARK    1  A    between atoms: C1_2  and  C2_3 
ROOT
ATOM      1  C2  UNL d   1       1.492  -0.805   1.794  0.00  0.00    -0.081 A 
ATOM      2  C3  UNL d   1       2.441   0.190   1.528  0.00  0.00     0.006 A 
ATOM      3  C4  UNL d   1       2.183   1.178   0.575  0.00  0.00     0.002 A 
ATOM      4  C5  UNL d   1       0.970   1.192  -0.123  0.00  0.00    -0.080 A 
ATOM      5  C6  UNL d   1       0.669   2.264  -1.127  0.00  0.00     0.076 C 
ATOM      6  C7  UNL d   1       0.030   0.187   0.130  0.00  0.00     0.002 A 
ATOM      7  C8  UNL d   1       0.287  -0.801   1.082  0.00  0.00     0.006 A 
ENDROOT
BRANCH   1   8
ATOM      8  C1  UNL d   1       1.740  -1.834   2.867  0.00  0.00     0.054 C 
ATOM      9  C   UNL d   1       0.921  -3.094   2.626  0.00  0.00     0.018 C 
ENDBRANCH   1   8
TORSDOF 1
ENDMDL
