MODEL 1
REMARK minimizedAffinity -5.97579384
REMARK minimizedRMSD -1
REMARK  1 active torsions:
REMARK  status: ('A' for Active; 'I' for Inactive)
REMARK    1  A    between atoms: C1_2  and  C2_3 
ROOT
ATOM      1  C2  UNL d   1       0.658  -0.053   0.846  0.00  0.00    -0.077 A 
ATOM      2  C3  UNL d   1       1.423  -0.071   2.021  0.00  0.00     0.002 A 
ATOM      3  C4  UNL d   1       0.944   0.533   3.185  0.00  0.00     0.002 A 
ATOM      4  C5  UNL d   1      -0.302   1.157   3.187  0.00  0.00    -0.004 A 
ATOM      5  C6  UNL d   1      -1.069   1.182   2.023  0.00  0.00     0.002 A 
ATOM      6  C7  UNL d   1      -0.592   0.580   0.858  0.00  0.00     0.002 A 
ENDROOT
BRANCH   1   7
ATOM      7  C1  UNL d   1       1.151  -0.747  -0.396  0.00  0.00     0.055 C 
ATOM      8  C   UNL d   1       0.599  -0.090  -1.653  0.00  0.00     0.019 C 
ENDBRANCH   1   7
TORSDOF 1
ENDMDL
