MODEL 1
REMARK minimizedAffinity -5.91213512
REMARK minimizedRMSD -1
REMARK  1 active torsions:
REMARK  status: ('A' for Active; 'I' for Inactive)
REMARK    1  A    between atoms: C1_2  and  C2_3 
ROOT
ATOM      1  C2  UNL d   1       0.238   0.457   1.977  0.00  0.00    -0.077 A 
ATOM      2  C3  UNL d   1      -1.079   0.739   2.366  0.00  0.00     0.002 A 
ATOM      3  C4  UNL d   1      -2.131   0.581   1.462  0.00  0.00     0.002 A 
ATOM      4  C5  UNL d   1      -1.878   0.138   0.166  0.00  0.00    -0.004 A 
ATOM      5  C6  UNL d   1      -0.571  -0.143  -0.231  0.00  0.00     0.002 A 
ATOM      6  C7  UNL d   1       0.482   0.015   0.670  0.00  0.00     0.002 A 
ENDROOT
BRANCH   1   7
ATOM      7  C1  UNL d   1       1.369   0.580   2.965  0.00  0.00     0.055 C 
ATOM      8  C   UNL d   1       2.519  -0.350   2.607  0.00  0.00     0.019 C 
ENDBRANCH   1   7
TORSDOF 1
ENDMDL
