MODEL 1
REMARK minimizedAffinity -1.1173861
REMARK minimizedRMSD -1
REMARK  1 active torsions:
REMARK  status: ('A' for Active; 'I' for Inactive)
REMARK    1  A    between atoms: C1_2  and  C2_3 
ROOT
ATOM      1  C2  UNL d   1       0.659  -0.305   2.175  0.00  0.00    -0.077 A 
ATOM      2  C3  UNL d   1      -0.337  -0.043   3.127  0.00  0.00     0.002 A 
ATOM      3  C4  UNL d   1      -1.658   0.170   2.727  0.00  0.00     0.002 A 
ATOM      4  C5  UNL d   1      -1.995   0.119   1.376  0.00  0.00    -0.004 A 
ATOM      5  C6  UNL d   1      -1.011  -0.138   0.422  0.00  0.00     0.002 A 
ATOM      6  C7  UNL d   1       0.309  -0.350   0.819  0.00  0.00     0.002 A 
ENDROOT
BRANCH   1   7
ATOM      7  C1  UNL d   1       2.074  -0.584   2.608  0.00  0.00     0.055 C 
ATOM      8  C   UNL d   1       2.928  -1.056   1.440  0.00  0.00     0.019 C 
ENDBRANCH   1   7
TORSDOF 1
ENDMDL
