MODEL 1
REMARK minimizedAffinity -5.86534262
REMARK minimizedRMSD -1
REMARK  1 active torsions:
REMARK  status: ('A' for Active; 'I' for Inactive)
REMARK    1  A    between atoms: C1_2  and  C2_3 
ROOT
ATOM      1  C2  UNL d   1      -0.182   0.251   0.934  0.00  0.00    -0.077 A 
ATOM      2  C3  UNL d   1       1.071  -0.247   1.316  0.00  0.00     0.002 A 
ATOM      3  C4  UNL d   1       1.493  -0.155   2.643  0.00  0.00     0.002 A 
ATOM      4  C5  UNL d   1       0.667   0.430   3.600  0.00  0.00    -0.004 A 
ATOM      5  C6  UNL d   1      -0.581   0.930   3.230  0.00  0.00     0.002 A 
ATOM      6  C7  UNL d   1      -1.004   0.840   1.903  0.00  0.00     0.002 A 
ENDROOT
BRANCH   1   7
ATOM      7  C1  UNL d   1      -0.660   0.108  -0.488  0.00  0.00     0.055 C 
ATOM      8  C   UNL d   1       0.459  -0.371  -1.402  0.00  0.00     0.019 C 
ENDBRANCH   1   7
TORSDOF 1
ENDMDL
