MODEL 1
REMARK minimizedAffinity -4.5865612
REMARK minimizedRMSD -1
REMARK  1 active torsions:
REMARK  status: ('A' for Active; 'I' for Inactive)
REMARK    1  A    between atoms: C1_2  and  C2_3 
ROOT
ATOM      1  C2  UNL d   1       0.187  -1.041   0.124  0.00  0.00    -0.077 A 
ATOM      2  C3  UNL d   1       1.280  -1.260   0.974  0.00  0.00     0.002 A 
ATOM      3  C4  UNL d   1       1.170  -1.018   2.344  0.00  0.00     0.002 A 
ATOM      4  C5  UNL d   1      -0.033  -0.560   2.878  0.00  0.00    -0.004 A 
ATOM      5  C6  UNL d   1      -1.126  -0.337   2.041  0.00  0.00     0.002 A 
ATOM      6  C7  UNL d   1      -1.017  -0.577   0.671  0.00  0.00     0.002 A 
ENDROOT
BRANCH   1   7
ATOM      7  C1  UNL d   1       0.289  -1.348  -1.347  0.00  0.00     0.055 C 
ATOM      8  C   UNL d   1       0.969  -0.216  -2.103  0.00  0.00     0.019 C 
ENDBRANCH   1   7
TORSDOF 1
ENDMDL
