MODEL 1
REMARK minimizedAffinity -4.37600803
REMARK minimizedRMSD -1
REMARK  1 active torsions:
REMARK  status: ('A' for Active; 'I' for Inactive)
REMARK    1  A    between atoms: C1_2  and  C2_3 
ROOT
ATOM      1  C2  UNL d   1       0.221   0.533   1.074  0.00  0.00    -0.077 A 
ATOM      2  C3  UNL d   1      -0.589  -0.032   0.078  0.00  0.00     0.002 A 
ATOM      3  C4  UNL d   1      -0.199  -1.206  -0.568  0.00  0.00     0.002 A 
ATOM      4  C5  UNL d   1       0.999  -1.828  -0.224  0.00  0.00    -0.004 A 
ATOM      5  C6  UNL d   1       1.813  -1.274   0.764  0.00  0.00     0.002 A 
ATOM      6  C7  UNL d   1       1.425  -0.099   1.410  0.00  0.00     0.002 A 
ENDROOT
BRANCH   1   7
ATOM      7  C1  UNL d   1      -0.221   1.772   1.807  0.00  0.00     0.055 C 
ATOM      8  C   UNL d   1      -0.804   1.430   3.170  0.00  0.00     0.019 C 
ENDBRANCH   1   7
TORSDOF 1
ENDMDL
