MODEL 1
REMARK minimizedAffinity 10.4730034
REMARK minimizedRMSD -1
REMARK  0 active torsions:
REMARK  status: ('A' for Active; 'I' for Inactive)
ROOT
ATOM      1  C4' PXY d   1      -0.811  -3.947   0.431  0.00  0.00     0.077 C 
ATOM      2  C1' PXY d   1      -2.587   0.361  -2.991  0.00  0.00     0.077 C 
ATOM      3  C1  PXY d   1      -2.123  -0.762  -2.083  0.00  0.00    -0.082 A 
ATOM      4  C2  PXY d   1      -1.308  -1.690  -2.555  0.00  0.00     0.003 A 
ATOM      5  C3  PXY d   1      -0.904  -2.730  -1.757  0.00  0.00     0.003 A 
ATOM      6  C4  PXY d   1      -1.297  -2.790  -0.447  0.00  0.00    -0.082 A 
ATOM      7  C5  PXY d   1      -2.120  -1.841   0.046  0.00  0.00     0.003 A 
ATOM      8  C6  PXY d   1      -2.552  -0.816  -0.792  0.00  0.00     0.003 A 
ENDROOT
TORSDOF 0
ENDMDL
