MODEL 1
REMARK minimizedAffinity 18.0975552
REMARK minimizedRMSD -1
REMARK  0 active torsions:
REMARK  status: ('A' for Active; 'I' for Inactive)
ROOT
ATOM      1  C4' PXY d   1       1.348   0.458  -2.881  0.00  0.00     0.077 C 
ATOM      2  C1' PXY d   1      -3.155   3.571  -4.737  0.00  0.00     0.077 C 
ATOM      3  C1  PXY d   1      -1.967   2.759  -4.260  0.00  0.00    -0.082 A 
ATOM      4  C2  PXY d   1      -2.167   1.674  -3.530  0.00  0.00     0.003 A 
ATOM      5  C3  PXY d   1      -1.103   0.946  -3.063  0.00  0.00     0.003 A 
ATOM      6  C4  PXY d   1       0.178   1.302  -3.392  0.00  0.00    -0.082 A 
ATOM      7  C5  PXY d   1       0.390   2.402  -4.145  0.00  0.00     0.003 A 
ATOM      8  C6  PXY d   1      -0.703   3.151  -4.574  0.00  0.00     0.003 A 
ENDROOT
TORSDOF 0
ENDMDL
