MODEL 1
REMARK minimizedAffinity 14.8560295
REMARK minimizedRMSD -1
REMARK  0 active torsions:
REMARK  status: ('A' for Active; 'I' for Inactive)
ROOT
ATOM      1  C4' PXY d   1       1.787   0.094  -3.373  0.00  0.00     0.077 C 
ATOM      2  C1' PXY d   1      -2.901   3.300  -4.449  0.00  0.00     0.077 C 
ATOM      3  C1  PXY d   1      -1.665   2.466  -4.175  0.00  0.00    -0.082 A 
ATOM      4  C2  PXY d   1      -1.796   1.238  -3.702  0.00  0.00     0.003 A 
ATOM      5  C3  PXY d   1      -0.688   0.482  -3.419  0.00  0.00     0.003 A 
ATOM      6  C4  PXY d   1       0.566   0.968  -3.673  0.00  0.00    -0.082 A 
ATOM      7  C5  PXY d   1       0.708   2.217  -4.166  0.00  0.00     0.003 A 
ATOM      8  C6  PXY d   1      -0.428   2.984  -4.408  0.00  0.00     0.003 A 
ENDROOT
TORSDOF 0
ENDMDL
