MODEL 1
REMARK minimizedAffinity 20.0677738
REMARK minimizedRMSD -1
REMARK  0 active torsions:
REMARK  status: ('A' for Active; 'I' for Inactive)
ROOT
ATOM      1  C4' PXY d   1      -1.728   2.365  -4.175  0.00  0.00     0.077 C 
ATOM      2  C1' PXY d   1      -5.997   5.994  -5.598  0.00  0.00     0.077 C 
ATOM      3  C1  PXY d   1      -4.885   5.032  -5.229  0.00  0.00    -0.082 A 
ATOM      4  C2  PXY d   1      -4.000   5.378  -4.308  0.00  0.00     0.003 A 
ATOM      5  C3  PXY d   1      -2.969   4.533  -3.985  0.00  0.00     0.003 A 
ATOM      6  C4  PXY d   1      -2.873   3.300  -4.572  0.00  0.00    -0.082 A 
ATOM      7  C5  PXY d   1      -3.779   2.936  -5.505  0.00  0.00     0.003 A 
ATOM      8  C6  PXY d   1      -4.794   3.824  -5.848  0.00  0.00     0.003 A 
ENDROOT
TORSDOF 0
ENDMDL
