MODEL 1
REMARK minimizedAffinity 9.7165556
REMARK minimizedRMSD -1
REMARK  0 active torsions:
REMARK  status: ('A' for Active; 'I' for Inactive)
ROOT
ATOM      1  C4' PXY d   1      -0.062  -6.000   1.835  0.00  0.00     0.077 C 
ATOM      2  C1' PXY d   1      -1.534  -2.118  -2.188  0.00  0.00     0.077 C 
ATOM      3  C1  PXY d   1      -1.152  -3.146  -1.141  0.00  0.00    -0.082 A 
ATOM      4  C2  PXY d   1      -1.054  -2.782   0.127  0.00  0.00     0.003 A 
ATOM      5  C3  PXY d   1      -0.679  -3.691   1.083  0.00  0.00     0.003 A 
ATOM      6  C4  PXY d   1      -0.454  -4.998   0.745  0.00  0.00    -0.082 A 
ATOM      7  C5  PXY d   1      -0.563  -5.380  -0.545  0.00  0.00     0.003 A 
ATOM      8  C6  PXY d   1      -0.904  -4.433  -1.506  0.00  0.00     0.003 A 
ENDROOT
TORSDOF 0
ENDMDL
