MODEL 1
REMARK minimizedAffinity 7.34892607
REMARK minimizedRMSD -1
REMARK  0 active torsions:
REMARK  status: ('A' for Active; 'I' for Inactive)
ROOT
ATOM      1  C4' PXY d   1      -1.889  -1.769  -1.038  0.00  0.00     0.077 C 
ATOM      2  C1' PXY d   1      -1.133  -6.000   2.828  0.00  0.00     0.077 C 
ATOM      3  C1  PXY d   1      -1.343  -4.888   1.819  0.00  0.00    -0.082 A 
ATOM      4  C2  PXY d   1      -0.631  -4.874   0.704  0.00  0.00     0.003 A 
ATOM      5  C3  PXY d   1      -0.786  -3.858  -0.205  0.00  0.00     0.003 A 
ATOM      6  C4  PXY d   1      -1.717  -2.877   0.005  0.00  0.00    -0.082 A 
ATOM      7  C5  PXY d   1      -2.455  -2.890   1.135  0.00  0.00     0.003 A 
ATOM      8  C6  PXY d   1      -2.254  -3.907   2.064  0.00  0.00     0.003 A 
ENDROOT
TORSDOF 0
ENDMDL
