MODEL 1
REMARK minimizedAffinity 18.6471386
REMARK minimizedRMSD -1
REMARK  0 active torsions:
REMARK  status: ('A' for Active; 'I' for Inactive)
ROOT
ATOM      1  C4' PXY d   1      -2.124  -1.083  -1.967  0.00  0.00     0.077 C 
ATOM      2  C1' PXY d   1      -0.384   3.486  -5.051  0.00  0.00     0.077 C 
ATOM      3  C1  PXY d   1      -0.850   2.295  -4.237  0.00  0.00    -0.082 A 
ATOM      4  C2  PXY d   1      -0.001   1.319  -3.962  0.00  0.00     0.003 A 
ATOM      5  C3  PXY d   1      -0.413   0.219  -3.254  0.00  0.00     0.003 A 
ATOM      6  C4  PXY d   1      -1.695   0.143  -2.778  0.00  0.00    -0.082 A 
ATOM      7  C5  PXY d   1      -2.564   1.141  -3.045  0.00  0.00     0.003 A 
ATOM      8  C6  PXY d   1      -2.137   2.229  -3.800  0.00  0.00     0.003 A 
ENDROOT
TORSDOF 0
ENDMDL
