MODEL 1
REMARK minimizedAffinity 11.9406328
REMARK minimizedRMSD -1
REMARK  0 active torsions:
REMARK  status: ('A' for Active; 'I' for Inactive)
ROOT
ATOM      1  C4' PXY d   1      -4.673   4.412  -5.295  0.00  0.00     0.077 C 
ATOM      2  C1' PXY d   1       0.497   1.997  -4.372  0.00  0.00     0.077 C 
ATOM      3  C1  PXY d   1      -0.853   2.639  -4.622  0.00  0.00    -0.082 A 
ATOM      4  C2  PXY d   1      -1.814   2.515  -3.720  0.00  0.00     0.003 A 
ATOM      5  C3  PXY d   1      -3.051   3.062  -3.945  0.00  0.00     0.003 A 
ATOM      6  C4  PXY d   1      -3.291   3.789  -5.080  0.00  0.00    -0.082 A 
ATOM      7  C5  PXY d   1      -2.313   3.929  -6.000  0.00  0.00     0.003 A 
ATOM      8  C6  PXY d   1      -1.077   3.331  -5.772  0.00  0.00     0.003 A 
ENDROOT
TORSDOF 0
ENDMDL
