MODEL 1
REMARK minimizedAffinity 14.6236696
REMARK minimizedRMSD -1
REMARK  0 active torsions:
REMARK  status: ('A' for Active; 'I' for Inactive)
ROOT
ATOM      1  C4' PXY d   1       0.807  -1.272  -3.331  0.00  0.00     0.077 C 
ATOM      2  C1' PXY d   1       3.761   2.582  -0.195  0.00  0.00     0.077 C 
ATOM      3  C1  PXY d   1       2.996   1.563  -1.017  0.00  0.00    -0.082 A 
ATOM      4  C2  PXY d   1       2.017   1.965  -1.811  0.00  0.00     0.003 A 
ATOM      5  C3  PXY d   1       1.295   1.053  -2.537  0.00  0.00     0.003 A 
ATOM      6  C4  PXY d   1       1.612  -0.278  -2.490  0.00  0.00    -0.082 A 
ATOM      7  C5  PXY d   1       2.616  -0.695  -1.690  0.00  0.00     0.003 A 
ATOM      8  C6  PXY d   1       3.311   0.242  -0.930  0.00  0.00     0.003 A 
ENDROOT
TORSDOF 0
ENDMDL
