MODEL 1
REMARK minimizedAffinity 2.05040765
REMARK minimizedRMSD -1
REMARK  0 active torsions:
REMARK  status: ('A' for Active; 'I' for Inactive)
ROOT
ATOM      1  C4' PXY d   1       1.279   2.661  -3.964  0.00  0.00     0.077 C 
ATOM      2  C1' PXY d   1      -4.044   3.634  -6.000  0.00  0.00     0.077 C 
ATOM      3  C1  PXY d   1      -2.653   3.375  -5.455  0.00  0.00    -0.082 A 
ATOM      4  C2  PXY d   1      -1.614   3.995  -5.991  0.00  0.00     0.003 A 
ATOM      5  C3  PXY d   1      -0.346   3.748  -5.531  0.00  0.00     0.003 A 
ATOM      6  C4  PXY d   1      -0.145   2.899  -4.476  0.00  0.00    -0.082 A 
ATOM      7  C5  PXY d   1      -1.200   2.270  -3.917  0.00  0.00     0.003 A 
ATOM      8  C6  PXY d   1      -2.475   2.503  -4.425  0.00  0.00     0.003 A 
ENDROOT
TORSDOF 0
ENDMDL
