MODEL 1
REMARK minimizedAffinity 7.22355223
REMARK minimizedRMSD -1
REMARK  0 active torsions:
REMARK  status: ('A' for Active; 'I' for Inactive)
ROOT
ATOM      1  C4' PXY d   1      -2.394  -1.888   3.261  0.00  0.00     0.077 C 
ATOM      2  C1' PXY d   1      -0.493  -5.493  -0.838  0.00  0.00     0.077 C 
ATOM      3  C1  PXY d   1      -0.987  -4.537   0.230  0.00  0.00    -0.082 A 
ATOM      4  C2  PXY d   1      -1.101  -4.955   1.480  0.00  0.00     0.003 A 
ATOM      5  C3  PXY d   1      -1.577  -4.114   2.452  0.00  0.00     0.003 A 
ATOM      6  C4  PXY d   1      -1.890  -2.815   2.152  0.00  0.00    -0.082 A 
ATOM      7  C5  PXY d   1      -1.767  -2.378   0.881  0.00  0.00     0.003 A 
ATOM      8  C6  PXY d   1      -1.321  -3.260  -0.100  0.00  0.00     0.003 A 
ENDROOT
TORSDOF 0
ENDMDL
