MODEL 1
REMARK minimizedAffinity 4.93399572
REMARK minimizedRMSD -1
REMARK  0 active torsions:
REMARK  status: ('A' for Active; 'I' for Inactive)
ROOT
ATOM      1  C4' PXY d   1      -1.544   2.686  -4.390  0.00  0.00     0.077 C 
ATOM      2  C1' PXY d   1      -6.000   5.999  -5.999  0.00  0.00     0.077 C 
ATOM      3  C1  PXY d   1      -4.839   5.119  -5.578  0.00  0.00    -0.082 A 
ATOM      4  C2  PXY d   1      -3.831   5.646  -4.902  0.00  0.00     0.003 A 
ATOM      5  C3  PXY d   1      -2.758   4.873  -4.541  0.00  0.00     0.003 A 
ATOM      6  C4  PXY d   1      -2.742   3.534  -4.828  0.00  0.00    -0.082 A 
ATOM      7  C5  PXY d   1      -3.772   2.986  -5.507  0.00  0.00     0.003 A 
ATOM      8  C6  PXY d   1      -4.832   3.798  -5.901  0.00  0.00     0.003 A 
ENDROOT
TORSDOF 0
ENDMDL
