MODEL 1
REMARK minimizedAffinity 4.88003206
REMARK minimizedRMSD -1
REMARK  0 active torsions:
REMARK  status: ('A' for Active; 'I' for Inactive)
ROOT
ATOM      1  C4' PXY d   1      -0.449  -3.384  -1.042  0.00  0.00     0.077 C 
ATOM      2  C1' PXY d   1       1.251  -5.999   3.825  0.00  0.00     0.077 C 
ATOM      3  C1  PXY d   1       0.803  -5.324   2.543  0.00  0.00    -0.082 A 
ATOM      4  C2  PXY d   1       1.164  -4.075   2.301  0.00  0.00     0.003 A 
ATOM      5  C3  PXY d   1       0.742  -3.439   1.162  0.00  0.00     0.003 A 
ATOM      6  C4  PXY d   1      -0.013  -4.107   0.235  0.00  0.00    -0.082 A 
ATOM      7  C5  PXY d   1      -0.376  -5.386   0.470  0.00  0.00     0.003 A 
ATOM      8  C6  PXY d   1       0.028  -6.000   1.652  0.00  0.00     0.003 A 
ENDROOT
TORSDOF 0
ENDMDL
