MODEL 1
REMARK minimizedAffinity 17.8433838
REMARK minimizedRMSD -1
REMARK  0 active torsions:
REMARK  status: ('A' for Active; 'I' for Inactive)
ROOT
ATOM      1  C4' PXY d   1       2.267   0.903  -0.627  0.00  0.00     0.077 C 
ATOM      2  C1' PXY d   1       4.842   5.998   0.279  0.00  0.00     0.077 C 
ATOM      3  C1  PXY d   1       4.170   4.658   0.053  0.00  0.00    -0.082 A 
ATOM      4  C2  PXY d   1       3.990   4.216  -1.181  0.00  0.00     0.003 A 
ATOM      5  C3  PXY d   1       3.356   3.021  -1.404  0.00  0.00     0.003 A 
ATOM      6  C4  PXY d   1       2.949   2.246  -0.351  0.00  0.00    -0.082 A 
ATOM      7  C5  PXY d   1       3.139   2.685   0.911  0.00  0.00     0.003 A 
ATOM      8  C6  PXY d   1       3.748   3.920   1.115  0.00  0.00     0.003 A 
ENDROOT
TORSDOF 0
ENDMDL
