MODEL 1
REMARK minimizedAffinity 20.573534
REMARK minimizedRMSD -1
REMARK  0 active torsions:
REMARK  status: ('A' for Active; 'I' for Inactive)
ROOT
ATOM      1  C4' PXY d   1      -2.536  -1.505   0.395  0.00  0.00     0.077 C 
ATOM      2  C1' PXY d   1       0.548  -5.999   2.320  0.00  0.00     0.077 C 
ATOM      3  C1  PXY d   1      -0.269  -4.822   1.825  0.00  0.00    -0.082 A 
ATOM      4  C2  PXY d   1      -0.185  -4.455   0.557  0.00  0.00     0.003 A 
ATOM      5  C3  PXY d   1      -0.893  -3.373   0.100  0.00  0.00     0.003 A 
ATOM      6  C4  PXY d   1      -1.736  -2.693   0.937  0.00  0.00    -0.082 A 
ATOM      7  C5  PXY d   1      -1.836  -3.068   2.230  0.00  0.00     0.003 A 
ATOM      8  C6  PXY d   1      -1.077  -4.143   2.684  0.00  0.00     0.003 A 
ENDROOT
TORSDOF 0
ENDMDL
