MODEL 1
REMARK minimizedAffinity 10.6339188
REMARK minimizedRMSD -1
REMARK  0 active torsions:
REMARK  status: ('A' for Active; 'I' for Inactive)
ROOT
ATOM      1  C4' PXY d   1      -2.949  -1.138   0.382  0.00  0.00     0.077 C 
ATOM      2  C1' PXY d   1      -0.166  -5.999   1.809  0.00  0.00     0.077 C 
ATOM      3  C1  PXY d   1      -0.905  -4.728   1.443  0.00  0.00    -0.082 A 
ATOM      4  C2  PXY d   1      -0.663  -4.141   0.282  0.00  0.00     0.003 A 
ATOM      5  C3  PXY d   1      -1.299  -2.973  -0.051  0.00  0.00     0.003 A 
ATOM      6  C4  PXY d   1      -2.232  -2.428   0.790  0.00  0.00    -0.082 A 
ATOM      7  C5  PXY d   1      -2.493  -3.026   1.971  0.00  0.00     0.003 A 
ATOM      8  C6  PXY d   1      -1.806  -4.189   2.309  0.00  0.00     0.003 A 
ENDROOT
TORSDOF 0
ENDMDL
