MODEL 1
REMARK minimizedAffinity 8.55257511
REMARK minimizedRMSD -1
REMARK  0 active torsions:
REMARK  status: ('A' for Active; 'I' for Inactive)
ROOT
ATOM      1  C4' PXY d   1      -2.672  -3.407   3.562  0.00  0.00     0.077 C 
ATOM      2  C1' PXY d   1      -1.117  -1.813  -1.773  0.00  0.00     0.077 C 
ATOM      3  C1  PXY d   1      -1.521  -2.243  -0.376  0.00  0.00    -0.082 A 
ATOM      4  C2  PXY d   1      -2.445  -1.559   0.278  0.00  0.00     0.003 A 
ATOM      5  C3  PXY d   1      -2.799  -1.915   1.554  0.00  0.00     0.003 A 
ATOM      6  C4  PXY d   1      -2.240  -3.015   2.146  0.00  0.00    -0.082 A 
ATOM      7  C5  PXY d   1      -1.304  -3.725   1.482  0.00  0.00     0.003 A 
ATOM      8  C6  PXY d   1      -0.928  -3.322   0.203  0.00  0.00     0.003 A 
ENDROOT
TORSDOF 0
ENDMDL
