MODEL 1
REMARK minimizedAffinity 9.18057537
REMARK minimizedRMSD -1
REMARK  0 active torsions:
REMARK  status: ('A' for Active; 'I' for Inactive)
ROOT
ATOM      1  C4' PXY d   1      -2.529  -3.083   3.341  0.00  0.00     0.077 C 
ATOM      2  C1' PXY d   1      -1.101  -2.140  -2.181  0.00  0.00     0.077 C 
ATOM      3  C1  PXY d   1      -1.472  -2.400  -0.734  0.00  0.00    -0.082 A 
ATOM      4  C2  PXY d   1      -2.355  -1.618  -0.135  0.00  0.00     0.003 A 
ATOM      5  C3  PXY d   1      -2.678  -1.819   1.183  0.00  0.00     0.003 A 
ATOM      6  C4  PXY d   1      -2.132  -2.864   1.878  0.00  0.00    -0.082 A 
ATOM      7  C5  PXY d   1      -1.238  -3.672   1.271  0.00  0.00     0.003 A 
ATOM      8  C6  PXY d   1      -0.892  -3.426  -0.055  0.00  0.00     0.003 A 
ENDROOT
TORSDOF 0
ENDMDL
