MODEL 1
REMARK minimizedAffinity -1.93750179
REMARK minimizedRMSD -1
REMARK  0 active torsions:
REMARK  status: ('A' for Active; 'I' for Inactive)
ROOT
ATOM      1  C   UNL d   1       1.202   0.006  -0.368  0.00  0.00     0.172 C 
ATOM      2  N   UNL d   1       0.175  -0.463   0.532  0.00  0.00    -0.070 N 
ATOM      3  C1  UNL d   1       0.083  -1.728   1.049  0.00  0.00    -0.004 A 
ATOM      4  C2  UNL d   1      -1.030  -1.773   1.860  0.00  0.00    -0.047 A 
ATOM      5  C3  UNL d   1      -1.629  -0.491   1.828  0.00  0.00    -0.047 A 
ATOM      6  C4  UNL d   1      -0.862   0.300   0.999  0.00  0.00    -0.004 A 
ENDROOT
TORSDOF 0
ENDMDL
