MODEL 1
REMARK minimizedAffinity -3.38431311
REMARK minimizedRMSD -1
REMARK  0 active torsions:
REMARK  status: ('A' for Active; 'I' for Inactive)
ROOT
ATOM      1  C   UNL d   1      -0.871   2.471  -0.374  0.00  0.00     0.172 C 
ATOM      2  N   UNL d   1      -0.739   3.238  -1.590  0.00  0.00    -0.070 N 
ATOM      3  C1  UNL d   1      -0.036   4.405  -1.726  0.00  0.00    -0.004 A 
ATOM      4  C2  UNL d   1      -0.154   4.820  -3.035  0.00  0.00    -0.047 A 
ATOM      5  C3  UNL d   1      -0.957   3.869  -3.709  0.00  0.00    -0.047 A 
ATOM      6  C4  UNL d   1      -1.305   2.901  -2.792  0.00  0.00    -0.004 A 
ENDROOT
TORSDOF 0
ENDMDL
