MODEL 1
REMARK minimizedAffinity -3.19566989
REMARK minimizedRMSD -1
REMARK  0 active torsions:
REMARK  status: ('A' for Active; 'I' for Inactive)
ROOT
ATOM      1  C   UNL d   1      -0.504   4.082  -3.309  0.00  0.00     0.172 C 
ATOM      2  N   UNL d   1      -1.162   2.921  -2.757  0.00  0.00    -0.070 N 
ATOM      3  C1  UNL d   1      -2.463   2.559  -2.983  0.00  0.00    -0.004 A 
ATOM      4  C2  UNL d   1      -2.706   1.398  -2.281  0.00  0.00    -0.047 A 
ATOM      5  C3  UNL d   1      -1.510   1.052  -1.608  0.00  0.00    -0.047 A 
ATOM      6  C4  UNL d   1      -0.571   2.012  -1.921  0.00  0.00    -0.004 A 
ENDROOT
TORSDOF 0
ENDMDL
