MODEL 1
REMARK minimizedAffinity -3.57974529
REMARK minimizedRMSD -1
REMARK  0 active torsions:
REMARK  status: ('A' for Active; 'I' for Inactive)
ROOT
ATOM      1  C   UNL d   1      -0.768   1.289   0.213  0.00  0.00     0.172 C 
ATOM      2  N   UNL d   1      -0.196  -0.011   0.473  0.00  0.00    -0.070 N 
ATOM      3  C1  UNL d   1      -0.817  -1.039   1.130  0.00  0.00    -0.004 A 
ATOM      4  C2  UNL d   1       0.057  -2.104   1.170  0.00  0.00    -0.047 A 
ATOM      5  C3  UNL d   1       1.245  -1.701   0.516  0.00  0.00    -0.047 A 
ATOM      6  C4  UNL d   1       1.061  -0.401   0.094  0.00  0.00    -0.004 A 
ENDROOT
TORSDOF 0
ENDMDL
