MODEL 1
REMARK minimizedAffinity -2.82932949
REMARK minimizedRMSD -1
REMARK  0 active torsions:
REMARK  status: ('A' for Active; 'I' for Inactive)
ROOT
ATOM      1  C   UNL d   1      -0.386   0.140  -0.113  0.00  0.00     0.172 C 
ATOM      2  N   UNL d   1      -0.006  -0.951   0.753  0.00  0.00    -0.070 N 
ATOM      3  C1  UNL d   1      -0.668  -1.339   1.887  0.00  0.00    -0.004 A 
ATOM      4  C2  UNL d   1       0.008  -2.412   2.424  0.00  0.00    -0.047 A 
ATOM      5  C3  UNL d   1       1.116  -2.679   1.585  0.00  0.00    -0.047 A 
ATOM      6  C4  UNL d   1       1.083  -1.759   0.558  0.00  0.00    -0.004 A 
ENDROOT
TORSDOF 0
ENDMDL
