MODEL 1
REMARK minimizedAffinity -3.55080676
REMARK minimizedRMSD -1
REMARK  0 active torsions:
REMARK  status: ('A' for Active; 'I' for Inactive)
ROOT
ATOM      1  C   UNL d   1      -0.281   0.274  -0.475  0.00  0.00     0.172 C 
ATOM      2  N   UNL d   1       0.498  -0.723   0.221  0.00  0.00    -0.070 N 
ATOM      3  C1  UNL d   1       1.858  -0.707   0.378  0.00  0.00    -0.004 A 
ATOM      4  C2  UNL d   1       2.213  -1.828   1.098  0.00  0.00    -0.047 A 
ATOM      5  C3  UNL d   1       1.026  -2.543   1.382  0.00  0.00    -0.047 A 
ATOM      6  C4  UNL d   1      -0.021  -1.837   0.827  0.00  0.00    -0.004 A 
ENDROOT
TORSDOF 0
ENDMDL
