MODEL 1
REMARK minimizedAffinity -4.21409082
REMARK minimizedRMSD -1
REMARK  0 active torsions:
REMARK  status: ('A' for Active; 'I' for Inactive)
ROOT
ATOM      1  C   UNL d   1      -0.747   0.038  -0.644  0.00  0.00     0.172 C 
ATOM      2  N   UNL d   1      -0.437  -0.856   0.447  0.00  0.00    -0.070 N 
ATOM      3  C1  UNL d   1      -1.119  -0.936   1.632  0.00  0.00    -0.004 A 
ATOM      4  C2  UNL d   1      -0.514  -1.905   2.402  0.00  0.00    -0.047 A 
ATOM      5  C3  UNL d   1       0.569  -2.426   1.655  0.00  0.00    -0.047 A 
ATOM      6  C4  UNL d   1       0.593  -1.758   0.448  0.00  0.00    -0.004 A 
ENDROOT
TORSDOF 0
ENDMDL
