MODEL 1
REMARK minimizedAffinity -3.06565094
REMARK minimizedRMSD -1
REMARK  0 active torsions:
REMARK  status: ('A' for Active; 'I' for Inactive)
ROOT
ATOM      1  C   UNL d   1       1.292  -2.333   0.635  0.00  0.00     0.172 C 
ATOM      2  N   UNL d   1       0.745  -1.010   0.446  0.00  0.00    -0.070 N 
ATOM      3  C1  UNL d   1      -0.492  -0.592   0.859  0.00  0.00    -0.004 A 
ATOM      4  C2  UNL d   1      -0.635   0.729   0.492  0.00  0.00    -0.047 A 
ATOM      5  C3  UNL d   1       0.557   1.118  -0.165  0.00  0.00    -0.047 A 
ATOM      6  C4  UNL d   1       1.393   0.022  -0.179  0.00  0.00    -0.004 A 
ENDROOT
TORSDOF 0
ENDMDL
