MODEL 1
REMARK minimizedAffinity -3.18301105
REMARK minimizedRMSD -1
REMARK  0 active torsions:
REMARK  status: ('A' for Active; 'I' for Inactive)
ROOT
ATOM      1  C   UNL d   1       0.343  -2.391   0.868  0.00  0.00     0.172 C 
ATOM      2  N   UNL d   1      -0.331  -1.114   0.865  0.00  0.00    -0.070 N 
ATOM      3  C1  UNL d   1      -1.309  -0.725   1.742  0.00  0.00    -0.004 A 
ATOM      4  C2  UNL d   1      -1.691   0.556   1.406  0.00  0.00    -0.047 A 
ATOM      5  C3  UNL d   1      -0.917   0.950   0.289  0.00  0.00    -0.047 A 
ATOM      6  C4  UNL d   1      -0.083  -0.103  -0.025  0.00  0.00    -0.004 A 
ENDROOT
TORSDOF 0
ENDMDL
