MODEL 1
REMARK minimizedAffinity -3.43030572
REMARK minimizedRMSD -1
REMARK  0 active torsions:
REMARK  status: ('A' for Active; 'I' for Inactive)
ROOT
ATOM      1  C   UNL d   1       2.155   0.599  -0.584  0.00  0.00     0.172 C 
ATOM      2  N   UNL d   1       1.696  -0.560   0.145  0.00  0.00    -0.070 N 
ATOM      3  C1  UNL d   1       2.482  -1.598   0.568  0.00  0.00    -0.004 A 
ATOM      4  C2  UNL d   1       1.671  -2.500   1.224  0.00  0.00    -0.047 A 
ATOM      5  C3  UNL d   1       0.353  -1.986   1.192  0.00  0.00    -0.047 A 
ATOM      6  C4  UNL d   1       0.397  -0.784   0.518  0.00  0.00    -0.004 A 
ENDROOT
TORSDOF 0
ENDMDL
