MODEL 1
REMARK minimizedAffinity -3.75002098
REMARK minimizedRMSD -1
REMARK  0 active torsions:
REMARK  status: ('A' for Active; 'I' for Inactive)
ROOT
ATOM      1  C   UNL d   1       1.251  -2.434   1.890  0.00  0.00     0.172 C 
ATOM      2  N   UNL d   1       1.324  -1.368   0.919  0.00  0.00    -0.070 N 
ATOM      3  C1  UNL d   1       0.255  -0.774   0.303  0.00  0.00    -0.004 A 
ATOM      4  C2  UNL d   1       0.742   0.193  -0.549  0.00  0.00    -0.047 A 
ATOM      5  C3  UNL d   1       2.153   0.180  -0.443  0.00  0.00    -0.047 A 
ATOM      6  C4  UNL d   1       2.487  -0.796   0.473  0.00  0.00    -0.004 A 
ENDROOT
TORSDOF 0
ENDMDL
