MODEL 1
REMARK minimizedAffinity -2.36931491
REMARK minimizedRMSD -1
REMARK  0 active torsions:
REMARK  status: ('A' for Active; 'I' for Inactive)
ROOT
ATOM      1  C   UNL d   1      -1.174   0.888  -0.135  0.00  0.00     0.172 C 
ATOM      2  N   UNL d   1      -1.716   1.364  -1.386  0.00  0.00    -0.070 N 
ATOM      3  C1  UNL d   1      -2.839   0.882  -2.004  0.00  0.00    -0.004 A 
ATOM      4  C2  UNL d   1      -3.020   1.597  -3.169  0.00  0.00    -0.047 A 
ATOM      5  C3  UNL d   1      -1.968   2.540  -3.254  0.00  0.00    -0.047 A 
ATOM      6  C4  UNL d   1      -1.176   2.373  -2.138  0.00  0.00    -0.004 A 
ENDROOT
TORSDOF 0
ENDMDL
