MODEL 1
REMARK minimizedAffinity -3.50362349
REMARK minimizedRMSD -1
REMARK  0 active torsions:
REMARK  status: ('A' for Active; 'I' for Inactive)
ROOT
ATOM      1  C   UNL d   1      -0.118   0.715  -0.411  0.00  0.00     0.172 C 
ATOM      2  N   UNL d   1       0.880  -0.258  -0.032  0.00  0.00    -0.070 N 
ATOM      3  C1  UNL d   1       2.233  -0.118  -0.192  0.00  0.00    -0.004 A 
ATOM      4  C2  UNL d   1       2.835  -1.259   0.293  0.00  0.00    -0.047 A 
ATOM      5  C3  UNL d   1       1.809  -2.114   0.760  0.00  0.00    -0.047 A 
ATOM      6  C4  UNL d   1       0.608  -1.469   0.547  0.00  0.00    -0.004 A 
ENDROOT
TORSDOF 0
ENDMDL
