MODEL 1
REMARK minimizedAffinity 1.41588247
REMARK minimizedRMSD -1
REMARK  0 active torsions:
REMARK  status: ('A' for Active; 'I' for Inactive)
ROOT
ATOM      1  C   UNL d   1      -0.913   0.911  -0.420  0.00  0.00     0.172 C 
ATOM      2  N   UNL d   1      -1.510   1.509  -1.591  0.00  0.00    -0.070 N 
ATOM      3  C1  UNL d   1      -2.614   1.040  -2.252  0.00  0.00    -0.004 A 
ATOM      4  C2  UNL d   1      -2.863   1.886  -3.311  0.00  0.00    -0.047 A 
ATOM      5  C3  UNL d   1      -1.874   2.898  -3.286  0.00  0.00    -0.047 A 
ATOM      6  C4  UNL d   1      -1.050   2.640  -2.211  0.00  0.00    -0.004 A 
ENDROOT
TORSDOF 0
ENDMDL
