MODEL 1
REMARK minimizedAffinity -3.5492537
REMARK minimizedRMSD -1
REMARK  0 active torsions:
REMARK  status: ('A' for Active; 'I' for Inactive)
ROOT
ATOM      1  C   UNL d   1      -1.832   1.657  -3.786  0.00  0.00     0.172 C 
ATOM      2  N   UNL d   1      -1.208   2.948  -3.619  0.00  0.00    -0.070 N 
ATOM      3  C1  UNL d   1      -0.763   3.756  -4.631  0.00  0.00    -0.004 A 
ATOM      4  C2  UNL d   1      -0.234   4.894  -4.061  0.00  0.00    -0.047 A 
ATOM      5  C3  UNL d   1      -0.364   4.765  -2.658  0.00  0.00    -0.047 A 
ATOM      6  C4  UNL d   1      -0.970   3.551  -2.412  0.00  0.00    -0.004 A 
ENDROOT
TORSDOF 0
ENDMDL
