MODEL 1
REMARK minimizedAffinity 11.0423098
REMARK minimizedRMSD -1
REMARK  1 active torsions:
REMARK  status: ('A' for Active; 'I' for Inactive)
REMARK    1  A    between atoms: C1_2  and  C2_3 
ROOT
ATOM      1  C2  UNL d   1       2.368  -5.902  -1.395  0.00  0.00    -0.076 A 
ATOM      2  C3  UNL d   1       0.965  -5.948  -1.455  0.00  0.00     0.004 A 
ATOM      3  C4  UNL d   1       0.198  -5.989  -0.291  0.00  0.00    -0.003 A 
ATOM      4  C5  UNL d   1       0.822  -5.984   0.951  0.00  0.00     0.000 A 
ATOM      5  C6  UNL d   1       2.213  -5.921   1.029  0.00  0.00     0.000 A 
ATOM      6  C7  UNL d   1       3.000  -5.862  -0.134  0.00  0.00    -0.073 A 
ATOM      7  C8  UNL d   1       4.496  -5.801   0.010  0.00  0.00     0.078 C 
ENDROOT
BRANCH   1   8
ATOM      8  C1  UNL d   1       3.148  -5.886  -2.690  0.00  0.00     0.053 C 
ATOM      9  C   UNL d   1       2.263  -5.631  -3.900  0.00  0.00     0.018 C 
ENDBRANCH   1   8
TORSDOF 1
ENDMDL
