MODEL 1
REMARK minimizedAffinity 12.2494287
REMARK minimizedRMSD -1
REMARK  1 active torsions:
REMARK  status: ('A' for Active; 'I' for Inactive)
REMARK    1  A    between atoms: C1_2  and  C2_3 
ROOT
ATOM      1  C2  UNL d   1      -3.511   1.683  -3.233  0.00  0.00    -0.076 A 
ATOM      2  C3  UNL d   1      -3.296   2.291  -1.984  0.00  0.00     0.004 A 
ATOM      3  C4  UNL d   1      -2.562   1.647  -0.990  0.00  0.00    -0.003 A 
ATOM      4  C5  UNL d   1      -2.030   0.385  -1.229  0.00  0.00     0.000 A 
ATOM      5  C6  UNL d   1      -2.218  -0.226  -2.468  0.00  0.00     0.000 A 
ATOM      6  C7  UNL d   1      -2.943   0.416  -3.487  0.00  0.00    -0.073 A 
ATOM      7  C8  UNL d   1      -3.120  -0.291  -4.802  0.00  0.00     0.078 C 
ENDROOT
BRANCH   1   8
ATOM      8  C1  UNL d   1      -4.339   2.418  -4.264  0.00  0.00     0.053 C 
ATOM      9  C   UNL d   1      -5.638   2.960  -3.688  0.00  0.00     0.018 C 
ENDBRANCH   1   8
TORSDOF 1
ENDMDL
