MODEL 1
REMARK minimizedAffinity -3.42885661
REMARK minimizedRMSD -1
REMARK  1 active torsions:
REMARK  status: ('A' for Active; 'I' for Inactive)
REMARK    1  A    between atoms: C1_2  and  C2_3 
ROOT
ATOM      1  C2  UNL d   1       2.778  -5.953  -3.489  0.00  0.00    -0.076 A 
ATOM      2  C3  UNL d   1       1.460  -5.934  -3.002  0.00  0.00     0.004 A 
ATOM      3  C4  UNL d   1       1.201  -5.957  -1.632  0.00  0.00    -0.003 A 
ATOM      4  C5  UNL d   1       2.256  -5.998  -0.728  0.00  0.00     0.000 A 
ATOM      5  C6  UNL d   1       3.570  -6.000  -1.193  0.00  0.00     0.000 A 
ATOM      6  C7  UNL d   1       3.849  -5.960  -2.570  0.00  0.00    -0.073 A 
ATOM      7  C8  UNL d   1       5.286  -5.970  -3.016  0.00  0.00     0.078 C 
ENDROOT
BRANCH   1   8
ATOM      8  C1  UNL d   1       2.997  -5.954  -4.985  0.00  0.00     0.053 C 
ATOM      9  C   UNL d   1       1.692  -5.966  -5.765  0.00  0.00     0.018 C 
ENDBRANCH   1   8
TORSDOF 1
ENDMDL
