MODEL 1
REMARK minimizedAffinity 4.72602606
REMARK minimizedRMSD -1
REMARK  1 active torsions:
REMARK  status: ('A' for Active; 'I' for Inactive)
REMARK    1  A    between atoms: C1_2  and  C2_3 
ROOT
ATOM      1  C2  UNL d   1       1.153  -5.984  -0.985  0.00  0.00    -0.076 A 
ATOM      2  C3  UNL d   1       2.543  -5.993  -0.774  0.00  0.00     0.004 A 
ATOM      3  C4  UNL d   1       3.073  -5.980   0.515  0.00  0.00    -0.003 A 
ATOM      4  C5  UNL d   1       2.222  -5.959   1.614  0.00  0.00     0.000 A 
ATOM      5  C6  UNL d   1       0.840  -5.968   1.424  0.00  0.00     0.000 A 
ATOM      6  C7  UNL d   1       0.289  -5.997   0.131  0.00  0.00    -0.073 A 
ATOM      7  C8  UNL d   1      -1.208  -6.000  -0.015  0.00  0.00     0.078 C 
ENDROOT
BRANCH   1   8
ATOM      8  C1  UNL d   1       0.636  -5.972  -2.406  0.00  0.00     0.053 C 
ATOM      9  C   UNL d   1       1.756  -5.999  -3.434  0.00  0.00     0.018 C 
ENDBRANCH   1   8
TORSDOF 1
ENDMDL
