MODEL 1
REMARK minimizedAffinity 6.19290686
REMARK minimizedRMSD -1
REMARK  1 active torsions:
REMARK  status: ('A' for Active; 'I' for Inactive)
REMARK    1  A    between atoms: C1_2  and  C2_3 
ROOT
ATOM      1  C2  UNL d   1      -3.864   2.447  -0.533  0.00  0.00    -0.076 A 
ATOM      2  C3  UNL d   1      -4.873   3.425  -0.547  0.00  0.00     0.004 A 
ATOM      3  C4  UNL d   1      -5.373   3.957   0.641  0.00  0.00    -0.003 A 
ATOM      4  C5  UNL d   1      -4.871   3.520   1.862  0.00  0.00     0.000 A 
ATOM      5  C6  UNL d   1      -3.857   2.563   1.894  0.00  0.00     0.000 A 
ATOM      6  C7  UNL d   1      -3.331   2.028   0.705  0.00  0.00    -0.073 A 
ATOM      7  C8  UNL d   1      -2.242   0.995   0.799  0.00  0.00     0.078 C 
ENDROOT
BRANCH   1   8
ATOM      8  C1  UNL d   1      -3.380   1.886  -1.851  0.00  0.00     0.053 C 
ATOM      9  C   UNL d   1      -4.040   2.557  -3.046  0.00  0.00     0.018 C 
ENDBRANCH   1   8
TORSDOF 1
ENDMDL
