MODEL 1
REMARK minimizedAffinity 14.9340096
REMARK minimizedRMSD -1
REMARK  1 active torsions:
REMARK  status: ('A' for Active; 'I' for Inactive)
REMARK    1  A    between atoms: C1_2  and  C2_3 
ROOT
ATOM      1  C2  UNL d   1      -3.141   1.352  -2.890  0.00  0.00    -0.076 A 
ATOM      2  C3  UNL d   1      -2.964   2.535  -2.150  0.00  0.00     0.004 A 
ATOM      3  C4  UNL d   1      -2.391   2.507  -0.880  0.00  0.00    -0.003 A 
ATOM      4  C5  UNL d   1      -1.984   1.297  -0.329  0.00  0.00     0.000 A 
ATOM      5  C6  UNL d   1      -2.135   0.116  -1.056  0.00  0.00     0.000 A 
ATOM      6  C7  UNL d   1      -2.697   0.129  -2.345  0.00  0.00    -0.073 A 
ATOM      7  C8  UNL d   1      -2.842  -1.175  -3.082  0.00  0.00     0.078 C 
ENDROOT
BRANCH   1   8
ATOM      8  C1  UNL d   1      -3.793   1.441  -4.251  0.00  0.00     0.053 C 
ATOM      9  C   UNL d   1      -5.180   2.061  -4.193  0.00  0.00     0.018 C 
ENDBRANCH   1   8
TORSDOF 1
ENDMDL
