MODEL 1
REMARK minimizedAffinity 10.5590258
REMARK minimizedRMSD -1
REMARK  1 active torsions:
REMARK  status: ('A' for Active; 'I' for Inactive)
REMARK    1  A    between atoms: C1_2  and  C2_3 
ROOT
ATOM      1  C2  UNL d   1       1.689  -3.591   0.344  0.00  0.00    -0.076 A 
ATOM      2  C3  UNL d   1       1.417  -4.846   0.916  0.00  0.00     0.004 A 
ATOM      3  C4  UNL d   1       1.391  -5.999   0.134  0.00  0.00    -0.003 A 
ATOM      4  C5  UNL d   1       1.638  -5.917  -1.232  0.00  0.00     0.000 A 
ATOM      5  C6  UNL d   1       1.927  -4.682  -1.813  0.00  0.00     0.000 A 
ATOM      6  C7  UNL d   1       1.973  -3.512  -1.036  0.00  0.00    -0.073 A 
ATOM      7  C8  UNL d   1       2.284  -2.206  -1.715  0.00  0.00     0.078 C 
ENDROOT
BRANCH   1   8
ATOM      8  C1  UNL d   1       1.677  -2.370   1.237  0.00  0.00     0.053 C 
ATOM      9  C   UNL d   1       0.361  -2.207   1.982  0.00  0.00     0.018 C 
ENDBRANCH   1   8
TORSDOF 1
ENDMDL
