MODEL 1
REMARK minimizedAffinity 9.14564991
REMARK minimizedRMSD -1
REMARK  1 active torsions:
REMARK  status: ('A' for Active; 'I' for Inactive)
REMARK    1  A    between atoms: C1_2  and  C2_3 
ROOT
ATOM      1  C2  UNL d   1       4.231  -5.787  -4.010  0.00  0.00    -0.076 A 
ATOM      2  C3  UNL d   1       5.271  -5.991  -3.087  0.00  0.00     0.004 A 
ATOM      3  C4  UNL d   1       5.023  -6.000  -1.716  0.00  0.00    -0.003 A 
ATOM      4  C5  UNL d   1       3.729  -5.804  -1.245  0.00  0.00     0.000 A 
ATOM      5  C6  UNL d   1       2.682  -5.617  -2.147  0.00  0.00     0.000 A 
ATOM      6  C7  UNL d   1       2.913  -5.622  -3.533  0.00  0.00    -0.073 A 
ATOM      7  C8  UNL d   1       1.747  -5.410  -4.460  0.00  0.00     0.078 C 
ENDROOT
BRANCH   1   8
ATOM      8  C1  UNL d   1       4.565  -5.761  -5.484  0.00  0.00     0.053 C 
ATOM      9  C   UNL d   1       5.937  -5.166  -5.760  0.00  0.00     0.018 C 
ENDBRANCH   1   8
TORSDOF 1
ENDMDL
