MODEL 1
REMARK minimizedAffinity 1.31381881
REMARK minimizedRMSD -1
REMARK  1 active torsions:
REMARK  status: ('A' for Active; 'I' for Inactive)
REMARK    1  A    between atoms: C1_2  and  C2_3 
ROOT
ATOM      1  C2  UNL d   1       2.857  -2.541   3.245  0.00  0.00    -0.076 A 
ATOM      2  C3  UNL d   1       3.134  -1.814   2.074  0.00  0.00     0.004 A 
ATOM      3  C4  UNL d   1       2.191  -0.943   1.531  0.00  0.00    -0.003 A 
ATOM      4  C5  UNL d   1       0.956  -0.784   2.150  0.00  0.00     0.000 A 
ATOM      5  C6  UNL d   1       0.671  -1.484   3.322  0.00  0.00     0.000 A 
ATOM      6  C7  UNL d   1       1.616  -2.354   3.892  0.00  0.00    -0.073 A 
ATOM      7  C8  UNL d   1       1.253  -3.088   5.154  0.00  0.00     0.078 C 
ENDROOT
BRANCH   1   8
ATOM      8  C1  UNL d   1       3.907  -3.491   3.773  0.00  0.00     0.053 C 
ATOM      9  C   UNL d   1       5.320  -2.958   3.591  0.00  0.00     0.018 C 
ENDBRANCH   1   8
TORSDOF 1
ENDMDL
