MODEL 1
REMARK minimizedAffinity 4.66675615
REMARK minimizedRMSD -1
REMARK  0 active torsions:
REMARK  status: ('A' for Active; 'I' for Inactive)
ROOT
ATOM      1  C   UNL d   1      -1.347   1.678   1.539  0.00  0.00     0.172 C 
ATOM      2  N   UNL d   1      -0.689   2.228   0.377  0.00  0.00    -0.070 N 
ATOM      3  C1  UNL d   1      -0.123   1.504  -0.638  0.00  0.00    -0.004 A 
ATOM      4  C2  UNL d   1       0.398   2.394  -1.552  0.00  0.00    -0.047 A 
ATOM      5  C3  UNL d   1       0.138   3.698  -1.069  0.00  0.00    -0.047 A 
ATOM      6  C4  UNL d   1      -0.536   3.567   0.127  0.00  0.00    -0.004 A 
ENDROOT
TORSDOF 0
ENDMDL
