MODEL 1
REMARK minimizedAffinity -1.90412796
REMARK minimizedRMSD -1
REMARK  0 active torsions:
REMARK  status: ('A' for Active; 'I' for Inactive)
ROOT
ATOM      1  C   UNL d   1      -3.123   2.177   0.930  0.00  0.00     0.172 C 
ATOM      2  N   UNL d   1      -2.019   2.865   0.301  0.00  0.00    -0.070 N 
ATOM      3  C1  UNL d   1      -2.019   4.174  -0.101  0.00  0.00    -0.004 A 
ATOM      4  C2  UNL d   1      -0.785   4.446  -0.651  0.00  0.00    -0.047 A 
ATOM      5  C3  UNL d   1      -0.017   3.259  -0.578  0.00  0.00    -0.047 A 
ATOM      6  C4  UNL d   1      -0.806   2.296   0.016  0.00  0.00    -0.004 A 
ENDROOT
TORSDOF 0
ENDMDL
