MODEL 1
REMARK minimizedAffinity -2.87189031
REMARK minimizedRMSD -1
REMARK  0 active torsions:
REMARK  status: ('A' for Active; 'I' for Inactive)
ROOT
ATOM      1  C   UNL d   1       0.089   3.907  -0.047  0.00  0.00     0.172 C 
ATOM      2  N   UNL d   1      -0.979   3.184   0.601  0.00  0.00    -0.070 N 
ATOM      3  C1  UNL d   1      -0.827   2.258   1.597  0.00  0.00    -0.004 A 
ATOM      4  C2  UNL d   1      -2.080   1.801   1.945  0.00  0.00    -0.047 A 
ATOM      5  C3  UNL d   1      -3.018   2.476   1.128  0.00  0.00    -0.047 A 
ATOM      6  C4  UNL d   1      -2.310   3.327   0.305  0.00  0.00    -0.004 A 
ENDROOT
TORSDOF 0
ENDMDL
