MODEL 1
REMARK minimizedAffinity 0.605203927
REMARK minimizedRMSD -1
REMARK  0 active torsions:
REMARK  status: ('A' for Active; 'I' for Inactive)
ROOT
ATOM      1  C   UNL d   1       0.380   1.209  -1.073  0.00  0.00     0.172 C 
ATOM      2  N   UNL d   1      -0.052   2.163  -0.078  0.00  0.00    -0.070 N 
ATOM      3  C1  UNL d   1       0.117   3.520  -0.146  0.00  0.00    -0.004 A 
ATOM      4  C2  UNL d   1      -0.431   4.071   0.992  0.00  0.00    -0.047 A 
ATOM      5  C3  UNL d   1      -0.947   3.008   1.771  0.00  0.00    -0.047 A 
ATOM      6  C4  UNL d   1      -0.699   1.838   1.085  0.00  0.00    -0.004 A 
ENDROOT
TORSDOF 0
ENDMDL
