MODEL 1
REMARK minimizedAffinity 1.98611248
REMARK minimizedRMSD -1
REMARK  0 active torsions:
REMARK  status: ('A' for Active; 'I' for Inactive)
ROOT
ATOM      1  C   UNL d   1       2.109  -0.519   0.208  0.00  0.00     0.172 C 
ATOM      2  N   UNL d   1       3.243  -1.398   0.049  0.00  0.00    -0.070 N 
ATOM      3  C1  UNL d   1       3.198  -2.767   0.046  0.00  0.00    -0.004 A 
ATOM      4  C2  UNL d   1       4.483  -3.231  -0.131  0.00  0.00    -0.047 A 
ATOM      5  C3  UNL d   1       5.330  -2.103  -0.238  0.00  0.00    -0.047 A 
ATOM      6  C4  UNL d   1       4.537  -0.981  -0.123  0.00  0.00    -0.004 A 
ENDROOT
TORSDOF 0
ENDMDL
