MODEL 1
REMARK minimizedAffinity -0.171476185
REMARK minimizedRMSD -1
REMARK  0 active torsions:
REMARK  status: ('A' for Active; 'I' for Inactive)
ROOT
ATOM      1  C   UNL d   1       0.597   1.726  -1.448  0.00  0.00     0.172 C 
ATOM      2  N   UNL d   1      -0.184   2.193  -0.327  0.00  0.00    -0.070 N 
ATOM      3  C1  UNL d   1      -0.507   3.498  -0.068  0.00  0.00    -0.004 A 
ATOM      4  C2  UNL d   1      -1.258   3.526   1.087  0.00  0.00    -0.047 A 
ATOM      5  C3  UNL d   1      -1.390   2.191   1.538  0.00  0.00    -0.047 A 
ATOM      6  C4  UNL d   1      -0.715   1.387   0.644  0.00  0.00    -0.004 A 
ENDROOT
TORSDOF 0
ENDMDL
