MODEL 1
REMARK minimizedAffinity 2.89937282
REMARK minimizedRMSD -1
REMARK  0 active torsions:
REMARK  status: ('A' for Active; 'I' for Inactive)
ROOT
ATOM      1  C   UNL d   1       0.999  -6.000  -1.130  0.00  0.00     0.172 C 
ATOM      2  N   UNL d   1       2.229  -5.266  -1.317  0.00  0.00    -0.070 N 
ATOM      3  C1  UNL d   1       2.434  -3.954  -0.983  0.00  0.00    -0.004 A 
ATOM      4  C2  UNL d   1       3.731  -3.631  -1.319  0.00  0.00    -0.047 A 
ATOM      5  C3  UNL d   1       4.325  -4.789  -1.875  0.00  0.00    -0.047 A 
ATOM      6  C4  UNL d   1       3.373  -5.786  -1.862  0.00  0.00    -0.004 A 
ENDROOT
TORSDOF 0
ENDMDL
