MODEL 1
REMARK minimizedAffinity 2.16562581
REMARK minimizedRMSD -1
REMARK  0 active torsions:
REMARK  status: ('A' for Active; 'I' for Inactive)
ROOT
ATOM      1  C   UNL d   1      -0.304   1.927  -1.292  0.00  0.00     0.172 C 
ATOM      2  N   UNL d   1       0.072   3.306  -1.086  0.00  0.00    -0.070 N 
ATOM      3  C1  UNL d   1       0.535   4.159  -2.052  0.00  0.00    -0.004 A 
ATOM      4  C2  UNL d   1       0.780   5.378  -1.455  0.00  0.00    -0.047 A 
ATOM      5  C3  UNL d   1       0.453   5.251  -0.084  0.00  0.00    -0.047 A 
ATOM      6  C4  UNL d   1       0.018   3.958   0.117  0.00  0.00    -0.004 A 
ENDROOT
TORSDOF 0
ENDMDL
