MODEL 1
REMARK minimizedAffinity 1.99091089
REMARK minimizedRMSD -1
REMARK  0 active torsions:
REMARK  status: ('A' for Active; 'I' for Inactive)
ROOT
ATOM      1  C   UNL d   1      -0.569   2.142  -0.372  0.00  0.00     0.172 C 
ATOM      2  N   UNL d   1      -0.244   0.901  -1.035  0.00  0.00    -0.070 N 
ATOM      3  C1  UNL d   1       0.951   0.238  -0.948  0.00  0.00    -0.004 A 
ATOM      4  C2  UNL d   1       0.861  -0.899  -1.722  0.00  0.00    -0.047 A 
ATOM      5  C3  UNL d   1      -0.433  -0.919  -2.296  0.00  0.00    -0.047 A 
ATOM      6  C4  UNL d   1      -1.096   0.207  -1.854  0.00  0.00    -0.004 A 
ENDROOT
TORSDOF 0
ENDMDL
