MODEL 1
REMARK minimizedAffinity 2.99169993
REMARK minimizedRMSD -1
REMARK  0 active torsions:
REMARK  status: ('A' for Active; 'I' for Inactive)
ROOT
ATOM      1  C   UNL d   1       1.536  -2.760   3.367  0.00  0.00     0.077 C 
ATOM      2  C1  UNL d   1       1.866  -2.440   1.940  0.00  0.00    -0.074 A 
ATOM      3  C2  UNL d   1       1.480  -3.295   0.903  0.00  0.00    -0.005 A 
ATOM      4  C3  UNL d   1       1.786  -2.978  -0.421  0.00  0.00     0.006 A 
ATOM      5  C4  UNL d   1       2.480  -1.806  -0.720  0.00  0.00    -0.005 A 
ATOM      6  C5  UNL d   1       2.874  -0.938   0.304  0.00  0.00    -0.074 A 
ATOM      7  C6  UNL d   1       3.612   0.332  -0.002  0.00  0.00     0.077 C 
ATOM      8  C7  UNL d   1       2.557  -1.259   1.630  0.00  0.00    -0.001 A 
ENDROOT
TORSDOF 0
ENDMDL
