MODEL 1
REMARK minimizedAffinity -0.225532234
REMARK minimizedRMSD -1
REMARK  0 active torsions:
REMARK  status: ('A' for Active; 'I' for Inactive)
ROOT
ATOM      1  C   UNL d   1      -4.841   5.456  -2.746  0.00  0.00     0.077 C 
ATOM      2  C1  UNL d   1      -4.383   4.471  -3.780  0.00  0.00    -0.074 A 
ATOM      3  C2  UNL d   1      -4.979   4.427  -5.045  0.00  0.00    -0.005 A 
ATOM      4  C3  UNL d   1      -4.536   3.512  -6.000  0.00  0.00     0.006 A 
ATOM      5  C4  UNL d   1      -3.494   2.633  -5.700  0.00  0.00    -0.005 A 
ATOM      6  C5  UNL d   1      -2.886   2.663  -4.441  0.00  0.00    -0.074 A 
ATOM      7  C6  UNL d   1      -1.758   1.732  -4.107  0.00  0.00     0.077 C 
ATOM      8  C7  UNL d   1      -3.332   3.590  -3.490  0.00  0.00    -0.001 A 
ENDROOT
TORSDOF 0
ENDMDL
