MODEL 1
REMARK minimizedAffinity 4.04466248
REMARK minimizedRMSD -1
REMARK  0 active torsions:
REMARK  status: ('A' for Active; 'I' for Inactive)
ROOT
ATOM      1  C   UNL d   1      -6.000  -0.652  -5.321  0.00  0.00     0.077 C 
ATOM      2  C1  UNL d   1      -5.290   0.442  -4.580  0.00  0.00    -0.074 A 
ATOM      3  C2  UNL d   1      -5.965   1.605  -4.194  0.00  0.00    -0.005 A 
ATOM      4  C3  UNL d   1      -5.294   2.610  -3.498  0.00  0.00     0.006 A 
ATOM      5  C4  UNL d   1      -3.943   2.463  -3.181  0.00  0.00    -0.005 A 
ATOM      6  C5  UNL d   1      -3.252   1.307  -3.557  0.00  0.00    -0.074 A 
ATOM      7  C6  UNL d   1      -1.802   1.129  -3.216  0.00  0.00     0.077 C 
ATOM      8  C7  UNL d   1      -3.935   0.299  -4.251  0.00  0.00    -0.001 A 
ENDROOT
TORSDOF 0
ENDMDL
