MODEL 1
REMARK minimizedAffinity -0.223122641
REMARK minimizedRMSD -1
REMARK  0 active torsions:
REMARK  status: ('A' for Active; 'I' for Inactive)
ROOT
ATOM      1  C   UNL d   1      -5.997  -0.752  -4.501  0.00  0.00     0.077 C 
ATOM      2  C1  UNL d   1      -5.241   0.528  -4.299  0.00  0.00    -0.074 A 
ATOM      3  C2  UNL d   1      -3.858   0.585  -4.500  0.00  0.00    -0.005 A 
ATOM      4  C3  UNL d   1      -3.170   1.785  -4.318  0.00  0.00     0.006 A 
ATOM      5  C4  UNL d   1      -3.857   2.937  -3.933  0.00  0.00    -0.005 A 
ATOM      6  C5  UNL d   1      -5.239   2.899  -3.727  0.00  0.00    -0.074 A 
ATOM      7  C6  UNL d   1      -5.994   4.130  -3.323  0.00  0.00     0.077 C 
ATOM      8  C7  UNL d   1      -5.925   1.691  -3.920  0.00  0.00    -0.001 A 
ENDROOT
TORSDOF 0
ENDMDL
