MODEL 1
REMARK minimizedAffinity 1.82816517
REMARK minimizedRMSD -1
REMARK  0 active torsions:
REMARK  status: ('A' for Active; 'I' for Inactive)
ROOT
ATOM      1  C   UNL d   1      -1.883   2.833  -2.979  0.00  0.00     0.077 C 
ATOM      2  C1  UNL d   1      -3.321   2.460  -3.186  0.00  0.00    -0.074 A 
ATOM      3  C2  UNL d   1      -4.345   3.158  -2.538  0.00  0.00    -0.005 A 
ATOM      4  C3  UNL d   1      -5.678   2.805  -2.748  0.00  0.00     0.006 A 
ATOM      5  C4  UNL d   1      -6.000   1.753  -3.606  0.00  0.00    -0.005 A 
ATOM      6  C5  UNL d   1      -4.989   1.044  -4.263  0.00  0.00    -0.074 A 
ATOM      7  C6  UNL d   1      -5.318  -0.083  -5.197  0.00  0.00     0.077 C 
ATOM      8  C7  UNL d   1      -3.652   1.409  -4.053  0.00  0.00    -0.001 A 
ENDROOT
TORSDOF 0
ENDMDL
