MODEL 1
REMARK minimizedAffinity 3.80376744
REMARK minimizedRMSD -1
REMARK  0 active torsions:
REMARK  status: ('A' for Active; 'I' for Inactive)
ROOT
ATOM      1  C   UNL d   1       5.988   1.391  -0.385  0.00  0.00     0.077 C 
ATOM      2  C1  UNL d   1       4.522   1.079  -0.324  0.00  0.00    -0.074 A 
ATOM      3  C2  UNL d   1       3.568   2.101  -0.367  0.00  0.00    -0.005 A 
ATOM      4  C3  UNL d   1       2.207   1.795  -0.319  0.00  0.00     0.006 A 
ATOM      5  C4  UNL d   1       1.789   0.467  -0.227  0.00  0.00    -0.005 A 
ATOM      6  C5  UNL d   1       2.728  -0.568  -0.184  0.00  0.00    -0.074 A 
ATOM      7  C6  UNL d   1       2.295  -2.001  -0.096  0.00  0.00     0.077 C 
ATOM      8  C7  UNL d   1       4.093  -0.253  -0.240  0.00  0.00    -0.001 A 
ENDROOT
TORSDOF 0
ENDMDL
