MODEL 1
REMARK minimizedAffinity 5.48938656
REMARK minimizedRMSD -1
REMARK  0 active torsions:
REMARK  status: ('A' for Active; 'I' for Inactive)
ROOT
ATOM      1  C   UNL d   1       1.355   1.460   1.859  0.00  0.00     0.077 C 
ATOM      2  C1  UNL d   1       2.309   1.252   0.720  0.00  0.00    -0.074 A 
ATOM      3  C2  UNL d   1       2.051   0.298  -0.269  0.00  0.00    -0.005 A 
ATOM      4  C3  UNL d   1       2.943   0.123  -1.327  0.00  0.00     0.006 A 
ATOM      5  C4  UNL d   1       4.101   0.899  -1.406  0.00  0.00    -0.005 A 
ATOM      6  C5  UNL d   1       4.375   1.858  -0.426  0.00  0.00    -0.074 A 
ATOM      7  C6  UNL d   1       5.609   2.707  -0.501  0.00  0.00     0.077 C 
ATOM      8  C7  UNL d   1       3.470   2.033   0.630  0.00  0.00    -0.001 A 
ENDROOT
TORSDOF 0
ENDMDL
