MODEL 1
REMARK minimizedAffinity -1.32113218
REMARK minimizedRMSD -1
REMARK  0 active torsions:
REMARK  status: ('A' for Active; 'I' for Inactive)
ROOT
ATOM      1  C   UNL d   1      -3.002   0.354  -4.609  0.00  0.00     0.077 C 
ATOM      2  C1  UNL d   1      -4.042   0.964  -3.716  0.00  0.00    -0.074 A 
ATOM      3  C2  UNL d   1      -4.556   2.239  -3.978  0.00  0.00    -0.005 A 
ATOM      4  C3  UNL d   1      -5.529   2.789  -3.145  0.00  0.00     0.006 A 
ATOM      5  C4  UNL d   1      -5.998   2.072  -2.043  0.00  0.00    -0.005 A 
ATOM      6  C5  UNL d   1      -5.497   0.797  -1.766  0.00  0.00    -0.074 A 
ATOM      7  C6  UNL d   1      -5.997   0.009  -0.592  0.00  0.00     0.077 C 
ATOM      8  C7  UNL d   1      -4.524   0.247  -2.612  0.00  0.00    -0.001 A 
ENDROOT
TORSDOF 0
ENDMDL
