MODEL 1
REMARK minimizedAffinity 6.03091192
REMARK minimizedRMSD -1
REMARK  0 active torsions:
REMARK  status: ('A' for Active; 'I' for Inactive)
ROOT
ATOM      1  C   UNL d   1      -5.688   0.061  -1.039  0.00  0.00     0.077 C 
ATOM      2  C1  UNL d   1      -4.766   0.611  -2.086  0.00  0.00    -0.074 A 
ATOM      3  C2  UNL d   1      -4.962   1.891  -2.614  0.00  0.00    -0.005 A 
ATOM      4  C3  UNL d   1      -4.091   2.394  -3.581  0.00  0.00     0.006 A 
ATOM      5  C4  UNL d   1      -3.017   1.622  -4.028  0.00  0.00    -0.005 A 
ATOM      6  C5  UNL d   1      -2.805   0.341  -3.511  0.00  0.00    -0.074 A 
ATOM      7  C6  UNL d   1      -1.651  -0.498  -3.973  0.00  0.00     0.077 C 
ATOM      8  C7  UNL d   1      -3.681  -0.154  -2.534  0.00  0.00    -0.001 A 
ENDROOT
TORSDOF 0
ENDMDL
