MODEL 1
REMARK minimizedAffinity 3.69062757
REMARK minimizedRMSD -1
REMARK  0 active torsions:
REMARK  status: ('A' for Active; 'I' for Inactive)
ROOT
ATOM      1  C   UNL d   1      -6.000   0.367   0.015  0.00  0.00     0.077 C 
ATOM      2  C1  UNL d   1      -5.365   0.975  -1.201  0.00  0.00    -0.074 A 
ATOM      3  C2  UNL d   1      -5.748   2.241  -1.655  0.00  0.00    -0.005 A 
ATOM      4  C3  UNL d   1      -5.143   2.798  -2.781  0.00  0.00     0.006 A 
ATOM      5  C4  UNL d   1      -4.150   2.094  -3.465  0.00  0.00    -0.005 A 
ATOM      6  C5  UNL d   1      -3.753   0.827  -3.025  0.00  0.00    -0.074 A 
ATOM      7  C6  UNL d   1      -2.681   0.062  -3.742  0.00  0.00     0.077 C 
ATOM      8  C7  UNL d   1      -4.362   0.278  -1.888  0.00  0.00    -0.001 A 
ENDROOT
TORSDOF 0
ENDMDL
