MODEL 1
REMARK minimizedAffinity 4.57984066
REMARK minimizedRMSD -1
REMARK  0 active torsions:
REMARK  status: ('A' for Active; 'I' for Inactive)
ROOT
ATOM      1  C   UNL d   1      -4.804   4.119  -2.622  0.00  0.00     0.077 C 
ATOM      2  C1  UNL d   1      -4.821   2.779  -3.295  0.00  0.00    -0.074 A 
ATOM      3  C2  UNL d   1      -6.000   2.266  -3.846  0.00  0.00    -0.005 A 
ATOM      4  C3  UNL d   1      -5.998   1.023  -4.477  0.00  0.00     0.006 A 
ATOM      5  C4  UNL d   1      -4.820   0.281  -4.565  0.00  0.00    -0.005 A 
ATOM      6  C5  UNL d   1      -3.631   0.778  -4.021  0.00  0.00    -0.074 A 
ATOM      7  C6  UNL d   1      -2.354  -0.003  -4.115  0.00  0.00     0.077 C 
ATOM      8  C7  UNL d   1      -3.639   2.031  -3.394  0.00  0.00    -0.001 A 
ENDROOT
TORSDOF 0
ENDMDL
