MODEL 1
REMARK minimizedAffinity 4.9351325
REMARK minimizedRMSD -1
REMARK  0 active torsions:
REMARK  status: ('A' for Active; 'I' for Inactive)
ROOT
ATOM      1  C   UNL d   1      -5.999   0.040  -0.570  0.00  0.00     0.077 C 
ATOM      2  C1  UNL d   1      -5.446   0.894  -1.671  0.00  0.00    -0.074 A 
ATOM      3  C2  UNL d   1      -5.836   2.230  -1.810  0.00  0.00    -0.005 A 
ATOM      4  C3  UNL d   1      -5.306   3.015  -2.834  0.00  0.00     0.006 A 
ATOM      5  C4  UNL d   1      -4.381   2.473  -3.727  0.00  0.00    -0.005 A 
ATOM      6  C5  UNL d   1      -3.978   1.140  -3.603  0.00  0.00    -0.074 A 
ATOM      7  C6  UNL d   1      -2.977   0.545  -4.549  0.00  0.00     0.077 C 
ATOM      8  C7  UNL d   1      -4.510   0.359  -2.568  0.00  0.00    -0.001 A 
ENDROOT
TORSDOF 0
ENDMDL
