MODEL 1
REMARK minimizedAffinity -2.49009705
REMARK minimizedRMSD -1
REMARK  0 active torsions:
REMARK  status: ('A' for Active; 'I' for Inactive)
ROOT
ATOM      1  C2' OXE d   1       1.173  -0.290  -1.109  0.00  0.00     0.078 C 
ATOM      2  C1' OXE d   1       1.119  -2.386   0.757  0.00  0.00     0.078 C 
ATOM      3  C1  OXE d   1       0.109  -1.278   0.915  0.00  0.00    -0.078 A 
ATOM      4  C2  OXE d   1       0.172  -0.233   0.025  0.00  0.00    -0.078 A 
ATOM      5  C3  OXE d   1      -0.771   0.788   0.093  0.00  0.00     0.003 A 
ATOM      6  C4  OXE d   1      -1.687   0.839   1.151  0.00  0.00    -0.002 A 
ATOM      7  C5  OXE d   1      -1.742  -0.196   2.091  0.00  0.00    -0.002 A 
ATOM      8  C6  OXE d   1      -0.882  -1.280   1.963  0.00  0.00     0.003 A 
ENDROOT
TORSDOF 0
ENDMDL
