MODEL 1
REMARK minimizedAffinity -2.68194914
REMARK minimizedRMSD -1
REMARK  0 active torsions:
REMARK  status: ('A' for Active; 'I' for Inactive)
ROOT
ATOM      1  C2' OXE d   1      -1.414   1.254  -0.604  0.00  0.00     0.078 C 
ATOM      2  C1' OXE d   1       0.053   3.629  -0.905  0.00  0.00     0.078 C 
ATOM      3  C1  OXE d   1      -0.765   3.154  -2.080  0.00  0.00    -0.078 A 
ATOM      4  C2  OXE d   1      -1.442   1.966  -1.940  0.00  0.00    -0.078 A 
ATOM      5  C3  OXE d   1      -2.254   1.510  -2.974  0.00  0.00     0.003 A 
ATOM      6  C4  OXE d   1      -2.267   2.169  -4.209  0.00  0.00    -0.002 A 
ATOM      7  C5  OXE d   1      -1.553   3.359  -4.386  0.00  0.00    -0.002 A 
ATOM      8  C6  OXE d   1      -0.832   3.886  -3.320  0.00  0.00     0.003 A 
ENDROOT
TORSDOF 0
ENDMDL
