MODEL 1
REMARK minimizedAffinity -3.08816051
REMARK minimizedRMSD -1
REMARK  0 active torsions:
REMARK  status: ('A' for Active; 'I' for Inactive)
ROOT
ATOM      1  C2' OXE d   1      -3.227   0.813  -2.995  0.00  0.00     0.078 C 
ATOM      2  C1' OXE d   1      -1.101   1.437  -1.271  0.00  0.00     0.078 C 
ATOM      3  C1  OXE d   1      -1.309   2.317  -2.478  0.00  0.00    -0.078 A 
ATOM      4  C2  OXE d   1      -2.323   1.976  -3.341  0.00  0.00    -0.078 A 
ATOM      5  C3  OXE d   1      -2.593   2.786  -4.441  0.00  0.00     0.003 A 
ATOM      6  C4  OXE d   1      -1.746   3.854  -4.760  0.00  0.00    -0.002 A 
ATOM      7  C5  OXE d   1      -0.684   4.194  -3.916  0.00  0.00    -0.002 A 
ATOM      8  C6  OXE d   1      -0.478   3.463  -2.751  0.00  0.00     0.003 A 
ENDROOT
TORSDOF 0
ENDMDL
