MODEL 1
REMARK minimizedAffinity -3.55933666
REMARK minimizedRMSD -1
REMARK  0 active torsions:
REMARK  status: ('A' for Active; 'I' for Inactive)
ROOT
ATOM      1  C2' OXE d   1      -0.753   0.978   0.187  0.00  0.00     0.078 C 
ATOM      2  C1' OXE d   1       0.679   3.376  -0.088  0.00  0.00     0.078 C 
ATOM      3  C1  OXE d   1      -0.266   2.990  -1.198  0.00  0.00    -0.078 A 
ATOM      4  C2  OXE d   1      -0.928   1.792  -1.077  0.00  0.00    -0.078 A 
ATOM      5  C3  OXE d   1      -1.853   1.414  -2.046  0.00  0.00     0.003 A 
ATOM      6  C4  OXE d   1      -2.001   2.168  -3.216  0.00  0.00    -0.002 A 
ATOM      7  C5  OXE d   1      -1.307   3.372  -3.378  0.00  0.00    -0.002 A 
ATOM      8  C6  OXE d   1      -0.470   3.817  -2.361  0.00  0.00     0.003 A 
ENDROOT
TORSDOF 0
ENDMDL
