MODEL 1
REMARK minimizedAffinity -1.42315257
REMARK minimizedRMSD -1
REMARK  0 active torsions:
REMARK  status: ('A' for Active; 'I' for Inactive)
ROOT
ATOM      1  C2' OXE d   1       1.920   1.094  -0.548  0.00  0.00     0.078 C 
ATOM      2  C1' OXE d   1      -0.886   1.011  -0.572  0.00  0.00     0.078 C 
ATOM      3  C1  OXE d   1      -0.153  -0.172   0.008  0.00  0.00    -0.078 A 
ATOM      4  C2  OXE d   1       1.221  -0.143  -0.027  0.00  0.00    -0.078 A 
ATOM      5  C3  OXE d   1       1.946  -1.185   0.544  0.00  0.00     0.003 A 
ATOM      6  C4  OXE d   1       1.292  -2.330   1.015  0.00  0.00    -0.002 A 
ATOM      7  C5  OXE d   1      -0.105  -2.396   1.023  0.00  0.00    -0.002 A 
ATOM      8  C6  OXE d   1      -0.842  -1.311   0.563  0.00  0.00     0.003 A 
ENDROOT
TORSDOF 0
ENDMDL
