MODEL 1
REMARK minimizedAffinity 0.875794351
REMARK minimizedRMSD -1
REMARK  0 active torsions:
REMARK  status: ('A' for Active; 'I' for Inactive)
ROOT
ATOM      1  C2' OXE d   1       0.478   3.765  -0.101  0.00  0.00     0.078 C 
ATOM      2  C1' OXE d   1      -0.645   4.192  -2.638  0.00  0.00     0.078 C 
ATOM      3  C1  OXE d   1      -1.324   3.201  -1.726  0.00  0.00    -0.078 A 
ATOM      4  C2  OXE d   1      -0.741   2.964  -0.505  0.00  0.00    -0.078 A 
ATOM      5  C3  OXE d   1      -1.357   2.100   0.397  0.00  0.00     0.003 A 
ATOM      6  C4  OXE d   1      -2.479   1.355   0.012  0.00  0.00    -0.002 A 
ATOM      7  C5  OXE d   1      -3.065   1.552  -1.243  0.00  0.00    -0.002 A 
ATOM      8  C6  OXE d   1      -2.526   2.501  -2.106  0.00  0.00     0.003 A 
ENDROOT
TORSDOF 0
ENDMDL
