MODEL 1
REMARK minimizedAffinity 0.179228544
REMARK minimizedRMSD -1
REMARK  0 active torsions:
REMARK  status: ('A' for Active; 'I' for Inactive)
ROOT
ATOM      1  C2' OXE d   1      -0.772   0.525  -0.153  0.00  0.00     0.078 C 
ATOM      2  C1' OXE d   1       0.381   3.039  -0.630  0.00  0.00     0.078 C 
ATOM      3  C1  OXE d   1      -0.682   2.560  -1.587  0.00  0.00    -0.078 A 
ATOM      4  C2  OXE d   1      -1.207   1.308  -1.372  0.00  0.00    -0.078 A 
ATOM      5  C3  OXE d   1      -2.230   0.840  -2.193  0.00  0.00     0.003 A 
ATOM      6  C4  OXE d   1      -2.619   1.567  -3.325  0.00  0.00    -0.002 A 
ATOM      7  C5  OXE d   1      -2.069   2.826  -3.584  0.00  0.00    -0.002 A 
ATOM      8  C6  OXE d   1      -1.131   3.355  -2.703  0.00  0.00     0.003 A 
ENDROOT
TORSDOF 0
ENDMDL
