MODEL 1
REMARK minimizedAffinity -4.73192787
REMARK minimizedRMSD -1
REMARK  0 active torsions:
REMARK  status: ('A' for Active; 'I' for Inactive)
ROOT
ATOM      1  C2' OXE d   1      -0.220   4.181  -3.562  0.00  0.00     0.078 C 
ATOM      2  C1' OXE d   1       0.072   3.909  -0.784  0.00  0.00     0.078 C 
ATOM      3  C1  OXE d   1      -0.884   2.977  -1.486  0.00  0.00    -0.078 A 
ATOM      4  C2  OXE d   1      -1.056   3.148  -2.838  0.00  0.00    -0.078 A 
ATOM      5  C3  OXE d   1      -1.885   2.280  -3.543  0.00  0.00     0.003 A 
ATOM      6  C4  OXE d   1      -2.661   1.333  -2.864  0.00  0.00    -0.002 A 
ATOM      7  C5  OXE d   1      -2.531   1.169  -1.481  0.00  0.00    -0.002 A 
ATOM      8  C6  OXE d   1      -1.618   1.952  -0.784  0.00  0.00     0.003 A 
ENDROOT
TORSDOF 0
ENDMDL
