MODEL 1
REMARK minimizedAffinity 4.62299871
REMARK minimizedRMSD -1
REMARK  0 active torsions:
REMARK  status: ('A' for Active; 'I' for Inactive)
ROOT
ATOM      1  C2' OXE d   1       0.275   4.064   0.468  0.00  0.00     0.078 C 
ATOM      2  C1' OXE d   1       0.653   1.439  -0.451  0.00  0.00     0.078 C 
ATOM      3  C1  OXE d   1       1.880   2.267  -0.164  0.00  0.00    -0.078 A 
ATOM      4  C2  OXE d   1       1.686   3.566   0.241  0.00  0.00    -0.078 A 
ATOM      5  C3  OXE d   1       2.783   4.357   0.571  0.00  0.00     0.003 A 
ATOM      6  C4  OXE d   1       4.085   3.892   0.349  0.00  0.00    -0.002 A 
ATOM      7  C5  OXE d   1       4.305   2.585  -0.101  0.00  0.00    -0.002 A 
ATOM      8  C6  OXE d   1       3.217   1.748  -0.321  0.00  0.00     0.003 A 
ENDROOT
TORSDOF 0
ENDMDL
