MODEL 1
REMARK minimizedAffinity -4.19864225
REMARK minimizedRMSD -1
REMARK  0 active torsions:
REMARK  status: ('A' for Active; 'I' for Inactive)
ROOT
ATOM      1  C2' OXE d   1      -0.798   0.605  -1.359  0.00  0.00     0.078 C 
ATOM      2  C1' OXE d   1       1.410   1.486   0.134  0.00  0.00     0.078 C 
ATOM      3  C1  OXE d   1       1.054   0.022   0.202  0.00  0.00    -0.078 A 
ATOM      4  C2  OXE d   1      -0.056  -0.392  -0.495  0.00  0.00    -0.078 A 
ATOM      5  C3  OXE d   1      -0.396  -1.742  -0.510  0.00  0.00     0.003 A 
ATOM      6  C4  OXE d   1       0.289  -2.655   0.299  0.00  0.00    -0.002 A 
ATOM      7  C5  OXE d   1       1.399  -2.247   1.048  0.00  0.00    -0.002 A 
ATOM      8  C6  OXE d   1       1.819  -0.924   0.977  0.00  0.00     0.003 A 
ENDROOT
TORSDOF 0
ENDMDL
