MODEL 1
REMARK minimizedAffinity -3.45700717
REMARK minimizedRMSD -1
REMARK  0 active torsions:
REMARK  status: ('A' for Active; 'I' for Inactive)
ROOT
ATOM      1  C2' OXE d   1       2.458   0.753  -0.626  0.00  0.00     0.078 C 
ATOM      2  C1' OXE d   1      -0.348   0.794  -0.656  0.00  0.00     0.078 C 
ATOM      3  C1  OXE d   1       0.331  -0.357   0.043  0.00  0.00    -0.078 A 
ATOM      4  C2  OXE d   1       1.704  -0.393   0.012  0.00  0.00    -0.078 A 
ATOM      5  C3  OXE d   1       2.382  -1.404   0.688  0.00  0.00     0.003 A 
ATOM      6  C4  OXE d   1       1.677  -2.466   1.267  0.00  0.00    -0.002 A 
ATOM      7  C5  OXE d   1       0.278  -2.469   1.275  0.00  0.00    -0.002 A 
ATOM      8  C6  OXE d   1      -0.409  -1.402   0.705  0.00  0.00     0.003 A 
ENDROOT
TORSDOF 0
ENDMDL
