MODEL 1
REMARK minimizedAffinity -3.89786792
REMARK minimizedRMSD -1
REMARK  0 active torsions:
REMARK  status: ('A' for Active; 'I' for Inactive)
ROOT
ATOM      1  C2' OXE d   1      -0.617   0.924  -0.206  0.00  0.00     0.078 C 
ATOM      2  C1' OXE d   1       1.838   0.323  -1.428  0.00  0.00     0.078 C 
ATOM      3  C1  OXE d   1       1.291  -0.663  -0.426  0.00  0.00    -0.078 A 
ATOM      4  C2  OXE d   1       0.112  -0.338   0.202  0.00  0.00    -0.078 A 
ATOM      5  C3  OXE d   1      -0.464  -1.237   1.094  0.00  0.00     0.003 A 
ATOM      6  C4  OXE d   1       0.222  -2.397   1.473  0.00  0.00    -0.002 A 
ATOM      7  C5  OXE d   1       1.443  -2.728   0.876  0.00  0.00    -0.002 A 
ATOM      8  C6  OXE d   1       1.969  -1.894  -0.105  0.00  0.00     0.003 A 
ENDROOT
TORSDOF 0
ENDMDL
