MODEL 1
REMARK minimizedAffinity -1.82561028
REMARK minimizedRMSD -1
REMARK  0 active torsions:
REMARK  status: ('A' for Active; 'I' for Inactive)
ROOT
ATOM      1  C2' OXE d   1       1.507  -3.295   1.791  0.00  0.00     0.078 C 
ATOM      2  C1' OXE d   1       3.292  -1.164   2.177  0.00  0.00     0.078 C 
ATOM      3  C1  OXE d   1       2.049  -0.902   1.363  0.00  0.00    -0.078 A 
ATOM      4  C2  OXE d   1       1.205  -1.963   1.140  0.00  0.00    -0.078 A 
ATOM      5  C3  OXE d   1       0.017  -1.763   0.443  0.00  0.00     0.003 A 
ATOM      6  C4  OXE d   1      -0.250  -0.530  -0.164  0.00  0.00    -0.002 A 
ATOM      7  C5  OXE d   1       0.616   0.553   0.017  0.00  0.00    -0.002 A 
ATOM      8  C6  OXE d   1       1.747   0.396   0.812  0.00  0.00     0.003 A 
ENDROOT
TORSDOF 0
ENDMDL
