MODEL 1
REMARK minimizedAffinity -4.01742172
REMARK minimizedRMSD -1
REMARK  0 active torsions:
REMARK  status: ('A' for Active; 'I' for Inactive)
ROOT
ATOM      1  C2' OXE d   1       1.335  -1.140   0.257  0.00  0.00     0.078 C 
ATOM      2  C1' OXE d   1      -0.844   0.599   0.586  0.00  0.00     0.078 C 
ATOM      3  C1  OXE d   1       0.503   1.208   0.286  0.00  0.00    -0.078 A 
ATOM      4  C2  OXE d   1       1.572   0.353   0.173  0.00  0.00    -0.078 A 
ATOM      5  C3  OXE d   1       2.826   0.858  -0.157  0.00  0.00     0.003 A 
ATOM      6  C4  OXE d   1       3.039   2.240  -0.223  0.00  0.00    -0.002 A 
ATOM      7  C5  OXE d   1       1.972   3.131  -0.072  0.00  0.00    -0.002 A 
ATOM      8  C6  OXE d   1       0.692   2.630   0.141  0.00  0.00     0.003 A 
ENDROOT
TORSDOF 0
ENDMDL
