MODEL 1
REMARK minimizedAffinity -5.90411949
REMARK minimizedRMSD -1
REMARK  0 active torsions:
REMARK  status: ('A' for Active; 'I' for Inactive)
ROOT
ATOM      1  C2' OXE d   1       2.181   0.881  -0.412  0.00  0.00     0.078 C 
ATOM      2  C1' OXE d   1      -0.598   0.828  -0.023  0.00  0.00     0.078 C 
ATOM      3  C1  OXE d   1       0.183  -0.418   0.314  0.00  0.00    -0.078 A 
ATOM      4  C2  OXE d   1       1.537  -0.398   0.077  0.00  0.00    -0.078 A 
ATOM      5  C3  OXE d   1       2.313  -1.501   0.421  0.00  0.00     0.003 A 
ATOM      6  C4  OXE d   1       1.707  -2.684   0.863  0.00  0.00    -0.002 A 
ATOM      7  C5  OXE d   1       0.326  -2.738   1.075  0.00  0.00    -0.002 A 
ATOM      8  C6  OXE d   1      -0.444  -1.602   0.846  0.00  0.00     0.003 A 
ENDROOT
TORSDOF 0
ENDMDL
