MODEL 1
REMARK minimizedAffinity -4.88573456
REMARK minimizedRMSD -1
REMARK  0 active torsions:
REMARK  status: ('A' for Active; 'I' for Inactive)
ROOT
ATOM      1  C2' OXE d   1      -0.845   0.515  -0.298  0.00  0.00     0.078 C 
ATOM      2  C1' OXE d   1       1.755  -0.524  -0.499  0.00  0.00     0.078 C 
ATOM      3  C1  OXE d   1       1.607   0.952  -0.231  0.00  0.00    -0.078 A 
ATOM      4  C2  OXE d   1       0.331   1.461  -0.180  0.00  0.00    -0.078 A 
ATOM      5  C3  OXE d   1       0.136   2.806   0.119  0.00  0.00     0.003 A 
ATOM      6  C4  OXE d   1       1.229   3.676   0.216  0.00  0.00    -0.002 A 
ATOM      7  C5  OXE d   1       2.537   3.186   0.128  0.00  0.00    -0.002 A 
ATOM      8  C6  OXE d   1       2.743   1.822  -0.052  0.00  0.00     0.003 A 
ENDROOT
TORSDOF 0
ENDMDL
