MODEL 1
REMARK minimizedAffinity -4.05054331
REMARK minimizedRMSD -1
REMARK  0 active torsions:
REMARK  status: ('A' for Active; 'I' for Inactive)
ROOT
ATOM      1  C1  BNZ d   1       0.984  -1.535   1.802  0.00  0.00     0.000 A 
ATOM      2  C2  BNZ d   1       1.111  -0.673   0.745  0.00  0.00     0.000 A 
ATOM      3  C3  BNZ d   1       2.340  -0.217   0.358  0.00  0.00     0.000 A 
ATOM      4  C4  BNZ d   1       3.435  -0.592   1.051  0.00  0.00     0.000 A 
ATOM      5  C5  BNZ d   1       3.322  -1.452   2.124  0.00  0.00     0.000 A 
ATOM      6  C6  BNZ d   1       2.088  -1.940   2.487  0.00  0.00     0.000 A 
ENDROOT
TORSDOF 0
ENDMDL
