MODEL 1
REMARK minimizedAffinity 0.0403720401
REMARK minimizedRMSD -1
REMARK  0 active torsions:
REMARK  status: ('A' for Active; 'I' for Inactive)
ROOT
ATOM      1  C1  BNZ d   1       1.134  -0.054   0.015  0.00  0.00     0.000 A 
ATOM      2  C2  BNZ d   1       1.240  -1.364   0.400  0.00  0.00     0.000 A 
ATOM      3  C3  BNZ d   1       0.127  -2.095   0.712  0.00  0.00     0.000 A 
ATOM      4  C4  BNZ d   1      -1.085  -1.504   0.677  0.00  0.00     0.000 A 
ATOM      5  C5  BNZ d   1      -1.207  -0.182   0.300  0.00  0.00     0.000 A 
ATOM      6  C6  BNZ d   1      -0.089   0.539  -0.051  0.00  0.00     0.000 A 
ENDROOT
TORSDOF 0
ENDMDL
