MODEL 1
REMARK minimizedAffinity -0.566833735
REMARK minimizedRMSD -1
REMARK  0 active torsions:
REMARK  status: ('A' for Active; 'I' for Inactive)
ROOT
ATOM      1  C1  BNZ d   1      -2.196  -0.094  -4.259  0.00  0.00     0.000 A 
ATOM      2  C2  BNZ d   1      -2.868  -1.266  -4.035  0.00  0.00     0.000 A 
ATOM      3  C3  BNZ d   1      -2.980  -1.779  -2.773  0.00  0.00     0.000 A 
ATOM      4  C4  BNZ d   1      -2.387  -1.141  -1.743  0.00  0.00     0.000 A 
ATOM      5  C5  BNZ d   1      -1.699   0.038  -1.954  0.00  0.00     0.000 A 
ATOM      6  C6  BNZ d   1      -1.621   0.571  -3.220  0.00  0.00     0.000 A 
ENDROOT
TORSDOF 0
ENDMDL
