MODEL 1
REMARK minimizedAffinity -1.67430592
REMARK minimizedRMSD -1
REMARK  0 active torsions:
REMARK  status: ('A' for Active; 'I' for Inactive)
ROOT
ATOM      1  C1  BNZ d   1       2.273  -1.207   0.898  0.00  0.00     0.000 A 
ATOM      2  C2  BNZ d   1       2.834  -0.193   1.628  0.00  0.00     0.000 A 
ATOM      3  C3  BNZ d   1       2.316   1.071   1.584  0.00  0.00     0.000 A 
ATOM      4  C4  BNZ d   1       1.264   1.329   0.780  0.00  0.00     0.000 A 
ATOM      5  C5  BNZ d   1       0.693   0.319   0.031  0.00  0.00     0.000 A 
ATOM      6  C6  BNZ d   1       1.193  -0.961   0.108  0.00  0.00     0.000 A 
ENDROOT
TORSDOF 0
ENDMDL
