MODEL 1
REMARK minimizedAffinity -1.79623282
REMARK minimizedRMSD -1
REMARK  0 active torsions:
REMARK  status: ('A' for Active; 'I' for Inactive)
ROOT
ATOM      1  C1  BNZ d   1       1.173  -1.432   0.417  0.00  0.00     0.000 A 
ATOM      2  C2  BNZ d   1       1.253  -0.328  -0.388  0.00  0.00     0.000 A 
ATOM      3  C3  BNZ d   1       0.154   0.453  -0.616  0.00  0.00     0.000 A 
ATOM      4  C4  BNZ d   1      -1.030   0.107  -0.072  0.00  0.00     0.000 A 
ATOM      5  C5  BNZ d   1      -1.129  -1.009   0.735  0.00  0.00     0.000 A 
ATOM      6  C6  BNZ d   1      -0.013  -1.771   0.994  0.00  0.00     0.000 A 
ENDROOT
TORSDOF 0
ENDMDL
