MODEL 1
REMARK minimizedAffinity -4.24476433
REMARK minimizedRMSD -1
REMARK  0 active torsions:
REMARK  status: ('A' for Active; 'I' for Inactive)
ROOT
ATOM      1  C1  BNZ d   1       1.074   1.806   0.612  0.00  0.00     0.000 A 
ATOM      2  C2  BNZ d   1       0.181   0.841   0.230  0.00  0.00     0.000 A 
ATOM      3  C3  BNZ d   1       0.493  -0.485   0.340  0.00  0.00     0.000 A 
ATOM      4  C4  BNZ d   1       1.712  -0.843   0.794  0.00  0.00     0.000 A 
ATOM      5  C5  BNZ d   1       2.627   0.118   1.174  0.00  0.00     0.000 A 
ATOM      6  C6  BNZ d   1       2.294   1.451   1.098  0.00  0.00     0.000 A 
ENDROOT
TORSDOF 0
ENDMDL
