MODEL 1
REMARK minimizedAffinity -3.20067978
REMARK minimizedRMSD -1
REMARK  0 active torsions:
REMARK  status: ('A' for Active; 'I' for Inactive)
ROOT
ATOM      1  C1  BNZ d   1       1.620  -0.645  -0.572  0.00  0.00     0.000 A 
ATOM      2  C2  BNZ d   1       1.503  -1.849   0.069  0.00  0.00     0.000 A 
ATOM      3  C3  BNZ d   1       0.349  -2.184   0.722  0.00  0.00     0.000 A 
ATOM      4  C4  BNZ d   1      -0.668  -1.300   0.767  0.00  0.00     0.000 A 
ATOM      5  C5  BNZ d   1      -0.561  -0.078   0.133  0.00  0.00     0.000 A 
ATOM      6  C6  BNZ d   1       0.587   0.240  -0.556  0.00  0.00     0.000 A 
ENDROOT
TORSDOF 0
ENDMDL
