MODEL 1
REMARK minimizedAffinity 5.48987103
REMARK minimizedRMSD -1
REMARK  1 active torsions:
REMARK  status: ('A' for Active; 'I' for Inactive)
REMARK    1  A    between atoms: C1_2  and  C2_3 
ROOT
ATOM      1  C2  UNL d   1      -3.684   2.193  -3.075  0.00  0.00    -0.077 A 
ATOM      2  C3  UNL d   1      -4.216   3.188  -2.243  0.00  0.00     0.002 A 
ATOM      3  C4  UNL d   1      -4.508   4.454  -2.755  0.00  0.00     0.002 A 
ATOM      4  C5  UNL d   1      -4.274   4.735  -4.100  0.00  0.00    -0.004 A 
ATOM      5  C6  UNL d   1      -3.743   3.752  -4.934  0.00  0.00     0.002 A 
ATOM      6  C7  UNL d   1      -3.450   2.487  -4.424  0.00  0.00     0.002 A 
ENDROOT
BRANCH   1   7
ATOM      7  C1  UNL d   1      -3.415   0.812  -2.536  0.00  0.00     0.055 C 
ATOM      8  C   UNL d   1      -2.275   0.823  -1.529  0.00  0.00     0.019 C 
ENDBRANCH   1   7
TORSDOF 1
ENDMDL
