MODEL 1
REMARK minimizedAffinity -0.12979722
REMARK minimizedRMSD -1
REMARK  1 active torsions:
REMARK  status: ('A' for Active; 'I' for Inactive)
REMARK    1  A    between atoms: C1_2  and  C2_3 
ROOT
ATOM      1  C2  UNL d   1       1.663  -2.267   3.499  0.00  0.00    -0.077 A 
ATOM      2  C3  UNL d   1       1.037  -1.791   4.659  0.00  0.00     0.002 A 
ATOM      3  C4  UNL d   1       1.297  -2.384   5.897  0.00  0.00     0.002 A 
ATOM      4  C5  UNL d   1       2.187  -3.452   5.986  0.00  0.00    -0.004 A 
ATOM      5  C6  UNL d   1       2.813  -3.934   4.837  0.00  0.00     0.002 A 
ATOM      6  C7  UNL d   1       2.553  -3.344   3.600  0.00  0.00     0.002 A 
ENDROOT
BRANCH   1   7
ATOM      7  C1  UNL d   1       1.421  -1.598   2.171  0.00  0.00     0.055 C 
ATOM      8  C   UNL d   1       2.563  -1.865   1.201  0.00  0.00     0.019 C 
ENDBRANCH   1   7
TORSDOF 1
ENDMDL
