MODEL 1
REMARK minimizedAffinity 3.39340782
REMARK minimizedRMSD -1
REMARK  1 active torsions:
REMARK  status: ('A' for Active; 'I' for Inactive)
REMARK    1  A    between atoms: C1_2  and  C2_3 
ROOT
ATOM      1  C2  UNL d   1       1.138  -2.385   4.312  0.00  0.00    -0.077 A 
ATOM      2  C3  UNL d   1       0.849  -1.225   3.579  0.00  0.00     0.002 A 
ATOM      3  C4  UNL d   1       1.190  -1.141   2.228  0.00  0.00     0.002 A 
ATOM      4  C5  UNL d   1       1.816  -2.214   1.597  0.00  0.00    -0.004 A 
ATOM      5  C6  UNL d   1       2.109  -3.371   2.318  0.00  0.00     0.002 A 
ATOM      6  C7  UNL d   1       1.771  -3.456   3.670  0.00  0.00     0.002 A 
ENDROOT
BRANCH   1   7
ATOM      7  C1  UNL d   1       0.727  -2.496   5.757  0.00  0.00     0.055 C 
ATOM      8  C   UNL d   1      -0.129  -3.731   5.996  0.00  0.00     0.019 C 
ENDBRANCH   1   7
TORSDOF 1
ENDMDL
