MODEL 1
REMARK minimizedAffinity 6.30714798
REMARK minimizedRMSD -1
REMARK  1 active torsions:
REMARK  status: ('A' for Active; 'I' for Inactive)
REMARK    1  A    between atoms: C1_2  and  C2_3 
ROOT
ATOM      1  C2  UNL d   1       1.485  -2.199   3.514  0.00  0.00    -0.077 A 
ATOM      2  C3  UNL d   1       1.031  -1.602   4.699  0.00  0.00     0.002 A 
ATOM      3  C4  UNL d   1       1.305  -2.190   5.935  0.00  0.00     0.002 A 
ATOM      4  C5  UNL d   1       2.037  -3.373   5.999  0.00  0.00    -0.004 A 
ATOM      5  C6  UNL d   1       2.491  -3.976   4.826  0.00  0.00     0.002 A 
ATOM      6  C7  UNL d   1       2.217  -3.390   3.589  0.00  0.00     0.002 A 
ENDROOT
BRANCH   1   7
ATOM      7  C1  UNL d   1       1.233  -1.541   2.182  0.00  0.00     0.055 C 
ATOM      8  C   UNL d   1       2.423  -1.706   1.249  0.00  0.00     0.019 C 
ENDBRANCH   1   7
TORSDOF 1
ENDMDL
