MODEL 1
REMARK minimizedAffinity 11.1861963
REMARK minimizedRMSD -1
REMARK  1 active torsions:
REMARK  status: ('A' for Active; 'I' for Inactive)
REMARK    1  A    between atoms: C1_2  and  C2_3 
ROOT
ATOM      1  C2  UNL d   1      -3.686   2.409  -3.123  0.00  0.00    -0.077 A 
ATOM      2  C3  UNL d   1      -3.536   2.776  -4.468  0.00  0.00     0.002 A 
ATOM      3  C4  UNL d   1      -3.571   4.121  -4.841  0.00  0.00     0.002 A 
ATOM      4  C5  UNL d   1      -3.751   5.109  -3.876  0.00  0.00    -0.004 A 
ATOM      5  C6  UNL d   1      -3.903   4.755  -2.536  0.00  0.00     0.002 A 
ATOM      6  C7  UNL d   1      -3.870   3.411  -2.161  0.00  0.00     0.002 A 
ENDROOT
BRANCH   1   7
ATOM      7  C1  UNL d   1      -3.600   0.963  -2.712  0.00  0.00     0.055 C 
ATOM      8  C   UNL d   1      -2.456   0.732  -1.736  0.00  0.00     0.019 C 
ENDBRANCH   1   7
TORSDOF 1
ENDMDL
