MODEL 1
REMARK minimizedAffinity 9.04563236
REMARK minimizedRMSD -1
REMARK  1 active torsions:
REMARK  status: ('A' for Active; 'I' for Inactive)
REMARK    1  A    between atoms: C1_2  and  C2_3 
ROOT
ATOM      1  C2  UNL d   1       1.231  -1.991   3.795  0.00  0.00    -0.077 A 
ATOM      2  C3  UNL d   1       1.643  -3.166   3.151  0.00  0.00     0.002 A 
ATOM      3  C4  UNL d   1       1.969  -3.150   1.793  0.00  0.00     0.002 A 
ATOM      4  C5  UNL d   1       1.891  -1.961   1.070  0.00  0.00    -0.004 A 
ATOM      5  C6  UNL d   1       1.480  -0.788   1.701  0.00  0.00     0.002 A 
ATOM      6  C7  UNL d   1       1.153  -0.802   3.058  0.00  0.00     0.002 A 
ENDROOT
BRANCH   1   7
ATOM      7  C1  UNL d   1       0.926  -1.996   5.270  0.00  0.00     0.055 C 
ATOM      8  C   UNL d   1       1.733  -3.062   5.998  0.00  0.00     0.019 C 
ENDBRANCH   1   7
TORSDOF 1
ENDMDL
