MODEL 1
REMARK minimizedAffinity 9.43131065
REMARK minimizedRMSD -1
REMARK  1 active torsions:
REMARK  status: ('A' for Active; 'I' for Inactive)
REMARK    1  A    between atoms: C1_2  and  C2_3 
ROOT
ATOM      1  C2  UNL d   1       1.152  -2.334   3.572  0.00  0.00    -0.077 A 
ATOM      2  C3  UNL d   1       1.960  -3.480   3.583  0.00  0.00     0.002 A 
ATOM      3  C4  UNL d   1       2.376  -4.038   4.794  0.00  0.00     0.002 A 
ATOM      4  C5  UNL d   1       1.987  -3.460   6.000  0.00  0.00    -0.004 A 
ATOM      5  C6  UNL d   1       1.185  -2.320   5.999  0.00  0.00     0.002 A 
ATOM      6  C7  UNL d   1       0.768  -1.760   4.790  0.00  0.00     0.002 A 
ENDROOT
BRANCH   1   7
ATOM      7  C1  UNL d   1       0.660  -1.760   2.269  0.00  0.00     0.055 C 
ATOM      8  C   UNL d   1       1.811  -1.211   1.437  0.00  0.00     0.019 C 
ENDBRANCH   1   7
TORSDOF 1
ENDMDL
