MODEL 1
REMARK minimizedAffinity -1.6051327
REMARK minimizedRMSD -1
REMARK  0 active torsions:
REMARK  status: ('A' for Active; 'I' for Inactive)
ROOT
ATOM      1  C   UNL d   1      -3.758   1.248   0.810  0.00  0.00    -0.002 A 
ATOM      2  C1  UNL d   1      -3.052   2.142   1.602  0.00  0.00     0.010 A 
ATOM      3  C2  UNL d   1      -1.657   2.103   1.646  0.00  0.00     0.041 A 
ATOM      4  C3  UNL d   1      -0.977   1.142   0.871  0.00  0.00    -0.075 A 
ATOM      5  S   UNL d   1       0.728   0.909   0.766  0.00  0.00     0.015 SA
ATOM      6  C4  UNL d   1       0.558  -0.382  -0.333  0.00  0.00     0.022 A 
ATOM      7  C5  UNL d   1      -0.760  -0.643  -0.624  0.00  0.00     0.026 A 
ATOM      8  C6  UNL d   1      -1.667   0.232   0.065  0.00  0.00    -0.082 A 
ATOM      9  C7  UNL d   1      -3.081   0.296   0.043  0.00  0.00     0.045 A 
ENDROOT
TORSDOF 0
ENDMDL
