MODEL 1
REMARK minimizedAffinity -2.1763258
REMARK minimizedRMSD -1
REMARK  0 active torsions:
REMARK  status: ('A' for Active; 'I' for Inactive)
ROOT
ATOM      1  C   UNL d   1      -1.571   0.326  -0.285  0.00  0.00    -0.002 A 
ATOM      2  C1  UNL d   1      -0.733   1.102   0.502  0.00  0.00     0.010 A 
ATOM      3  C2  UNL d   1       0.564   0.675   0.793  0.00  0.00     0.041 A 
ATOM      4  C3  UNL d   1       1.010  -0.556   0.272  0.00  0.00    -0.075 A 
ATOM      5  S   UNL d   1       2.558  -1.280   0.496  0.00  0.00     0.015 SA
ATOM      6  C4  UNL d   1       2.144  -2.635  -0.450  0.00  0.00     0.022 A 
ATOM      7  C5  UNL d   1       0.859  -2.554  -0.932  0.00  0.00     0.026 A 
ATOM      8  C6  UNL d   1       0.184  -1.354  -0.524  0.00  0.00    -0.082 A 
ATOM      9  C7  UNL d   1      -1.126  -0.894  -0.801  0.00  0.00     0.045 A 
ENDROOT
TORSDOF 0
ENDMDL
