MODEL 1
REMARK minimizedAffinity 4.76873159
REMARK minimizedRMSD -1
REMARK  0 active torsions:
REMARK  status: ('A' for Active; 'I' for Inactive)
ROOT
ATOM      1  C   UNL d   1      -1.080   1.721   0.941  0.00  0.00     0.020 A 
ATOM      2  C1  UNL d   1      -0.459   0.486   1.122  0.00  0.00     0.020 A 
ATOM      3  C2  UNL d   1      -0.746  -0.573   0.259  0.00  0.00     0.034 A 
ATOM      4  C3  UNL d   1      -1.657  -0.400  -0.790  0.00  0.00     0.017 A 
ATOM      5  C4  UNL d   1      -2.280   0.840  -0.970  0.00  0.00     0.017 A 
ATOM      6  C5  UNL d   1      -1.989   1.898  -0.103  0.00  0.00     0.034 A 
ATOM      7 Cl   UNL d   1      -3.415   1.131  -2.241  0.00  0.00    -0.070 Cl
ATOM      8 Cl1  UNL d   1      -1.964  -1.753  -1.819  0.00  0.00    -0.070 Cl
ENDROOT
TORSDOF 0
ENDMDL
