MODEL 1
REMARK minimizedAffinity -2.96650386
REMARK minimizedRMSD -1
REMARK  0 active torsions:
REMARK  status: ('A' for Active; 'I' for Inactive)
ROOT
ATOM      1  C   UNL d   1      -1.079   0.234   0.626  0.00  0.00     0.020 A 
ATOM      2  C1  UNL d   1      -1.217   1.603   0.851  0.00  0.00     0.020 A 
ATOM      3  C2  UNL d   1      -0.088   2.425   0.866  0.00  0.00     0.034 A 
ATOM      4  C3  UNL d   1       1.184   1.879   0.657  0.00  0.00     0.017 A 
ATOM      5  C4  UNL d   1       1.321   0.504   0.431  0.00  0.00     0.017 A 
ATOM      6  C5  UNL d   1       0.187  -0.314   0.417  0.00  0.00     0.034 A 
ATOM      7 Cl   UNL d   1       2.856  -0.243   0.164  0.00  0.00    -0.070 Cl
ATOM      8 Cl1  UNL d   1       2.535   2.954   0.689  0.00  0.00    -0.070 Cl
ENDROOT
TORSDOF 0
ENDMDL
