MODEL 1
REMARK minimizedAffinity -0.139587879
REMARK minimizedRMSD -1
REMARK  0 active torsions:
REMARK  status: ('A' for Active; 'I' for Inactive)
ROOT
ATOM      1  C   UNL d   1      -1.356  -0.537   0.318  0.00  0.00     0.020 A 
ATOM      2  C1  UNL d   1      -0.183  -1.275   0.166  0.00  0.00     0.020 A 
ATOM      3  C2  UNL d   1       1.058  -0.641   0.258  0.00  0.00     0.034 A 
ATOM      4  C3  UNL d   1       1.129   0.735   0.502  0.00  0.00     0.017 A 
ATOM      5  C4  UNL d   1      -0.049   1.476   0.654  0.00  0.00     0.017 A 
ATOM      6  C5  UNL d   1      -1.289   0.836   0.561  0.00  0.00     0.034 A 
ATOM      7 Cl   UNL d   1      -0.042   3.177   0.956  0.00  0.00    -0.070 Cl
ATOM      8 Cl1  UNL d   1       2.697   1.453   0.604  0.00  0.00    -0.070 Cl
ENDROOT
TORSDOF 0
ENDMDL
