MODEL 1
REMARK minimizedAffinity -4.99322414
REMARK minimizedRMSD -1
REMARK  0 active torsions:
REMARK  status: ('A' for Active; 'I' for Inactive)
ROOT
ATOM      1  C   UNL d   1       1.521  -1.322   0.342  0.00  0.00     0.020 A 
ATOM      2  C1  UNL d   1       0.183  -1.393  -0.041  0.00  0.00     0.020 A 
ATOM      3  C2  UNL d   1      -0.593  -0.233  -0.087  0.00  0.00     0.034 A 
ATOM      4  C3  UNL d   1      -0.031   1.004   0.250  0.00  0.00     0.017 A 
ATOM      5  C4  UNL d   1       1.313   1.074   0.635  0.00  0.00     0.017 A 
ATOM      6  C5  UNL d   1       2.085  -0.091   0.679  0.00  0.00     0.034 A 
ATOM      7 Cl   UNL d   1       2.077   2.564   1.065  0.00  0.00    -0.070 Cl
ATOM      8 Cl1  UNL d   1      -1.049   2.397   0.170  0.00  0.00    -0.070 Cl
ENDROOT
TORSDOF 0
ENDMDL
