MODEL 1
REMARK minimizedAffinity -5.49421263
REMARK minimizedRMSD -1
REMARK  0 active torsions:
REMARK  status: ('A' for Active; 'I' for Inactive)
ROOT
ATOM      1  C   UNL d   1       2.314   1.826   0.383  0.00  0.00     0.020 A 
ATOM      2  C1  UNL d   1       1.566   2.997   0.259  0.00  0.00     0.020 A 
ATOM      3  C2  UNL d   1       0.176   2.929   0.143  0.00  0.00     0.034 A 
ATOM      4  C3  UNL d   1      -0.471   1.688   0.149  0.00  0.00     0.017 A 
ATOM      5  C4  UNL d   1       0.280   0.513   0.273  0.00  0.00     0.017 A 
ATOM      6  C5  UNL d   1       1.672   0.587   0.389  0.00  0.00     0.034 A 
ATOM      7 Cl   UNL d   1      -0.447  -1.055   0.288  0.00  0.00    -0.070 Cl
ATOM      8 Cl1  UNL d   1      -2.192   1.678   0.001  0.00  0.00    -0.070 Cl
ENDROOT
TORSDOF 0
ENDMDL
