MODEL 1
REMARK minimizedAffinity -0.250614524
REMARK minimizedRMSD -1
REMARK  0 active torsions:
REMARK  status: ('A' for Active; 'I' for Inactive)
ROOT
ATOM      1  C   UNL d   1       1.089   1.593   0.897  0.00  0.00     0.020 A 
ATOM      2  C1  UNL d   1       1.859   0.513   0.470  0.00  0.00     0.020 A 
ATOM      3  C2  UNL d   1       1.272  -0.513  -0.274  0.00  0.00     0.034 A 
ATOM      4  C3  UNL d   1      -0.090  -0.460  -0.593  0.00  0.00     0.017 A 
ATOM      5  C4  UNL d   1      -0.863   0.626  -0.164  0.00  0.00     0.017 A 
ATOM      6  C5  UNL d   1      -0.269   1.650   0.581  0.00  0.00     0.034 A 
ATOM      7 Cl   UNL d   1      -2.549   0.761  -0.518  0.00  0.00    -0.070 Cl
ATOM      8 Cl1  UNL d   1      -0.751  -1.763  -1.516  0.00  0.00    -0.070 Cl
ENDROOT
TORSDOF 0
ENDMDL
