MODEL 1
REMARK minimizedAffinity -5.30724669
REMARK minimizedRMSD -1
REMARK  0 active torsions:
REMARK  status: ('A' for Active; 'I' for Inactive)
ROOT
ATOM      1  C   UNL d   1       0.250   3.113   0.052  0.00  0.00     0.020 A 
ATOM      2  C1  UNL d   1       1.637   3.251   0.074  0.00  0.00     0.020 A 
ATOM      3  C2  UNL d   1       2.447   2.130   0.269  0.00  0.00     0.034 A 
ATOM      4  C3  UNL d   1       1.871   0.866   0.442  0.00  0.00     0.017 A 
ATOM      5  C4  UNL d   1       0.478   0.729   0.420  0.00  0.00     0.017 A 
ATOM      6  C5  UNL d   1      -0.328   1.855   0.225  0.00  0.00     0.034 A 
ATOM      7 Cl   UNL d   1      -0.306  -0.797   0.626  0.00  0.00    -0.070 Cl
ATOM      8 Cl1  UNL d   1       2.933  -0.476   0.677  0.00  0.00    -0.070 Cl
ENDROOT
TORSDOF 0
ENDMDL
