MODEL 1
REMARK minimizedAffinity -5.13888884
REMARK minimizedRMSD -1
REMARK  0 active torsions:
REMARK  status: ('A' for Active; 'I' for Inactive)
ROOT
ATOM      1  C   UNL d   1       1.215   2.758   0.537  0.00  0.00     0.020 A 
ATOM      2  C1  UNL d   1       2.119   1.699   0.487  0.00  0.00     0.020 A 
ATOM      3  C2  UNL d   1       1.654   0.389   0.357  0.00  0.00     0.034 A 
ATOM      4  C3  UNL d   1       0.280   0.135   0.275  0.00  0.00     0.017 A 
ATOM      5  C4  UNL d   1      -0.628   1.199   0.325  0.00  0.00     0.017 A 
ATOM      6  C5  UNL d   1      -0.156   2.509   0.456  0.00  0.00     0.034 A 
ATOM      7 Cl   UNL d   1      -2.338   0.965   0.231  0.00  0.00    -0.070 Cl
ATOM      8 Cl1  UNL d   1      -0.226  -1.510   0.114  0.00  0.00    -0.070 Cl
ENDROOT
TORSDOF 0
ENDMDL
