MODEL 1
REMARK minimizedAffinity -3.82961583
REMARK minimizedRMSD -1
REMARK  0 active torsions:
REMARK  status: ('A' for Active; 'I' for Inactive)
ROOT
ATOM      1  C   UNL d   1       2.051   2.967  -0.065  0.00  0.00     0.020 A 
ATOM      2  C1  UNL d   1       1.000   3.608   0.590  0.00  0.00     0.020 A 
ATOM      3  C2  UNL d   1      -0.152   2.893   0.926  0.00  0.00     0.034 A 
ATOM      4  C3  UNL d   1      -0.255   1.534   0.608  0.00  0.00     0.017 A 
ATOM      5  C4  UNL d   1       0.801   0.892  -0.049  0.00  0.00     0.017 A 
ATOM      6  C5  UNL d   1       1.952   1.612  -0.384  0.00  0.00     0.034 A 
ATOM      7 Cl   UNL d   1       0.747  -0.782  -0.474  0.00  0.00    -0.070 Cl
ATOM      8 Cl1  UNL d   1      -1.707   0.712   1.055  0.00  0.00    -0.070 Cl
ENDROOT
TORSDOF 0
ENDMDL
