MODEL 1
REMARK minimizedAffinity -5.60904884
REMARK minimizedRMSD -1
REMARK  0 active torsions:
REMARK  status: ('A' for Active; 'I' for Inactive)
ROOT
ATOM      1  C   UNL d   1       2.373   1.782   0.387  0.00  0.00     0.020 A 
ATOM      2  C1  UNL d   1       1.478   2.849   0.324  0.00  0.00     0.020 A 
ATOM      3  C2  UNL d   1       0.113   2.608   0.154  0.00  0.00     0.034 A 
ATOM      4  C3  UNL d   1      -0.361   1.295   0.046  0.00  0.00     0.017 A 
ATOM      5  C4  UNL d   1       0.538   0.224   0.109  0.00  0.00     0.017 A 
ATOM      6  C5  UNL d   1       1.904   0.472   0.279  0.00  0.00     0.034 A 
ATOM      7 Cl   UNL d   1       0.028  -1.422  -0.017  0.00  0.00    -0.070 Cl
ATOM      8 Cl1  UNL d   1      -2.061   1.070  -0.162  0.00  0.00    -0.070 Cl
ENDROOT
TORSDOF 0
ENDMDL
