MODEL 1
REMARK minimizedAffinity -3.79041934
REMARK minimizedRMSD -1
REMARK  0 active torsions:
REMARK  status: ('A' for Active; 'I' for Inactive)
ROOT
ATOM      1  C   UNL d   1      -0.836   2.303   0.355  0.00  0.00     0.020 A 
ATOM      2  C1  UNL d   1      -0.919   0.926   0.149  0.00  0.00     0.020 A 
ATOM      3  C2  UNL d   1       0.195   0.117   0.384  0.00  0.00     0.034 A 
ATOM      4  C3  UNL d   1       1.396   0.683   0.825  0.00  0.00     0.017 A 
ATOM      5  C4  UNL d   1       1.478   2.065   1.031  0.00  0.00     0.017 A 
ATOM      6  C5  UNL d   1       0.360   2.871   0.794  0.00  0.00     0.034 A 
ATOM      7 Cl   UNL d   1       2.926   2.837   1.575  0.00  0.00    -0.070 Cl
ATOM      8 Cl1  UNL d   1       2.733  -0.377   1.096  0.00  0.00    -0.070 Cl
ENDROOT
TORSDOF 0
ENDMDL
