MODEL 1
REMARK minimizedAffinity -1.57650757
REMARK minimizedRMSD -1
REMARK  0 active torsions:
REMARK  status: ('A' for Active; 'I' for Inactive)
ROOT
ATOM      1  C   UNL d   1      -1.096   2.026   0.714  0.00  0.00     0.020 A 
ATOM      2  C1  UNL d   1      -2.240   1.265   0.477  0.00  0.00     0.020 A 
ATOM      3  C2  UNL d   1      -2.123  -0.082   0.129  0.00  0.00     0.034 A 
ATOM      4  C3  UNL d   1      -0.860  -0.673   0.016  0.00  0.00     0.017 A 
ATOM      5  C4  UNL d   1       0.289   0.091   0.254  0.00  0.00     0.017 A 
ATOM      6  C5  UNL d   1       0.166   1.440   0.602  0.00  0.00     0.034 A 
ATOM      7 Cl   UNL d   1       1.882  -0.568   0.134  0.00  0.00    -0.070 Cl
ATOM      8 Cl1  UNL d   1      -0.790  -2.344  -0.418  0.00  0.00    -0.070 Cl
ENDROOT
TORSDOF 0
ENDMDL
