MODEL 1
REMARK minimizedAffinity -4.33981371
REMARK minimizedRMSD -1
REMARK  0 active torsions:
REMARK  status: ('A' for Active; 'I' for Inactive)
ROOT
ATOM      1  C   UNL d   1      -1.290  -0.904   0.724  0.00  0.00     0.020 A 
ATOM      2  C1  UNL d   1      -0.049  -1.496   0.496  0.00  0.00     0.020 A 
ATOM      3  C2  UNL d   1       1.100  -0.705   0.426  0.00  0.00     0.034 A 
ATOM      4  C3  UNL d   1       1.009   0.683   0.583  0.00  0.00     0.017 A 
ATOM      5  C4  UNL d   1      -0.237   1.277   0.812  0.00  0.00     0.017 A 
ATOM      6  C5  UNL d   1      -1.384   0.480   0.881  0.00  0.00     0.034 A 
ATOM      7 Cl   UNL d   1      -0.429   2.982   1.016  0.00  0.00    -0.070 Cl
ATOM      8 Cl1  UNL d   1       2.471   1.600   0.485  0.00  0.00    -0.070 Cl
ENDROOT
TORSDOF 0
ENDMDL
