MODEL 1
REMARK minimizedAffinity -5.33602667
REMARK minimizedRMSD -1
REMARK  0 active torsions:
REMARK  status: ('A' for Active; 'I' for Inactive)
ROOT
ATOM      1  C   UNL d   1       2.010   2.463  -0.261  0.00  0.00     0.020 A 
ATOM      2  C1  UNL d   1       1.034   3.409   0.050  0.00  0.00     0.020 A 
ATOM      3  C2  UNL d   1      -0.298   3.015   0.199  0.00  0.00     0.034 A 
ATOM      4  C3  UNL d   1      -0.657   1.672   0.037  0.00  0.00     0.017 A 
ATOM      5  C4  UNL d   1       0.324   0.724  -0.275  0.00  0.00     0.017 A 
ATOM      6  C5  UNL d   1       1.655   1.123  -0.423  0.00  0.00     0.034 A 
ATOM      7 Cl   UNL d   1      -0.043  -0.952  -0.489  0.00  0.00    -0.070 Cl
ATOM      8 Cl1  UNL d   1      -2.322   1.256   0.237  0.00  0.00    -0.070 Cl
ENDROOT
TORSDOF 0
ENDMDL
