MODEL 1
REMARK minimizedAffinity -3.79709053
REMARK minimizedRMSD -1
REMARK  0 active torsions:
REMARK  status: ('A' for Active; 'I' for Inactive)
ROOT
ATOM      1  C   UNL d   1       0.531   3.357   0.869  0.00  0.00     0.020 A 
ATOM      2  C1  UNL d   1       1.899   3.287   1.125  0.00  0.00     0.020 A 
ATOM      3  C2  UNL d   1       2.556   2.055   1.078  0.00  0.00     0.034 A 
ATOM      4  C3  UNL d   1       1.844   0.889   0.774  0.00  0.00     0.017 A 
ATOM      5  C4  UNL d   1       0.470   0.961   0.517  0.00  0.00     0.017 A 
ATOM      6  C5  UNL d   1      -0.182   2.197   0.566  0.00  0.00     0.034 A 
ATOM      7 Cl   UNL d   1      -0.475  -0.435   0.135  0.00  0.00    -0.070 Cl
ATOM      8 Cl1  UNL d   1       2.720  -0.599   0.732  0.00  0.00    -0.070 Cl
ENDROOT
TORSDOF 0
ENDMDL
