MODEL 1
REMARK minimizedAffinity -6.27693939
REMARK minimizedRMSD -1
REMARK  0 active torsions:
REMARK  status: ('A' for Active; 'I' for Inactive)
ROOT
ATOM      1  C   UNL d   1       0.549   3.768  -0.098  0.00  0.00     0.020 A 
ATOM      2  C1  UNL d   1       1.929   3.819   0.093  0.00  0.00     0.020 A 
ATOM      3  C2  UNL d   1       2.653   2.638   0.270  0.00  0.00     0.034 A 
ATOM      4  C3  UNL d   1       1.998   1.402   0.256  0.00  0.00     0.017 A 
ATOM      5  C4  UNL d   1       0.612   1.351   0.064  0.00  0.00     0.017 A 
ATOM      6  C5  UNL d   1      -0.108   2.537  -0.112  0.00  0.00     0.034 A 
ATOM      7 Cl   UNL d   1      -0.266  -0.137   0.035  0.00  0.00    -0.070 Cl
ATOM      8 Cl1  UNL d   1       2.956  -0.018   0.481  0.00  0.00    -0.070 Cl
ENDROOT
TORSDOF 0
ENDMDL
