MODEL 1
REMARK minimizedAffinity 0.941754103
REMARK minimizedRMSD -1
REMARK  1 active torsions:
REMARK  status: ('A' for Active; 'I' for Inactive)
REMARK    1  A    between atoms: N_2  and  C1_3 
ROOT
ATOM      1  C1  UNL d   1      -2.212   1.928   2.264  0.00  0.00     0.143 A 
ATOM      2  C2  UNL d   1      -1.201   2.677   1.653  0.00  0.00    -0.057 A 
ATOM      3  C3  UNL d   1      -0.024   2.073   1.196  0.00  0.00     0.033 A 
ATOM      4  C4  UNL d   1       0.177   0.707   1.370  0.00  0.00    -0.042 A 
ATOM      5  C5  UNL d   1      -0.804  -0.054   1.997  0.00  0.00     0.033 A 
ATOM      6  C6  UNL d   1      -1.980   0.555   2.445  0.00  0.00    -0.057 A 
ENDROOT
BRANCH   1   7
ATOM      7  N   UNL d   1      -3.362   2.486   2.827  0.00  0.00    -0.732 N 
ATOM      8  C   UNL d   1      -4.245   1.684   3.647  0.00  0.00     0.284 C 
ATOM      9  H3  UNL d   1      -3.203   3.426   3.183  0.00  0.00     0.395 HD
ENDBRANCH   1   7
TORSDOF 1
ENDMDL
