MODEL 1
REMARK minimizedAffinity 6.95056534
REMARK minimizedRMSD -1
REMARK  1 active torsions:
REMARK  status: ('A' for Active; 'I' for Inactive)
REMARK    1  A    between atoms: N_2  and  C1_3 
ROOT
ATOM      1  C1  UNL d   1       1.244  -3.741  -0.985  0.00  0.00     0.143 A 
ATOM      2  C2  UNL d   1       0.823  -3.721   0.349  0.00  0.00    -0.057 A 
ATOM      3  C3  UNL d   1      -0.447  -4.184   0.716  0.00  0.00     0.033 A 
ATOM      4  C4  UNL d   1      -1.331  -4.649  -0.252  0.00  0.00    -0.042 A 
ATOM      5  C5  UNL d   1      -0.943  -4.654  -1.587  0.00  0.00     0.033 A 
ATOM      6  C6  UNL d   1       0.329  -4.197  -1.946  0.00  0.00    -0.057 A 
ENDROOT
BRANCH   1   7
ATOM      7  N   UNL d   1       2.456  -3.204  -1.426  0.00  0.00    -0.732 N 
ATOM      8  C   UNL d   1       2.476  -2.082  -2.339  0.00  0.00     0.284 C 
ATOM      9  H3  UNL d   1       3.149  -3.147  -0.683  0.00  0.00     0.395 HD
ENDBRANCH   1   7
TORSDOF 1
ENDMDL
