MODEL 1
REMARK minimizedAffinity -1.01926446
REMARK minimizedRMSD -1
REMARK  1 active torsions:
REMARK  status: ('A' for Active; 'I' for Inactive)
REMARK    1  A    between atoms: N_2  and  C1_3 
ROOT
ATOM      1  C1  UNL d   1       1.649   0.367   0.548  0.00  0.00     0.143 A 
ATOM      2  C2  UNL d   1       0.913   1.512   0.226  0.00  0.00    -0.057 A 
ATOM      3  C3  UNL d   1      -0.329   1.767   0.820  0.00  0.00     0.033 A 
ATOM      4  C4  UNL d   1      -0.872   0.863   1.727  0.00  0.00    -0.042 A 
ATOM      5  C5  UNL d   1      -0.169  -0.294   2.043  0.00  0.00     0.033 A 
ATOM      6  C6  UNL d   1       1.073  -0.540   1.452  0.00  0.00    -0.057 A 
ENDROOT
BRANCH   1   7
ATOM      7  N   UNL d   1       2.843   0.008  -0.082  0.00  0.00    -0.732 N 
ATOM      8  C   UNL d   1       3.048   0.284  -1.487  0.00  0.00     0.284 C 
ATOM      9  H3  UNL d   1       3.658   0.187   0.500  0.00  0.00     0.395 HD
ENDBRANCH   1   7
TORSDOF 1
ENDMDL
