MODEL 1
REMARK minimizedAffinity -2.25432324
REMARK minimizedRMSD -1
REMARK  1 active torsions:
REMARK  status: ('A' for Active; 'I' for Inactive)
REMARK    1  A    between atoms: N_2  and  C1_3 
ROOT
ATOM      1  C1  UNL d   1      -1.367   1.737   1.527  0.00  0.00     0.143 A 
ATOM      2  C2  UNL d   1      -0.218   2.026   0.783  0.00  0.00    -0.057 A 
ATOM      3  C3  UNL d   1       0.704   1.025   0.454  0.00  0.00     0.033 A 
ATOM      4  C4  UNL d   1       0.507  -0.281   0.890  0.00  0.00    -0.042 A 
ATOM      5  C5  UNL d   1      -0.616  -0.586   1.652  0.00  0.00     0.033 A 
ATOM      6  C6  UNL d   1      -1.536   0.416   1.971  0.00  0.00    -0.057 A 
ENDROOT
BRANCH   1   7
ATOM      7  N   UNL d   1      -2.271   2.706   1.970  0.00  0.00    -0.732 N 
ATOM      8  C   UNL d   1      -3.291   2.374   2.942  0.00  0.00     0.284 C 
ATOM      9  H3  UNL d   1      -1.827   3.609   2.125  0.00  0.00     0.395 HD
ENDBRANCH   1   7
TORSDOF 1
ENDMDL
