MODEL 1
REMARK minimizedAffinity -0.833620012
REMARK minimizedRMSD -1
REMARK  1 active torsions:
REMARK  status: ('A' for Active; 'I' for Inactive)
REMARK    1  A    between atoms: N_2  and  C1_3 
ROOT
ATOM      1  C1  UNL d   1       1.633   0.673   0.984  0.00  0.00     0.143 A 
ATOM      2  C2  UNL d   1       0.550   0.004   1.563  0.00  0.00    -0.057 A 
ATOM      3  C3  UNL d   1      -0.651   0.669   1.839  0.00  0.00     0.033 A 
ATOM      4  C4  UNL d   1      -0.780   2.026   1.566  0.00  0.00    -0.042 A 
ATOM      5  C5  UNL d   1       0.292   2.717   1.013  0.00  0.00     0.033 A 
ATOM      6  C6  UNL d   1       1.486   2.046   0.733  0.00  0.00    -0.057 A 
ENDROOT
BRANCH   1   7
ATOM      7  N   UNL d   1       2.886   0.091   0.776  0.00  0.00    -0.732 N 
ATOM      8  C   UNL d   1       3.097  -0.836  -0.315  0.00  0.00     0.284 C 
ATOM      9  H3  UNL d   1       3.648   0.751   0.914  0.00  0.00     0.395 HD
ENDBRANCH   1   7
TORSDOF 1
ENDMDL
