MODEL 1
REMARK minimizedAffinity -1.43054175
REMARK minimizedRMSD -1
REMARK  1 active torsions:
REMARK  status: ('A' for Active; 'I' for Inactive)
REMARK    1  A    between atoms: N_2  and  C1_3 
ROOT
ATOM      1  C1  UNL d   1      -0.992  -0.241   1.400  0.00  0.00     0.143 A 
ATOM      2  C2  UNL d   1      -1.314   1.108   1.579  0.00  0.00    -0.057 A 
ATOM      3  C3  UNL d   1      -0.424   2.123   1.208  0.00  0.00     0.033 A 
ATOM      4  C4  UNL d   1       0.821   1.803   0.676  0.00  0.00    -0.042 A 
ATOM      5  C5  UNL d   1       1.173   0.468   0.512  0.00  0.00     0.033 A 
ATOM      6  C6  UNL d   1       0.276  -0.540   0.878  0.00  0.00    -0.057 A 
ENDROOT
BRANCH   1   7
ATOM      7  N   UNL d   1      -1.794  -1.297   1.840  0.00  0.00    -0.732 N 
ATOM      8  C   UNL d   1      -1.488  -1.992   3.072  0.00  0.00     0.284 C 
ATOM      9  H3  UNL d   1      -2.785  -1.117   1.700  0.00  0.00     0.395 HD
ENDBRANCH   1   7
TORSDOF 1
ENDMDL
