MODEL 1
REMARK minimizedAffinity -0.107179858
REMARK minimizedRMSD -1
REMARK  1 active torsions:
REMARK  status: ('A' for Active; 'I' for Inactive)
REMARK    1  A    between atoms: N_2  and  C1_3 
ROOT
ATOM      1  C1  UNL d   1      -2.760   1.917   2.259  0.00  0.00     0.143 A 
ATOM      2  C2  UNL d   1      -2.685   0.527   2.394  0.00  0.00    -0.057 A 
ATOM      3  C3  UNL d   1      -1.662  -0.208   1.783  0.00  0.00     0.033 A 
ATOM      4  C4  UNL d   1      -0.709   0.434   0.999  0.00  0.00    -0.042 A 
ATOM      5  C5  UNL d   1      -0.779   1.813   0.830  0.00  0.00     0.033 A 
ATOM      6  C6  UNL d   1      -1.799   2.542   1.448  0.00  0.00    -0.057 A 
ENDROOT
BRANCH   1   7
ATOM      7  N   UNL d   1      -3.809   2.692   2.760  0.00  0.00    -0.732 N 
ATOM      8  C   UNL d   1      -4.469   2.329   3.996  0.00  0.00     0.284 C 
ATOM      9  H3  UNL d   1      -3.638   3.690   2.658  0.00  0.00     0.395 HD
ENDBRANCH   1   7
TORSDOF 1
ENDMDL
