MODEL 1
REMARK minimizedAffinity 5.65117455
REMARK minimizedRMSD -1
REMARK  1 active torsions:
REMARK  status: ('A' for Active; 'I' for Inactive)
REMARK    1  A    between atoms: N_2  and  C1_3 
ROOT
ATOM      1  C1  UNL d   1      -0.071  -0.288   1.911  0.00  0.00     0.143 A 
ATOM      2  C2  UNL d   1      -1.098   0.650   2.064  0.00  0.00    -0.057 A 
ATOM      3  C3  UNL d   1      -1.037   1.902   1.440  0.00  0.00     0.033 A 
ATOM      4  C4  UNL d   1       0.071   2.250   0.674  0.00  0.00    -0.042 A 
ATOM      5  C5  UNL d   1       1.115   1.343   0.529  0.00  0.00     0.033 A 
ATOM      6  C6  UNL d   1       1.044   0.092   1.149  0.00  0.00    -0.057 A 
ENDROOT
BRANCH   1   7
ATOM      7  N   UNL d   1      -0.028  -1.511   2.585  0.00  0.00    -0.732 N 
ATOM      8  C   UNL d   1      -1.050  -1.858   3.549  0.00  0.00     0.284 C 
ATOM      9  H3  UNL d   1       0.249  -2.279   1.978  0.00  0.00     0.395 HD
ENDBRANCH   1   7
TORSDOF 1
ENDMDL
