MODEL 1
REMARK minimizedAffinity -0.109426066
REMARK minimizedRMSD -1
REMARK  1 active torsions:
REMARK  status: ('A' for Active; 'I' for Inactive)
REMARK    1  A    between atoms: N_2  and  C1_3 
ROOT
ATOM      1  C1  UNL d   1      -2.174   1.681   2.213  0.00  0.00     0.143 A 
ATOM      2  C2  UNL d   1      -1.074   2.363   1.680  0.00  0.00    -0.057 A 
ATOM      3  C3  UNL d   1      -0.009   1.673   1.090  0.00  0.00     0.033 A 
ATOM      4  C4  UNL d   1      -0.010   0.282   1.049  0.00  0.00    -0.042 A 
ATOM      5  C5  UNL d   1      -1.081  -0.417   1.595  0.00  0.00     0.033 A 
ATOM      6  C6  UNL d   1      -2.145   0.279   2.177  0.00  0.00    -0.057 A 
ENDROOT
BRANCH   1   7
ATOM      7  N   UNL d   1      -3.217   2.306   2.901  0.00  0.00    -0.732 N 
ATOM      8  C   UNL d   1      -4.253   1.522   3.538  0.00  0.00     0.284 C 
ATOM      9  H3  UNL d   1      -2.899   3.101   3.451  0.00  0.00     0.395 HD
ENDBRANCH   1   7
TORSDOF 1
ENDMDL
