MODEL 1
REMARK minimizedAffinity 6.6770997
REMARK minimizedRMSD -1
REMARK  1 active torsions:
REMARK  status: ('A' for Active; 'I' for Inactive)
REMARK    1  A    between atoms: N_2  and  C1_3 
ROOT
ATOM      1  C1  UNL d   1       1.463   1.765   0.283  0.00  0.00     0.143 A 
ATOM      2  C2  UNL d   1       1.960   0.593   0.862  0.00  0.00    -0.057 A 
ATOM      3  C3  UNL d   1       2.918  -0.191   0.208  0.00  0.00     0.033 A 
ATOM      4  C4  UNL d   1       3.374   0.169  -1.056  0.00  0.00    -0.042 A 
ATOM      5  C5  UNL d   1       2.876   1.316  -1.662  0.00  0.00     0.033 A 
ATOM      6  C6  UNL d   1       1.925   2.099  -1.000  0.00  0.00    -0.057 A 
ENDROOT
BRANCH   1   7
ATOM      7  N   UNL d   1       0.438   2.534   0.840  0.00  0.00    -0.732 N 
ATOM      8  C   UNL d   1      -0.730   1.902   1.412  0.00  0.00     0.284 C 
ATOM      9  H3  UNL d   1       0.793   3.320   1.380  0.00  0.00     0.395 HD
ENDBRANCH   1   7
TORSDOF 1
ENDMDL
