MODEL 1
REMARK minimizedAffinity 9.2961359
REMARK minimizedRMSD -1
REMARK  1 active torsions:
REMARK  status: ('A' for Active; 'I' for Inactive)
REMARK    1  A    between atoms: N_2  and  C1_3 
ROOT
ATOM      1  C1  UNL d   1       1.918   0.069   2.210  0.00  0.00     0.143 A 
ATOM      2  C2  UNL d   1       0.915   0.606   3.024  0.00  0.00    -0.057 A 
ATOM      3  C3  UNL d   1      -0.137   1.354   2.482  0.00  0.00     0.033 A 
ATOM      4  C4  UNL d   1      -0.189   1.603   1.115  0.00  0.00    -0.042 A 
ATOM      5  C5  UNL d   1       0.811   1.101   0.290  0.00  0.00     0.033 A 
ATOM      6  C6  UNL d   1       1.855   0.348   0.836  0.00  0.00    -0.057 A 
ENDROOT
BRANCH   1   7
ATOM      7  N   UNL d   1       3.042  -0.600   2.700  0.00  0.00    -0.732 N 
ATOM      8  C   UNL d   1       4.315  -0.499   2.019  0.00  0.00     0.284 C 
ATOM      9  H3  UNL d   1       3.109  -0.556   3.715  0.00  0.00     0.395 HD
ENDBRANCH   1   7
TORSDOF 1
ENDMDL
