MODEL 1
REMARK minimizedAffinity 0.366617709
REMARK minimizedRMSD -1
REMARK  1 active torsions:
REMARK  status: ('A' for Active; 'I' for Inactive)
REMARK    1  A    between atoms: N_2  and  C1_3 
ROOT
ATOM      1  C1  UNL d   1      -2.037   1.020   2.742  0.00  0.00     0.143 A 
ATOM      2  C2  UNL d   1      -1.302   2.205   2.854  0.00  0.00    -0.057 A 
ATOM      3  C3  UNL d   1       0.005   2.298   2.360  0.00  0.00     0.033 A 
ATOM      4  C4  UNL d   1       0.612   1.195   1.770  0.00  0.00    -0.042 A 
ATOM      5  C5  UNL d   1      -0.090  -0.000   1.669  0.00  0.00     0.033 A 
ATOM      6  C6  UNL d   1      -1.398  -0.085   2.158  0.00  0.00    -0.057 A 
ENDROOT
BRANCH   1   7
ATOM      7  N   UNL d   1      -3.304   0.834   3.300  0.00  0.00    -0.732 N 
ATOM      8  C   UNL d   1      -3.966   1.914   4.000  0.00  0.00     0.284 C 
ATOM      9  H3  UNL d   1      -3.918   0.291   2.698  0.00  0.00     0.395 HD
ENDBRANCH   1   7
TORSDOF 1
ENDMDL
