MODEL 1
REMARK minimizedAffinity 24.8703575
REMARK minimizedRMSD -1
REMARK  0 active torsions:
REMARK  status: ('A' for Active; 'I' for Inactive)
ROOT
ATOM      1  C   UNL d   1      -5.195  -0.971   2.739  0.00  0.00     0.124 A 
ATOM      2  C1  UNL d   1      -4.765  -1.554   3.923  0.00  0.00     0.062 A 
ATOM      3  C2  UNL d   1      -4.044  -0.806   4.850  0.00  0.00     0.162 A 
ATOM      4  C3  UNL d   1      -3.750   0.533   4.597  0.00  0.00    -0.034 A 
ATOM      5  C4  UNL d   1      -4.185   1.113   3.404  0.00  0.00     0.162 A 
ATOM      6  C5  UNL d   1      -4.904   0.361   2.480  0.00  0.00     0.062 A 
ATOM      7  F   UNL d   1      -5.319   0.926   1.337  0.00  0.00    -0.097 F 
ATOM      8  F1  UNL d   1      -3.919   2.398   3.129  0.00  0.00    -0.096 F 
ATOM      9  I   UNL d   1      -2.673   1.655   5.981  0.00  0.00    -0.060 I 
ATOM     10  F2  UNL d   1      -3.642  -1.396   5.986  0.00  0.00    -0.096 F 
ATOM     11  F3  UNL d   1      -5.043  -2.841   4.174  0.00  0.00    -0.097 F 
ATOM     12  F4  UNL d   1      -5.887  -1.693   1.848  0.00  0.00    -0.092 F 
ENDROOT
TORSDOF 0
ENDMDL
