MODEL 1
REMARK minimizedAffinity 37.4007645
REMARK minimizedRMSD -1
REMARK  0 active torsions:
REMARK  status: ('A' for Active; 'I' for Inactive)
ROOT
ATOM      1  C   UNL d   1       2.532  -0.491  -0.531  0.00  0.00     0.124 A 
ATOM      2  C1  UNL d   1       1.388  -1.239  -0.774  0.00  0.00     0.062 A 
ATOM      3  C2  UNL d   1       1.442  -2.629  -0.747  0.00  0.00     0.162 A 
ATOM      4  C3  UNL d   1       2.644  -3.282  -0.475  0.00  0.00    -0.034 A 
ATOM      5  C4  UNL d   1       3.791  -2.524  -0.232  0.00  0.00     0.162 A 
ATOM      6  C5  UNL d   1       3.732  -1.134  -0.260  0.00  0.00     0.062 A 
ATOM      7  F   UNL d   1       4.838  -0.414  -0.025  0.00  0.00    -0.097 F 
ATOM      8  F1  UNL d   1       4.963  -3.119   0.033  0.00  0.00    -0.096 F 
ATOM      9  I   UNL d   1       2.728  -5.361  -0.434  0.00  0.00    -0.060 I 
ATOM     10  F2  UNL d   1       0.321  -3.326  -0.986  0.00  0.00    -0.096 F 
ATOM     11  F3  UNL d   1       0.228  -0.620  -1.037  0.00  0.00    -0.097 F 
ATOM     12  F4  UNL d   1       2.478   0.847  -0.558  0.00  0.00    -0.092 F 
ENDROOT
TORSDOF 0
ENDMDL
