MODEL 1
REMARK minimizedAffinity 28.2578812
REMARK minimizedRMSD -1
REMARK  0 active torsions:
REMARK  status: ('A' for Active; 'I' for Inactive)
ROOT
ATOM      1  C   UNL d   1       3.422  -0.183  -1.334  0.00  0.00     0.124 A 
ATOM      2  C1  UNL d   1       3.776   0.502  -0.180  0.00  0.00     0.062 A 
ATOM      3  C2  UNL d   1       3.253   1.767   0.071  0.00  0.00     0.162 A 
ATOM      4  C3  UNL d   1       2.369   2.355  -0.834  0.00  0.00    -0.034 A 
ATOM      5  C4  UNL d   1       2.019   1.660  -1.993  0.00  0.00     0.162 A 
ATOM      6  C5  UNL d   1       2.544   0.396  -2.239  0.00  0.00     0.062 A 
ATOM      7  F   UNL d   1       2.201  -0.265  -3.354  0.00  0.00    -0.097 F 
ATOM      8  F1  UNL d   1       1.171   2.196  -2.884  0.00  0.00    -0.096 F 
ATOM      9  I   UNL d   1       1.585   4.247  -0.463  0.00  0.00    -0.060 I 
ATOM     10  F2  UNL d   1       3.613   2.407   1.194  0.00  0.00    -0.096 F 
ATOM     11  F3  UNL d   1       4.625  -0.055   0.695  0.00  0.00    -0.097 F 
ATOM     12  F4  UNL d   1       3.928  -1.400  -1.573  0.00  0.00    -0.092 F 
ENDROOT
TORSDOF 0
ENDMDL
