MODEL 1
REMARK minimizedAffinity 22.1779766
REMARK minimizedRMSD -1
REMARK  0 active torsions:
REMARK  status: ('A' for Active; 'I' for Inactive)
ROOT
ATOM      1  C   UNL d   1       3.705   0.687  -0.528  0.00  0.00     0.124 A 
ATOM      2  C1  UNL d   1       3.956   1.350   0.666  0.00  0.00     0.062 A 
ATOM      3  C2  UNL d   1       2.942   1.504   1.607  0.00  0.00     0.162 A 
ATOM      4  C3  UNL d   1       1.667   0.994   1.358  0.00  0.00    -0.034 A 
ATOM      5  C4  UNL d   1       1.423   0.330   0.155  0.00  0.00     0.162 A 
ATOM      6  C5  UNL d   1       2.440   0.178  -0.782  0.00  0.00     0.062 A 
ATOM      7  F   UNL d   1       2.196  -0.462  -1.935  0.00  0.00    -0.097 F 
ATOM      8  F1  UNL d   1       0.209  -0.173  -0.116  0.00  0.00    -0.096 F 
ATOM      9  I   UNL d   1       0.149   1.222   2.763  0.00  0.00    -0.060 I 
ATOM     10  F2  UNL d   1       3.212   2.148   2.752  0.00  0.00    -0.096 F 
ATOM     11  F3  UNL d   1       5.177   1.843   0.914  0.00  0.00    -0.097 F 
ATOM     12  F4  UNL d   1       4.682   0.541  -1.432  0.00  0.00    -0.092 F 
ENDROOT
TORSDOF 0
ENDMDL
