MODEL 1
REMARK minimizedAffinity 36.8888359
REMARK minimizedRMSD -1
REMARK  0 active torsions:
REMARK  status: ('A' for Active; 'I' for Inactive)
ROOT
ATOM      1  C   UNL d   1       1.120  -1.956  -0.556  0.00  0.00     0.124 A 
ATOM      2  C1  UNL d   1       1.777  -3.167  -0.394  0.00  0.00     0.062 A 
ATOM      3  C2  UNL d   1       1.269  -4.323  -0.979  0.00  0.00     0.162 A 
ATOM      4  C3  UNL d   1       0.096  -4.273  -1.733  0.00  0.00    -0.034 A 
ATOM      5  C4  UNL d   1      -0.560  -3.051  -1.891  0.00  0.00     0.162 A 
ATOM      6  C5  UNL d   1      -0.047  -1.899  -1.304  0.00  0.00     0.062 A 
ATOM      7  F   UNL d   1      -0.684  -0.729  -1.462  0.00  0.00    -0.097 F 
ATOM      8  F1  UNL d   1      -1.689  -2.968  -2.609  0.00  0.00    -0.096 F 
ATOM      9  I   UNL d   1      -0.668  -6.000  -2.609  0.00  0.00    -0.060 I 
ATOM     10  F2  UNL d   1       1.925  -5.481  -0.805  0.00  0.00    -0.096 F 
ATOM     11  F3  UNL d   1       2.905  -3.225   0.329  0.00  0.00    -0.097 F 
ATOM     12  F4  UNL d   1       1.611  -0.845   0.009  0.00  0.00    -0.092 F 
ENDROOT
TORSDOF 0
ENDMDL
