MODEL 1
REMARK minimizedAffinity 32.2043839
REMARK minimizedRMSD -1
REMARK  0 active torsions:
REMARK  status: ('A' for Active; 'I' for Inactive)
ROOT
ATOM      1  C   UNL d   1       3.638  -4.857  -0.783  0.00  0.00     0.124 A 
ATOM      2  C1  UNL d   1       2.275  -4.855  -1.048  0.00  0.00     0.062 A 
ATOM      3  C2  UNL d   1       1.550  -3.670  -0.976  0.00  0.00     0.162 A 
ATOM      4  C3  UNL d   1       2.186  -2.475  -0.639  0.00  0.00    -0.034 A 
ATOM      5  C4  UNL d   1       3.556  -2.485  -0.373  0.00  0.00     0.162 A 
ATOM      6  C5  UNL d   1       4.277  -3.672  -0.446  0.00  0.00     0.062 A 
ATOM      7  F   UNL d   1       5.593  -3.672  -0.190  0.00  0.00    -0.097 F 
ATOM      8  F1  UNL d   1       4.199  -1.354  -0.046  0.00  0.00    -0.096 F 
ATOM      9  I   UNL d   1       1.105  -0.700  -0.531  0.00  0.00    -0.060 I 
ATOM     10  F2  UNL d   1       0.234  -3.697  -1.237  0.00  0.00    -0.096 F 
ATOM     11  F3  UNL d   1       1.655  -5.999  -1.373  0.00  0.00    -0.097 F 
ATOM     12  F4  UNL d   1       4.333  -6.000  -0.852  0.00  0.00    -0.092 F 
ENDROOT
TORSDOF 0
ENDMDL
