MODEL 1
REMARK minimizedAffinity 19.2403946
REMARK minimizedRMSD -1
REMARK  0 active torsions:
REMARK  status: ('A' for Active; 'I' for Inactive)
ROOT
ATOM      1  C   UNL d   1       3.603  -1.304   0.068  0.00  0.00     0.124 A 
ATOM      2  C1  UNL d   1       3.866  -0.028  -0.411  0.00  0.00     0.062 A 
ATOM      3  C2  UNL d   1       3.022   0.555  -1.351  0.00  0.00     0.162 A 
ATOM      4  C3  UNL d   1       1.905  -0.137  -1.819  0.00  0.00    -0.034 A 
ATOM      5  C4  UNL d   1       1.647  -1.421  -1.333  0.00  0.00     0.162 A 
ATOM      6  C5  UNL d   1       2.494  -1.999  -0.394  0.00  0.00     0.062 A 
ATOM      7  F   UNL d   1       2.239  -3.232   0.068  0.00  0.00    -0.097 F 
ATOM      8  F1  UNL d   1       0.582  -2.114  -1.761  0.00  0.00    -0.096 F 
ATOM      9  I   UNL d   1       0.639   0.731  -3.224  0.00  0.00    -0.060 I 
ATOM     10  F2  UNL d   1       3.300   1.789  -1.796  0.00  0.00    -0.096 F 
ATOM     11  F3  UNL d   1       4.938   0.646   0.032  0.00  0.00    -0.097 F 
ATOM     12  F4  UNL d   1       4.418  -1.862   0.972  0.00  0.00    -0.092 F 
ENDROOT
TORSDOF 0
ENDMDL
