MODEL 1
REMARK minimizedAffinity 17.6805706
REMARK minimizedRMSD -1
REMARK  0 active torsions:
REMARK  status: ('A' for Active; 'I' for Inactive)
ROOT
ATOM      1  C   UNL d   1       3.569  -0.652  -0.917  0.00  0.00     0.124 A 
ATOM      2  C1  UNL d   1       3.491  -1.964  -0.470  0.00  0.00     0.062 A 
ATOM      3  C2  UNL d   1       2.369  -2.735  -0.758  0.00  0.00     0.162 A 
ATOM      4  C3  UNL d   1       1.315  -2.197  -1.497  0.00  0.00    -0.034 A 
ATOM      5  C4  UNL d   1       1.401  -0.877  -1.942  0.00  0.00     0.162 A 
ATOM      6  C5  UNL d   1       2.525  -0.110  -1.652  0.00  0.00     0.062 A 
ATOM      7  F   UNL d   1       2.599   1.158  -2.084  0.00  0.00    -0.097 F 
ATOM      8  F1  UNL d   1       0.407  -0.328  -2.655  0.00  0.00    -0.096 F 
ATOM      9  I   UNL d   1      -0.364  -3.347  -1.930  0.00  0.00    -0.060 I 
ATOM     10  F2  UNL d   1       2.320  -4.000  -0.314  0.00  0.00    -0.096 F 
ATOM     11  F3  UNL d   1       4.498  -2.490   0.241  0.00  0.00    -0.097 F 
ATOM     12  F4  UNL d   1       4.650   0.088  -0.638  0.00  0.00    -0.092 F 
ENDROOT
TORSDOF 0
ENDMDL
