MODEL 1
REMARK minimizedAffinity 21.9573174
REMARK minimizedRMSD -1
REMARK  0 active torsions:
REMARK  status: ('A' for Active; 'I' for Inactive)
ROOT
ATOM      1  C   UNL d   1       3.176  -0.909  -0.268  0.00  0.00     0.124 A 
ATOM      2  C1  UNL d   1       3.194  -2.285  -0.084  0.00  0.00     0.062 A 
ATOM      3  C2  UNL d   1       2.166  -3.073  -0.594  0.00  0.00     0.162 A 
ATOM      4  C3  UNL d   1       1.111  -2.487  -1.293  0.00  0.00    -0.034 A 
ATOM      5  C4  UNL d   1       1.100  -1.103  -1.473  0.00  0.00     0.162 A 
ATOM      6  C5  UNL d   1       2.130  -0.320  -0.962  0.00  0.00     0.062 A 
ATOM      7  F   UNL d   1       2.110   1.009  -1.140  0.00  0.00    -0.097 F 
ATOM      8  F1  UNL d   1       0.101  -0.507  -2.141  0.00  0.00    -0.096 F 
ATOM      9  I   UNL d   1      -0.428  -3.661  -2.057  0.00  0.00    -0.060 I 
ATOM     10  F2  UNL d   1       2.209  -4.400  -0.401  0.00  0.00    -0.096 F 
ATOM     11  F3  UNL d   1       4.204  -2.857   0.587  0.00  0.00    -0.097 F 
ATOM     12  F4  UNL d   1       4.166  -0.154   0.224  0.00  0.00    -0.092 F 
ENDROOT
TORSDOF 0
ENDMDL
