MODEL 1
REMARK minimizedAffinity 22.9349728
REMARK minimizedRMSD -1
REMARK  0 active torsions:
REMARK  status: ('A' for Active; 'I' for Inactive)
ROOT
ATOM      1  C   UNL d   1      -3.405   1.347   2.912  0.00  0.00     0.124 A 
ATOM      2  C1  UNL d   1      -4.352   0.713   2.119  0.00  0.00     0.062 A 
ATOM      3  C2  UNL d   1      -5.092  -0.350   2.628  0.00  0.00     0.162 A 
ATOM      4  C3  UNL d   1      -4.889  -0.786   3.938  0.00  0.00    -0.034 A 
ATOM      5  C4  UNL d   1      -3.934  -0.144   4.729  0.00  0.00     0.162 A 
ATOM      6  C5  UNL d   1      -3.197   0.918   4.215  0.00  0.00     0.062 A 
ATOM      7  F   UNL d   1      -2.283   1.530   4.983  0.00  0.00    -0.097 F 
ATOM      8  F1  UNL d   1      -3.714  -0.537   5.992  0.00  0.00    -0.096 F 
ATOM      9  I   UNL d   1      -5.993  -2.376   4.703  0.00  0.00    -0.060 I 
ATOM     10  F2  UNL d   1      -6.000  -0.945   1.840  0.00  0.00    -0.096 F 
ATOM     11  F3  UNL d   1      -4.554   1.125   0.860  0.00  0.00    -0.097 F 
ATOM     12  F4  UNL d   1      -2.694   2.369   2.419  0.00  0.00    -0.092 F 
ENDROOT
TORSDOF 0
ENDMDL
