MODEL 1
REMARK minimizedAffinity 23.971159
REMARK minimizedRMSD -1
REMARK  0 active torsions:
REMARK  status: ('A' for Active; 'I' for Inactive)
ROOT
ATOM      1  C   UNL d   1      -1.613   1.139   1.313  0.00  0.00     0.124 A 
ATOM      2  C1  UNL d   1      -2.929   1.270   1.735  0.00  0.00     0.062 A 
ATOM      3  C2  UNL d   1      -3.213   1.532   3.072  0.00  0.00     0.162 A 
ATOM      4  C3  UNL d   1      -2.179   1.666   3.998  0.00  0.00    -0.034 A 
ATOM      5  C4  UNL d   1      -0.858   1.532   3.567  0.00  0.00     0.162 A 
ATOM      6  C5  UNL d   1      -0.579   1.270   2.229  0.00  0.00     0.062 A 
ATOM      7  F   UNL d   1       0.693   1.144   1.824  0.00  0.00    -0.097 F 
ATOM      8  F1  UNL d   1       0.161   1.655   4.431  0.00  0.00    -0.096 F 
ATOM      9  I   UNL d   1      -2.600   2.057   5.998  0.00  0.00    -0.060 I 
ATOM     10  F2  UNL d   1      -4.494   1.653   3.451  0.00  0.00    -0.096 F 
ATOM     11  F3  UNL d   1      -3.930   1.143   0.852  0.00  0.00    -0.097 F 
ATOM     12  F4  UNL d   1      -1.343   0.886   0.026  0.00  0.00    -0.092 F 
ENDROOT
TORSDOF 0
ENDMDL
