MODEL 1
REMARK minimizedAffinity 26.5486851
REMARK minimizedRMSD -1
REMARK  0 active torsions:
REMARK  status: ('A' for Active; 'I' for Inactive)
ROOT
ATOM      1  C   UNL d   1       0.610  -1.846  -0.949  0.00  0.00     0.124 A 
ATOM      2  C1  UNL d   1       1.255  -0.771  -1.544  0.00  0.00     0.062 A 
ATOM      3  C2  UNL d   1       1.584  -0.813  -2.896  0.00  0.00     0.162 A 
ATOM      4  C3  UNL d   1       1.267  -1.934  -3.663  0.00  0.00    -0.034 A 
ATOM      5  C4  UNL d   1       0.618  -3.012  -3.057  0.00  0.00     0.162 A 
ATOM      6  C5  UNL d   1       0.292  -2.965  -1.706  0.00  0.00     0.062 A 
ATOM      7  F   UNL d   1      -0.332  -4.004  -1.133  0.00  0.00    -0.097 F 
ATOM      8  F1  UNL d   1       0.298  -4.105  -3.765  0.00  0.00    -0.096 F 
ATOM      9  I   UNL d   1       1.756  -2.001  -5.685  0.00  0.00    -0.060 I 
ATOM     10  F2  UNL d   1       2.208   0.240  -3.445  0.00  0.00    -0.096 F 
ATOM     11  F3  UNL d   1       1.564   0.311  -0.815  0.00  0.00    -0.097 F 
ATOM     12  F4  UNL d   1       0.295  -1.803   0.352  0.00  0.00    -0.092 F 
ENDROOT
TORSDOF 0
ENDMDL
