MODEL 1
REMARK minimizedAffinity 14.4911633
REMARK minimizedRMSD -1
REMARK  0 active torsions:
REMARK  status: ('A' for Active; 'I' for Inactive)
ROOT
ATOM      1  C   UNL d   1      -2.271   1.343   2.398  0.00  0.00     0.124 A 
ATOM      2  C1  UNL d   1      -2.662   1.598   3.705  0.00  0.00     0.062 A 
ATOM      3  C2  UNL d   1      -1.726   1.563   4.735  0.00  0.00     0.162 A 
ATOM      4  C3  UNL d   1      -0.389   1.273   4.461  0.00  0.00    -0.034 A 
ATOM      5  C4  UNL d   1      -0.004   1.017   3.144  0.00  0.00     0.162 A 
ATOM      6  C5  UNL d   1      -0.943   1.053   2.119  0.00  0.00     0.062 A 
ATOM      7  F   UNL d   1      -0.564   0.807   0.856  0.00  0.00    -0.097 F 
ATOM      8  F1  UNL d   1       1.273   0.735   2.846  0.00  0.00    -0.096 F 
ATOM      9  I   UNL d   1       1.013   1.219   5.998  0.00  0.00    -0.060 I 
ATOM     10  F2  UNL d   1      -2.132   1.813   5.989  0.00  0.00    -0.096 F 
ATOM     11  F3  UNL d   1      -3.945   1.877   3.978  0.00  0.00    -0.097 F 
ATOM     12  F4  UNL d   1      -3.174   1.377   1.409  0.00  0.00    -0.092 F 
ENDROOT
TORSDOF 0
ENDMDL
