MODEL 1
REMARK minimizedAffinity -2.57537794
REMARK minimizedRMSD -1
REMARK  0 active torsions:
REMARK  status: ('A' for Active; 'I' for Inactive)
ROOT
ATOM      1  C   UNL d   1       0.499  -1.179  -0.367  0.00  0.00     0.020 A 
ATOM      2  C1  UNL d   1       1.436  -0.574   0.470  0.00  0.00     0.020 A 
ATOM      3  C2  UNL d   1       1.040   0.446   1.338  0.00  0.00     0.034 A 
ATOM      4  C3  UNL d   1      -0.295   0.864   1.370  0.00  0.00     0.017 A 
ATOM      5  C4  UNL d   1      -1.235   0.256   0.530  0.00  0.00     0.017 A 
ATOM      6  C5  UNL d   1      -0.833  -0.765  -0.337  0.00  0.00     0.034 A 
ATOM      7 Cl   UNL d   1      -2.900   0.718   0.513  0.00  0.00    -0.070 Cl
ATOM      8 Cl1  UNL d   1      -0.714   2.131   2.468  0.00  0.00    -0.070 Cl
ENDROOT
TORSDOF 0
ENDMDL
