MODEL 1
REMARK minimizedAffinity -2.03623748
REMARK minimizedRMSD -1
REMARK  0 active torsions:
REMARK  status: ('A' for Active; 'I' for Inactive)
ROOT
ATOM      1  C   UNL d   1      -0.739   0.614   3.212  0.00  0.00     0.020 A 
ATOM      2  C1  UNL d   1       0.349   1.343   2.733  0.00  0.00     0.020 A 
ATOM      3  C2  UNL d   1       0.528   1.507   1.358  0.00  0.00     0.034 A 
ATOM      4  C3  UNL d   1      -0.381   0.941   0.457  0.00  0.00     0.017 A 
ATOM      5  C4  UNL d   1      -1.473   0.209   0.939  0.00  0.00     0.017 A 
ATOM      6  C5  UNL d   1      -1.647   0.048   2.317  0.00  0.00     0.034 A 
ATOM      7 Cl   UNL d   1      -2.637  -0.518  -0.111  0.00  0.00    -0.070 Cl
ATOM      8 Cl1  UNL d   1      -0.098   1.184  -1.230  0.00  0.00    -0.070 Cl
ENDROOT
TORSDOF 0
ENDMDL
