MODEL 1
REMARK minimizedAffinity 0.816650748
REMARK minimizedRMSD -1
REMARK  0 active torsions:
REMARK  status: ('A' for Active; 'I' for Inactive)
ROOT
ATOM      1  C   UNL d   1       0.656   2.172   3.183  0.00  0.00     0.020 A 
ATOM      2  C1  UNL d   1       0.433   1.661   4.461  0.00  0.00     0.020 A 
ATOM      3  C2  UNL d   1      -0.233   0.444   4.621  0.00  0.00     0.034 A 
ATOM      4  C3  UNL d   1      -0.678  -0.266   3.500  0.00  0.00     0.017 A 
ATOM      5  C4  UNL d   1      -0.454   0.247   2.218  0.00  0.00     0.017 A 
ATOM      6  C5  UNL d   1       0.213   1.466   2.064  0.00  0.00     0.034 A 
ATOM      7 Cl   UNL d   1      -0.974  -0.573   0.788  0.00  0.00    -0.070 Cl
ATOM      8 Cl1  UNL d   1      -1.494  -1.765   3.772  0.00  0.00    -0.070 Cl
ENDROOT
TORSDOF 0
ENDMDL
