MODEL 1
REMARK minimizedAffinity 0.579638898
REMARK minimizedRMSD -1
REMARK  0 active torsions:
REMARK  status: ('A' for Active; 'I' for Inactive)
ROOT
ATOM      1  C   UNL d   1      -0.917   2.549  -2.056  0.00  0.00    -0.002 A 
ATOM      2  C1  UNL d   1      -0.127   3.690  -2.044  0.00  0.00     0.010 A 
ATOM      3  C2  UNL d   1       0.365   4.200  -0.841  0.00  0.00     0.041 A 
ATOM      4  C3  UNL d   1       0.046   3.538   0.361  0.00  0.00    -0.075 A 
ATOM      5  S   UNL d   1       0.537   3.981   1.954  0.00  0.00     0.015 SA
ATOM      6  C4  UNL d   1      -0.290   2.667   2.655  0.00  0.00     0.022 A 
ATOM      7  C5  UNL d   1      -0.931   1.898   1.712  0.00  0.00     0.026 A 
ATOM      8  C6  UNL d   1      -0.747   2.387   0.375  0.00  0.00    -0.082 A 
ATOM      9  C7  UNL d   1      -1.231   1.895  -0.861  0.00  0.00     0.045 A 
ENDROOT
TORSDOF 0
ENDMDL
