MODEL 1
REMARK minimizedAffinity 7.21062899
REMARK minimizedRMSD -1
REMARK  0 active torsions:
REMARK  status: ('A' for Active; 'I' for Inactive)
ROOT
ATOM      1  C   UNL d   1       0.042   2.854   2.622  0.00  0.00    -0.002 A 
ATOM      2  C1  UNL d   1      -0.649   1.700   2.279  0.00  0.00     0.010 A 
ATOM      3  C2  UNL d   1      -0.979   1.440   0.947  0.00  0.00     0.041 A 
ATOM      4  C3  UNL d   1      -0.598   2.367  -0.043  0.00  0.00    -0.075 A 
ATOM      5  S   UNL d   1      -0.894   2.258  -1.738  0.00  0.00     0.015 SA
ATOM      6  C4  UNL d   1      -0.110   3.739  -2.046  0.00  0.00     0.022 A 
ATOM      7  C5  UNL d   1       0.372   4.316  -0.895  0.00  0.00     0.026 A 
ATOM      8  C6  UNL d   1       0.099   3.535   0.278  0.00  0.00    -0.082 A 
ATOM      9  C7  UNL d   1       0.418   3.771   1.637  0.00  0.00     0.045 A 
ENDROOT
TORSDOF 0
ENDMDL
