MODEL 1
REMARK minimizedAffinity 15.9064236
REMARK minimizedRMSD -1
REMARK  0 active torsions:
REMARK  status: ('A' for Active; 'I' for Inactive)
ROOT
ATOM      1  C   UNL d   1       1.042   3.851   0.957  0.00  0.00    -0.002 A 
ATOM      2  C1  UNL d   1       1.425   5.037   0.347  0.00  0.00     0.010 A 
ATOM      3  C2  UNL d   1       1.037   5.319  -0.964  0.00  0.00     0.041 A 
ATOM      4  C3  UNL d   1       0.247   4.381  -1.658  0.00  0.00    -0.075 A 
ATOM      5  S   UNL d   1      -0.347   4.514  -3.271  0.00  0.00     0.015 SA
ATOM      6  C4  UNL d   1      -1.124   2.999  -3.189  0.00  0.00     0.022 A 
ATOM      7  C5  UNL d   1      -0.945   2.394  -1.968  0.00  0.00     0.026 A 
ATOM      8  C6  UNL d   1      -0.152   3.180  -1.065  0.00  0.00    -0.082 A 
ATOM      9  C7  UNL d   1       0.259   2.923   0.265  0.00  0.00     0.045 A 
ENDROOT
TORSDOF 0
ENDMDL
