MODEL 1
REMARK minimizedAffinity 15.5881987
REMARK minimizedRMSD -1
REMARK  0 active torsions:
REMARK  status: ('A' for Active; 'I' for Inactive)
ROOT
ATOM      1  C   UNL d   1       1.115   4.087  -0.167  0.00  0.00    -0.002 A 
ATOM      2  C1  UNL d   1      -0.066   3.608   0.382  0.00  0.00     0.010 A 
ATOM      3  C2  UNL d   1      -1.159   3.312  -0.435  0.00  0.00     0.041 A 
ATOM      4  C3  UNL d   1      -1.044   3.506  -1.825  0.00  0.00    -0.075 A 
ATOM      5  S   UNL d   1      -2.252   3.211  -3.020  0.00  0.00     0.015 SA
ATOM      6  C4  UNL d   1      -1.227   3.713  -4.286  0.00  0.00     0.022 A 
ATOM      7  C5  UNL d   1       0.009   4.100  -3.827  0.00  0.00     0.026 A 
ATOM      8  C6  UNL d   1       0.136   3.987  -2.401  0.00  0.00    -0.082 A 
ATOM      9  C7  UNL d   1       1.226   4.278  -1.547  0.00  0.00     0.045 A 
ENDROOT
TORSDOF 0
ENDMDL
