MODEL 1
REMARK minimizedAffinity 15.5891848
REMARK minimizedRMSD -1
REMARK  0 active torsions:
REMARK  status: ('A' for Active; 'I' for Inactive)
ROOT
ATOM      1  C   UNL d   1      -0.327   5.917  -0.545  0.00  0.00    -0.002 A 
ATOM      2  C1  UNL d   1       0.529   5.133  -1.306  0.00  0.00     0.010 A 
ATOM      3  C2  UNL d   1       0.591   3.752  -1.109  0.00  0.00     0.041 A 
ATOM      4  C3  UNL d   1      -0.231   3.166  -0.126  0.00  0.00    -0.075 A 
ATOM      5  S   UNL d   1      -0.324   1.496   0.290  0.00  0.00     0.015 SA
ATOM      6  C4  UNL d   1      -1.504   1.783   1.486  0.00  0.00     0.022 A 
ATOM      7  C5  UNL d   1      -1.830   3.115   1.580  0.00  0.00     0.026 A 
ATOM      8  C6  UNL d   1      -1.102   3.934   0.652  0.00  0.00    -0.082 A 
ATOM      9  C7  UNL d   1      -1.141   5.332   0.428  0.00  0.00     0.045 A 
ENDROOT
TORSDOF 0
ENDMDL
