MODEL 1
REMARK minimizedAffinity 9.84904575
REMARK minimizedRMSD -1
REMARK  0 active torsions:
REMARK  status: ('A' for Active; 'I' for Inactive)
ROOT
ATOM      1  C   UNL d   1      -1.590  -2.548   4.277  0.00  0.00    -0.002 A 
ATOM      2  C1  UNL d   1      -0.233  -2.311   4.108  0.00  0.00     0.010 A 
ATOM      3  C2  UNL d   1       0.212  -1.127   3.516  0.00  0.00     0.041 A 
ATOM      4  C3  UNL d   1      -0.738  -0.176   3.095  0.00  0.00    -0.075 A 
ATOM      5  S   UNL d   1      -0.424   1.345   2.346  0.00  0.00     0.015 SA
ATOM      6  C4  UNL d   1      -2.084   1.716   2.235  0.00  0.00     0.022 A 
ATOM      7  C5  UNL d   1      -2.872   0.715   2.751  0.00  0.00     0.026 A 
ATOM      8  C6  UNL d   1      -2.109  -0.392   3.256  0.00  0.00    -0.082 A 
ATOM      9  C7  UNL d   1      -2.529  -1.602   3.859  0.00  0.00     0.045 A 
ENDROOT
TORSDOF 0
ENDMDL
