MODEL 1
REMARK minimizedAffinity 3.04476023
REMARK minimizedRMSD -1
REMARK  0 active torsions:
REMARK  status: ('A' for Active; 'I' for Inactive)
ROOT
ATOM      1  C   UNL d   1      -1.290   0.897   3.261  0.00  0.00    -0.002 A 
ATOM      2  C1  UNL d   1      -1.224   0.044   2.169  0.00  0.00     0.010 A 
ATOM      3  C2  UNL d   1      -0.727   0.496   0.944  0.00  0.00     0.041 A 
ATOM      4  C3  UNL d   1      -0.292   1.831   0.836  0.00  0.00    -0.075 A 
ATOM      5  S   UNL d   1       0.354   2.604  -0.563  0.00  0.00     0.015 SA
ATOM      6  C4  UNL d   1       0.559   4.084   0.257  0.00  0.00     0.022 A 
ATOM      7  C5  UNL d   1       0.149   4.009   1.567  0.00  0.00     0.026 A 
ATOM      8  C6  UNL d   1      -0.348   2.709   1.922  0.00  0.00    -0.082 A 
ATOM      9  C7  UNL d   1      -0.857   2.221   3.150  0.00  0.00     0.045 A 
ENDROOT
TORSDOF 0
ENDMDL
