MODEL 1
REMARK minimizedAffinity 10.4648666
REMARK minimizedRMSD -1
REMARK  0 active torsions:
REMARK  status: ('A' for Active; 'I' for Inactive)
ROOT
ATOM      1  C   UNL d   1      -0.238   1.672   2.124  0.00  0.00    -0.002 A 
ATOM      2  C1  UNL d   1       0.715   2.191   2.989  0.00  0.00     0.010 A 
ATOM      3  C2  UNL d   1       1.154   3.510   2.854  0.00  0.00     0.041 A 
ATOM      4  C3  UNL d   1       0.612   4.306   1.826  0.00  0.00    -0.075 A 
ATOM      5  S   UNL d   1       0.997   5.948   1.471  0.00  0.00     0.015 SA
ATOM      6  C4  UNL d   1      -0.095   6.000   0.163  0.00  0.00     0.022 A 
ATOM      7  C5  UNL d   1      -0.746   4.802  -0.012  0.00  0.00     0.026 A 
ATOM      8  C6  UNL d   1      -0.350   3.806   0.943  0.00  0.00    -0.082 A 
ATOM      9  C7  UNL d   1      -0.773   2.465   1.106  0.00  0.00     0.045 A 
ENDROOT
TORSDOF 0
ENDMDL
