MODEL 1
REMARK minimizedAffinity 1.30673528
REMARK minimizedRMSD -1
REMARK  0 active torsions:
REMARK  status: ('A' for Active; 'I' for Inactive)
ROOT
ATOM      1  C   UNL d   1      -4.790  -1.866   5.932  0.00  0.00    -0.002 A 
ATOM      2  C1  UNL d   1      -5.432  -3.096   5.976  0.00  0.00     0.010 A 
ATOM      3  C2  UNL d   1      -4.696  -4.281   5.997  0.00  0.00     0.041 A 
ATOM      4  C3  UNL d   1      -3.289  -4.210   5.976  0.00  0.00    -0.075 A 
ATOM      5  S   UNL d   1      -2.181  -5.531   5.997  0.00  0.00     0.015 SA
ATOM      6  C4  UNL d   1      -0.829  -4.495   5.949  0.00  0.00     0.022 A 
ATOM      7  C5  UNL d   1      -1.195  -3.170   5.918  0.00  0.00     0.026 A 
ATOM      8  C6  UNL d   1      -2.619  -2.984   5.933  0.00  0.00    -0.082 A 
ATOM      9  C7  UNL d   1      -3.394  -1.800   5.911  0.00  0.00     0.045 A 
ENDROOT
TORSDOF 0
ENDMDL
