MODEL 1
REMARK minimizedAffinity -0.0639820546
REMARK minimizedRMSD -1
REMARK  0 active torsions:
REMARK  status: ('A' for Active; 'I' for Inactive)
ROOT
ATOM      1  C1  DEN d   1      -0.031  -0.091   3.394  0.00  0.00     0.130 A 
ATOM      2  C2  DEN d   1      -1.346  -0.666   3.663  0.00  0.00    -0.031 A 
ATOM      3  C3  DEN d   1      -2.120  -0.643   2.406  0.00  0.00     0.027 A 
ATOM      4  C4  DEN d   1      -1.412   0.219   0.080  0.00  0.00     0.027 A 
ATOM      5  C5  DEN d   1      -0.393   0.807  -0.637  0.00  0.00    -0.003 A 
ATOM      6  C6  DEN d   1       0.795   1.165  -0.057  0.00  0.00     0.001 A 
ATOM      7  C7  DEN d   1       1.012   0.897   1.269  0.00  0.00     0.017 A 
ATOM      8  C8  DEN d   1      -0.013   0.311   2.000  0.00  0.00    -0.094 A 
ATOM      9  C9  DEN d   1      -1.203  -0.054   1.393  0.00  0.00    -0.072 A 
ENDROOT
TORSDOF 0
ENDMDL
