MODEL 1
REMARK minimizedAffinity 8.62878323
REMARK minimizedRMSD -1
REMARK  0 active torsions:
REMARK  status: ('A' for Active; 'I' for Inactive)
ROOT
ATOM      1  C1  DEN d   1      -2.410  -1.158   0.782  0.00  0.00     0.130 A 
ATOM      2  C2  DEN d   1      -1.956  -0.236  -0.255  0.00  0.00    -0.031 A 
ATOM      3  C3  DEN d   1      -0.854   0.573   0.303  0.00  0.00     0.027 A 
ATOM      4  C4  DEN d   1       0.193   0.483   2.659  0.00  0.00     0.027 A 
ATOM      5  C5  DEN d   1       0.135  -0.131   3.890  0.00  0.00    -0.003 A 
ATOM      6  C6  DEN d   1      -0.791  -1.099   4.181  0.00  0.00     0.001 A 
ATOM      7  C7  DEN d   1      -1.667  -1.513   3.212  0.00  0.00     0.017 A 
ATOM      8  C8  DEN d   1      -1.619  -0.893   1.970  0.00  0.00    -0.094 A 
ATOM      9  C9  DEN d   1      -0.668   0.074   1.693  0.00  0.00    -0.072 A 
ENDROOT
TORSDOF 0
ENDMDL
