MODEL 1
REMARK minimizedAffinity 2.69271541
REMARK minimizedRMSD -1
REMARK  0 active torsions:
REMARK  status: ('A' for Active; 'I' for Inactive)
ROOT
ATOM      1  C1  DEN d   1      -1.617   0.892   0.472  0.00  0.00     0.130 A 
ATOM      2  C2  DEN d   1      -2.935   0.264   0.481  0.00  0.00    -0.031 A 
ATOM      3  C3  DEN d   1      -2.940  -0.773   1.532  0.00  0.00     0.027 A 
ATOM      4  C4  DEN d   1      -1.045  -1.459   3.142  0.00  0.00     0.027 A 
ATOM      5  C5  DEN d   1       0.262  -1.219   3.506  0.00  0.00    -0.003 A 
ATOM      6  C6  DEN d   1       1.038  -0.289   2.866  0.00  0.00     0.001 A 
ATOM      7  C7  DEN d   1       0.500   0.467   1.858  0.00  0.00     0.017 A 
ATOM      8  C8  DEN d   1      -0.815   0.225   1.481  0.00  0.00    -0.094 A 
ATOM      9  C9  DEN d   1      -1.587  -0.711   2.148  0.00  0.00    -0.072 A 
ENDROOT
TORSDOF 0
ENDMDL
