MODEL 1
REMARK minimizedAffinity 1.96171629
REMARK minimizedRMSD -1
REMARK  0 active torsions:
REMARK  status: ('A' for Active; 'I' for Inactive)
ROOT
ATOM      1  C1  DEN d   1      -2.229  -0.210  -0.180  0.00  0.00     0.130 A 
ATOM      2  C2  DEN d   1      -1.483   0.722  -1.020  0.00  0.00    -0.031 A 
ATOM      3  C3  DEN d   1      -0.418   1.328  -0.196  0.00  0.00     0.027 A 
ATOM      4  C4  DEN d   1       0.148   0.912   2.286  0.00  0.00     0.027 A 
ATOM      5  C5  DEN d   1      -0.213   0.216   3.418  0.00  0.00    -0.003 A 
ATOM      6  C6  DEN d   1      -1.284  -0.638   3.440  0.00  0.00     0.001 A 
ATOM      7  C7  DEN d   1      -2.004  -0.852   2.294  0.00  0.00     0.017 A 
ATOM      8  C8  DEN d   1      -1.650  -0.149   1.150  0.00  0.00    -0.094 A 
ATOM      9  C9  DEN d   1      -0.557   0.701   1.146  0.00  0.00    -0.072 A 
ENDROOT
TORSDOF 0
ENDMDL
