MODEL 1
REMARK minimizedAffinity 10.0960627
REMARK minimizedRMSD -1
REMARK  0 active torsions:
REMARK  status: ('A' for Active; 'I' for Inactive)
ROOT
ATOM      1  C1  DEN d   1       0.919   0.399   3.569  0.00  0.00     0.130 A 
ATOM      2  C2  DEN d   1       1.343   1.449   2.648  0.00  0.00    -0.031 A 
ATOM      3  C3  DEN d   1       0.451   1.413   1.472  0.00  0.00     0.027 A 
ATOM      4  C4  DEN d   1      -1.541  -0.155   0.994  0.00  0.00     0.027 A 
ATOM      5  C5  DEN d   1      -2.277  -1.214   1.477  0.00  0.00    -0.003 A 
ATOM      6  C6  DEN d   1      -1.980  -1.827   2.666  0.00  0.00     0.001 A 
ATOM      7  C7  DEN d   1      -0.948  -1.356   3.434  0.00  0.00     0.017 A 
ATOM      8  C8  DEN d   1      -0.197  -0.293   2.950  0.00  0.00    -0.094 A 
ATOM      9  C9  DEN d   1      -0.520   0.321   1.752  0.00  0.00    -0.072 A 
ENDROOT
TORSDOF 0
ENDMDL
