MODEL 1
REMARK minimizedAffinity -3.78422332
REMARK minimizedRMSD -1
REMARK  0 active torsions:
REMARK  status: ('A' for Active; 'I' for Inactive)
ROOT
ATOM      1  C1  DEN d   1       5.516  -5.167   5.051  0.00  0.00     0.130 A 
ATOM      2  C2  DEN d   1       5.366  -5.938   3.820  0.00  0.00    -0.031 A 
ATOM      3  C3  DEN d   1       5.458  -5.002   2.681  0.00  0.00     0.027 A 
ATOM      4  C4  DEN d   1       5.820  -2.449   2.705  0.00  0.00     0.027 A 
ATOM      5  C5  DEN d   1       5.990  -1.347   3.514  0.00  0.00    -0.003 A 
ATOM      6  C6  DEN d   1       5.980  -1.435   4.881  0.00  0.00     0.001 A 
ATOM      7  C7  DEN d   1       5.841  -2.659   5.481  0.00  0.00     0.017 A 
ATOM      8  C8  DEN d   1       5.662  -3.774   4.672  0.00  0.00    -0.094 A 
ATOM      9  C9  DEN d   1       5.687  -3.665   3.292  0.00  0.00    -0.072 A 
ENDROOT
TORSDOF 0
ENDMDL
