MODEL 1
REMARK minimizedAffinity 10.9253864
REMARK minimizedRMSD -1
REMARK  0 active torsions:
REMARK  status: ('A' for Active; 'I' for Inactive)
ROOT
ATOM      1  C1  DEN d   1      -0.678   0.912  -0.680  0.00  0.00     0.130 A 
ATOM      2  C2  DEN d   1      -2.099   0.589  -0.578  0.00  0.00    -0.031 A 
ATOM      3  C3  DEN d   1      -2.335  -0.015   0.749  0.00  0.00     0.027 A 
ATOM      4  C4  DEN d   1      -0.650  -0.472   2.647  0.00  0.00     0.027 A 
ATOM      5  C5  DEN d   1       0.672  -0.380   3.021  0.00  0.00    -0.003 A 
ATOM      6  C6  DEN d   1       1.635   0.115   2.181  0.00  0.00     0.001 A 
ATOM      7  C7  DEN d   1       1.282   0.577   0.941  0.00  0.00     0.017 A 
ATOM      8  C8  DEN d   1      -0.048   0.480   0.555  0.00  0.00    -0.094 A 
ATOM      9  C9  DEN d   1      -1.009  -0.011   1.422  0.00  0.00    -0.072 A 
ENDROOT
TORSDOF 0
ENDMDL
