MODEL 1
REMARK minimizedAffinity 20.4837151
REMARK minimizedRMSD -1
REMARK  0 active torsions:
REMARK  status: ('A' for Active; 'I' for Inactive)
ROOT
ATOM      1  C1  DEN d   1       3.155   1.377  -5.733  0.00  0.00     0.130 A 
ATOM      2  C2  DEN d   1       1.813   0.866  -6.000  0.00  0.00    -0.031 A 
ATOM      3  C3  DEN d   1       0.846   1.940  -5.696  0.00  0.00     0.027 A 
ATOM      4  C4  DEN d   1       1.296   4.334  -4.846  0.00  0.00     0.027 A 
ATOM      5  C5  DEN d   1       2.275   5.223  -4.461  0.00  0.00    -0.003 A 
ATOM      6  C6  DEN d   1       3.602   4.885  -4.441  0.00  0.00     0.001 A 
ATOM      7  C7  DEN d   1       3.991   3.639  -4.856  0.00  0.00     0.017 A 
ATOM      8  C8  DEN d   1       3.009   2.734  -5.238  0.00  0.00    -0.094 A 
ATOM      9  C9  DEN d   1       1.673   3.099  -5.263  0.00  0.00    -0.072 A 
ENDROOT
TORSDOF 0
ENDMDL
