MODEL 1
REMARK minimizedAffinity 5.84522104
REMARK minimizedRMSD -1
REMARK  0 active torsions:
REMARK  status: ('A' for Active; 'I' for Inactive)
ROOT
ATOM      1  C1  DEN d   1      -0.759   2.441   3.636  0.00  0.00     0.130 A 
ATOM      2  C2  DEN d   1      -2.069   2.907   4.082  0.00  0.00    -0.031 A 
ATOM      3  C3  DEN d   1      -2.849   1.731   4.515  0.00  0.00     0.027 A 
ATOM      4  C4  DEN d   1      -2.158  -0.754   4.543  0.00  0.00     0.027 A 
ATOM      5  C5  DEN d   1      -1.147  -1.641   4.248  0.00  0.00    -0.003 A 
ATOM      6  C6  DEN d   1       0.042  -1.238   3.700  0.00  0.00     0.001 A 
ATOM      7  C7  DEN d   1       0.267   0.094   3.473  0.00  0.00     0.017 A 
ATOM      8  C8  DEN d   1      -0.750   0.994   3.762  0.00  0.00    -0.094 A 
ATOM      9  C9  DEN d   1      -1.941   0.568   4.326  0.00  0.00    -0.072 A 
ENDROOT
TORSDOF 0
ENDMDL
