MODEL 1
REMARK minimizedAffinity 0.996568561
REMARK minimizedRMSD -1
REMARK  0 active torsions:
REMARK  status: ('A' for Active; 'I' for Inactive)
ROOT
ATOM      1  C1  DEN d   1       3.691   2.321  -1.689  0.00  0.00     0.130 A 
ATOM      2  C2  DEN d   1       2.474   2.749  -1.005  0.00  0.00    -0.031 A 
ATOM      3  C3  DEN d   1       1.887   3.865  -1.774  0.00  0.00     0.027 A 
ATOM      4  C4  DEN d   1       2.736   4.960  -3.950  0.00  0.00     0.027 A 
ATOM      5  C5  DEN d   1       3.734   4.945  -4.898  0.00  0.00    -0.003 A 
ATOM      6  C6  DEN d   1       4.797   4.084  -4.826  0.00  0.00     0.001 A 
ATOM      7  C7  DEN d   1       4.863   3.171  -3.807  0.00  0.00     0.017 A 
ATOM      8  C8  DEN d   1       3.864   3.185  -2.842  0.00  0.00    -0.094 A 
ATOM      9  C9  DEN d   1       2.791   4.055  -2.940  0.00  0.00    -0.072 A 
ENDROOT
TORSDOF 0
ENDMDL
