MODEL 1
REMARK minimizedAffinity 8.77753639
REMARK minimizedRMSD -1
REMARK  0 active torsions:
REMARK  status: ('A' for Active; 'I' for Inactive)
ROOT
ATOM      1  C1  DEN d   1      -1.033  -0.545  -0.801  0.00  0.00     0.130 A 
ATOM      2  C2  DEN d   1      -2.135  -0.678  -1.750  0.00  0.00    -0.031 A 
ATOM      3  C3  DEN d   1      -3.368  -0.211  -1.085  0.00  0.00     0.027 A 
ATOM      4  C4  DEN d   1      -3.676   0.704   1.306  0.00  0.00     0.027 A 
ATOM      5  C5  DEN d   1      -3.032   0.994   2.489  0.00  0.00    -0.003 A 
ATOM      6  C6  DEN d   1      -1.694   0.761   2.668  0.00  0.00     0.001 A 
ATOM      7  C7  DEN d   1      -0.947   0.265   1.632  0.00  0.00     0.017 A 
ATOM      8  C8  DEN d   1      -1.591  -0.037   0.439  0.00  0.00    -0.094 A 
ATOM      9  C9  DEN d   1      -2.942   0.217   0.274  0.00  0.00    -0.072 A 
ENDROOT
TORSDOF 0
ENDMDL
