MODEL 1
REMARK minimizedAffinity 11.3165722
REMARK minimizedRMSD -1
REMARK  0 active torsions:
REMARK  status: ('A' for Active; 'I' for Inactive)
ROOT
ATOM      1  C1  DEN d   1      -2.833  -1.415   1.113  0.00  0.00     0.130 A 
ATOM      2  C2  DEN d   1      -3.317  -0.085   0.754  0.00  0.00    -0.031 A 
ATOM      3  C3  DEN d   1      -2.448   0.911   1.413  0.00  0.00     0.027 A 
ATOM      4  C4  DEN d   1      -0.407   0.524   2.942  0.00  0.00     0.027 A 
ATOM      5  C5  DEN d   1       0.379  -0.433   3.544  0.00  0.00    -0.003 A 
ATOM      6  C6  DEN d   1       0.131  -1.773   3.407  0.00  0.00     0.001 A 
ATOM      7  C7  DEN d   1      -0.902  -2.195   2.612  0.00  0.00     0.017 A 
ATOM      8  C8  DEN d   1      -1.704  -1.235   2.008  0.00  0.00    -0.094 A 
ATOM      9  C9  DEN d   1      -1.430   0.114   2.149  0.00  0.00    -0.072 A 
ENDROOT
TORSDOF 0
ENDMDL
