MODEL 1
REMARK minimizedAffinity 2.66230273
REMARK minimizedRMSD -1
REMARK  0 active torsions:
REMARK  status: ('A' for Active; 'I' for Inactive)
ROOT
ATOM      1  C1  DEN d   1       4.344  -2.483   1.877  0.00  0.00     0.130 A 
ATOM      2  C2  DEN d   1       5.201  -1.454   2.461  0.00  0.00    -0.031 A 
ATOM      3  C3  DEN d   1       6.000  -2.080   3.534  0.00  0.00     0.027 A 
ATOM      4  C4  DEN d   1       5.997  -4.531   4.339  0.00  0.00     0.027 A 
ATOM      5  C5  DEN d   1       5.429  -5.772   4.155  0.00  0.00    -0.003 A 
ATOM      6  C6  DEN d   1       4.444  -5.995   3.230  0.00  0.00     0.001 A 
ATOM      7  C7  DEN d   1       4.028  -4.970   2.422  0.00  0.00     0.017 A 
ATOM      8  C8  DEN d   1       4.591  -3.714   2.606  0.00  0.00    -0.094 A 
ATOM      9  C9  DEN d   1       5.594  -3.512   3.539  0.00  0.00    -0.072 A 
ENDROOT
TORSDOF 0
ENDMDL
