MODEL 1
REMARK minimizedAffinity 9.64297485
REMARK minimizedRMSD -1
REMARK  0 active torsions:
REMARK  status: ('A' for Active; 'I' for Inactive)
ROOT
ATOM      1  C1  DEN d   1      -0.851   0.505   0.275  0.00  0.00     0.130 A 
ATOM      2  C2  DEN d   1      -2.089  -0.054  -0.261  0.00  0.00    -0.031 A 
ATOM      3  C3  DEN d   1      -2.767  -0.787   0.827  0.00  0.00     0.027 A 
ATOM      4  C4  DEN d   1      -2.025  -1.107   3.277  0.00  0.00     0.027 A 
ATOM      5  C5  DEN d   1      -1.038  -0.827   4.196  0.00  0.00    -0.003 A 
ATOM      6  C6  DEN d   1       0.088  -0.119   3.867  0.00  0.00     0.001 A 
ATOM      7  C7  DEN d   1       0.233   0.373   2.597  0.00  0.00     0.017 A 
ATOM      8  C8  DEN d   1      -0.755   0.089   1.662  0.00  0.00    -0.094 A 
ATOM      9  C9  DEN d   1      -1.891  -0.618   2.018  0.00  0.00    -0.072 A 
ENDROOT
TORSDOF 0
ENDMDL
