MODEL 1
REMARK minimizedAffinity 8.84518051
REMARK minimizedRMSD -1
REMARK  0 active torsions:
REMARK  status: ('A' for Active; 'I' for Inactive)
ROOT
ATOM      1  C1  DEN d   1      -1.842   0.851   0.287  0.00  0.00     0.130 A 
ATOM      2  C2  DEN d   1      -2.648   1.124   1.474  0.00  0.00    -0.031 A 
ATOM      3  C3  DEN d   1      -1.768   1.023   2.656  0.00  0.00     0.027 A 
ATOM      4  C4  DEN d   1       0.750   0.477   2.762  0.00  0.00     0.027 A 
ATOM      5  C5  DEN d   1       1.863   0.159   2.015  0.00  0.00    -0.003 A 
ATOM      6  C6  DEN d   1       1.811   0.018   0.653  0.00  0.00     0.001 A 
ATOM      7  C7  DEN d   1       0.632   0.239  -0.008  0.00  0.00     0.017 A 
ATOM      8  C8  DEN d   1      -0.495   0.552   0.740  0.00  0.00    -0.094 A 
ATOM      9  C9  DEN d   1      -0.420   0.702   2.114  0.00  0.00    -0.072 A 
ENDROOT
TORSDOF 0
ENDMDL
