MODEL 1
REMARK minimizedAffinity 3.7743504
REMARK minimizedRMSD -1
REMARK  0 active torsions:
REMARK  status: ('A' for Active; 'I' for Inactive)
ROOT
ATOM      1  O1  BZF d   1      -1.553   0.434   3.178  0.00  0.00    -0.204 OA
ATOM      2  C2  BZF d   1      -0.762  -0.698   3.212  0.00  0.00     0.174 A 
ATOM      3  C3  BZF d   1      -0.993  -1.475   2.134  0.00  0.00    -0.012 A 
ATOM      4  C3A BZF d   1      -1.924  -0.740   1.333  0.00  0.00    -0.107 A 
ATOM      5  C4  BZF d   1      -2.524  -0.982   0.130  0.00  0.00     0.055 A 
ATOM      6  C5  BZF d   1      -3.439  -0.096  -0.341  0.00  0.00    -0.016 A 
ATOM      7  C6  BZF d   1      -3.782   1.039   0.364  0.00  0.00     0.022 A 
ATOM      8  C7  BZF d   1      -3.210   1.324   1.559  0.00  0.00     0.029 A 
ATOM      9  C7A BZF d   1      -2.260   0.447   2.023  0.00  0.00     0.058 A 
ENDROOT
TORSDOF 0
ENDMDL
