MODEL 1
REMARK minimizedAffinity -0.283839464
REMARK minimizedRMSD -1
REMARK  0 active torsions:
REMARK  status: ('A' for Active; 'I' for Inactive)
ROOT
ATOM      1  O1  BZF d   1       0.029  -0.267  -6.000  0.00  0.00    -0.204 OA
ATOM      2  C2  BZF d   1      -0.240   0.687  -5.038  0.00  0.00     0.174 A 
ATOM      3  C3  BZF d   1      -0.492   0.107  -3.846  0.00  0.00    -0.012 A 
ATOM      4  C3A BZF d   1      -0.281  -1.293  -4.057  0.00  0.00    -0.107 A 
ATOM      5  C4  BZF d   1      -0.360  -2.387  -3.244  0.00  0.00     0.055 A 
ATOM      6  C5  BZF d   1      -0.165  -3.621  -3.777  0.00  0.00    -0.016 A 
ATOM      7  C6  BZF d   1       0.105  -3.799  -5.118  0.00  0.00     0.022 A 
ATOM      8  C7  BZF d   1       0.198  -2.743  -5.963  0.00  0.00     0.029 A 
ATOM      9  C7A BZF d   1       0.034  -1.492  -5.421  0.00  0.00     0.058 A 
ENDROOT
TORSDOF 0
ENDMDL
