MODEL 1
REMARK minimizedAffinity 6.51384306
REMARK minimizedRMSD -1
REMARK  0 active torsions:
REMARK  status: ('A' for Active; 'I' for Inactive)
ROOT
ATOM      1  O1  BZF d   1       1.871   0.402  -6.000  0.00  0.00    -0.204 OA
ATOM      2  C2  BZF d   1       2.956  -0.131  -5.331  0.00  0.00     0.174 A 
ATOM      3  C3  BZF d   1       2.557  -1.041  -4.420  0.00  0.00    -0.012 A 
ATOM      4  C3A BZF d   1       1.140  -1.147  -4.589  0.00  0.00    -0.107 A 
ATOM      5  C4  BZF d   1       0.176  -1.901  -3.983  0.00  0.00     0.055 A 
ATOM      6  C5  BZF d   1      -1.124  -1.713  -4.330  0.00  0.00    -0.016 A 
ATOM      7  C6  BZF d   1      -1.496  -0.778  -5.274  0.00  0.00     0.022 A 
ATOM      8  C7  BZF d   1      -0.575  -0.011  -5.906  0.00  0.00     0.029 A 
ATOM      9  C7A BZF d   1       0.743  -0.221  -5.581  0.00  0.00     0.058 A 
ENDROOT
TORSDOF 0
ENDMDL
