MODEL 1
REMARK minimizedAffinity 8.08362198
REMARK minimizedRMSD -1
REMARK  0 active torsions:
REMARK  status: ('A' for Active; 'I' for Inactive)
ROOT
ATOM      1  O1  BZF d   1      -0.318  -0.571  -4.140  0.00  0.00    -0.204 OA
ATOM      2  C2  BZF d   1      -1.381  -1.154  -3.477  0.00  0.00     0.174 A 
ATOM      3  C3  BZF d   1      -0.943  -1.992  -2.515  0.00  0.00    -0.012 A 
ATOM      4  C3A BZF d   1       0.482  -1.858  -2.520  0.00  0.00    -0.107 A 
ATOM      5  C4  BZF d   1       1.480  -2.423  -1.779  0.00  0.00     0.055 A 
ATOM      6  C5  BZF d   1       2.773  -2.135  -2.084  0.00  0.00    -0.016 A 
ATOM      7  C6  BZF d   1       3.103  -1.292  -3.124  0.00  0.00     0.022 A 
ATOM      8  C7  BZF d   1       2.147  -0.704  -3.884  0.00  0.00     0.029 A 
ATOM      9  C7A BZF d   1       0.839  -0.967  -3.558  0.00  0.00     0.058 A 
ENDROOT
TORSDOF 0
ENDMDL
