MODEL 1
REMARK minimizedAffinity 2.60758281
REMARK minimizedRMSD -1
REMARK  0 active torsions:
REMARK  status: ('A' for Active; 'I' for Inactive)
ROOT
ATOM      1  O1  BZF d   1       0.708  -2.711   3.387  0.00  0.00    -0.204 OA
ATOM      2  C2  BZF d   1       1.827  -1.903   3.319  0.00  0.00     0.174 A 
ATOM      3  C3  BZF d   1       1.536  -0.733   2.715  0.00  0.00    -0.012 A 
ATOM      4  C3A BZF d   1       0.128  -0.777   2.466  0.00  0.00    -0.107 A 
ATOM      5  C4  BZF d   1      -0.754   0.100   1.903  0.00  0.00     0.055 A 
ATOM      6  C5  BZF d   1      -2.050  -0.277   1.743  0.00  0.00    -0.016 A 
ATOM      7  C6  BZF d   1      -2.496  -1.524   2.130  0.00  0.00     0.022 A 
ATOM      8  C7  BZF d   1      -1.659  -2.426   2.698  0.00  0.00     0.029 A 
ATOM      9  C7A BZF d   1      -0.357  -2.036   2.891  0.00  0.00     0.058 A 
ENDROOT
TORSDOF 0
ENDMDL
