MODEL 1
REMARK minimizedAffinity -0.0727648959
REMARK minimizedRMSD -1
REMARK  0 active torsions:
REMARK  status: ('A' for Active; 'I' for Inactive)
ROOT
ATOM      1  O1  BZF d   1       0.440  -2.046   3.633  0.00  0.00    -0.204 OA
ATOM      2  C2  BZF d   1       1.565  -1.311   3.309  0.00  0.00     0.174 A 
ATOM      3  C3  BZF d   1       1.271  -0.365   2.394  0.00  0.00    -0.012 A 
ATOM      4  C3A BZF d   1      -0.143  -0.457   2.198  0.00  0.00    -0.107 A 
ATOM      5  C4  BZF d   1      -1.030   0.230   1.420  0.00  0.00     0.055 A 
ATOM      6  C5  BZF d   1      -2.333  -0.156   1.404  0.00  0.00    -0.016 A 
ATOM      7  C6  BZF d   1      -2.782  -1.227   2.149  0.00  0.00     0.022 A 
ATOM      8  C7  BZF d   1      -1.940  -1.937   2.939  0.00  0.00     0.029 A 
ATOM      9  C7A BZF d   1      -0.630  -1.528   2.983  0.00  0.00     0.058 A 
ENDROOT
TORSDOF 0
ENDMDL
