MODEL 1
REMARK minimizedAffinity 5.49599123
REMARK minimizedRMSD -1
REMARK  0 active torsions:
REMARK  status: ('A' for Active; 'I' for Inactive)
ROOT
ATOM      1  O1  BZF d   1       2.933  -0.499   4.600  0.00  0.00    -0.204 OA
ATOM      2  C2  BZF d   1       2.545  -0.642   5.918  0.00  0.00     0.174 A 
ATOM      3  C3  BZF d   1       1.308  -1.171   5.999  0.00  0.00    -0.012 A 
ATOM      4  C3A BZF d   1       0.933  -1.459   4.648  0.00  0.00    -0.107 A 
ATOM      5  C4  BZF d   1      -0.180  -2.010   4.079  0.00  0.00     0.055 A 
ATOM      6  C5  BZF d   1      -0.262  -2.084   2.725  0.00  0.00    -0.016 A 
ATOM      7  C6  BZF d   1       0.746  -1.611   1.910  0.00  0.00     0.022 A 
ATOM      8  C7  BZF d   1       1.871  -1.061   2.428  0.00  0.00     0.029 A 
ATOM      9  C7A BZF d   1       1.971  -1.015   3.797  0.00  0.00     0.058 A 
ENDROOT
TORSDOF 0
ENDMDL
