MODEL 1
REMARK minimizedAffinity 1.42706263
REMARK minimizedRMSD -1
REMARK  0 active torsions:
REMARK  status: ('A' for Active; 'I' for Inactive)
ROOT
ATOM      1  O1  BZF d   1      -1.715   0.625   1.579  0.00  0.00    -0.204 OA
ATOM      2  C2  BZF d   1      -2.866  -0.135   1.635  0.00  0.00     0.174 A 
ATOM      3  C3  BZF d   1      -2.597  -1.379   2.081  0.00  0.00    -0.012 A 
ATOM      4  C3A BZF d   1      -1.204  -1.369   2.407  0.00  0.00    -0.107 A 
ATOM      5  C4  BZF d   1      -0.351  -2.307   2.914  0.00  0.00     0.055 A 
ATOM      6  C5  BZF d   1       0.966  -2.001   3.045  0.00  0.00    -0.016 A 
ATOM      7  C6  BZF d   1       1.465  -0.769   2.676  0.00  0.00     0.022 A 
ATOM      8  C7  BZF d   1       0.657   0.197   2.174  0.00  0.00     0.029 A 
ATOM      9  C7A BZF d   1      -0.681  -0.099   2.071  0.00  0.00     0.058 A 
ENDROOT
TORSDOF 0
ENDMDL
