MODEL 1
REMARK minimizedAffinity 5.57111359
REMARK minimizedRMSD -1
REMARK  0 active torsions:
REMARK  status: ('A' for Active; 'I' for Inactive)
ROOT
ATOM      1  O1  BZF d   1       0.682  -2.598   3.113  0.00  0.00    -0.204 OA
ATOM      2  C2  BZF d   1       1.803  -1.790   3.100  0.00  0.00     0.174 A 
ATOM      3  C3  BZF d   1       1.540  -0.618   2.488  0.00  0.00    -0.012 A 
ATOM      4  C3A BZF d   1       0.144  -0.661   2.175  0.00  0.00    -0.107 A 
ATOM      5  C4  BZF d   1      -0.712   0.218   1.576  0.00  0.00     0.055 A 
ATOM      6  C5  BZF d   1      -1.999  -0.158   1.355  0.00  0.00    -0.016 A 
ATOM      7  C6  BZF d   1      -2.462  -1.407   1.716  0.00  0.00     0.022 A 
ATOM      8  C7  BZF d   1      -1.652  -2.311   2.319  0.00  0.00     0.029 A 
ATOM      9  C7A BZF d   1      -0.359  -1.922   2.572  0.00  0.00     0.058 A 
ENDROOT
TORSDOF 0
ENDMDL
