MODEL 1
REMARK minimizedAffinity 8.86960793
REMARK minimizedRMSD -1
REMARK  0 active torsions:
REMARK  status: ('A' for Active; 'I' for Inactive)
ROOT
ATOM      1  O1  BZF d   1       0.610  -2.583   2.655  0.00  0.00    -0.204 OA
ATOM      2  C2  BZF d   1       1.817  -2.141   3.161  0.00  0.00     0.174 A 
ATOM      3  C3  BZF d   1       1.935  -0.805   3.021  0.00  0.00    -0.012 A 
ATOM      4  C3A BZF d   1       0.686  -0.373   2.472  0.00  0.00    -0.107 A 
ATOM      5  C4  BZF d   1       0.187   0.849   2.123  0.00  0.00     0.055 A 
ATOM      6  C5  BZF d   1      -1.041   0.920   1.546  0.00  0.00    -0.016 A 
ATOM      7  C6  BZF d   1      -1.794  -0.209   1.299  0.00  0.00     0.022 A 
ATOM      8  C7  BZF d   1      -1.343  -1.443   1.633  0.00  0.00     0.029 A 
ATOM      9  C7A BZF d   1      -0.116  -1.515   2.246  0.00  0.00     0.058 A 
ENDROOT
TORSDOF 0
ENDMDL
