MODEL 1
REMARK minimizedAffinity -0.578001976
REMARK minimizedRMSD -1
REMARK  0 active torsions:
REMARK  status: ('A' for Active; 'I' for Inactive)
ROOT
ATOM      1  O1  BZF d   1       1.347   0.286   2.149  0.00  0.00    -0.204 OA
ATOM      2  C2  BZF d   1       2.147  -0.643   2.785  0.00  0.00     0.174 A 
ATOM      3  C3  BZF d   1       1.404  -1.648   3.291  0.00  0.00    -0.012 A 
ATOM      4  C3A BZF d   1       0.064  -1.375   2.870  0.00  0.00    -0.107 A 
ATOM      5  C4  BZF d   1      -1.126  -2.021   3.046  0.00  0.00     0.055 A 
ATOM      6  C5  BZF d   1      -2.263  -1.451   2.569  0.00  0.00    -0.016 A 
ATOM      7  C6  BZF d   1      -2.248  -0.237   1.915  0.00  0.00     0.022 A 
ATOM      8  C7  BZF d   1      -1.091   0.439   1.712  0.00  0.00     0.029 A 
ATOM      9  C7A BZF d   1       0.064  -0.149   2.164  0.00  0.00     0.058 A 
ENDROOT
TORSDOF 0
ENDMDL
