MODEL 1
REMARK minimizedAffinity 5.3504734
REMARK minimizedRMSD -1
REMARK  0 active torsions:
REMARK  status: ('A' for Active; 'I' for Inactive)
ROOT
ATOM      1  O1  BZF d   1       2.119  -1.018  -4.013  0.00  0.00    -0.204 OA
ATOM      2  C2  BZF d   1       2.775  -0.365  -5.038  0.00  0.00     0.174 A 
ATOM      3  C3  BZF d   1       1.907   0.010  -6.000  0.00  0.00    -0.012 A 
ATOM      4  C3A BZF d   1       0.615  -0.356  -5.504  0.00  0.00    -0.107 A 
ATOM      5  C4  BZF d   1      -0.651  -0.229  -5.999  0.00  0.00     0.055 A 
ATOM      6  C5  BZF d   1      -1.690  -0.756  -5.299  0.00  0.00    -0.016 A 
ATOM      7  C6  BZF d   1      -1.498  -1.421  -4.105  0.00  0.00     0.022 A 
ATOM      8  C7  BZF d   1      -0.261  -1.568  -3.572  0.00  0.00     0.029 A 
ATOM      9  C7A BZF d   1       0.787  -1.008  -4.261  0.00  0.00     0.058 A 
ENDROOT
TORSDOF 0
ENDMDL
