MODEL 1
REMARK minimizedAffinity -4.48554182
REMARK minimizedRMSD -1
REMARK  0 active torsions:
REMARK  status: ('A' for Active; 'I' for Inactive)
ROOT
ATOM      1  O1  BZF d   1      -4.422  -0.103   1.628  0.00  0.00    -0.204 OA
ATOM      2  C2  BZF d   1      -4.956  -0.022   0.356  0.00  0.00     0.174 A 
ATOM      3  C3  BZF d   1      -3.995  -0.180  -0.577  0.00  0.00    -0.012 A 
ATOM      4  C3A BZF d   1      -2.800  -0.464   0.158  0.00  0.00    -0.107 A 
ATOM      5  C4  BZF d   1      -1.513  -0.731  -0.210  0.00  0.00     0.055 A 
ATOM      6  C5  BZF d   1      -0.569  -0.891   0.755  0.00  0.00    -0.016 A 
ATOM      7  C6  BZF d   1      -0.877  -0.786   2.095  0.00  0.00     0.022 A 
ATOM      8  C7  BZF d   1      -2.141  -0.527   2.509  0.00  0.00     0.029 A 
ATOM      9  C7A BZF d   1      -3.103  -0.397   1.538  0.00  0.00     0.058 A 
ENDROOT
TORSDOF 0
ENDMDL
