MODEL 1
REMARK minimizedAffinity -1.62398458
REMARK minimizedRMSD -1
REMARK  0 active torsions:
REMARK  status: ('A' for Active; 'I' for Inactive)
ROOT
ATOM      1  C4' PXY d   1       0.784  -3.774  -0.623  0.00  0.00     0.077 C 
ATOM      2  C1' PXY d   1       2.630   1.534   0.729  0.00  0.00     0.077 C 
ATOM      3  C1  PXY d   1       2.157   0.137   0.379  0.00  0.00    -0.082 A 
ATOM      4  C2  PXY d   1       1.283  -0.032  -0.600  0.00  0.00     0.003 A 
ATOM      5  C3  PXY d   1       0.820  -1.285  -0.908  0.00  0.00     0.003 A 
ATOM      6  C4  PXY d   1       1.297  -2.383  -0.242  0.00  0.00    -0.082 A 
ATOM      7  C5  PXY d   1       2.197  -2.220   0.751  0.00  0.00     0.003 A 
ATOM      8  C6  PXY d   1       2.623  -0.935   1.076  0.00  0.00     0.003 A 
ENDROOT
TORSDOF 0
ENDMDL
