MODEL 1
REMARK minimizedAffinity 7.89126396
REMARK minimizedRMSD -1
REMARK  0 active torsions:
REMARK  status: ('A' for Active; 'I' for Inactive)
ROOT
ATOM      1  C4' PXY d   1      -2.598   1.654  -4.298  0.00  0.00     0.077 C 
ATOM      2  C1' PXY d   1      -5.345  -0.474   0.321  0.00  0.00     0.077 C 
ATOM      3  C1  PXY d   1      -4.634   0.093  -0.892  0.00  0.00    -0.082 A 
ATOM      4  C2  PXY d   1      -3.764  -0.656  -1.550  0.00  0.00     0.003 A 
ATOM      5  C3  PXY d   1      -3.089  -0.149  -2.630  0.00  0.00     0.003 A 
ATOM      6  C4  PXY d   1      -3.346   1.120  -3.074  0.00  0.00    -0.082 A 
ATOM      7  C5  PXY d   1      -4.240   1.887  -2.415  0.00  0.00     0.003 A 
ATOM      8  C6  PXY d   1      -4.885   1.368  -1.296  0.00  0.00     0.003 A 
ENDROOT
TORSDOF 0
ENDMDL
