MODEL 1
REMARK minimizedAffinity 3.84974456
REMARK minimizedRMSD -1
REMARK  0 active torsions:
REMARK  status: ('A' for Active; 'I' for Inactive)
ROOT
ATOM      1  C4' PXY d   1      -2.271   1.287  -4.135  0.00  0.00     0.077 C 
ATOM      2  C1' PXY d   1      -6.000   0.807   0.256  0.00  0.00     0.077 C 
ATOM      3  C1  PXY d   1      -5.012   0.929  -0.887  0.00  0.00    -0.082 A 
ATOM      4  C2  PXY d   1      -5.255   1.777  -1.874  0.00  0.00     0.003 A 
ATOM      5  C3  PXY d   1      -4.388   1.876  -2.932  0.00  0.00     0.003 A 
ATOM      6  C4  PXY d   1      -3.235   1.138  -2.955  0.00  0.00    -0.082 A 
ATOM      7  C5  PXY d   1      -2.975   0.278  -1.947  0.00  0.00     0.003 A 
ATOM      8  C6  PXY d   1      -3.888   0.162  -0.902  0.00  0.00     0.003 A 
ENDROOT
TORSDOF 0
ENDMDL
