MODEL 1
REMARK minimizedAffinity 5.58106756
REMARK minimizedRMSD -1
REMARK  0 active torsions:
REMARK  status: ('A' for Active; 'I' for Inactive)
ROOT
ATOM      1  C4' PXY d   1       0.055  -4.166  -0.078  0.00  0.00     0.077 C 
ATOM      2  C1' PXY d   1       3.528   0.433   0.371  0.00  0.00     0.077 C 
ATOM      3  C1  PXY d   1       2.626  -0.781   0.259  0.00  0.00    -0.082 A 
ATOM      4  C2  PXY d   1       1.701  -0.823  -0.686  0.00  0.00     0.003 A 
ATOM      5  C3  PXY d   1       0.856  -1.899  -0.782  0.00  0.00     0.003 A 
ATOM      6  C4  PXY d   1       0.994  -2.965   0.066  0.00  0.00    -0.082 A 
ATOM      7  C5  PXY d   1       1.942  -2.934   1.026  0.00  0.00     0.003 A 
ATOM      8  C6  PXY d   1       2.763  -1.815   1.132  0.00  0.00     0.003 A 
ENDROOT
TORSDOF 0
ENDMDL
