MODEL 1
REMARK minimizedAffinity 0.194481522
REMARK minimizedRMSD -1
REMARK  0 active torsions:
REMARK  status: ('A' for Active; 'I' for Inactive)
ROOT
ATOM      1  C4' PXY d   1       2.631   1.964   0.474  0.00  0.00     0.077 C 
ATOM      2  C1' PXY d   1       1.061  -3.550  -0.261  0.00  0.00     0.077 C 
ATOM      3  C1  PXY d   1       1.469  -2.102  -0.080  0.00  0.00    -0.082 A 
ATOM      4  C2  PXY d   1       2.394  -1.789   0.813  0.00  0.00     0.003 A 
ATOM      5  C3  PXY d   1       2.751  -0.480   1.012  0.00  0.00     0.003 A 
ATOM      6  C4  PXY d   1       2.195   0.513   0.251  0.00  0.00    -0.082 A 
ATOM      7  C5  PXY d   1       1.259   0.201  -0.669  0.00  0.00     0.003 A 
ATOM      8  C6  PXY d   1       0.880  -1.129  -0.827  0.00  0.00     0.003 A 
ENDROOT
TORSDOF 0
ENDMDL
