MODEL 1
REMARK minimizedAffinity 4.44980526
REMARK minimizedRMSD -1
REMARK  0 active torsions:
REMARK  status: ('A' for Active; 'I' for Inactive)
ROOT
ATOM      1  C4' PXY d   1      -4.161  -0.425  -1.489  0.00  0.00     0.077 C 
ATOM      2  C1' PXY d   1      -6.000   4.699  -3.435  0.00  0.00     0.077 C 
ATOM      3  C1  PXY d   1      -5.522   3.349  -2.935  0.00  0.00    -0.082 A 
ATOM      4  C2  PXY d   1      -5.352   3.155  -1.638  0.00  0.00     0.003 A 
ATOM      5  C3  PXY d   1      -4.891   1.951  -1.171  0.00  0.00     0.003 A 
ATOM      6  C4  PXY d   1      -4.651   0.918  -2.038  0.00  0.00    -0.082 A 
ATOM      7  C5  PXY d   1      -4.832   1.105  -3.362  0.00  0.00     0.003 A 
ATOM      8  C6  PXY d   1      -5.262   2.348  -3.819  0.00  0.00     0.003 A 
ENDROOT
TORSDOF 0
ENDMDL
