MODEL 1
REMARK minimizedAffinity 6.52722645
REMARK minimizedRMSD -1
REMARK  0 active torsions:
REMARK  status: ('A' for Active; 'I' for Inactive)
ROOT
ATOM      1  C4' PXY d   1       2.682   2.529   1.108  0.00  0.00     0.077 C 
ATOM      2  C1' PXY d   1       2.779  -3.134  -0.051  0.00  0.00     0.077 C 
ATOM      3  C1  PXY d   1       2.755  -1.651   0.265  0.00  0.00    -0.082 A 
ATOM      4  C2  PXY d   1       2.159  -0.814  -0.568  0.00  0.00     0.003 A 
ATOM      5  C3  PXY d   1       2.156   0.533  -0.313  0.00  0.00     0.003 A 
ATOM      6  C4  PXY d   1       2.722   1.023   0.833  0.00  0.00    -0.082 A 
ATOM      7  C5  PXY d   1       3.323   0.174   1.694  0.00  0.00     0.003 A 
ATOM      8  C6  PXY d   1       3.352  -1.186   1.396  0.00  0.00     0.003 A 
ENDROOT
TORSDOF 0
ENDMDL
