MODEL 1
REMARK minimizedAffinity 4.60523367
REMARK minimizedRMSD -1
REMARK  0 active torsions:
REMARK  status: ('A' for Active; 'I' for Inactive)
ROOT
ATOM      1  C4' PXY d   1       1.045  -3.906   0.432  0.00  0.00     0.077 C 
ATOM      2  C1' PXY d   1       4.670   0.578   0.835  0.00  0.00     0.077 C 
ATOM      3  C1  PXY d   1       3.729  -0.606   0.734  0.00  0.00    -0.082 A 
ATOM      4  C2  PXY d   1       2.756  -0.593  -0.162  0.00  0.00     0.003 A 
ATOM      5  C3  PXY d   1       1.876  -1.641  -0.245  0.00  0.00     0.003 A 
ATOM      6  C4  PXY d   1       2.025  -2.737   0.562  0.00  0.00    -0.082 A 
ATOM      7  C5  PXY d   1       3.022  -2.762   1.472  0.00  0.00     0.003 A 
ATOM      8  C6  PXY d   1       3.879  -1.670   1.569  0.00  0.00     0.003 A 
ENDROOT
TORSDOF 0
ENDMDL
