MODEL 1
REMARK minimizedAffinity 10.6317253
REMARK minimizedRMSD -1
REMARK  0 active torsions:
REMARK  status: ('A' for Active; 'I' for Inactive)
ROOT
ATOM      1  C4' PXY d   1       1.795  -2.161   3.644  0.00  0.00     0.077 C 
ATOM      2  C1' PXY d   1       3.367  -1.752  -1.904  0.00  0.00     0.077 C 
ATOM      3  C1  PXY d   1       2.967  -1.857  -0.445  0.00  0.00    -0.082 A 
ATOM      4  C2  PXY d   1       1.907  -2.573  -0.108  0.00  0.00     0.003 A 
ATOM      5  C3  PXY d   1       1.513  -2.652   1.203  0.00  0.00     0.003 A 
ATOM      6  C4  PXY d   1       2.242  -2.035   2.184  0.00  0.00    -0.082 A 
ATOM      7  C5  PXY d   1       3.331  -1.311   1.849  0.00  0.00     0.003 A 
ATOM      8  C6  PXY d   1       3.691  -1.210   0.508  0.00  0.00     0.003 A 
ENDROOT
TORSDOF 0
ENDMDL
