MODEL 1
REMARK minimizedAffinity 18.3259888
REMARK minimizedRMSD -1
REMARK  0 active torsions:
REMARK  status: ('A' for Active; 'I' for Inactive)
ROOT
ATOM      1  C   UNL d   1      -2.018  -5.722  -2.599  0.00  0.00     0.124 A 
ATOM      2  C1  UNL d   1      -0.880  -5.728  -1.804  0.00  0.00     0.062 A 
ATOM      3  C2  UNL d   1       0.381  -5.801  -2.388  0.00  0.00     0.162 A 
ATOM      4  C3  UNL d   1       0.512  -5.867  -3.775  0.00  0.00    -0.034 A 
ATOM      5  C4  UNL d   1      -0.637  -5.861  -4.568  0.00  0.00     0.162 A 
ATOM      6  C5  UNL d   1      -1.896  -5.788  -3.980  0.00  0.00     0.062 A 
ATOM      7  F   UNL d   1      -2.994  -5.781  -4.749  0.00  0.00    -0.097 F 
ATOM      8  F1  UNL d   1      -0.548  -5.922  -5.905  0.00  0.00    -0.096 F 
ATOM      9  I   UNL d   1       2.396  -5.976  -4.652  0.00  0.00    -0.060 I 
ATOM     10  F2  UNL d   1       1.463  -5.806  -1.596  0.00  0.00    -0.096 F 
ATOM     11  F3  UNL d   1      -0.996  -5.666  -0.470  0.00  0.00    -0.097 F 
ATOM     12  F4  UNL d   1      -3.231  -5.653  -2.035  0.00  0.00    -0.092 F 
ENDROOT
TORSDOF 0
ENDMDL
