MODEL 1
REMARK minimizedAffinity 17.6729965
REMARK minimizedRMSD -1
REMARK  0 active torsions:
REMARK  status: ('A' for Active; 'I' for Inactive)
ROOT
ATOM      1  C   UNL d   1       0.161  -2.009   0.767  0.00  0.00     0.124 A 
ATOM      2  C1  UNL d   1       1.455  -2.511   0.796  0.00  0.00     0.062 A 
ATOM      3  C2  UNL d   1       2.538  -1.669   0.561  0.00  0.00     0.162 A 
ATOM      4  C3  UNL d   1       2.332  -0.315   0.296  0.00  0.00    -0.034 A 
ATOM      5  C4  UNL d   1       1.028   0.183   0.268  0.00  0.00     0.162 A 
ATOM      6  C5  UNL d   1      -0.051  -0.663   0.503  0.00  0.00     0.062 A 
ATOM      7  F   UNL d   1      -1.300  -0.176   0.474  0.00  0.00    -0.097 F 
ATOM      8  F1  UNL d   1       0.794   1.479   0.016  0.00  0.00    -0.096 F 
ATOM      9  I   UNL d   1       3.949   0.948  -0.055  0.00  0.00    -0.060 I 
ATOM     10  F2  UNL d   1       3.777  -2.181   0.595  0.00  0.00    -0.096 F 
ATOM     11  F3  UNL d   1       1.662  -3.811   1.049  0.00  0.00    -0.097 F 
ATOM     12  F4  UNL d   1      -0.879  -2.822   0.992  0.00  0.00    -0.092 F 
ENDROOT
TORSDOF 0
ENDMDL
