MODEL 1
REMARK minimizedAffinity 7.41458607
REMARK minimizedRMSD -1
REMARK  0 active torsions:
REMARK  status: ('A' for Active; 'I' for Inactive)
ROOT
ATOM      1  C   UNL d   1       1.306  -5.992  -3.464  0.00  0.00     0.124 A 
ATOM      2  C1  UNL d   1       0.702  -5.993  -2.214  0.00  0.00     0.062 A 
ATOM      3  C2  UNL d   1      -0.686  -5.994  -2.107  0.00  0.00     0.162 A 
ATOM      4  C3  UNL d   1      -1.480  -5.996  -3.254  0.00  0.00    -0.034 A 
ATOM      5  C4  UNL d   1      -0.866  -5.994  -4.507  0.00  0.00     0.162 A 
ATOM      6  C5  UNL d   1       0.522  -5.993  -4.609  0.00  0.00     0.062 A 
ATOM      7  F   UNL d   1       1.103  -5.992  -5.817  0.00  0.00    -0.097 F 
ATOM      8  F1  UNL d   1      -1.599  -5.996  -5.630  0.00  0.00    -0.096 F 
ATOM      9  I   UNL d   1      -3.555  -5.998  -3.098  0.00  0.00    -0.060 I 
ATOM     10  F2  UNL d   1      -1.242  -5.995  -0.886  0.00  0.00    -0.096 F 
ATOM     11  F3  UNL d   1       1.457  -5.991  -1.106  0.00  0.00    -0.097 F 
ATOM     12  F4  UNL d   1       2.641  -5.990  -3.564  0.00  0.00    -0.092 F 
ENDROOT
TORSDOF 0
ENDMDL
