MODEL 1
REMARK minimizedAffinity 9.49181271
REMARK minimizedRMSD -1
REMARK  0 active torsions:
REMARK  status: ('A' for Active; 'I' for Inactive)
ROOT
ATOM      1  C   UNL d   1       3.789   4.955   0.585  0.00  0.00     0.124 A 
ATOM      2  C1  UNL d   1       2.438   4.917   0.901  0.00  0.00     0.062 A 
ATOM      3  C2  UNL d   1       1.657   3.835   0.506  0.00  0.00     0.162 A 
ATOM      4  C3  UNL d   1       2.225   2.781  -0.209  0.00  0.00    -0.034 A 
ATOM      5  C4  UNL d   1       3.585   2.827  -0.524  0.00  0.00     0.162 A 
ATOM      6  C5  UNL d   1       4.361   3.910  -0.127  0.00  0.00     0.062 A 
ATOM      7  F   UNL d   1       5.666   3.946  -0.433  0.00  0.00    -0.097 F 
ATOM      8  F1  UNL d   1       4.163   1.830  -1.211  0.00  0.00    -0.096 F 
ATOM      9  I   UNL d   1       1.061   1.161  -0.803  0.00  0.00    -0.060 I 
ATOM     10  F2  UNL d   1       0.354   3.824   0.825  0.00  0.00    -0.096 F 
ATOM     11  F3  UNL d   1       1.883   5.926   1.588  0.00  0.00    -0.097 F 
ATOM     12  F4  UNL d   1       4.538   5.998   0.966  0.00  0.00    -0.092 F 
ENDROOT
TORSDOF 0
ENDMDL
