MODEL 1
REMARK minimizedAffinity 13.2363176
REMARK minimizedRMSD -1
REMARK  0 active torsions:
REMARK  status: ('A' for Active; 'I' for Inactive)
ROOT
ATOM      1  C   UNL d   1      -0.927  -1.746   0.359  0.00  0.00     0.124 A 
ATOM      2  C1  UNL d   1       0.069  -2.694   0.547  0.00  0.00     0.062 A 
ATOM      3  C2  UNL d   1       1.382  -2.293   0.779  0.00  0.00     0.162 A 
ATOM      4  C3  UNL d   1       1.706  -0.937   0.825  0.00  0.00    -0.034 A 
ATOM      5  C4  UNL d   1       0.699   0.010   0.634  0.00  0.00     0.162 A 
ATOM      6  C5  UNL d   1      -0.611  -0.395   0.402  0.00  0.00     0.062 A 
ATOM      7  F   UNL d   1      -1.572   0.522   0.220  0.00  0.00    -0.097 F 
ATOM      8  F1  UNL d   1       0.976   1.322   0.672  0.00  0.00    -0.096 F 
ATOM      9  I   UNL d   1       3.668  -0.334   1.172  0.00  0.00    -0.060 I 
ATOM     10  F2  UNL d   1       2.324  -3.231   0.958  0.00  0.00    -0.096 F 
ATOM     11  F3  UNL d   1      -0.233  -3.999   0.504  0.00  0.00    -0.097 F 
ATOM     12  F4  UNL d   1      -2.189  -2.134   0.134  0.00  0.00    -0.092 F 
ENDROOT
TORSDOF 0
ENDMDL
