MODEL 1
REMARK minimizedAffinity 11.7195549
REMARK minimizedRMSD -1
REMARK  0 active torsions:
REMARK  status: ('A' for Active; 'I' for Inactive)
ROOT
ATOM      1  C   UNL d   1       0.111  -5.317  -2.322  0.00  0.00     0.124 A 
ATOM      2  C1  UNL d   1      -1.245  -5.432  -2.049  0.00  0.00     0.062 A 
ATOM      3  C2  UNL d   1      -2.153  -5.624  -3.087  0.00  0.00     0.162 A 
ATOM      4  C3  UNL d   1      -1.708  -5.702  -4.406  0.00  0.00    -0.034 A 
ATOM      5  C4  UNL d   1      -0.343  -5.584  -4.672  0.00  0.00     0.162 A 
ATOM      6  C5  UNL d   1       0.561  -5.393  -3.632  0.00  0.00     0.062 A 
ATOM      7  F   UNL d   1       1.871  -5.282  -3.897  0.00  0.00    -0.097 F 
ATOM      8  F1  UNL d   1       0.119  -5.655  -5.930  0.00  0.00    -0.096 F 
ATOM      9  I   UNL d   1      -3.063  -5.988  -5.960  0.00  0.00    -0.060 I 
ATOM     10  F2  UNL d   1      -3.458  -5.731  -2.794  0.00  0.00    -0.096 F 
ATOM     11  F3  UNL d   1      -1.682  -5.358  -0.784  0.00  0.00    -0.097 F 
ATOM     12  F4  UNL d   1       0.983  -5.133  -1.322  0.00  0.00    -0.092 F 
ENDROOT
TORSDOF 0
ENDMDL
