MODEL 1
REMARK minimizedAffinity 6.13737822
REMARK minimizedRMSD -1
REMARK  0 active torsions:
REMARK  status: ('A' for Active; 'I' for Inactive)
ROOT
ATOM      1  C   UNL d   1       2.879  -1.217   0.481  0.00  0.00     0.124 A 
ATOM      2  C1  UNL d   1       2.255  -0.146  -0.146  0.00  0.00     0.062 A 
ATOM      3  C2  UNL d   1       0.870  -0.123  -0.279  0.00  0.00     0.162 A 
ATOM      4  C3  UNL d   1       0.098  -1.174   0.216  0.00  0.00    -0.034 A 
ATOM      5  C4  UNL d   1       0.732  -2.248   0.843  0.00  0.00     0.162 A 
ATOM      6  C5  UNL d   1       2.117  -2.266   0.974  0.00  0.00     0.062 A 
ATOM      7  F   UNL d   1       2.717  -3.302   1.579  0.00  0.00    -0.097 F 
ATOM      8  F1  UNL d   1       0.020  -3.275   1.330  0.00  0.00    -0.096 F 
ATOM      9  I   UNL d   1      -1.974  -1.143   0.018  0.00  0.00    -0.060 I 
ATOM     10  F2  UNL d   1       0.295   0.924  -0.888  0.00  0.00    -0.096 F 
ATOM     11  F3  UNL d   1       2.990   0.868  -0.624  0.00  0.00    -0.097 F 
ATOM     12  F4  UNL d   1       4.212  -1.237   0.607  0.00  0.00    -0.092 F 
ENDROOT
TORSDOF 0
ENDMDL
