MODEL 1
REMARK minimizedAffinity 18.6007195
REMARK minimizedRMSD -1
REMARK  0 active torsions:
REMARK  status: ('A' for Active; 'I' for Inactive)
ROOT
ATOM      1  C   UNL d   1       2.003  -0.879   0.831  0.00  0.00     0.124 A 
ATOM      2  C1  UNL d   1       1.934  -2.254   1.007  0.00  0.00     0.062 A 
ATOM      3  C2  UNL d   1       0.703  -2.904   0.967  0.00  0.00     0.162 A 
ATOM      4  C3  UNL d   1      -0.469  -2.179   0.750  0.00  0.00    -0.034 A 
ATOM      5  C4  UNL d   1      -0.391  -0.796   0.575  0.00  0.00     0.162 A 
ATOM      6  C5  UNL d   1       0.841  -0.152   0.616  0.00  0.00     0.062 A 
ATOM      7  F   UNL d   1       0.906   1.177   0.446  0.00  0.00    -0.097 F 
ATOM      8  F1  UNL d   1      -1.498  -0.069   0.364  0.00  0.00    -0.096 F 
ATOM      9  I   UNL d   1      -2.310  -3.147   0.689  0.00  0.00    -0.060 I 
ATOM     10  F2  UNL d   1       0.666  -4.234   1.139  0.00  0.00    -0.096 F 
ATOM     11  F3  UNL d   1       3.055  -2.960   1.216  0.00  0.00    -0.097 F 
ATOM     12  F4  UNL d   1       3.188  -0.257   0.871  0.00  0.00    -0.092 F 
ENDROOT
TORSDOF 0
ENDMDL
