MODEL 1
REMARK minimizedAffinity 7.12889671
REMARK minimizedRMSD -1
REMARK  0 active torsions:
REMARK  status: ('A' for Active; 'I' for Inactive)
ROOT
ATOM      1  C   UNL d   1      -0.640   2.688  -3.632  0.00  0.00     0.124 A 
ATOM      2  C1  UNL d   1      -1.904   3.167  -3.948  0.00  0.00     0.062 A 
ATOM      3  C2  UNL d   1      -3.035   2.421  -3.628  0.00  0.00     0.162 A 
ATOM      4  C3  UNL d   1      -2.908   1.189  -2.988  0.00  0.00    -0.034 A 
ATOM      5  C4  UNL d   1      -1.633   0.713  -2.674  0.00  0.00     0.162 A 
ATOM      6  C5  UNL d   1      -0.506   1.462  -2.996  0.00  0.00     0.062 A 
ATOM      7  F   UNL d   1       0.714   0.998  -2.690  0.00  0.00    -0.097 F 
ATOM      8  F1  UNL d   1      -1.475  -0.468  -2.058  0.00  0.00    -0.096 F 
ATOM      9  I   UNL d   1      -4.597   0.071  -2.508  0.00  0.00    -0.060 I 
ATOM     10  F2  UNL d   1      -4.244   2.908  -3.945  0.00  0.00    -0.096 F 
ATOM     11  F3  UNL d   1      -2.036   4.350  -4.564  0.00  0.00    -0.097 F 
ATOM     12  F4  UNL d   1       0.446   3.407  -3.942  0.00  0.00    -0.092 F 
ENDROOT
TORSDOF 0
ENDMDL
