MODEL 1
REMARK minimizedAffinity 2.71121383
REMARK minimizedRMSD -1
REMARK  0 active torsions:
REMARK  status: ('A' for Active; 'I' for Inactive)
ROOT
ATOM      1  C   UNL d   1       0.927  -2.510   0.894  0.00  0.00     0.124 A 
ATOM      2  C1  UNL d   1       2.029  -1.726   0.582  0.00  0.00     0.062 A 
ATOM      3  C2  UNL d   1       1.875  -0.363   0.347  0.00  0.00     0.162 A 
ATOM      4  C3  UNL d   1       0.612   0.226   0.424  0.00  0.00    -0.034 A 
ATOM      5  C4  UNL d   1      -0.492  -0.570   0.737  0.00  0.00     0.162 A 
ATOM      6  C5  UNL d   1      -0.332  -1.931   0.971  0.00  0.00     0.062 A 
ATOM      7  F   UNL d   1      -1.397  -2.688   1.272  0.00  0.00    -0.097 F 
ATOM      8  F1  UNL d   1      -1.719  -0.036   0.819  0.00  0.00    -0.096 F 
ATOM      9  I   UNL d   1       0.377   2.264   0.073  0.00  0.00    -0.060 I 
ATOM     10  F2  UNL d   1       2.957   0.371   0.047  0.00  0.00    -0.096 F 
ATOM     11  F3  UNL d   1       3.247  -2.283   0.506  0.00  0.00    -0.097 F 
ATOM     12  F4  UNL d   1       1.079  -3.822   1.118  0.00  0.00    -0.092 F 
ENDROOT
TORSDOF 0
ENDMDL
