MODEL 1
REMARK minimizedAffinity -2.57457733
REMARK minimizedRMSD -1
REMARK  0 active torsions:
REMARK  status: ('A' for Active; 'I' for Inactive)
ROOT
ATOM      1  C   UNL d   1      -2.422  -5.739  -2.384  0.00  0.00     0.124 A 
ATOM      2  C1  UNL d   1      -1.064  -5.709  -2.099  0.00  0.00     0.062 A 
ATOM      3  C2  UNL d   1      -0.131  -5.778  -3.130  0.00  0.00     0.162 A 
ATOM      4  C3  UNL d   1      -0.553  -5.875  -4.456  0.00  0.00    -0.034 A 
ATOM      5  C4  UNL d   1      -1.921  -5.906  -4.734  0.00  0.00     0.162 A 
ATOM      6  C5  UNL d   1      -2.849  -5.838  -3.700  0.00  0.00     0.062 A 
ATOM      7  F   UNL d   1      -4.161  -5.867  -3.977  0.00  0.00    -0.097 F 
ATOM      8  F1  UNL d   1      -2.361  -6.000  -5.997  0.00  0.00    -0.096 F 
ATOM      9  I   UNL d   1       0.839  -5.978  -6.000  0.00  0.00    -0.060 I 
ATOM     10  F2  UNL d   1       1.175  -5.747  -2.825  0.00  0.00    -0.096 F 
ATOM     11  F3  UNL d   1      -0.648  -5.616  -0.827  0.00  0.00    -0.097 F 
ATOM     12  F4  UNL d   1      -3.317  -5.675  -1.390  0.00  0.00    -0.092 F 
ENDROOT
TORSDOF 0
ENDMDL
