MODEL 1
REMARK minimizedAffinity 9.14600086
REMARK minimizedRMSD -1
REMARK  0 active torsions:
REMARK  status: ('A' for Active; 'I' for Inactive)
ROOT
ATOM      1  C   UNL d   1       0.455  -5.997  -3.533  0.00  0.00     0.124 A 
ATOM      2  C1  UNL d   1      -0.095  -5.997  -2.258  0.00  0.00     0.062 A 
ATOM      3  C2  UNL d   1      -1.477  -5.997  -2.092  0.00  0.00     0.162 A 
ATOM      4  C3  UNL d   1      -2.319  -5.999  -3.204  0.00  0.00    -0.034 A 
ATOM      5  C4  UNL d   1      -1.759  -5.998  -4.483  0.00  0.00     0.162 A 
ATOM      6  C5  UNL d   1      -0.377  -5.998  -4.643  0.00  0.00     0.062 A 
ATOM      7  F   UNL d   1       0.153  -5.998  -5.875  0.00  0.00    -0.097 F 
ATOM      8  F1  UNL d   1      -2.539  -5.999  -5.573  0.00  0.00    -0.096 F 
ATOM      9  I   UNL d   1      -4.386  -5.999  -2.960  0.00  0.00    -0.060 I 
ATOM     10  F2  UNL d   1      -1.981  -5.997  -0.849  0.00  0.00    -0.096 F 
ATOM     11  F3  UNL d   1       0.707  -5.996  -1.183  0.00  0.00    -0.097 F 
ATOM     12  F4  UNL d   1       1.785  -5.996  -3.689  0.00  0.00    -0.092 F 
ENDROOT
TORSDOF 0
ENDMDL
