MODEL 1
REMARK minimizedAffinity 9.14362049
REMARK minimizedRMSD -1
REMARK  0 active torsions:
REMARK  status: ('A' for Active; 'I' for Inactive)
ROOT
ATOM      1  C   UNL d   1      -4.436  -5.949  -2.661  0.00  0.00     0.124 A 
ATOM      2  C1  UNL d   1      -4.250  -5.945  -4.037  0.00  0.00     0.062 A 
ATOM      3  C2  UNL d   1      -2.964  -5.959  -4.569  0.00  0.00     0.162 A 
ATOM      4  C3  UNL d   1      -1.853  -5.978  -3.726  0.00  0.00    -0.034 A 
ATOM      5  C4  UNL d   1      -2.048  -5.981  -2.343  0.00  0.00     0.162 A 
ATOM      6  C5  UNL d   1      -3.335  -5.967  -1.816  0.00  0.00     0.062 A 
ATOM      7  F   UNL d   1      -3.513  -5.970  -0.487  0.00  0.00    -0.097 F 
ATOM      8  F1  UNL d   1      -1.002  -5.999  -1.504  0.00  0.00    -0.096 F 
ATOM      9  I   UNL d   1       0.071  -5.999  -4.518  0.00  0.00    -0.060 I 
ATOM     10  F2  UNL d   1      -2.814  -5.955  -5.902  0.00  0.00    -0.096 F 
ATOM     11  F3  UNL d   1      -5.312  -5.927  -4.855  0.00  0.00    -0.097 F 
ATOM     12  F4  UNL d   1      -5.674  -5.934  -2.151  0.00  0.00    -0.092 F 
ENDROOT
TORSDOF 0
ENDMDL
