MODEL 1
REMARK minimizedAffinity 14.6117783
REMARK minimizedRMSD -1
REMARK  0 active torsions:
REMARK  status: ('A' for Active; 'I' for Inactive)
ROOT
ATOM      1  C   UNL d   1       2.579  -1.312   0.699  0.00  0.00     0.124 A 
ATOM      2  C1  UNL d   1       1.762  -0.216   0.462  0.00  0.00     0.062 A 
ATOM      3  C2  UNL d   1       0.387  -0.384   0.328  0.00  0.00     0.162 A 
ATOM      4  C3  UNL d   1      -0.180  -1.655   0.434  0.00  0.00    -0.034 A 
ATOM      5  C4  UNL d   1       0.648  -2.752   0.671  0.00  0.00     0.162 A 
ATOM      6  C5  UNL d   1       2.022  -2.579   0.804  0.00  0.00     0.062 A 
ATOM      7  F   UNL d   1       2.811  -3.639   1.033  0.00  0.00    -0.097 F 
ATOM      8  F1  UNL d   1       0.136  -3.988   0.778  0.00  0.00    -0.096 F 
ATOM      9  I   UNL d   1      -2.236  -1.910   0.235  0.00  0.00    -0.060 I 
ATOM     10  F2  UNL d   1      -0.379   0.693   0.099  0.00  0.00    -0.096 F 
ATOM     11  F3  UNL d   1       2.298   1.009   0.359  0.00  0.00    -0.097 F 
ATOM     12  F4  UNL d   1       3.902  -1.148   0.826  0.00  0.00    -0.092 F 
ENDROOT
TORSDOF 0
ENDMDL
