MODEL 1
REMARK minimizedAffinity 14.2307577
REMARK minimizedRMSD -1
REMARK  0 active torsions:
REMARK  status: ('A' for Active; 'I' for Inactive)
ROOT
ATOM      1  C   UNL d   1       2.136  -1.855   1.079  0.00  0.00     0.124 A 
ATOM      2  C1  UNL d   1       0.763  -1.659   1.027  0.00  0.00     0.062 A 
ATOM      3  C2  UNL d   1       0.246  -0.417   0.670  0.00  0.00     0.162 A 
ATOM      4  C3  UNL d   1       1.103   0.640   0.362  0.00  0.00    -0.034 A 
ATOM      5  C4  UNL d   1       2.482   0.436   0.418  0.00  0.00     0.162 A 
ATOM      6  C5  UNL d   1       2.995  -0.807   0.775  0.00  0.00     0.062 A 
ATOM      7  F   UNL d   1       4.321  -0.994   0.825  0.00  0.00    -0.097 F 
ATOM      8  F1  UNL d   1       3.335   1.430   0.128  0.00  0.00    -0.096 F 
ATOM      9  I   UNL d   1       0.333   2.498  -0.172  0.00  0.00    -0.060 I 
ATOM     10  F2  UNL d   1      -1.085  -0.257   0.628  0.00  0.00    -0.096 F 
ATOM     11  F3  UNL d   1      -0.068  -2.669   1.321  0.00  0.00    -0.097 F 
ATOM     12  F4  UNL d   1       2.631  -3.050   1.424  0.00  0.00    -0.092 F 
ENDROOT
TORSDOF 0
ENDMDL
