MODEL 1
REMARK minimizedAffinity 10.738719
REMARK minimizedRMSD -1
REMARK  1 active torsions:
REMARK  status: ('A' for Active; 'I' for Inactive)
REMARK    1  A    between atoms: N_2  and  C1_3 
ROOT
ATOM      1  C1  UNL d   1       3.973   2.277   0.785  0.00  0.00     0.143 A 
ATOM      2  C2  UNL d   1       4.882   2.620   1.791  0.00  0.00    -0.057 A 
ATOM      3  C3  UNL d   1       5.878   3.580   1.572  0.00  0.00     0.033 A 
ATOM      4  C4  UNL d   1       6.000   4.195   0.330  0.00  0.00    -0.042 A 
ATOM      5  C5  UNL d   1       5.123   3.851  -0.692  0.00  0.00     0.033 A 
ATOM      6  C6  UNL d   1       4.126   2.896  -0.465  0.00  0.00    -0.057 A 
ENDROOT
BRANCH   1   7
ATOM      7  N   UNL d   1       3.023   1.260   0.909  0.00  0.00    -0.732 N 
ATOM      8  C   UNL d   1       1.929   1.154  -0.032  0.00  0.00     0.284 C 
ATOM      9  H3  UNL d   1       3.441   0.367   1.163  0.00  0.00     0.395 HD
ENDBRANCH   1   7
TORSDOF 1
ENDMDL
