MODEL 1
REMARK minimizedAffinity 7.1679697
REMARK minimizedRMSD -1
REMARK  1 active torsions:
REMARK  status: ('A' for Active; 'I' for Inactive)
REMARK    1  A    between atoms: N_2  and  C1_3 
ROOT
ATOM      1  C1  UNL d   1      -1.129   5.169  -3.988  0.00  0.00     0.143 A 
ATOM      2  C2  UNL d   1       0.259   5.203  -3.824  0.00  0.00    -0.057 A 
ATOM      3  C3  UNL d   1       0.837   5.599  -2.611  0.00  0.00     0.033 A 
ATOM      4  C4  UNL d   1       0.034   5.997  -1.548  0.00  0.00    -0.042 A 
ATOM      5  C5  UNL d   1      -1.349   5.995  -1.697  0.00  0.00     0.033 A 
ATOM      6  C6  UNL d   1      -1.920   5.592  -2.908  0.00  0.00    -0.057 A 
ENDROOT
BRANCH   1   7
ATOM      7  N   UNL d   1      -1.762   4.880  -5.200  0.00  0.00    -0.732 N 
ATOM      8  C   UNL d   1      -2.343   5.937  -5.999  0.00  0.00     0.284 C 
ATOM      9  H3  UNL d   1      -1.263   4.177  -5.740  0.00  0.00     0.395 HD
ENDBRANCH   1   7
TORSDOF 1
ENDMDL
