MODEL 1
REMARK minimizedAffinity 9.34928894
REMARK minimizedRMSD -1
REMARK  1 active torsions:
REMARK  status: ('A' for Active; 'I' for Inactive)
REMARK    1  A    between atoms: N_2  and  C1_3 
ROOT
ATOM      1  C1  UNL d   1       5.017   4.882  -2.265  0.00  0.00     0.143 A 
ATOM      2  C2  UNL d   1       5.919   4.912  -3.334  0.00  0.00    -0.057 A 
ATOM      3  C3  UNL d   1       5.649   4.237  -4.531  0.00  0.00     0.033 A 
ATOM      4  C4  UNL d   1       4.481   3.494  -4.669  0.00  0.00    -0.042 A 
ATOM      5  C5  UNL d   1       3.582   3.430  -3.611  0.00  0.00     0.033 A 
ATOM      6  C6  UNL d   1       3.854   4.112  -2.421  0.00  0.00    -0.057 A 
ENDROOT
BRANCH   1   7
ATOM      7  N   UNL d   1       5.273   5.451  -1.015  0.00  0.00    -0.732 N 
ATOM      8  C   UNL d   1       5.999   4.713  -0.004  0.00  0.00     0.284 C 
ATOM      9  H3  UNL d   1       5.534   6.432  -1.081  0.00  0.00     0.395 HD
ENDBRANCH   1   7
TORSDOF 1
ENDMDL
