MODEL 1
REMARK minimizedAffinity 12.066431
REMARK minimizedRMSD -1
REMARK  1 active torsions:
REMARK  status: ('A' for Active; 'I' for Inactive)
REMARK    1  A    between atoms: N_2  and  C1_3 
ROOT
ATOM      1  C1  UNL d   1       4.572   4.133  -2.645  0.00  0.00     0.143 A 
ATOM      2  C2  UNL d   1       4.786   3.709  -3.961  0.00  0.00    -0.057 A 
ATOM      3  C3  UNL d   1       3.780   3.062  -4.688  0.00  0.00     0.033 A 
ATOM      4  C4  UNL d   1       2.547   2.800  -4.100  0.00  0.00    -0.042 A 
ATOM      5  C5  UNL d   1       2.320   3.190  -2.785  0.00  0.00     0.033 A 
ATOM      6  C6  UNL d   1       3.327   3.842  -2.066  0.00  0.00    -0.057 A 
ENDROOT
BRANCH   1   7
ATOM      7  N   UNL d   1       5.564   4.693  -1.836  0.00  0.00    -0.732 N 
ATOM      8  C   UNL d   1       5.998   4.021  -0.630  0.00  0.00     0.284 C 
ATOM      9  H3  UNL d   1       6.321   5.104  -2.379  0.00  0.00     0.395 HD
ENDBRANCH   1   7
TORSDOF 1
ENDMDL
