MODEL 1
REMARK minimizedAffinity 9.28546906
REMARK minimizedRMSD -1
REMARK  1 active torsions:
REMARK  status: ('A' for Active; 'I' for Inactive)
REMARK    1  A    between atoms: N_2  and  C1_3 
ROOT
ATOM      1  C1  UNL d   1      -5.302   2.551  -0.672  0.00  0.00     0.143 A 
ATOM      2  C2  UNL d   1      -5.369   2.004  -1.958  0.00  0.00    -0.057 A 
ATOM      3  C3  UNL d   1      -5.521   0.626  -2.154  0.00  0.00     0.033 A 
ATOM      4  C4  UNL d   1      -5.580  -0.235  -1.063  0.00  0.00    -0.042 A 
ATOM      5  C5  UNL d   1      -5.491   0.284   0.224  0.00  0.00     0.033 A 
ATOM      6  C6  UNL d   1      -5.346   1.662   0.413  0.00  0.00    -0.057 A 
ENDROOT
BRANCH   1   7
ATOM      7  N   UNL d   1      -5.053   3.901  -0.414  0.00  0.00    -0.732 N 
ATOM      8  C   UNL d   1      -4.042   4.620  -1.159  0.00  0.00     0.284 C 
ATOM      9  H3  UNL d   1      -5.907   4.431  -0.254  0.00  0.00     0.395 HD
ENDBRANCH   1   7
TORSDOF 1
ENDMDL
