MODEL 1
REMARK minimizedAffinity 16.5125351
REMARK minimizedRMSD -1
REMARK  1 active torsions:
REMARK  status: ('A' for Active; 'I' for Inactive)
REMARK    1  A    between atoms: N_2  and  C1_3 
ROOT
ATOM      1  C1  UNL d   1      -2.694   5.630  -3.591  0.00  0.00     0.143 A 
ATOM      2  C2  UNL d   1      -3.980   5.448  -3.071  0.00  0.00    -0.057 A 
ATOM      3  C3  UNL d   1      -4.192   5.299  -1.695  0.00  0.00     0.033 A 
ATOM      4  C4  UNL d   1      -3.115   5.301  -0.815  0.00  0.00    -0.042 A 
ATOM      5  C5  UNL d   1      -1.826   5.456  -1.312  0.00  0.00     0.033 A 
ATOM      6  C6  UNL d   1      -1.621   5.611  -2.686  0.00  0.00    -0.057 A 
ENDROOT
BRANCH   1   7
ATOM      7  N   UNL d   1      -2.408   5.685  -4.957  0.00  0.00    -0.732 N 
ATOM      8  C   UNL d   1      -1.112   5.279  -5.456  0.00  0.00     0.284 C 
ATOM      9  H3  UNL d   1      -3.190   5.376  -5.530  0.00  0.00     0.395 HD
ENDBRANCH   1   7
TORSDOF 1
ENDMDL
