MODEL 1
REMARK minimizedAffinity 8.38332176
REMARK minimizedRMSD -1
REMARK  1 active torsions:
REMARK  status: ('A' for Active; 'I' for Inactive)
REMARK    1  A    between atoms: N_2  and  C1_3 
ROOT
ATOM      1  C1  UNL d   1       0.004   3.256  -3.562  0.00  0.00     0.143 A 
ATOM      2  C2  UNL d   1       1.257   3.814  -3.834  0.00  0.00    -0.057 A 
ATOM      3  C3  UNL d   1       2.415   3.338  -3.206  0.00  0.00     0.033 A 
ATOM      4  C4  UNL d   1       2.335   2.312  -2.271  0.00  0.00    -0.042 A 
ATOM      5  C5  UNL d   1       1.096   1.759  -1.967  0.00  0.00     0.033 A 
ATOM      6  C6  UNL d   1      -0.055   2.234  -2.602  0.00  0.00    -0.057 A 
ENDROOT
BRANCH   1   7
ATOM      7  N   UNL d   1      -1.196   3.750  -4.080  0.00  0.00    -0.732 N 
ATOM      8  C   UNL d   1      -1.220   4.452  -5.345  0.00  0.00     0.284 C 
ATOM      9  H3  UNL d   1      -1.971   3.104  -3.948  0.00  0.00     0.395 HD
ENDBRANCH   1   7
TORSDOF 1
ENDMDL
