MODEL 1
REMARK minimizedAffinity 4.13843727
REMARK minimizedRMSD -1
REMARK  1 active torsions:
REMARK  status: ('A' for Active; 'I' for Inactive)
REMARK    1  A    between atoms: N_2  and  C1_3 
ROOT
ATOM      1  C1  UNL d   1      -4.065  -0.130   0.938  0.00  0.00     0.143 A 
ATOM      2  C2  UNL d   1      -4.889  -0.922   1.744  0.00  0.00    -0.057 A 
ATOM      3  C3  UNL d   1      -4.358  -1.707   2.775  0.00  0.00     0.033 A 
ATOM      4  C4  UNL d   1      -2.985  -1.735   2.999  0.00  0.00    -0.042 A 
ATOM      5  C5  UNL d   1      -2.145  -0.974   2.193  0.00  0.00     0.033 A 
ATOM      6  C6  UNL d   1      -2.682  -0.188   1.170  0.00  0.00    -0.057 A 
ENDROOT
BRANCH   1   7
ATOM      7  N   UNL d   1      -4.523   0.596  -0.166  0.00  0.00    -0.732 N 
ATOM      8  C   UNL d   1      -4.821  -0.072  -1.414  0.00  0.00     0.284 C 
ATOM      9  H3  UNL d   1      -5.196   1.313   0.093  0.00  0.00     0.395 HD
ENDBRANCH   1   7
TORSDOF 1
ENDMDL
