MODEL 1
REMARK minimizedAffinity 11.5041447
REMARK minimizedRMSD -1
REMARK  1 active torsions:
REMARK  status: ('A' for Active; 'I' for Inactive)
REMARK    1  A    between atoms: N_2  and  C1_3 
ROOT
ATOM      1  C1  UNL d   1       3.443   3.675  -3.687  0.00  0.00     0.143 A 
ATOM      2  C2  UNL d   1       4.307   4.409  -2.869  0.00  0.00    -0.057 A 
ATOM      3  C3  UNL d   1       5.507   4.933  -3.366  0.00  0.00     0.033 A 
ATOM      4  C4  UNL d   1       5.878   4.706  -4.687  0.00  0.00    -0.042 A 
ATOM      5  C5  UNL d   1       5.046   3.957  -5.512  0.00  0.00     0.033 A 
ATOM      6  C6  UNL d   1       3.846   3.442  -5.012  0.00  0.00    -0.057 A 
ENDROOT
BRANCH   1   7
ATOM      7  N   UNL d   1       2.284   3.044  -3.226  0.00  0.00    -0.732 N 
ATOM      8  C   UNL d   1       2.314   2.228  -2.032  0.00  0.00     0.284 C 
ATOM      9  H3  UNL d   1       1.462   3.639  -3.303  0.00  0.00     0.395 HD
ENDBRANCH   1   7
TORSDOF 1
ENDMDL
