MODEL 1
REMARK minimizedAffinity 9.98398399
REMARK minimizedRMSD -1
REMARK  1 active torsions:
REMARK  status: ('A' for Active; 'I' for Inactive)
REMARK    1  A    between atoms: N_2  and  C1_3 
ROOT
ATOM      1  C1  UNL d   1      -2.771   0.524   2.879  0.00  0.00     0.143 A 
ATOM      2  C2  UNL d   1      -2.214  -0.603   2.265  0.00  0.00    -0.057 A 
ATOM      3  C3  UNL d   1      -2.834  -1.214   1.168  0.00  0.00     0.033 A 
ATOM      4  C4  UNL d   1      -4.042  -0.723   0.683  0.00  0.00    -0.042 A 
ATOM      5  C5  UNL d   1      -4.626   0.381   1.293  0.00  0.00     0.033 A 
ATOM      6  C6  UNL d   1      -3.998   0.990   2.383  0.00  0.00    -0.057 A 
ENDROOT
BRANCH   1   7
ATOM      7  N   UNL d   1      -2.253   1.116   4.033  0.00  0.00    -0.732 N 
ATOM      8  C   UNL d   1      -2.279   0.412   5.298  0.00  0.00     0.284 C 
ATOM      9  H3  UNL d   1      -1.388   1.622   3.857  0.00  0.00     0.395 HD
ENDBRANCH   1   7
TORSDOF 1
ENDMDL
