MODEL 1
REMARK minimizedAffinity -2.23951077
REMARK minimizedRMSD -1
REMARK  1 active torsions:
REMARK  status: ('A' for Active; 'I' for Inactive)
REMARK    1  A    between atoms: N_2  and  C1_3 
ROOT
ATOM      1  C1  UNL d   1      -4.248   0.704   3.184  0.00  0.00     0.143 A 
ATOM      2  C2  UNL d   1      -2.941   0.825   3.670  0.00  0.00    -0.057 A 
ATOM      3  C3  UNL d   1      -1.874   0.158   3.057  0.00  0.00     0.033 A 
ATOM      4  C4  UNL d   1      -2.099  -0.670   1.962  0.00  0.00    -0.042 A 
ATOM      5  C5  UNL d   1      -3.393  -0.825   1.478  0.00  0.00     0.033 A 
ATOM      6  C6  UNL d   1      -4.454  -0.150   2.089  0.00  0.00    -0.057 A 
ENDROOT
BRANCH   1   7
ATOM      7  N   UNL d   1      -5.365   1.264   3.808  0.00  0.00    -0.732 N 
ATOM      8  C   UNL d   1      -5.751   0.848   5.140  0.00  0.00     0.284 C 
ATOM      9  H3  UNL d   1      -5.438   2.266   3.648  0.00  0.00     0.395 HD
ENDBRANCH   1   7
TORSDOF 1
ENDMDL
