MODEL 1
REMARK minimizedAffinity 12.745573
REMARK minimizedRMSD -1
REMARK  1 active torsions:
REMARK  status: ('A' for Active; 'I' for Inactive)
REMARK    1  A    between atoms: N_2  and  C1_3 
ROOT
ATOM      1  C1  UNL d   1      -4.157  -0.023   1.635  0.00  0.00     0.143 A 
ATOM      2  C2  UNL d   1      -3.098  -0.936   1.669  0.00  0.00    -0.057 A 
ATOM      3  C3  UNL d   1      -1.969  -0.709   2.465  0.00  0.00     0.033 A 
ATOM      4  C4  UNL d   1      -1.866   0.454   3.221  0.00  0.00    -0.042 A 
ATOM      5  C5  UNL d   1      -2.896   1.387   3.184  0.00  0.00     0.033 A 
ATOM      6  C6  UNL d   1      -4.024   1.151   2.392  0.00  0.00    -0.057 A 
ENDROOT
BRANCH   1   7
ATOM      7  N   UNL d   1      -5.262  -0.145   0.788  0.00  0.00    -0.732 N 
ATOM      8  C   UNL d   1      -5.535   0.860  -0.217  0.00  0.00     0.284 C 
ATOM      9  H3  UNL d   1      -5.404  -1.101   0.469  0.00  0.00     0.395 HD
ENDBRANCH   1   7
TORSDOF 1
ENDMDL
