MODEL 1
REMARK minimizedAffinity 7.86362982
REMARK minimizedRMSD -1
REMARK  1 active torsions:
REMARK  status: ('A' for Active; 'I' for Inactive)
REMARK    1  A    between atoms: N_2  and  C1_3 
ROOT
ATOM      1  C1  UNL d   1       2.613   3.719  -3.151  0.00  0.00     0.143 A 
ATOM      2  C2  UNL d   1       3.345   4.558  -2.304  0.00  0.00    -0.057 A 
ATOM      3  C3  UNL d   1       4.616   5.024  -2.664  0.00  0.00     0.033 A 
ATOM      4  C4  UNL d   1       5.190   4.633  -3.869  0.00  0.00    -0.042 A 
ATOM      5  C5  UNL d   1       4.491   3.780  -4.716  0.00  0.00     0.033 A 
ATOM      6  C6  UNL d   1       3.220   3.324  -4.353  0.00  0.00    -0.057 A 
ENDROOT
BRANCH   1   7
ATOM      7  N   UNL d   1       1.387   3.144  -2.806  0.00  0.00    -0.732 N 
ATOM      8  C   UNL d   1       1.332   2.006  -1.914  0.00  0.00     0.284 C 
ATOM      9  H3  UNL d   1       0.665   3.841  -2.636  0.00  0.00     0.395 HD
ENDBRANCH   1   7
TORSDOF 1
ENDMDL
