MODEL 1
REMARK minimizedAffinity 3.66961336
REMARK minimizedRMSD -1
REMARK  1 active torsions:
REMARK  status: ('A' for Active; 'I' for Inactive)
REMARK    1  A    between atoms: N_2  and  C1_3 
ROOT
ATOM      1  C1  UNL d   1      -1.165  -0.403   3.114  0.00  0.00     0.143 A 
ATOM      2  C2  UNL d   1      -1.691  -1.299   2.177  0.00  0.00    -0.057 A 
ATOM      3  C3  UNL d   1      -2.851  -0.996   1.454  0.00  0.00     0.033 A 
ATOM      4  C4  UNL d   1      -3.525   0.200   1.678  0.00  0.00    -0.042 A 
ATOM      5  C5  UNL d   1      -3.035   1.095   2.623  0.00  0.00     0.033 A 
ATOM      6  C6  UNL d   1      -1.872   0.789   3.337  0.00  0.00    -0.057 A 
ENDROOT
BRANCH   1   7
ATOM      7  N   UNL d   1      -0.072  -0.688   3.935  0.00  0.00    -0.732 N 
ATOM      8  C   UNL d   1       0.830  -1.773   3.611  0.00  0.00     0.284 C 
ATOM      9  H3  UNL d   1       0.393   0.153   4.269  0.00  0.00     0.395 HD
ENDBRANCH   1   7
TORSDOF 1
ENDMDL
