MODEL 1
REMARK minimizedAffinity 10.9938173
REMARK minimizedRMSD -1
REMARK  1 active torsions:
REMARK  status: ('A' for Active; 'I' for Inactive)
REMARK    1  A    between atoms: N_2  and  C1_3 
ROOT
ATOM      1  C1  UNL d   1       3.868   2.727   1.285  0.00  0.00     0.143 A 
ATOM      2  C2  UNL d   1       2.549   3.160   1.116  0.00  0.00    -0.057 A 
ATOM      3  C3  UNL d   1       1.620   2.396   0.399  0.00  0.00     0.033 A 
ATOM      4  C4  UNL d   1       2.004   1.195  -0.188  0.00  0.00    -0.042 A 
ATOM      5  C5  UNL d   1       3.317   0.757  -0.054  0.00  0.00     0.033 A 
ATOM      6  C6  UNL d   1       4.238   1.521   0.669  0.00  0.00    -0.057 A 
ENDROOT
BRANCH   1   7
ATOM      7  N   UNL d   1       4.864   3.488   1.903  0.00  0.00    -0.732 N 
ATOM      8  C   UNL d   1       6.000   3.969   1.147  0.00  0.00     0.284 C 
ATOM      9  H3  UNL d   1       4.483   4.167   2.559  0.00  0.00     0.395 HD
ENDBRANCH   1   7
TORSDOF 1
ENDMDL
