MODEL 1
REMARK minimizedAffinity 1.08339429
REMARK minimizedRMSD -1
REMARK  0 active torsions:
REMARK  status: ('A' for Active; 'I' for Inactive)
ROOT
ATOM      1  C1  DEN d   1       2.500  -1.087   0.526  0.00  0.00     0.130 A 
ATOM      2  C2  DEN d   1       3.393  -0.149   1.202  0.00  0.00    -0.031 A 
ATOM      3  C3  DEN d   1       2.637   1.092   1.464  0.00  0.00     0.027 A 
ATOM      4  C4  DEN d   1       0.183   1.649   0.897  0.00  0.00     0.027 A 
ATOM      5  C5  DEN d   1      -0.970   1.172   0.314  0.00  0.00    -0.003 A 
ATOM      6  C6  DEN d   1      -1.037  -0.067  -0.265  0.00  0.00     0.001 A 
ATOM      7  C7  DEN d   1       0.057  -0.891  -0.234  0.00  0.00     0.017 A 
ATOM      8  C8  DEN d   1       1.225  -0.415   0.347  0.00  0.00    -0.094 A 
ATOM      9  C9  DEN d   1       1.269   0.836   0.938  0.00  0.00    -0.072 A 
ENDROOT
TORSDOF 0
ENDMDL
