MODEL 1
REMARK minimizedAffinity -3.37856483
REMARK minimizedRMSD -1
REMARK  0 active torsions:
REMARK  status: ('A' for Active; 'I' for Inactive)
ROOT
ATOM      1  C1  DEN d   1       2.628  -1.224   0.621  0.00  0.00     0.130 A 
ATOM      2  C2  DEN d   1       3.278   0.015   0.205  0.00  0.00    -0.031 A 
ATOM      3  C3  DEN d   1       2.269   1.093   0.240  0.00  0.00     0.027 A 
ATOM      4  C4  DEN d   1      -0.221   0.965   0.900  0.00  0.00     0.027 A 
ATOM      5  C5  DEN d   1      -1.230   0.125   1.315  0.00  0.00    -0.003 A 
ATOM      6  C6  DEN d   1      -1.035  -1.219   1.493  0.00  0.00     0.001 A 
ATOM      7  C7  DEN d   1       0.211  -1.755   1.300  0.00  0.00     0.017 A 
ATOM      8  C8  DEN d   1       1.232  -0.916   0.874  0.00  0.00    -0.094 A 
ATOM      9  C9  DEN d   1       1.017   0.442   0.712  0.00  0.00    -0.072 A 
ENDROOT
TORSDOF 0
ENDMDL
