MODEL 1
REMARK minimizedAffinity -4.55803633
REMARK minimizedRMSD -1
REMARK  0 active torsions:
REMARK  status: ('A' for Active; 'I' for Inactive)
ROOT
ATOM      1  C1  DEN d   1       0.083   1.575  -0.036  0.00  0.00     0.130 A 
ATOM      2  C2  DEN d   1      -1.184   0.887  -0.263  0.00  0.00    -0.031 A 
ATOM      3  C3  DEN d   1      -1.010  -0.529   0.118  0.00  0.00     0.027 A 
ATOM      4  C4  DEN d   1       1.088  -1.716   1.037  0.00  0.00     0.027 A 
ATOM      5  C5  DEN d   1       2.409  -1.548   1.388  0.00  0.00    -0.003 A 
ATOM      6  C6  DEN d   1       3.052  -0.345   1.259  0.00  0.00     0.001 A 
ATOM      7  C7  DEN d   1       2.361   0.749   0.808  0.00  0.00     0.017 A 
ATOM      8  C8  DEN d   1       1.031   0.585   0.444  0.00  0.00    -0.094 A 
ATOM      9  C9  DEN d   1       0.396  -0.636   0.594  0.00  0.00    -0.072 A 
ENDROOT
TORSDOF 0
ENDMDL
