MODEL 1
REMARK minimizedAffinity -0.446748257
REMARK minimizedRMSD -1
REMARK  0 active torsions:
REMARK  status: ('A' for Active; 'I' for Inactive)
ROOT
ATOM      1  C1  DEN d   1      -0.215  -1.064  -0.341  0.00  0.00     0.130 A 
ATOM      2  C2  DEN d   1       0.104   0.024   0.580  0.00  0.00    -0.031 A 
ATOM      3  C3  DEN d   1      -0.586   1.240   0.105  0.00  0.00     0.027 A 
ATOM      4  C4  DEN d   1      -2.114   1.541  -1.951  0.00  0.00     0.027 A 
ATOM      5  C5  DEN d   1      -2.669   0.905  -3.040  0.00  0.00    -0.003 A 
ATOM      6  C6  DEN d   1      -2.421  -0.412  -3.321  0.00  0.00     0.001 A 
ATOM      7  C7  DEN d   1      -1.631  -1.149  -2.479  0.00  0.00     0.017 A 
ATOM      8  C8  DEN d   1      -1.061  -0.513  -1.384  0.00  0.00    -0.094 A 
ATOM      9  C9  DEN d   1      -1.334   0.817  -1.109  0.00  0.00    -0.072 A 
ENDROOT
TORSDOF 0
ENDMDL
