MODEL 1
REMARK minimizedAffinity -3.75289178
REMARK minimizedRMSD -1
REMARK  0 active torsions:
REMARK  status: ('A' for Active; 'I' for Inactive)
ROOT
ATOM      1  C1  DEN d   1       1.602   1.123  -0.021  0.00  0.00     0.130 A 
ATOM      2  C2  DEN d   1       2.765   0.411   0.504  0.00  0.00    -0.031 A 
ATOM      3  C3  DEN d   1       2.290  -0.836   1.135  0.00  0.00     0.027 A 
ATOM      4  C4  DEN d   1      -0.119  -1.733   1.348  0.00  0.00     0.027 A 
ATOM      5  C5  DEN d   1      -1.442  -1.474   1.066  0.00  0.00    -0.003 A 
ATOM      6  C6  DEN d   1      -1.843  -0.324   0.438  0.00  0.00     0.001 A 
ATOM      7  C7  DEN d   1      -0.907   0.589   0.030  0.00  0.00     0.017 A 
ATOM      8  C8  DEN d   1       0.428   0.338   0.317  0.00  0.00    -0.094 A 
ATOM      9  C9  DEN d   1       0.815  -0.836   0.942  0.00  0.00    -0.072 A 
ENDROOT
TORSDOF 0
ENDMDL
