MODEL 1
REMARK minimizedAffinity 0.217036068
REMARK minimizedRMSD -1
REMARK  0 active torsions:
REMARK  status: ('A' for Active; 'I' for Inactive)
ROOT
ATOM      1  C1  BNZ d   1      -2.397  -0.928   0.486  0.00  0.00     0.000 A 
ATOM      2  C2  BNZ d   1      -2.907  -1.297  -0.730  0.00  0.00     0.000 A 
ATOM      3  C3  BNZ d   1      -4.114  -0.818  -1.157  0.00  0.00     0.000 A 
ATOM      4  C4  BNZ d   1      -4.826  -0.003  -0.352  0.00  0.00     0.000 A 
ATOM      5  C5  BNZ d   1      -4.330   0.370   0.881  0.00  0.00     0.000 A 
ATOM      6  C6  BNZ d   1      -3.097  -0.083   1.291  0.00  0.00     0.000 A 
ENDROOT
TORSDOF 0
ENDMDL
