MODEL 1
REMARK minimizedAffinity 5.38891935
REMARK minimizedRMSD -1
REMARK  0 active torsions:
REMARK  status: ('A' for Active; 'I' for Inactive)
ROOT
ATOM      1  C1  BNZ d   1       5.999   1.379   2.707  0.00  0.00     0.000 A 
ATOM      2  C2  BNZ d   1       5.977   1.980   1.476  0.00  0.00     0.000 A 
ATOM      3  C3  BNZ d   1       5.172   1.503   0.479  0.00  0.00     0.000 A 
ATOM      4  C4  BNZ d   1       4.422   0.405   0.701  0.00  0.00     0.000 A 
ATOM      5  C5  BNZ d   1       4.440  -0.217   1.934  0.00  0.00     0.000 A 
ATOM      6  C6  BNZ d   1       5.222   0.288   2.947  0.00  0.00     0.000 A 
ENDROOT
TORSDOF 0
ENDMDL
