MODEL 1
REMARK minimizedAffinity 9.96566772
REMARK minimizedRMSD -1
REMARK  0 active torsions:
REMARK  status: ('A' for Active; 'I' for Inactive)
ROOT
ATOM      1  C1  BNZ d   1      -5.585  -1.011   0.067  0.00  0.00     0.000 A 
ATOM      2  C2  BNZ d   1      -4.717  -0.559   1.025  0.00  0.00     0.000 A 
ATOM      3  C3  BNZ d   1      -3.981   0.575   0.824  0.00  0.00     0.000 A 
ATOM      4  C4  BNZ d   1      -4.084   1.233  -0.349  0.00  0.00     0.000 A 
ATOM      5  C5  BNZ d   1      -4.948   0.785  -1.329  0.00  0.00     0.000 A 
ATOM      6  C6  BNZ d   1      -5.716  -0.336  -1.107  0.00  0.00     0.000 A 
ENDROOT
TORSDOF 0
ENDMDL
