MODEL 1
REMARK minimizedAffinity 9.15766048
REMARK minimizedRMSD -1
REMARK  0 active torsions:
REMARK  status: ('A' for Active; 'I' for Inactive)
ROOT
ATOM      1  C1  BNZ d   1      -4.402   0.337  -1.429  0.00  0.00     0.000 A 
ATOM      2  C2  BNZ d   1      -3.544   0.857  -0.497  0.00  0.00     0.000 A 
ATOM      3  C3  BNZ d   1      -3.515   0.368   0.779  0.00  0.00     0.000 A 
ATOM      4  C4  BNZ d   1      -4.371  -0.612   1.133  0.00  0.00     0.000 A 
ATOM      5  C5  BNZ d   1      -5.249  -1.141   0.208  0.00  0.00     0.000 A 
ATOM      6  C6  BNZ d   1      -5.248  -0.673  -1.086  0.00  0.00     0.000 A 
ENDROOT
TORSDOF 0
ENDMDL
