MODEL 1
REMARK minimizedAffinity 2.46558118
REMARK minimizedRMSD -1
REMARK  0 active torsions:
REMARK  status: ('A' for Active; 'I' for Inactive)
ROOT
ATOM      1  C1  BNZ d   1       4.992   2.173   3.915  0.00  0.00     0.000 A 
ATOM      2  C2  BNZ d   1       5.995   1.359   3.460  0.00  0.00     0.000 A 
ATOM      3  C3  BNZ d   1       5.726   0.335   2.595  0.00  0.00     0.000 A 
ATOM      4  C4  BNZ d   1       4.453   0.102   2.218  0.00  0.00     0.000 A 
ATOM      5  C5  BNZ d   1       3.430   0.909   2.675  0.00  0.00     0.000 A 
ATOM      6  C6  BNZ d   1       3.709   1.963   3.515  0.00  0.00     0.000 A 
ENDROOT
TORSDOF 0
ENDMDL
