MODEL 1
REMARK minimizedAffinity 4.56061602
REMARK minimizedRMSD -1
REMARK  0 active torsions:
REMARK  status: ('A' for Active; 'I' for Inactive)
ROOT
ATOM      1  C1  BNZ d   1       4.492  -0.155   1.573  0.00  0.00     0.000 A 
ATOM      2  C2  BNZ d   1       4.495   1.163   1.202  0.00  0.00     0.000 A 
ATOM      3  C3  BNZ d   1       5.265   2.076   1.867  0.00  0.00     0.000 A 
ATOM      4  C4  BNZ d   1       6.000   1.677   2.926  0.00  0.00     0.000 A 
ATOM      5  C5  BNZ d   1       6.000   0.354   3.318  0.00  0.00     0.000 A 
ATOM      6  C6  BNZ d   1       5.253  -0.569   2.622  0.00  0.00     0.000 A 
ENDROOT
TORSDOF 0
ENDMDL
