MODEL 1
REMARK minimizedAffinity 0.962369621
REMARK minimizedRMSD -1
REMARK  0 active torsions:
REMARK  status: ('A' for Active; 'I' for Inactive)
ROOT
ATOM      1  C1  BNZ d   1       0.020  -3.382   4.868  0.00  0.00     0.000 A 
ATOM      2  C2  BNZ d   1      -0.601  -2.162   4.885  0.00  0.00     0.000 A 
ATOM      3  C3  BNZ d   1       0.013  -1.071   5.434  0.00  0.00     0.000 A 
ATOM      4  C4  BNZ d   1       1.229  -1.210   6.000  0.00  0.00     0.000 A 
ATOM      5  C5  BNZ d   1       1.864  -2.436   5.999  0.00  0.00     0.000 A 
ATOM      6  C6  BNZ d   1       1.260  -3.523   5.411  0.00  0.00     0.000 A 
ENDROOT
TORSDOF 0
ENDMDL
