MODEL 1
REMARK minimizedAffinity 3.93017507
REMARK minimizedRMSD -1
REMARK  0 active torsions:
REMARK  status: ('A' for Active; 'I' for Inactive)
ROOT
ATOM      1  C1  BNZ d   1       3.130   3.954   3.985  0.00  0.00     0.000 A 
ATOM      2  C2  BNZ d   1       3.216   5.251   3.555  0.00  0.00     0.000 A 
ATOM      3  C3  BNZ d   1       2.144   5.868   2.973  0.00  0.00     0.000 A 
ATOM      4  C4  BNZ d   1       1.002   5.176   2.785  0.00  0.00     0.000 A 
ATOM      5  C5  BNZ d   1       0.903   3.865   3.204  0.00  0.00     0.000 A 
ATOM      6  C6  BNZ d   1       1.971   3.259   3.825  0.00  0.00     0.000 A 
ENDROOT
TORSDOF 0
ENDMDL
