MODEL 1
REMARK minimizedAffinity -1.55725455
REMARK minimizedRMSD -1
REMARK  0 active torsions:
REMARK  status: ('A' for Active; 'I' for Inactive)
ROOT
ATOM      1  C   UNL d   1      -1.744   0.562   1.219  0.00  0.00     0.172 C 
ATOM      2  N   UNL d   1      -0.693  -0.025   0.420  0.00  0.00    -0.070 N 
ATOM      3  C1  UNL d   1       0.572  -0.317   0.856  0.00  0.00    -0.004 A 
ATOM      4  C2  UNL d   1       1.267  -0.863  -0.202  0.00  0.00    -0.047 A 
ATOM      5  C3  UNL d   1       0.389  -0.900  -1.311  0.00  0.00    -0.047 A 
ATOM      6  C4  UNL d   1      -0.818  -0.375  -0.898  0.00  0.00    -0.004 A 
ENDROOT
TORSDOF 0
ENDMDL
