MODEL 1
REMARK minimizedAffinity -0.972187281
REMARK minimizedRMSD -1
REMARK  0 active torsions:
REMARK  status: ('A' for Active; 'I' for Inactive)
ROOT
ATOM      1  C   UNL d   1       0.863  -0.031  -2.482  0.00  0.00     0.172 C 
ATOM      2  N   UNL d   1       0.183  -0.051  -1.208  0.00  0.00    -0.070 N 
ATOM      3  C1  UNL d   1       0.749  -0.384  -0.007  0.00  0.00    -0.004 A 
ATOM      4  C2  UNL d   1      -0.225  -0.280   0.962  0.00  0.00    -0.047 A 
ATOM      5  C3  UNL d   1      -1.419   0.127   0.320  0.00  0.00    -0.047 A 
ATOM      6  C4  UNL d   1      -1.138   0.262  -1.023  0.00  0.00    -0.004 A 
ENDROOT
TORSDOF 0
ENDMDL
