MODEL 1
REMARK minimizedAffinity -1.74921906
REMARK minimizedRMSD -1
REMARK  0 active torsions:
REMARK  status: ('A' for Active; 'I' for Inactive)
ROOT
ATOM      1  C   UNL d   1      -1.437   0.732   0.770  0.00  0.00     0.172 C 
ATOM      2  N   UNL d   1      -0.228   0.046   0.378  0.00  0.00    -0.070 N 
ATOM      3  C1  UNL d   1       0.877  -0.135   1.165  0.00  0.00    -0.004 A 
ATOM      4  C2  UNL d   1       1.810  -0.834   0.429  0.00  0.00    -0.047 A 
ATOM      5  C3  UNL d   1       1.245  -1.081  -0.845  0.00  0.00    -0.047 A 
ATOM      6  C4  UNL d   1      -0.017  -0.525  -0.849  0.00  0.00    -0.004 A 
ENDROOT
TORSDOF 0
ENDMDL
