MODEL 1
REMARK minimizedAffinity 1.50168526
REMARK minimizedRMSD -1
REMARK  0 active torsions:
REMARK  status: ('A' for Active; 'I' for Inactive)
ROOT
ATOM      1  C   UNL d   1      -2.478  -1.958  -5.855  0.00  0.00     0.172 C 
ATOM      2  N   UNL d   1      -1.467  -1.120  -5.255  0.00  0.00    -0.070 N 
ATOM      3  C1  UNL d   1      -0.682  -1.457  -4.185  0.00  0.00    -0.004 A 
ATOM      4  C2  UNL d   1       0.151  -0.392  -3.920  0.00  0.00    -0.047 A 
ATOM      5  C3  UNL d   1      -0.144   0.621  -4.863  0.00  0.00    -0.047 A 
ATOM      6  C4  UNL d   1      -1.150   0.144  -5.677  0.00  0.00    -0.004 A 
ENDROOT
TORSDOF 0
ENDMDL
