MODEL 1
REMARK minimizedAffinity -2.54334474
REMARK minimizedRMSD -1
REMARK  0 active torsions:
REMARK  status: ('A' for Active; 'I' for Inactive)
ROOT
ATOM      1  C   UNL d   1       1.512  -0.737   2.318  0.00  0.00     0.172 C 
ATOM      2  N   UNL d   1       0.252  -0.326   1.743  0.00  0.00    -0.070 N 
ATOM      3  C1  UNL d   1      -0.059  -0.340   0.410  0.00  0.00    -0.004 A 
ATOM      4  C2  UNL d   1      -1.350   0.124   0.273  0.00  0.00    -0.047 A 
ATOM      5  C3  UNL d   1      -1.830   0.429   1.569  0.00  0.00    -0.047 A 
ATOM      6  C4  UNL d   1      -0.818   0.141   2.460  0.00  0.00    -0.004 A 
ENDROOT
TORSDOF 0
ENDMDL
