MODEL 1
REMARK minimizedAffinity -0.666524827
REMARK minimizedRMSD -1
REMARK  0 active torsions:
REMARK  status: ('A' for Active; 'I' for Inactive)
ROOT
ATOM      1  C   UNL d   1       0.451  -0.521  -1.137  0.00  0.00     0.172 C 
ATOM      2  N   UNL d   1       0.750  -0.025  -2.460  0.00  0.00    -0.070 N 
ATOM      3  C1  UNL d   1       0.188  -0.472  -3.626  0.00  0.00    -0.004 A 
ATOM      4  C2  UNL d   1       0.735   0.252  -4.663  0.00  0.00    -0.047 A 
ATOM      5  C3  UNL d   1       1.660   1.164  -4.102  0.00  0.00    -0.047 A 
ATOM      6  C4  UNL d   1       1.649   0.971  -2.736  0.00  0.00    -0.004 A 
ENDROOT
TORSDOF 0
ENDMDL
