MODEL 1
REMARK minimizedAffinity 1.31620634
REMARK minimizedRMSD -1
REMARK  0 active torsions:
REMARK  status: ('A' for Active; 'I' for Inactive)
ROOT
ATOM      1  C   UNL d   1      -1.644  -0.036   2.537  0.00  0.00     0.172 C 
ATOM      2  N   UNL d   1      -1.125  -0.114   1.192  0.00  0.00    -0.070 N 
ATOM      3  C1  UNL d   1       0.015   0.496   0.739  0.00  0.00    -0.004 A 
ATOM      4  C2  UNL d   1       0.163   0.176  -0.594  0.00  0.00    -0.047 A 
ATOM      5  C3  UNL d   1      -0.925  -0.653  -0.954  0.00  0.00    -0.047 A 
ATOM      6  C4  UNL d   1      -1.707  -0.817   0.170  0.00  0.00    -0.004 A 
ENDROOT
TORSDOF 0
ENDMDL
