MODEL 1
REMARK minimizedAffinity -1.70385945
REMARK minimizedRMSD -1
REMARK  0 active torsions:
REMARK  status: ('A' for Active; 'I' for Inactive)
ROOT
ATOM      1  C   UNL d   1      -0.004  -0.778  -0.720  0.00  0.00     0.172 C 
ATOM      2  N   UNL d   1       0.463  -0.039  -1.869  0.00  0.00    -0.070 N 
ATOM      3  C1  UNL d   1       0.874  -0.584  -3.056  0.00  0.00    -0.004 A 
ATOM      4  C2  UNL d   1       1.240   0.450  -3.891  0.00  0.00    -0.047 A 
ATOM      5  C3  UNL d   1       1.042   1.658  -3.181  0.00  0.00    -0.047 A 
ATOM      6  C4  UNL d   1       0.560   1.326  -1.932  0.00  0.00    -0.004 A 
ENDROOT
TORSDOF 0
ENDMDL
