MODEL 1
REMARK minimizedAffinity -2.55832458
REMARK minimizedRMSD -1
REMARK  0 active torsions:
REMARK  status: ('A' for Active; 'I' for Inactive)
ROOT
ATOM      1  C   UNL d   1      -1.498   0.667   1.874  0.00  0.00     0.172 C 
ATOM      2  N   UNL d   1      -0.616   0.017   0.933  0.00  0.00    -0.070 N 
ATOM      3  C1  UNL d   1      -0.982  -0.487  -0.287  0.00  0.00    -0.004 A 
ATOM      4  C2  UNL d   1       0.142  -1.022  -0.877  0.00  0.00    -0.047 A 
ATOM      5  C3  UNL d   1       1.221  -0.835   0.019  0.00  0.00    -0.047 A 
ATOM      6  C4  UNL d   1       0.723  -0.189   1.132  0.00  0.00    -0.004 A 
ENDROOT
TORSDOF 0
ENDMDL
