MODEL 1
REMARK minimizedAffinity -2.74072266
REMARK minimizedRMSD -1
REMARK  0 active torsions:
REMARK  status: ('A' for Active; 'I' for Inactive)
ROOT
ATOM      1  C   UNL d   1       1.473  -1.076  -1.447  0.00  0.00     0.172 C 
ATOM      2  N   UNL d   1       1.194  -0.316  -2.642  0.00  0.00    -0.070 N 
ATOM      3  C1  UNL d   1       2.086   0.484  -3.306  0.00  0.00    -0.004 A 
ATOM      4  C2  UNL d   1       1.436   1.031  -4.391  0.00  0.00    -0.047 A 
ATOM      5  C3  UNL d   1       0.107   0.543  -4.379  0.00  0.00    -0.047 A 
ATOM      6  C4  UNL d   1      -0.015  -0.288  -3.286  0.00  0.00    -0.004 A 
ENDROOT
TORSDOF 0
ENDMDL
