MODEL 1
REMARK minimizedAffinity -2.16759062
REMARK minimizedRMSD -1
REMARK  0 active torsions:
REMARK  status: ('A' for Active; 'I' for Inactive)
ROOT
ATOM      1  C   UNL d   1       0.682  -0.691  -0.866  0.00  0.00     0.172 C 
ATOM      2  N   UNL d   1      -0.337  -0.093  -0.036  0.00  0.00    -0.070 N 
ATOM      3  C1  UNL d   1      -0.193   0.255   1.280  0.00  0.00    -0.004 A 
ATOM      4  C2  UNL d   1      -1.388   0.792   1.708  0.00  0.00    -0.047 A 
ATOM      5  C3  UNL d   1      -2.282   0.765   0.611  0.00  0.00    -0.047 A 
ATOM      6  C4  UNL d   1      -1.605   0.212  -0.456  0.00  0.00    -0.004 A 
ENDROOT
TORSDOF 0
ENDMDL
