MODEL 1
REMARK minimizedAffinity -2.07235336
REMARK minimizedRMSD -1
REMARK  0 active torsions:
REMARK  status: ('A' for Active; 'I' for Inactive)
ROOT
ATOM      1  C   UNL d   1       0.080  -0.415   3.238  0.00  0.00     0.172 C 
ATOM      2  N   UNL d   1      -0.553  -0.209   1.956  0.00  0.00    -0.070 N 
ATOM      3  C1  UNL d   1      -1.820   0.273   1.760  0.00  0.00    -0.004 A 
ATOM      4  C2  UNL d   1      -2.047   0.321   0.401  0.00  0.00    -0.047 A 
ATOM      5  C3  UNL d   1      -0.877  -0.150  -0.241  0.00  0.00    -0.047 A 
ATOM      6  C4  UNL d   1       0.031  -0.471   0.746  0.00  0.00    -0.004 A 
ENDROOT
TORSDOF 0
ENDMDL
