MODEL 1
REMARK minimizedAffinity -4.40156794
REMARK minimizedRMSD -1
REMARK  2 active torsions:
REMARK  status: ('A' for Active; 'I' for Inactive)
REMARK    1  A    between atoms: C2'_3  and  C1'_4 
REMARK    2  A    between atoms: C1'_4  and  C1_5 
ROOT
ATOM      1  C1  I4B d   1      -1.075   0.098  -0.639  0.00  0.00    -0.075 A 
ATOM      2  C2  I4B d   1      -0.756  -0.013  -1.969  0.00  0.00     0.003 A 
ATOM      3  C3  I4B d   1      -1.728   0.260  -2.961  0.00  0.00     0.002 A 
ATOM      4  C4  I4B d   1      -3.013   0.589  -2.581  0.00  0.00    -0.004 A 
ATOM      5  C5  I4B d   1      -3.329   0.724  -1.232  0.00  0.00     0.002 A 
ATOM      6  C6  I4B d   1      -2.351   0.489  -0.255  0.00  0.00     0.003 A 
ENDROOT
BRANCH   1   7
ATOM      7  C1' I4B d   1      -0.032  -0.229   0.382  0.00  0.00     0.060 C 
BRANCH   7   8
ATOM      8  C2' I4B d   1       1.129   0.723   0.186  0.00  0.00    -0.013 C 
ATOM      9  C4' I4B d   1       0.702   2.153   0.387  0.00  0.00     0.013 C 
ATOM     10  C3' I4B d   1       2.211   0.340   1.151  0.00  0.00     0.013 C 
ENDBRANCH   7   8
ENDBRANCH   1   7
TORSDOF 2
ENDMDL
