MODEL 1
REMARK minimizedAffinity -4.4021368
REMARK minimizedRMSD -1
REMARK  2 active torsions:
REMARK  status: ('A' for Active; 'I' for Inactive)
REMARK    1  A    between atoms: C2'_3  and  C1'_4 
REMARK    2  A    between atoms: C1'_4  and  C1_5 
ROOT
ATOM      1  C1  I4B d   1       1.311  -0.515   0.631  0.00  0.00    -0.075 A 
ATOM      2  C2  I4B d   1      -0.037  -0.548   0.371  0.00  0.00     0.003 A 
ATOM      3  C3  I4B d   1      -0.760   0.657   0.198  0.00  0.00     0.002 A 
ATOM      4  C4  I4B d   1      -0.110   1.866   0.343  0.00  0.00    -0.004 A 
ATOM      5  C5  I4B d   1       1.260   1.898   0.584  0.00  0.00     0.002 A 
ATOM      6  C6  I4B d   1       1.978   0.700   0.717  0.00  0.00     0.003 A 
ENDROOT
BRANCH   1   7
ATOM      7  C1' I4B d   1       2.037  -1.806   0.840  0.00  0.00     0.060 C 
BRANCH   7   8
ATOM      8  C2' I4B d   1       1.294  -2.592   1.900  0.00  0.00    -0.013 C 
ATOM      9  C4' I4B d   1       1.690  -4.045   1.879  0.00  0.00     0.013 C 
ATOM     10  C3' I4B d   1       1.591  -1.970   3.232  0.00  0.00     0.013 C 
ENDBRANCH   7   8
ENDBRANCH   1   7
TORSDOF 2
ENDMDL
