MODEL 1
REMARK minimizedAffinity 0.682083964
REMARK minimizedRMSD -1
REMARK  2 active torsions:
REMARK  status: ('A' for Active; 'I' for Inactive)
REMARK    1  A    between atoms: C2'_3  and  C1'_4 
REMARK    2  A    between atoms: C1'_4  and  C1_5 
ROOT
ATOM      1  C1  I4B d   1       0.973   2.373   0.624  0.00  0.00    -0.075 A 
ATOM      2  C2  I4B d   1       2.104   2.312   1.400  0.00  0.00     0.003 A 
ATOM      3  C3  I4B d   1       2.482   1.092   2.012  0.00  0.00     0.002 A 
ATOM      4  C4  I4B d   1       1.679  -0.020   1.865  0.00  0.00    -0.004 A 
ATOM      5  C5  I4B d   1       0.546   0.038   1.060  0.00  0.00     0.002 A 
ATOM      6  C6  I4B d   1       0.196   1.239   0.425  0.00  0.00     0.003 A 
ENDROOT
BRANCH   1   7
ATOM      7  C1' I4B d   1       0.585   3.685   0.019  0.00  0.00     0.060 C 
BRANCH   7   8
ATOM      8  C2' I4B d   1      -0.662   4.175   0.727  0.00  0.00    -0.013 C 
ATOM      9  C4' I4B d   1      -0.583   3.922   2.209  0.00  0.00     0.013 C 
ATOM     10  C3' I4B d   1      -0.816   5.637   0.435  0.00  0.00     0.013 C 
ENDBRANCH   7   8
ENDBRANCH   1   7
TORSDOF 2
ENDMDL
