MODEL 1
REMARK minimizedAffinity 4.32366228
REMARK minimizedRMSD -1
REMARK  0 active torsions:
REMARK  status: ('A' for Active; 'I' for Inactive)
ROOT
ATOM      1  C   UNL d   1       4.216  -0.805  -1.546  0.00  0.00     0.078 C 
ATOM      2  C1  UNL d   1       4.102  -0.657  -0.058  0.00  0.00    -0.077 A 
ATOM      3  C2  UNL d   1       2.866  -0.788   0.588  0.00  0.00    -0.001 A 
ATOM      4  C3  UNL d   1       2.773  -0.637   1.972  0.00  0.00     0.003 A 
ATOM      5  C4  UNL d   1       3.912  -0.353   2.723  0.00  0.00    -0.005 A 
ATOM      6  C5  UNL d   1       5.146  -0.219   2.089  0.00  0.00     0.003 A 
ATOM      7  C6  UNL d   1       5.241  -0.369   0.705  0.00  0.00    -0.001 A 
ENDROOT
TORSDOF 0
ENDMDL
