MODEL 1
REMARK minimizedAffinity -3.97813773
REMARK minimizedRMSD -1
REMARK  0 active torsions:
REMARK  status: ('A' for Active; 'I' for Inactive)
ROOT
ATOM      1  C   UNL d   1       0.325  -0.893  -0.274  0.00  0.00     0.078 C 
ATOM      2  C1  UNL d   1      -0.227   0.261   0.508  0.00  0.00    -0.077 A 
ATOM      3  C2  UNL d   1      -1.439   0.862   0.148  0.00  0.00    -0.001 A 
ATOM      4  C3  UNL d   1      -1.936   1.943   0.879  0.00  0.00     0.003 A 
ATOM      5  C4  UNL d   1      -1.226   2.432   1.974  0.00  0.00    -0.005 A 
ATOM      6  C5  UNL d   1      -0.018   1.842   2.338  0.00  0.00     0.003 A 
ATOM      7  C6  UNL d   1       0.481   0.762   1.608  0.00  0.00    -0.001 A 
ENDROOT
TORSDOF 0
ENDMDL
