MODEL 1
REMARK minimizedAffinity -3.17275596
REMARK minimizedRMSD -1
REMARK  0 active torsions:
REMARK  status: ('A' for Active; 'I' for Inactive)
ROOT
ATOM      1  C   UNL d   1      -1.648  -3.380  -1.919  0.00  0.00     0.078 C 
ATOM      2  C1  UNL d   1      -0.461  -4.024  -1.266  0.00  0.00    -0.077 A 
ATOM      3  C2  UNL d   1      -0.373  -5.415  -1.141  0.00  0.00    -0.001 A 
ATOM      4  C3  UNL d   1       0.733  -6.000  -0.522  0.00  0.00     0.003 A 
ATOM      5  C4  UNL d   1       1.759  -5.200  -0.023  0.00  0.00    -0.005 A 
ATOM      6  C5  UNL d   1       1.680  -3.814  -0.141  0.00  0.00     0.003 A 
ATOM      7  C6  UNL d   1       0.574  -3.228  -0.760  0.00  0.00    -0.001 A 
ENDROOT
TORSDOF 0
ENDMDL
