MODEL 1
REMARK minimizedAffinity 12.5573149
REMARK minimizedRMSD -1
REMARK  0 active torsions:
REMARK  status: ('A' for Active; 'I' for Inactive)
ROOT
ATOM      1  O1  BZF d   1       0.758  -4.451  -0.075  0.00  0.00    -0.204 OA
ATOM      2  C2  BZF d   1       1.637  -4.774  -1.091  0.00  0.00     0.174 A 
ATOM      3  C3  BZF d   1       2.153  -3.660  -1.649  0.00  0.00    -0.012 A 
ATOM      4  C3A BZF d   1       1.631  -2.575  -0.876  0.00  0.00    -0.107 A 
ATOM      5  C4  BZF d   1       1.792  -1.220  -0.930  0.00  0.00     0.055 A 
ATOM      6  C5  BZF d   1       1.083  -0.435  -0.076  0.00  0.00    -0.016 A 
ATOM      7  C6  BZF d   1       0.202  -0.971   0.840  0.00  0.00     0.022 A 
ATOM      8  C7  BZF d   1       0.013  -2.310   0.935  0.00  0.00     0.029 A 
ATOM      9  C7A BZF d   1       0.752  -3.107   0.096  0.00  0.00     0.058 A 
ENDROOT
TORSDOF 0
ENDMDL
