MODEL 1
REMARK minimizedAffinity 1.25877643
REMARK minimizedRMSD -1
REMARK  0 active torsions:
REMARK  status: ('A' for Active; 'I' for Inactive)
ROOT
ATOM      1  O1  BZF d   1       0.932  -0.205  -0.955  0.00  0.00    -0.204 OA
ATOM      2  C2  BZF d   1       0.297   0.834  -1.607  0.00  0.00     0.174 A 
ATOM      3  C3  BZF d   1      -0.318   1.648  -0.726  0.00  0.00    -0.012 A 
ATOM      4  C3A BZF d   1       0.027   1.135   0.565  0.00  0.00    -0.107 A 
ATOM      5  C4  BZF d   1      -0.268   1.525   1.840  0.00  0.00     0.055 A 
ATOM      6  C5  BZF d   1       0.165   0.765   2.880  0.00  0.00    -0.016 A 
ATOM      7  C6  BZF d   1       0.890  -0.392   2.681  0.00  0.00     0.022 A 
ATOM      8  C7  BZF d   1       1.212  -0.816   1.435  0.00  0.00     0.029 A 
ATOM      9  C7A BZF d   1       0.804  -0.032   0.383  0.00  0.00     0.058 A 
ENDROOT
TORSDOF 0
ENDMDL
