MODEL 1
REMARK minimizedAffinity 0.0210754722
REMARK minimizedRMSD -1
REMARK  0 active torsions:
REMARK  status: ('A' for Active; 'I' for Inactive)
ROOT
ATOM      1  O1  BZF d   1      -0.252   1.074  -0.802  0.00  0.00    -0.204 OA
ATOM      2  C2  BZF d   1       0.194   0.098  -1.673  0.00  0.00     0.174 A 
ATOM      3  C3  BZF d   1       0.972  -0.797  -1.030  0.00  0.00    -0.012 A 
ATOM      4  C3A BZF d   1       0.939  -0.405   0.346  0.00  0.00    -0.107 A 
ATOM      5  C4  BZF d   1       1.504  -0.913   1.480  0.00  0.00     0.055 A 
ATOM      6  C5  BZF d   1       1.335  -0.251   2.655  0.00  0.00    -0.016 A 
ATOM      7  C6  BZF d   1       0.613   0.922   2.731  0.00  0.00     0.022 A 
ATOM      8  C7  BZF d   1       0.029   1.461   1.633  0.00  0.00     0.029 A 
ATOM      9  C7A BZF d   1       0.170   0.777   0.450  0.00  0.00     0.058 A 
ENDROOT
TORSDOF 0
ENDMDL
