MODEL 1
REMARK minimizedAffinity 9.66167641
REMARK minimizedRMSD -1
REMARK  0 active torsions:
REMARK  status: ('A' for Active; 'I' for Inactive)
ROOT
ATOM      1  O1  BZF d   1       0.543   1.510  -0.827  0.00  0.00    -0.204 OA
ATOM      2  C2  BZF d   1      -0.255   1.460  -1.953  0.00  0.00     0.174 A 
ATOM      3  C3  BZF d   1      -1.510   1.864  -1.668  0.00  0.00    -0.012 A 
ATOM      4  C3A BZF d   1      -1.471   2.274  -0.298  0.00  0.00    -0.107 A 
ATOM      5  C4  BZF d   1      -2.406   2.786   0.556  0.00  0.00     0.055 A 
ATOM      6  C5  BZF d   1      -2.064   3.011   1.851  0.00  0.00    -0.016 A 
ATOM      7  C6  BZF d   1      -0.801   2.730   2.328  0.00  0.00     0.022 A 
ATOM      8  C7  BZF d   1       0.161   2.225   1.519  0.00  0.00     0.029 A 
ATOM      9  C7A BZF d   1      -0.171   2.028   0.201  0.00  0.00     0.058 A 
ENDROOT
TORSDOF 0
ENDMDL
