MODEL 1
REMARK minimizedAffinity 6.4779191
REMARK minimizedRMSD -1
REMARK  0 active torsions:
REMARK  status: ('A' for Active; 'I' for Inactive)
ROOT
ATOM      1  O1  BZF d   1       1.925  -1.752  -2.603  0.00  0.00    -0.204 OA
ATOM      2  C2  BZF d   1       2.023  -1.688  -1.227  0.00  0.00     0.174 A 
ATOM      3  C3  BZF d   1       2.183  -2.919  -0.701  0.00  0.00    -0.012 A 
ATOM      4  C3A BZF d   1       2.277  -3.800  -1.825  0.00  0.00    -0.107 A 
ATOM      5  C4  BZF d   1       2.457  -5.148  -1.949  0.00  0.00     0.055 A 
ATOM      6  C5  BZF d   1       2.429  -5.706  -3.188  0.00  0.00    -0.016 A 
ATOM      7  C6  BZF d   1       2.219  -4.948  -4.321  0.00  0.00     0.022 A 
ATOM      8  C7  BZF d   1       2.041  -3.607  -4.248  0.00  0.00     0.029 A 
ATOM      9  C7A BZF d   1       2.101  -3.035  -3.001  0.00  0.00     0.058 A 
ENDROOT
TORSDOF 0
ENDMDL
