MODEL 1
REMARK minimizedAffinity 4.44922352
REMARK minimizedRMSD -1
REMARK  0 active torsions:
REMARK  status: ('A' for Active; 'I' for Inactive)
ROOT
ATOM      1  O1  BZF d   1       0.484   1.645  -1.230  0.00  0.00    -0.204 OA
ATOM      2  C2  BZF d   1      -0.479   1.799  -2.208  0.00  0.00     0.174 A 
ATOM      3  C3  BZF d   1      -1.637   2.237  -1.674  0.00  0.00    -0.012 A 
ATOM      4  C3A BZF d   1      -1.354   2.452  -0.288  0.00  0.00    -0.107 A 
ATOM      5  C4  BZF d   1      -2.101   2.900   0.764  0.00  0.00     0.055 A 
ATOM      6  C5  BZF d   1      -1.547   2.924   2.005  0.00  0.00    -0.016 A 
ATOM      7  C6  BZF d   1      -0.253   2.502   2.230  0.00  0.00     0.022 A 
ATOM      8  C7  BZF d   1       0.528   2.055   1.217  0.00  0.00     0.029 A 
ATOM      9  C7A BZF d   1      -0.018   2.061  -0.043  0.00  0.00     0.058 A 
ENDROOT
TORSDOF 0
ENDMDL
