MODEL 1
REMARK minimizedAffinity 9.80524635
REMARK minimizedRMSD -1
REMARK  0 active torsions:
REMARK  status: ('A' for Active; 'I' for Inactive)
ROOT
ATOM      1  O1  BZF d   1      -3.699   0.492  -1.602  0.00  0.00    -0.204 OA
ATOM      2  C2  BZF d   1      -3.945  -0.839  -1.327  0.00  0.00     0.174 A 
ATOM      3  C3  BZF d   1      -2.790  -1.523  -1.200  0.00  0.00    -0.012 A 
ATOM      4  C3A BZF d   1      -1.756  -0.540  -1.316  0.00  0.00    -0.107 A 
ATOM      5  C4  BZF d   1      -0.393  -0.600  -1.259  0.00  0.00     0.055 A 
ATOM      6  C5  BZF d   1       0.328   0.529  -1.485  0.00  0.00    -0.016 A 
ATOM      7  C6  BZF d   1      -0.280   1.733  -1.775  0.00  0.00     0.022 A 
ATOM      8  C7  BZF d   1      -1.630   1.843  -1.838  0.00  0.00     0.029 A 
ATOM      9  C7A BZF d   1      -2.362   0.710  -1.578  0.00  0.00     0.058 A 
ENDROOT
TORSDOF 0
ENDMDL
