MODEL 1
REMARK minimizedAffinity 3.76223755
REMARK minimizedRMSD -1
REMARK  0 active torsions:
REMARK  status: ('A' for Active; 'I' for Inactive)
ROOT
ATOM      1  O1  BZF d   1       0.386   1.045  -1.450  0.00  0.00    -0.204 OA
ATOM      2  C2  BZF d   1      -0.441   1.317  -2.523  0.00  0.00     0.174 A 
ATOM      3  C3  BZF d   1      -1.505   2.049  -2.134  0.00  0.00    -0.012 A 
ATOM      4  C3A BZF d   1      -1.285   2.324  -0.747  0.00  0.00    -0.107 A 
ATOM      5  C4  BZF d   1      -1.986   3.023   0.194  0.00  0.00     0.055 A 
ATOM      6  C5  BZF d   1      -1.536   3.039   1.476  0.00  0.00    -0.016 A 
ATOM      7  C6  BZF d   1      -0.393   2.365   1.852  0.00  0.00     0.022 A 
ATOM      8  C7  BZF d   1       0.339   1.662   0.953  0.00  0.00     0.029 A 
ATOM      9  C7A BZF d   1      -0.096   1.671  -0.350  0.00  0.00     0.058 A 
ENDROOT
TORSDOF 0
ENDMDL
