MODEL 1
REMARK minimizedAffinity -4.433743
REMARK minimizedRMSD -1
REMARK  0 active torsions:
REMARK  status: ('A' for Active; 'I' for Inactive)
ROOT
ATOM      1  O1  BZF d   1      -0.002  -0.021   0.813  0.00  0.00    -0.204 OA
ATOM      2  C2  BZF d   1      -0.257  -0.448  -0.476  0.00  0.00     0.174 A 
ATOM      3  C3  BZF d   1      -0.433   0.604  -1.302  0.00  0.00    -0.012 A 
ATOM      4  C3A BZF d   1      -0.188   1.761  -0.497  0.00  0.00    -0.107 A 
ATOM      5  C4  BZF d   1      -0.194   3.102  -0.753  0.00  0.00     0.055 A 
ATOM      6  C5  BZF d   1       0.015   3.971   0.270  0.00  0.00    -0.016 A 
ATOM      7  C6  BZF d   1       0.228   3.535   1.561  0.00  0.00     0.022 A 
ATOM      8  C7  BZF d   1       0.247   2.214   1.864  0.00  0.00     0.029 A 
ATOM      9  C7A BZF d   1       0.069   1.332   0.826  0.00  0.00     0.058 A 
ENDROOT
TORSDOF 0
ENDMDL
