MODEL 1
REMARK minimizedAffinity -1.72367525
REMARK minimizedRMSD -1
REMARK  0 active torsions:
REMARK  status: ('A' for Active; 'I' for Inactive)
ROOT
ATOM      1  C2' OXE d   1      -3.534   0.018   1.521  0.00  0.00     0.078 C 
ATOM      2  C1' OXE d   1      -3.515   2.648   0.540  0.00  0.00     0.078 C 
ATOM      3  C1  OXE d   1      -2.196   1.924   0.637  0.00  0.00    -0.078 A 
ATOM      4  C2  OXE d   1      -2.208   0.654   1.162  0.00  0.00    -0.078 A 
ATOM      5  C3  OXE d   1      -1.026  -0.078   1.222  0.00  0.00     0.003 A 
ATOM      6  C4  OXE d   1       0.196   0.521   0.897  0.00  0.00    -0.002 A 
ATOM      7  C5  OXE d   1       0.236   1.828   0.398  0.00  0.00    -0.002 A 
ATOM      8  C6  OXE d   1      -0.953   2.526   0.222  0.00  0.00     0.003 A 
ENDROOT
TORSDOF 0
ENDMDL
