MODEL 1
REMARK minimizedAffinity 1.99951208
REMARK minimizedRMSD -1
REMARK  0 active torsions:
REMARK  status: ('A' for Active; 'I' for Inactive)
ROOT
ATOM      1  C2' OXE d   1      -4.344   1.990   0.551  0.00  0.00     0.078 C 
ATOM      2  C1' OXE d   1      -3.144   2.667  -1.894  0.00  0.00     0.078 C 
ATOM      3  C1  OXE d   1      -2.244   2.227  -0.767  0.00  0.00    -0.078 A 
ATOM      4  C2  OXE d   1      -2.836   1.942   0.440  0.00  0.00    -0.078 A 
ATOM      5  C3  OXE d   1      -2.057   1.479   1.497  0.00  0.00     0.003 A 
ATOM      6  C4  OXE d   1      -0.662   1.448   1.389  0.00  0.00    -0.002 A 
ATOM      7  C5  OXE d   1      -0.036   1.772   0.181  0.00  0.00    -0.002 A 
ATOM      8  C6  OXE d   1      -0.814   2.122  -0.917  0.00  0.00     0.003 A 
ENDROOT
TORSDOF 0
ENDMDL
