MODEL 1
REMARK minimizedAffinity 0.233774066
REMARK minimizedRMSD -1
REMARK  0 active torsions:
REMARK  status: ('A' for Active; 'I' for Inactive)
ROOT
ATOM      1  C2' OXE d   1       0.394   0.787   0.761  0.00  0.00     0.078 C 
ATOM      2  C1' OXE d   1      -1.110   3.140   0.481  0.00  0.00     0.078 C 
ATOM      3  C1  OXE d   1      -1.857   1.831   0.536  0.00  0.00    -0.078 A 
ATOM      4  C2  OXE d   1      -1.110   0.681   0.626  0.00  0.00    -0.078 A 
ATOM      5  C3  OXE d   1      -1.750  -0.550   0.735  0.00  0.00     0.003 A 
ATOM      6  C4  OXE d   1      -3.141  -0.640   0.599  0.00  0.00    -0.002 A 
ATOM      7  C5  OXE d   1      -3.917   0.516   0.466  0.00  0.00    -0.002 A 
ATOM      8  C6  OXE d   1      -3.296   1.759   0.476  0.00  0.00     0.003 A 
ENDROOT
TORSDOF 0
ENDMDL
