MODEL 1
REMARK minimizedAffinity -0.0536883958
REMARK minimizedRMSD -1
REMARK  0 active torsions:
REMARK  status: ('A' for Active; 'I' for Inactive)
ROOT
ATOM      1  C2' OXE d   1      -5.277   2.206   0.638  0.00  0.00     0.078 C 
ATOM      2  C1' OXE d   1      -4.520  -0.262   1.739  0.00  0.00     0.078 C 
ATOM      3  C1  OXE d   1      -3.438   0.603   1.143  0.00  0.00    -0.078 A 
ATOM      4  C2  OXE d   1      -3.824   1.788   0.565  0.00  0.00    -0.078 A 
ATOM      5  C3  OXE d   1      -2.859   2.650   0.049  0.00  0.00     0.003 A 
ATOM      6  C4  OXE d   1      -1.519   2.251  -0.023  0.00  0.00    -0.002 A 
ATOM      7  C5  OXE d   1      -1.111   1.031   0.524  0.00  0.00    -0.002 A 
ATOM      8  C6  OXE d   1      -2.049   0.216   1.148  0.00  0.00     0.003 A 
ENDROOT
TORSDOF 0
ENDMDL
