MODEL 1
REMARK minimizedAffinity 3.4211719
REMARK minimizedRMSD -1
REMARK  0 active torsions:
REMARK  status: ('A' for Active; 'I' for Inactive)
ROOT
ATOM      1  C2' OXE d   1      -1.458  -0.828   1.441  0.00  0.00     0.078 C 
ATOM      2  C1' OXE d   1       0.991   0.442   0.924  0.00  0.00     0.078 C 
ATOM      3  C1  OXE d   1      -0.257   1.287   0.902  0.00  0.00    -0.078 A 
ATOM      4  C2  OXE d   1      -1.457   0.649   1.110  0.00  0.00    -0.078 A 
ATOM      5  C3  OXE d   1      -2.633   1.391   1.154  0.00  0.00     0.003 A 
ATOM      6  C4  OXE d   1      -2.624   2.755   0.837  0.00  0.00    -0.002 A 
ATOM      7  C5  OXE d   1      -1.418   3.416   0.583  0.00  0.00    -0.002 A 
ATOM      8  C6  OXE d   1      -0.224   2.707   0.653  0.00  0.00     0.003 A 
ENDROOT
TORSDOF 0
ENDMDL
