MODEL 1
REMARK minimizedAffinity 7.99832869
REMARK minimizedRMSD -1
REMARK  0 active torsions:
REMARK  status: ('A' for Active; 'I' for Inactive)
ROOT
ATOM      1  C2' OXE d   1       0.780   1.176   0.773  0.00  0.00     0.078 C 
ATOM      2  C1' OXE d   1      -1.221  -0.090   2.282  0.00  0.00     0.078 C 
ATOM      3  C1  OXE d   1      -1.649   0.957   1.283  0.00  0.00    -0.078 A 
ATOM      4  C2  OXE d   1      -0.659   1.604   0.583  0.00  0.00    -0.078 A 
ATOM      5  C3  OXE d   1      -1.002   2.539  -0.390  0.00  0.00     0.003 A 
ATOM      6  C4  OXE d   1      -2.335   2.936  -0.552  0.00  0.00    -0.002 A 
ATOM      7  C5  OXE d   1      -3.354   2.318   0.179  0.00  0.00    -0.002 A 
ATOM      8  C6  OXE d   1      -3.033   1.299   1.068  0.00  0.00     0.003 A 
ENDROOT
TORSDOF 0
ENDMDL
