MODEL 1
REMARK minimizedAffinity -2.45071554
REMARK minimizedRMSD -1
REMARK  0 active torsions:
REMARK  status: ('A' for Active; 'I' for Inactive)
ROOT
ATOM      1  C2' OXE d   1      -4.575   2.593   0.288  0.00  0.00     0.078 C 
ATOM      2  C1' OXE d   1      -4.346   0.075   1.507  0.00  0.00     0.078 C 
ATOM      3  C1  OXE d   1      -3.093   0.704   0.950  0.00  0.00    -0.078 A 
ATOM      4  C2  OXE d   1      -3.222   1.915   0.314  0.00  0.00    -0.078 A 
ATOM      5  C3  OXE d   1      -2.090   2.564  -0.169  0.00  0.00     0.003 A 
ATOM      6  C4  OXE d   1      -0.844   1.925  -0.150  0.00  0.00    -0.002 A 
ATOM      7  C5  OXE d   1      -0.697   0.673   0.458  0.00  0.00    -0.002 A 
ATOM      8  C6  OXE d   1      -1.802   0.070   1.049  0.00  0.00     0.003 A 
ENDROOT
TORSDOF 0
ENDMDL
