MODEL 1
REMARK minimizedAffinity 1.98434138
REMARK minimizedRMSD -1
REMARK  0 active torsions:
REMARK  status: ('A' for Active; 'I' for Inactive)
ROOT
ATOM      1  C2' OXE d   1      -2.873  -0.216   1.456  0.00  0.00     0.078 C 
ATOM      2  C1' OXE d   1      -0.623  -0.967   2.957  0.00  0.00     0.078 C 
ATOM      3  C1  OXE d   1      -0.406  -0.066   1.768  0.00  0.00    -0.078 A 
ATOM      4  C2  OXE d   1      -1.507   0.259   1.012  0.00  0.00    -0.078 A 
ATOM      5  C3  OXE d   1      -1.371   1.132  -0.064  0.00  0.00     0.003 A 
ATOM      6  C4  OXE d   1      -0.102   1.558  -0.475  0.00  0.00    -0.002 A 
ATOM      7  C5  OXE d   1       1.037   1.207   0.258  0.00  0.00    -0.002 A 
ATOM      8  C6  OXE d   1       0.898   0.432   1.404  0.00  0.00     0.003 A 
ENDROOT
TORSDOF 0
ENDMDL
