MODEL 1
REMARK minimizedAffinity 6.38500834
REMARK minimizedRMSD -1
REMARK  0 active torsions:
REMARK  status: ('A' for Active; 'I' for Inactive)
ROOT
ATOM      1  C2' OXE d   1      -3.764   0.264   1.023  0.00  0.00     0.078 C 
ATOM      2  C1' OXE d   1      -1.721  -0.403   2.830  0.00  0.00     0.078 C 
ATOM      3  C1  OXE d   1      -1.435   0.671   1.810  0.00  0.00    -0.078 A 
ATOM      4  C2  OXE d   1      -2.424   0.958   0.900  0.00  0.00    -0.078 A 
ATOM      5  C3  OXE d   1      -2.232   1.977  -0.028  0.00  0.00     0.003 A 
ATOM      6  C4  OXE d   1      -0.987   2.607  -0.142  0.00  0.00    -0.002 A 
ATOM      7  C5  OXE d   1       0.047   2.302   0.749  0.00  0.00    -0.002 A 
ATOM      8  C6  OXE d   1      -0.174   1.368   1.755  0.00  0.00     0.003 A 
ENDROOT
TORSDOF 0
ENDMDL
