MODEL 1
REMARK minimizedAffinity 1.19771755
REMARK minimizedRMSD -1
REMARK  0 active torsions:
REMARK  status: ('A' for Active; 'I' for Inactive)
ROOT
ATOM      1  C2' OXE d   1      -3.655   0.682   0.523  0.00  0.00     0.078 C 
ATOM      2  C1' OXE d   1      -2.463   3.218   0.349  0.00  0.00     0.078 C 
ATOM      3  C1  OXE d   1      -1.592   2.057   0.761  0.00  0.00    -0.078 A 
ATOM      4  C2  OXE d   1      -2.194   0.829   0.889  0.00  0.00    -0.078 A 
ATOM      5  C3  OXE d   1      -1.425  -0.285   1.213  0.00  0.00     0.003 A 
ATOM      6  C4  OXE d   1      -0.076  -0.139   1.559  0.00  0.00    -0.002 A 
ATOM      7  C5  OXE d   1       0.547   1.110   1.474  0.00  0.00    -0.002 A 
ATOM      8  C6  OXE d   1      -0.185   2.209   1.036  0.00  0.00     0.003 A 
ENDROOT
TORSDOF 0
ENDMDL
