MODEL 1
REMARK minimizedAffinity -1.19694924
REMARK minimizedRMSD -1
REMARK  0 active torsions:
REMARK  status: ('A' for Active; 'I' for Inactive)
ROOT
ATOM      1  C2' OXE d   1      -5.208   1.505   0.555  0.00  0.00     0.078 C 
ATOM      2  C1' OXE d   1      -4.035  -0.781   1.686  0.00  0.00     0.078 C 
ATOM      3  C1  OXE d   1      -3.119   0.324   1.223  0.00  0.00    -0.078 A 
ATOM      4  C2  OXE d   1      -3.699   1.419   0.628  0.00  0.00    -0.078 A 
ATOM      5  C3  OXE d   1      -2.904   2.491   0.232  0.00  0.00     0.003 A 
ATOM      6  C4  OXE d   1      -1.508   2.399   0.294  0.00  0.00    -0.002 A 
ATOM      7  C5  OXE d   1      -0.895   1.276   0.860  0.00  0.00    -0.002 A 
ATOM      8  C6  OXE d   1      -1.686   0.251   1.367  0.00  0.00     0.003 A 
ENDROOT
TORSDOF 0
ENDMDL
