MODEL 1
REMARK minimizedAffinity -1.78912091
REMARK minimizedRMSD -1
REMARK  0 active torsions:
REMARK  status: ('A' for Active; 'I' for Inactive)
ROOT
ATOM      1  C2' OXE d   1       0.149   2.678   0.387  0.00  0.00     0.078 C 
ATOM      2  C1' OXE d   1      -0.228  -0.002   1.131  0.00  0.00     0.078 C 
ATOM      3  C1  OXE d   1      -1.456   0.835   0.869  0.00  0.00    -0.078 A 
ATOM      4  C2  OXE d   1      -1.263   2.157   0.550  0.00  0.00    -0.078 A 
ATOM      5  C3  OXE d   1      -2.358   2.960   0.245  0.00  0.00     0.003 A 
ATOM      6  C4  OXE d   1      -3.661   2.473   0.408  0.00  0.00    -0.002 A 
ATOM      7  C5  OXE d   1      -3.880   1.140   0.770  0.00  0.00    -0.002 A 
ATOM      8  C6  OXE d   1      -2.791   0.298   0.962  0.00  0.00     0.003 A 
ENDROOT
TORSDOF 0
ENDMDL
