MODEL 1
REMARK minimizedAffinity 1.36035633
REMARK minimizedRMSD -1
REMARK  0 active torsions:
REMARK  status: ('A' for Active; 'I' for Inactive)
ROOT
ATOM      1  C2' OXE d   1       0.793   0.297   0.844  0.00  0.00     0.078 C 
ATOM      2  C1' OXE d   1      -1.758  -0.719   1.425  0.00  0.00     0.078 C 
ATOM      3  C1  OXE d   1      -1.662   0.705   0.937  0.00  0.00    -0.078 A 
ATOM      4  C2  OXE d   1      -0.406   1.209   0.700  0.00  0.00    -0.078 A 
ATOM      5  C3  OXE d   1      -0.264   2.499   0.196  0.00  0.00     0.003 A 
ATOM      6  C4  OXE d   1      -1.377   3.339   0.075  0.00  0.00    -0.002 A 
ATOM      7  C5  OXE d   1      -2.662   2.859   0.350  0.00  0.00    -0.002 A 
ATOM      8  C6  OXE d   1      -2.826   1.534   0.740  0.00  0.00     0.003 A 
ENDROOT
TORSDOF 0
ENDMDL
