MODEL 1
REMARK minimizedAffinity -1.12406778
REMARK minimizedRMSD -1
REMARK  0 active torsions:
REMARK  status: ('A' for Active; 'I' for Inactive)
ROOT
ATOM      1  C2' OXE d   1      -3.634   0.118   1.895  0.00  0.00     0.078 C 
ATOM      2  C1' OXE d   1      -3.748   2.519   0.446  0.00  0.00     0.078 C 
ATOM      3  C1  OXE d   1      -2.423   1.802   0.516  0.00  0.00    -0.078 A 
ATOM      4  C2  OXE d   1      -2.365   0.653   1.267  0.00  0.00    -0.078 A 
ATOM      5  C3  OXE d   1      -1.181  -0.077   1.320  0.00  0.00     0.003 A 
ATOM      6  C4  OXE d   1      -0.009   0.430   0.745  0.00  0.00    -0.002 A 
ATOM      7  C5  OXE d   1      -0.037   1.620   0.010  0.00  0.00    -0.002 A 
ATOM      8  C6  OXE d   1      -1.242   2.295  -0.150  0.00  0.00     0.003 A 
ENDROOT
TORSDOF 0
ENDMDL
