MODEL 1
REMARK minimizedAffinity -4.29301071
REMARK minimizedRMSD -1
REMARK  0 active torsions:
REMARK  status: ('A' for Active; 'I' for Inactive)
ROOT
ATOM      1  C2' OXE d   1       0.420   2.312  -0.732  0.00  0.00     0.078 C 
ATOM      2  C1' OXE d   1       0.004   0.507   1.377  0.00  0.00     0.078 C 
ATOM      3  C1  OXE d   1      -1.209   1.142   0.745  0.00  0.00    -0.078 A 
ATOM      4  C2  OXE d   1      -0.994   2.059  -0.255  0.00  0.00    -0.078 A 
ATOM      5  C3  OXE d   1      -2.080   2.633  -0.910  0.00  0.00     0.003 A 
ATOM      6  C4  OXE d   1      -3.384   2.401  -0.456  0.00  0.00    -0.002 A 
ATOM      7  C5  OXE d   1      -3.623   1.501   0.588  0.00  0.00    -0.002 A 
ATOM      8  C6  OXE d   1      -2.552   0.832   1.169  0.00  0.00     0.003 A 
ENDROOT
TORSDOF 0
ENDMDL
