MODEL 1
REMARK minimizedAffinity 0.903601408
REMARK minimizedRMSD -1
REMARK  0 active torsions:
REMARK  status: ('A' for Active; 'I' for Inactive)
ROOT
ATOM      1  C2' OXE d   1       0.598   1.823  -0.222  0.00  0.00     0.078 C 
ATOM      2  C1' OXE d   1      -0.237   0.083   1.816  0.00  0.00     0.078 C 
ATOM      3  C1  OXE d   1      -1.299   0.836   1.055  0.00  0.00    -0.078 A 
ATOM      4  C2  OXE d   1      -0.879   1.720   0.091  0.00  0.00    -0.078 A 
ATOM      5  C3  OXE d   1      -1.820   2.399  -0.678  0.00  0.00     0.003 A 
ATOM      6  C4  OXE d   1      -3.183   2.306  -0.376  0.00  0.00    -0.002 A 
ATOM      7  C5  OXE d   1      -3.630   1.441   0.628  0.00  0.00    -0.002 A 
ATOM      8  C6  OXE d   1      -2.706   0.668   1.323  0.00  0.00     0.003 A 
ENDROOT
TORSDOF 0
ENDMDL
