MODEL 1
REMARK minimizedAffinity -3.52720237
REMARK minimizedRMSD -1
REMARK  0 active torsions:
REMARK  status: ('A' for Active; 'I' for Inactive)
ROOT
ATOM      1  C2' OXE d   1       0.513   0.795   0.467  0.00  0.00     0.078 C 
ATOM      2  C1' OXE d   1      -0.265   3.162  -0.825  0.00  0.00     0.078 C 
ATOM      3  C1  OXE d   1      -1.348   2.293  -0.237  0.00  0.00    -0.078 A 
ATOM      4  C2  OXE d   1      -0.962   1.113   0.353  0.00  0.00    -0.078 A 
ATOM      5  C3  OXE d   1      -1.915   0.301   0.959  0.00  0.00     0.003 A 
ATOM      6  C4  OXE d   1      -3.279   0.598   0.840  0.00  0.00    -0.002 A 
ATOM      7  C5  OXE d   1      -3.697   1.774   0.210  0.00  0.00    -0.002 A 
ATOM      8  C6  OXE d   1      -2.744   2.652  -0.296  0.00  0.00     0.003 A 
ENDROOT
TORSDOF 0
ENDMDL
