MODEL 1
REMARK minimizedAffinity -2.73534131
REMARK minimizedRMSD -1
REMARK  0 active torsions:
REMARK  status: ('A' for Active; 'I' for Inactive)
ROOT
ATOM      1  C2' OXE d   1      -4.169   1.859   0.459  0.00  0.00     0.078 C 
ATOM      2  C1' OXE d   1      -2.631  -0.307   1.367  0.00  0.00     0.078 C 
ATOM      3  C1  OXE d   1      -1.940   0.750   0.543  0.00  0.00    -0.078 A 
ATOM      4  C2  OXE d   1      -2.710   1.782   0.064  0.00  0.00    -0.078 A 
ATOM      5  C3  OXE d   1      -2.111   2.813  -0.655  0.00  0.00     0.003 A 
ATOM      6  C4  OXE d   1      -0.763   2.729  -1.025  0.00  0.00    -0.002 A 
ATOM      7  C5  OXE d   1       0.030   1.666  -0.580  0.00  0.00    -0.002 A 
ATOM      8  C6  OXE d   1      -0.531   0.693   0.238  0.00  0.00     0.003 A 
ENDROOT
TORSDOF 0
ENDMDL
