MODEL 1
REMARK minimizedAffinity 6.26891756
REMARK minimizedRMSD -1
REMARK  0 active torsions:
REMARK  status: ('A' for Active; 'I' for Inactive)
ROOT
ATOM      1  C2' OXE d   1       2.670   1.436   1.738  0.00  0.00     0.078 C 
ATOM      2  C1' OXE d   1       0.940   1.943  -0.414  0.00  0.00     0.078 C 
ATOM      3  C1  OXE d   1       0.356   1.956   0.977  0.00  0.00    -0.078 A 
ATOM      4  C2  OXE d   1       1.200   1.661   2.020  0.00  0.00    -0.078 A 
ATOM      5  C3  OXE d   1       0.725   1.714   3.327  0.00  0.00     0.003 A 
ATOM      6  C4  OXE d   1      -0.638   1.913   3.579  0.00  0.00    -0.002 A 
ATOM      7  C5  OXE d   1      -1.523   2.176   2.527  0.00  0.00    -0.002 A 
ATOM      8  C6  OXE d   1      -1.035   2.243   1.227  0.00  0.00     0.003 A 
ENDROOT
TORSDOF 0
ENDMDL
