MODEL 1
REMARK minimizedAffinity -1.98429883
REMARK minimizedRMSD -1
REMARK  0 active torsions:
REMARK  status: ('A' for Active; 'I' for Inactive)
ROOT
ATOM      1  C   UNL d   1       2.094  -1.733   1.687  0.00  0.00     0.023 A 
ATOM      2  C1  UNL d   1       2.194  -0.547   0.958  0.00  0.00     0.003 A 
ATOM      3  C2  UNL d   1       1.076  -0.037   0.296  0.00  0.00     0.048 A 
ATOM      4  C3  UNL d   1      -0.140  -0.716   0.367  0.00  0.00     0.023 A 
ATOM      5  C4  UNL d   1      -0.245  -1.903   1.095  0.00  0.00     0.048 A 
ATOM      6  C5  UNL d   1       0.876  -2.410   1.755  0.00  0.00     0.003 A 
ATOM      7  I   UNL d   1      -1.806   0.042  -0.618  0.00  0.00    -0.146 I 
ENDROOT
TORSDOF 0
ENDMDL
