MODEL 1
REMARK minimizedAffinity 1.51980853
REMARK minimizedRMSD -1
REMARK  0 active torsions:
REMARK  status: ('A' for Active; 'I' for Inactive)
ROOT
ATOM      1  C   UNL d   1       1.570   2.066   0.903  0.00  0.00     0.023 A 
ATOM      2  C1  UNL d   1       2.405   1.157   1.552  0.00  0.00     0.003 A 
ATOM      3  C2  UNL d   1       2.110  -0.208   1.523  0.00  0.00     0.048 A 
ATOM      4  C3  UNL d   1       0.978  -0.656   0.842  0.00  0.00     0.023 A 
ATOM      5  C4  UNL d   1       0.140   0.250   0.190  0.00  0.00     0.048 A 
ATOM      6  C5  UNL d   1       0.439   1.614   0.223  0.00  0.00     0.003 A 
ATOM      7  I   UNL d   1       0.537  -2.687   0.797  0.00  0.00    -0.146 I 
ENDROOT
TORSDOF 0
ENDMDL
