MODEL 1
REMARK minimizedAffinity 1.81224918
REMARK minimizedRMSD -1
REMARK  0 active torsions:
REMARK  status: ('A' for Active; 'I' for Inactive)
ROOT
ATOM      1  C   UNL d   1       0.457   0.281   1.133  0.00  0.00     0.023 A 
ATOM      2  C1  UNL d   1       0.330   1.521   0.506  0.00  0.00     0.003 A 
ATOM      3  C2  UNL d   1      -0.463   1.650  -0.635  0.00  0.00     0.048 A 
ATOM      4  C3  UNL d   1      -1.129   0.536  -1.144  0.00  0.00     0.023 A 
ATOM      5  C4  UNL d   1      -1.007  -0.707  -0.519  0.00  0.00     0.048 A 
ATOM      6  C5  UNL d   1      -0.211  -0.831   0.621  0.00  0.00     0.003 A 
ATOM      7  I   UNL d   1      -2.312   0.726  -2.842  0.00  0.00    -0.146 I 
ENDROOT
TORSDOF 0
ENDMDL
