MODEL 1
REMARK minimizedAffinity -3.68897891
REMARK minimizedRMSD -1
REMARK  0 active torsions:
REMARK  status: ('A' for Active; 'I' for Inactive)
ROOT
ATOM      1  C   UNL d   1       3.091  -0.294   0.929  0.00  0.00     0.023 A 
ATOM      2  C1  UNL d   1       2.427  -1.404   0.407  0.00  0.00     0.003 A 
ATOM      3  C2  UNL d   1       1.095  -1.295   0.002  0.00  0.00     0.048 A 
ATOM      4  C3  UNL d   1       0.434  -0.073   0.120  0.00  0.00     0.023 A 
ATOM      5  C4  UNL d   1       1.095   1.041   0.640  0.00  0.00     0.048 A 
ATOM      6  C5  UNL d   1       2.427   0.927   1.045  0.00  0.00     0.003 A 
ATOM      7  I   UNL d   1      -1.548   0.092  -0.483  0.00  0.00    -0.146 I 
ENDROOT
TORSDOF 0
ENDMDL
