MODEL 1
REMARK minimizedAffinity -2.6638124
REMARK minimizedRMSD -1
REMARK  0 active torsions:
REMARK  status: ('A' for Active; 'I' for Inactive)
ROOT
ATOM      1  C   UNL d   1      -1.572  -0.864   1.107  0.00  0.00     0.023 A 
ATOM      2  C1  UNL d   1      -0.905   0.173   0.455  0.00  0.00     0.003 A 
ATOM      3  C2  UNL d   1       0.490   0.178   0.395  0.00  0.00     0.048 A 
ATOM      4  C3  UNL d   1       1.212  -0.857   0.988  0.00  0.00     0.023 A 
ATOM      5  C4  UNL d   1       0.549  -1.897   1.641  0.00  0.00     0.048 A 
ATOM      6  C5  UNL d   1      -0.846  -1.898   1.700  0.00  0.00     0.003 A 
ATOM      7  I   UNL d   1       3.288  -0.851   0.900  0.00  0.00    -0.146 I 
ENDROOT
TORSDOF 0
ENDMDL
