MODEL 1
REMARK minimizedAffinity -1.93807411
REMARK minimizedRMSD -1
REMARK  0 active torsions:
REMARK  status: ('A' for Active; 'I' for Inactive)
ROOT
ATOM      1  C   UNL d   1       1.419   1.988  -0.056  0.00  0.00     0.023 A 
ATOM      2  C1  UNL d   1       2.242   1.051   0.570  0.00  0.00     0.003 A 
ATOM      3  C2  UNL d   1       1.698  -0.134   1.071  0.00  0.00     0.048 A 
ATOM      4  C3  UNL d   1       0.330  -0.375   0.943  0.00  0.00     0.023 A 
ATOM      5  C4  UNL d   1      -0.496   0.559   0.317  0.00  0.00     0.048 A 
ATOM      6  C5  UNL d   1       0.052   1.742  -0.182  0.00  0.00     0.003 A 
ATOM      7  I   UNL d   1      -0.482  -2.137   1.688  0.00  0.00    -0.146 I 
ENDROOT
TORSDOF 0
ENDMDL
