MODEL 1
REMARK minimizedAffinity -3.39699149
REMARK minimizedRMSD -1
REMARK  0 active torsions:
REMARK  status: ('A' for Active; 'I' for Inactive)
ROOT
ATOM      1  C   UNL d   1       2.566   0.879   0.747  0.00  0.00     0.023 A 
ATOM      2  C1  UNL d   1       1.821   1.922   0.196  0.00  0.00     0.003 A 
ATOM      3  C2  UNL d   1       0.531   1.683  -0.283  0.00  0.00     0.048 A 
ATOM      4  C3  UNL d   1      -0.008   0.400  -0.205  0.00  0.00     0.023 A 
ATOM      5  C4  UNL d   1       0.733  -0.647   0.347  0.00  0.00     0.048 A 
ATOM      6  C5  UNL d   1       2.022  -0.403   0.823  0.00  0.00     0.003 A 
ATOM      7  I   UNL d   1      -1.928   0.042  -0.916  0.00  0.00    -0.146 I 
ENDROOT
TORSDOF 0
ENDMDL
