MODEL 1
REMARK minimizedAffinity 4.02219582
REMARK minimizedRMSD -1
REMARK  0 active torsions:
REMARK  status: ('A' for Active; 'I' for Inactive)
ROOT
ATOM      1  C   UNL d   1       0.512  -0.569   0.645  0.00  0.00     0.124 A 
ATOM      2  C1  UNL d   1      -0.575  -0.309  -0.177  0.00  0.00     0.062 A 
ATOM      3  C2  UNL d   1      -0.654   0.893  -0.875  0.00  0.00     0.162 A 
ATOM      4  C3  UNL d   1       0.359   1.845  -0.753  0.00  0.00    -0.034 A 
ATOM      5  C4  UNL d   1       1.449   1.576   0.077  0.00  0.00     0.162 A 
ATOM      6  C5  UNL d   1       1.523   0.373   0.772  0.00  0.00     0.062 A 
ATOM      7  F   UNL d   1       2.574   0.124   1.566  0.00  0.00    -0.097 F 
ATOM      8  F1  UNL d   1       2.440   2.469   0.217  0.00  0.00    -0.096 F 
ATOM      9  I   UNL d   1       0.245   3.643  -1.794  0.00  0.00    -0.060 I 
ATOM     10  F2  UNL d   1      -1.716   1.118  -1.663  0.00  0.00    -0.096 F 
ATOM     11  F3  UNL d   1      -1.554  -1.218  -0.300  0.00  0.00    -0.097 F 
ATOM     12  F4  UNL d   1       0.584  -1.726   1.316  0.00  0.00    -0.092 F 
ENDROOT
TORSDOF 0
ENDMDL
