MODEL 1
REMARK minimizedAffinity 4.37467337
REMARK minimizedRMSD -1
REMARK  0 active torsions:
REMARK  status: ('A' for Active; 'I' for Inactive)
ROOT
ATOM      1  C   UNL d   1       0.475  -0.924   2.101  0.00  0.00     0.124 A 
ATOM      2  C1  UNL d   1      -0.468  -1.919   2.316  0.00  0.00     0.062 A 
ATOM      3  C2  UNL d   1      -1.574  -2.027   1.479  0.00  0.00     0.162 A 
ATOM      4  C3  UNL d   1      -1.744  -1.138   0.417  0.00  0.00    -0.034 A 
ATOM      5  C4  UNL d   1      -0.791  -0.139   0.208  0.00  0.00     0.162 A 
ATOM      6  C5  UNL d   1       0.313  -0.035   1.048  0.00  0.00     0.062 A 
ATOM      7  F   UNL d   1       1.223   0.927   0.839  0.00  0.00    -0.097 F 
ATOM      8  F1  UNL d   1      -0.923   0.733  -0.803  0.00  0.00    -0.096 F 
ATOM      9  I   UNL d   1      -3.397  -1.297  -0.837  0.00  0.00    -0.060 I 
ATOM     10  F2  UNL d   1      -2.470  -2.999   1.710  0.00  0.00    -0.096 F 
ATOM     11  F3  UNL d   1      -0.314  -2.778   3.334  0.00  0.00    -0.097 F 
ATOM     12  F4  UNL d   1       1.538  -0.821   2.909  0.00  0.00    -0.092 F 
ENDROOT
TORSDOF 0
ENDMDL
