MODEL 1
REMARK minimizedAffinity -4.21889257
REMARK minimizedRMSD -1
REMARK  0 active torsions:
REMARK  status: ('A' for Active; 'I' for Inactive)
ROOT
ATOM      1  C   UNL d   1      -2.169   0.434  -2.211  0.00  0.00     0.124 A 
ATOM      2  C1  UNL d   1      -0.955   1.057  -1.957  0.00  0.00     0.062 A 
ATOM      3  C2  UNL d   1      -0.268   0.796  -0.775  0.00  0.00     0.162 A 
ATOM      4  C3  UNL d   1      -0.792  -0.094   0.162  0.00  0.00    -0.034 A 
ATOM      5  C4  UNL d   1      -2.014  -0.716  -0.100  0.00  0.00     0.162 A 
ATOM      6  C5  UNL d   1      -2.697  -0.451  -1.283  0.00  0.00     0.062 A 
ATOM      7  F   UNL d   1      -3.870  -1.054  -1.526  0.00  0.00    -0.097 F 
ATOM      8  F1  UNL d   1      -2.548  -1.577   0.779  0.00  0.00    -0.096 F 
ATOM      9  I   UNL d   1       0.232  -0.487   1.930  0.00  0.00    -0.060 I 
ATOM     10  F2  UNL d   1       0.903   1.413  -0.556  0.00  0.00    -0.096 F 
ATOM     11  F3  UNL d   1      -0.442   1.914  -2.852  0.00  0.00    -0.097 F 
ATOM     12  F4  UNL d   1      -2.828   0.688  -3.349  0.00  0.00    -0.092 F 
ENDROOT
TORSDOF 0
ENDMDL
