MODEL 1
REMARK minimizedAffinity 1.58447385
REMARK minimizedRMSD -1
REMARK  0 active torsions:
REMARK  status: ('A' for Active; 'I' for Inactive)
ROOT
ATOM      1  C   UNL d   1      -0.306   3.301  -2.505  0.00  0.00     0.124 A 
ATOM      2  C1  UNL d   1      -0.330   3.473  -1.128  0.00  0.00     0.062 A 
ATOM      3  C2  UNL d   1      -0.109   2.388  -0.283  0.00  0.00     0.162 A 
ATOM      4  C3  UNL d   1       0.138   1.122  -0.814  0.00  0.00    -0.034 A 
ATOM      5  C4  UNL d   1       0.160   0.958  -2.200  0.00  0.00     0.162 A 
ATOM      6  C5  UNL d   1      -0.061   2.045  -3.040  0.00  0.00     0.062 A 
ATOM      7  F   UNL d   1      -0.038   1.877  -4.370  0.00  0.00    -0.097 F 
ATOM      8  F1  UNL d   1       0.395  -0.246  -2.744  0.00  0.00    -0.096 F 
ATOM      9  I   UNL d   1       0.469  -0.502   0.445  0.00  0.00    -0.060 I 
ATOM     10  F2  UNL d   1      -0.138   2.583   1.043  0.00  0.00    -0.096 F 
ATOM     11  F3  UNL d   1      -0.567   4.686  -0.608  0.00  0.00    -0.097 F 
ATOM     12  F4  UNL d   1      -0.520   4.346  -3.315  0.00  0.00    -0.092 F 
ENDROOT
TORSDOF 0
ENDMDL
