MODEL 1
REMARK minimizedAffinity 6.47575283
REMARK minimizedRMSD -1
REMARK  0 active torsions:
REMARK  status: ('A' for Active; 'I' for Inactive)
ROOT
ATOM      1  C   UNL d   1      -0.341   3.812  -3.806  0.00  0.00     0.124 A 
ATOM      2  C1  UNL d   1      -1.367   2.965  -3.409  0.00  0.00     0.062 A 
ATOM      3  C2  UNL d   1      -1.227   2.184  -2.266  0.00  0.00     0.162 A 
ATOM      4  C3  UNL d   1      -0.057   2.246  -1.510  0.00  0.00    -0.034 A 
ATOM      5  C4  UNL d   1       0.971   3.099  -1.916  0.00  0.00     0.162 A 
ATOM      6  C5  UNL d   1       0.827   3.878  -3.059  0.00  0.00     0.062 A 
ATOM      7  F   UNL d   1       1.819   4.695  -3.441  0.00  0.00    -0.097 F 
ATOM      8  F1  UNL d   1       2.110   3.183  -1.212  0.00  0.00    -0.096 F 
ATOM      9  I   UNL d   1       0.157   1.079   0.200  0.00  0.00    -0.060 I 
ATOM     10  F2  UNL d   1      -2.235   1.375  -1.906  0.00  0.00    -0.096 F 
ATOM     11  F3  UNL d   1      -2.496   2.899  -4.129  0.00  0.00    -0.097 F 
ATOM     12  F4  UNL d   1      -0.478   4.562  -4.907  0.00  0.00    -0.092 F 
ENDROOT
TORSDOF 0
ENDMDL
