MODEL 1
REMARK minimizedAffinity 0.400514811
REMARK minimizedRMSD -1
REMARK  0 active torsions:
REMARK  status: ('A' for Active; 'I' for Inactive)
ROOT
ATOM      1  C   UNL d   1       0.517   0.778  -0.288  0.00  0.00     0.124 A 
ATOM      2  C1  UNL d   1       0.170   0.055   0.846  0.00  0.00     0.062 A 
ATOM      3  C2  UNL d   1      -1.049  -0.612   0.905  0.00  0.00     0.162 A 
ATOM      4  C3  UNL d   1      -1.932  -0.562  -0.174  0.00  0.00    -0.034 A 
ATOM      5  C4  UNL d   1      -1.577   0.167  -1.311  0.00  0.00     0.162 A 
ATOM      6  C5  UNL d   1      -0.357   0.833  -1.364  0.00  0.00     0.062 A 
ATOM      7  F   UNL d   1      -0.024   1.530  -2.460  0.00  0.00    -0.097 F 
ATOM      8  F1  UNL d   1      -2.402   0.237  -2.366  0.00  0.00    -0.096 F 
ATOM      9  I   UNL d   1      -3.757  -1.559  -0.090  0.00  0.00    -0.060 I 
ATOM     10  F2  UNL d   1      -1.358  -1.303   2.013  0.00  0.00    -0.096 F 
ATOM     11  F3  UNL d   1       1.012   0.001   1.888  0.00  0.00    -0.097 F 
ATOM     12  F4  UNL d   1       1.691   1.420  -0.341  0.00  0.00    -0.092 F 
ENDROOT
TORSDOF 0
ENDMDL
