MODEL 1
REMARK minimizedAffinity -3.99286985
REMARK minimizedRMSD -1
REMARK  0 active torsions:
REMARK  status: ('A' for Active; 'I' for Inactive)
ROOT
ATOM      1  C   UNL d   1      -1.954  -0.908  -0.584  0.00  0.00     0.124 A 
ATOM      2  C1  UNL d   1      -2.001  -1.670   0.575  0.00  0.00     0.062 A 
ATOM      3  C2  UNL d   1      -1.014  -1.529   1.546  0.00  0.00     0.162 A 
ATOM      4  C3  UNL d   1       0.029  -0.620   1.362  0.00  0.00    -0.034 A 
ATOM      5  C4  UNL d   1       0.069   0.143   0.194  0.00  0.00     0.162 A 
ATOM      6  C5  UNL d   1      -0.920  -0.002  -0.774  0.00  0.00     0.062 A 
ATOM      7  F   UNL d   1      -0.873   0.735  -1.893  0.00  0.00    -0.097 F 
ATOM      8  F1  UNL d   1       1.057   1.026  -0.014  0.00  0.00    -0.096 F 
ATOM      9  I   UNL d   1       1.507  -0.406   2.812  0.00  0.00    -0.060 I 
ATOM     10  F2  UNL d   1      -1.084  -2.279   2.656  0.00  0.00    -0.096 F 
ATOM     11  F3  UNL d   1      -2.999  -2.546   0.759  0.00  0.00    -0.097 F 
ATOM     12  F4  UNL d   1      -2.905  -1.047  -1.517  0.00  0.00    -0.092 F 
ENDROOT
TORSDOF 0
ENDMDL
