MODEL 1
REMARK minimizedAffinity 7.96396303
REMARK minimizedRMSD -1
REMARK  0 active torsions:
REMARK  status: ('A' for Active; 'I' for Inactive)
ROOT
ATOM      1  C   UNL d   1       0.692  -1.004   1.725  0.00  0.00     0.124 A 
ATOM      2  C1  UNL d   1       0.521  -0.278   0.555  0.00  0.00     0.062 A 
ATOM      3  C2  UNL d   1      -0.660  -0.392  -0.173  0.00  0.00     0.162 A 
ATOM      4  C3  UNL d   1      -1.680  -1.235   0.268  0.00  0.00    -0.034 A 
ATOM      5  C4  UNL d   1      -1.500  -1.963   1.445  0.00  0.00     0.162 A 
ATOM      6  C5  UNL d   1      -0.318  -1.846   2.169  0.00  0.00     0.062 A 
ATOM      7  F   UNL d   1      -0.154  -2.549   3.299  0.00  0.00    -0.097 F 
ATOM      8  F1  UNL d   1      -2.460  -2.784   1.898  0.00  0.00    -0.096 F 
ATOM      9  I   UNL d   1      -3.447  -1.408  -0.817  0.00  0.00    -0.060 I 
ATOM     10  F2  UNL d   1      -0.799   0.322  -1.300  0.00  0.00    -0.096 F 
ATOM     11  F3  UNL d   1       1.496   0.535   0.124  0.00  0.00    -0.097 F 
ATOM     12  F4  UNL d   1       1.830  -0.894   2.423  0.00  0.00    -0.092 F 
ENDROOT
TORSDOF 0
ENDMDL
