MODEL 1
REMARK minimizedAffinity -1.17995286
REMARK minimizedRMSD -1
REMARK  0 active torsions:
REMARK  status: ('A' for Active; 'I' for Inactive)
ROOT
ATOM      1  C   UNL d   1       1.737  -0.488   1.545  0.00  0.00     0.124 A 
ATOM      2  C1  UNL d   1       0.413  -0.413   1.954  0.00  0.00     0.062 A 
ATOM      3  C2  UNL d   1      -0.612  -0.426   1.013  0.00  0.00     0.162 A 
ATOM      4  C3  UNL d   1      -0.317  -0.517  -0.348  0.00  0.00    -0.034 A 
ATOM      5  C4  UNL d   1       1.017  -0.591  -0.751  0.00  0.00     0.162 A 
ATOM      6  C5  UNL d   1       2.038  -0.577   0.194  0.00  0.00     0.062 A 
ATOM      7  F   UNL d   1       3.317  -0.651  -0.203  0.00  0.00    -0.097 F 
ATOM      8  F1  UNL d   1       1.336  -0.679  -2.051  0.00  0.00    -0.096 F 
ATOM      9  I   UNL d   1      -1.847  -0.537  -1.758  0.00  0.00    -0.060 I 
ATOM     10  F2  UNL d   1      -1.883  -0.352   1.436  0.00  0.00    -0.096 F 
ATOM     11  F3  UNL d   1       0.120  -0.325   3.260  0.00  0.00    -0.097 F 
ATOM     12  F4  UNL d   1       2.721  -0.474   2.453  0.00  0.00    -0.092 F 
ENDROOT
TORSDOF 0
ENDMDL
