MODEL 1
REMARK minimizedAffinity -0.278746545
REMARK minimizedRMSD -1
REMARK  0 active torsions:
REMARK  status: ('A' for Active; 'I' for Inactive)
ROOT
ATOM      1  C   UNL d   1       0.439   2.462  -4.478  0.00  0.00     0.124 A 
ATOM      2  C1  UNL d   1       0.733   1.140  -4.171  0.00  0.00     0.062 A 
ATOM      3  C2  UNL d   1       0.463   0.640  -2.901  0.00  0.00     0.162 A 
ATOM      4  C3  UNL d   1      -0.105   1.462  -1.927  0.00  0.00    -0.034 A 
ATOM      5  C4  UNL d   1      -0.397   2.790  -2.243  0.00  0.00     0.162 A 
ATOM      6  C5  UNL d   1      -0.126   3.285  -3.514  0.00  0.00     0.062 A 
ATOM      7  F   UNL d   1      -0.410   4.562  -3.808  0.00  0.00    -0.097 F 
ATOM      8  F1  UNL d   1      -0.943   3.607  -1.330  0.00  0.00    -0.096 F 
ATOM      9  I   UNL d   1      -0.510   0.717  -0.026  0.00  0.00    -0.060 I 
ATOM     10  F2  UNL d   1       0.757  -0.641  -2.632  0.00  0.00    -0.096 F 
ATOM     11  F3  UNL d   1       1.279   0.343  -5.101  0.00  0.00    -0.097 F 
ATOM     12  F4  UNL d   1       0.700   2.941  -5.701  0.00  0.00    -0.092 F 
ENDROOT
TORSDOF 0
ENDMDL
