MODEL 1
REMARK minimizedAffinity 1.67739093
REMARK minimizedRMSD -1
REMARK  0 active torsions:
REMARK  status: ('A' for Active; 'I' for Inactive)
ROOT
ATOM      1  C   UNL d   1      -0.286  -0.616   1.079  0.00  0.00     0.124 A 
ATOM      2  C1  UNL d   1      -1.320  -0.436   0.172  0.00  0.00     0.062 A 
ATOM      3  C2  UNL d   1      -1.165   0.435  -0.903  0.00  0.00     0.162 A 
ATOM      4  C3  UNL d   1       0.031   1.132  -1.077  0.00  0.00    -0.034 A 
ATOM      5  C4  UNL d   1       1.067   0.946  -0.159  0.00  0.00     0.162 A 
ATOM      6  C5  UNL d   1       0.906   0.075   0.913  0.00  0.00     0.062 A 
ATOM      7  F   UNL d   1       1.907  -0.098   1.789  0.00  0.00    -0.097 F 
ATOM      8  F1  UNL d   1       2.230   1.600  -0.296  0.00  0.00    -0.096 F 
ATOM      9  I   UNL d   1       0.268   2.435  -2.682  0.00  0.00    -0.060 I 
ATOM     10  F2  UNL d   1      -2.181   0.590  -1.764  0.00  0.00    -0.096 F 
ATOM     11  F3  UNL d   1      -2.473  -1.101   0.331  0.00  0.00    -0.097 F 
ATOM     12  F4  UNL d   1      -0.438  -1.454   2.113  0.00  0.00    -0.092 F 
ENDROOT
TORSDOF 0
ENDMDL
