MODEL 1
REMARK minimizedAffinity 2.44616866
REMARK minimizedRMSD -1
REMARK  0 active torsions:
REMARK  status: ('A' for Active; 'I' for Inactive)
ROOT
ATOM      1  C   UNL d   1       1.399  -1.127  -0.464  0.00  0.00     0.124 A 
ATOM      2  C1  UNL d   1       1.626  -0.725  -1.773  0.00  0.00     0.062 A 
ATOM      3  C2  UNL d   1       0.868   0.300  -2.332  0.00  0.00     0.162 A 
ATOM      4  C3  UNL d   1      -0.125   0.931  -1.581  0.00  0.00    -0.034 A 
ATOM      5  C4  UNL d   1      -0.348   0.520  -0.266  0.00  0.00     0.162 A 
ATOM      6  C5  UNL d   1       0.413  -0.504   0.288  0.00  0.00     0.062 A 
ATOM      7  F   UNL d   1       0.192  -0.892   1.553  0.00  0.00    -0.097 F 
ATOM      8  F1  UNL d   1      -1.294   1.105   0.484  0.00  0.00    -0.096 F 
ATOM      9  I   UNL d   1      -1.261   2.463  -2.413  0.00  0.00    -0.060 I 
ATOM     10  F2  UNL d   1       1.109   0.668  -3.599  0.00  0.00    -0.096 F 
ATOM     11  F3  UNL d   1       2.578  -1.325  -2.502  0.00  0.00    -0.097 F 
ATOM     12  F4  UNL d   1       2.130  -2.113   0.071  0.00  0.00    -0.092 F 
ENDROOT
TORSDOF 0
ENDMDL
