MODEL 1
REMARK minimizedAffinity -1.94724584
REMARK minimizedRMSD -1
REMARK  0 active torsions:
REMARK  status: ('A' for Active; 'I' for Inactive)
ROOT
ATOM      1  C   UNL d   1      -2.226   2.108  -2.900  0.00  0.00     0.023 A 
ATOM      2  C1  UNL d   1      -2.028   0.728  -2.906  0.00  0.00     0.003 A 
ATOM      3  C2  UNL d   1      -1.043   0.159  -2.096  0.00  0.00     0.048 A 
ATOM      4  C3  UNL d   1      -0.261   0.976  -1.281  0.00  0.00     0.023 A 
ATOM      5  C4  UNL d   1      -0.456   2.358  -1.271  0.00  0.00     0.048 A 
ATOM      6  C5  UNL d   1      -1.442   2.923  -2.083  0.00  0.00     0.003 A 
ATOM      7  I   UNL d   1       1.206   0.132  -0.075  0.00  0.00    -0.146 I 
ENDROOT
TORSDOF 0
ENDMDL
