MODEL 1
REMARK minimizedAffinity -0.698625803
REMARK minimizedRMSD -1
REMARK  0 active torsions:
REMARK  status: ('A' for Active; 'I' for Inactive)
ROOT
ATOM      1  C   UNL d   1       1.823  -1.435   0.562  0.00  0.00     0.023 A 
ATOM      2  C1  UNL d   1       0.744  -0.731   1.097  0.00  0.00     0.003 A 
ATOM      3  C2  UNL d   1       0.052   0.192   0.311  0.00  0.00     0.048 A 
ATOM      4  C3  UNL d   1       0.443   0.407  -1.010  0.00  0.00     0.023 A 
ATOM      5  C4  UNL d   1       1.522  -0.296  -1.550  0.00  0.00     0.048 A 
ATOM      6  C5  UNL d   1       2.211  -1.217  -0.760  0.00  0.00     0.003 A 
ATOM      7  I   UNL d   1      -0.586   1.780  -2.181  0.00  0.00    -0.146 I 
ENDROOT
TORSDOF 0
ENDMDL
