MODEL 1
REMARK minimizedAffinity 1.90677798
REMARK minimizedRMSD -1
REMARK  0 active torsions:
REMARK  status: ('A' for Active; 'I' for Inactive)
ROOT
ATOM      1  C   UNL d   1       0.608   0.651   1.086  0.00  0.00     0.023 A 
ATOM      2  C1  UNL d   1       1.290   1.055  -0.062  0.00  0.00     0.003 A 
ATOM      3  C2  UNL d   1       0.581   1.347  -1.229  0.00  0.00     0.048 A 
ATOM      4  C3  UNL d   1      -0.808   1.233  -1.241  0.00  0.00     0.023 A 
ATOM      5  C4  UNL d   1      -1.494   0.829  -0.095  0.00  0.00     0.048 A 
ATOM      6  C5  UNL d   1      -0.782   0.538   1.070  0.00  0.00     0.003 A 
ATOM      7  I   UNL d   1      -1.865   1.667  -2.978  0.00  0.00    -0.146 I 
ENDROOT
TORSDOF 0
ENDMDL
