MODEL 1
REMARK minimizedAffinity -3.90193439
REMARK minimizedRMSD -1
REMARK  0 active torsions:
REMARK  status: ('A' for Active; 'I' for Inactive)
ROOT
ATOM      1  C   UNL d   1      -0.436   1.757   0.001  0.00  0.00     0.023 A 
ATOM      2  C1  UNL d   1      -1.242   0.979   0.832  0.00  0.00     0.003 A 
ATOM      3  C2  UNL d   1      -0.821  -0.293   1.223  0.00  0.00     0.048 A 
ATOM      4  C3  UNL d   1       0.408  -0.781   0.780  0.00  0.00     0.023 A 
ATOM      5  C4  UNL d   1       1.218  -0.006  -0.051  0.00  0.00     0.048 A 
ATOM      6  C5  UNL d   1       0.792   1.265  -0.441  0.00  0.00     0.003 A 
ATOM      7  I   UNL d   1       1.038  -2.675   1.361  0.00  0.00    -0.146 I 
ENDROOT
TORSDOF 0
ENDMDL
