MODEL 1
REMARK minimizedAffinity 2.53835678
REMARK minimizedRMSD -1
REMARK  0 active torsions:
REMARK  status: ('A' for Active; 'I' for Inactive)
ROOT
ATOM      1  C   UNL d   1      -2.658   0.526   2.160  0.00  0.00     0.023 A 
ATOM      2  C1  UNL d   1      -3.933   0.787   1.658  0.00  0.00     0.003 A 
ATOM      3  C2  UNL d   1      -4.105   1.072   0.302  0.00  0.00     0.048 A 
ATOM      4  C3  UNL d   1      -2.999   1.092  -0.547  0.00  0.00     0.023 A 
ATOM      5  C4  UNL d   1      -1.721   0.831  -0.048  0.00  0.00     0.048 A 
ATOM      6  C5  UNL d   1      -1.553   0.548   1.308  0.00  0.00     0.003 A 
ATOM      7  I   UNL d   1      -3.253   1.515  -2.566  0.00  0.00    -0.146 I 
ENDROOT
TORSDOF 0
ENDMDL
