MODEL 1
REMARK minimizedAffinity 4.06121397
REMARK minimizedRMSD -1
REMARK  0 active torsions:
REMARK  status: ('A' for Active; 'I' for Inactive)
ROOT
ATOM      1  C   UNL d   1      -2.340  -1.296   1.062  0.00  0.00     0.023 A 
ATOM      2  C1  UNL d   1      -2.499  -1.834  -0.215  0.00  0.00     0.003 A 
ATOM      3  C2  UNL d   1      -2.798  -1.000  -1.294  0.00  0.00     0.048 A 
ATOM      4  C3  UNL d   1      -2.934   0.373  -1.089  0.00  0.00     0.023 A 
ATOM      5  C4  UNL d   1      -2.775   0.916   0.187  0.00  0.00     0.048 A 
ATOM      6  C5  UNL d   1      -2.477   0.078   1.263  0.00  0.00     0.003 A 
ATOM      7  I   UNL d   1      -3.378   1.617  -2.694  0.00  0.00    -0.146 I 
ENDROOT
TORSDOF 0
ENDMDL
