MODEL 1
REMARK minimizedAffinity -0.474870116
REMARK minimizedRMSD -1
REMARK  0 active torsions:
REMARK  status: ('A' for Active; 'I' for Inactive)
ROOT
ATOM      1  C   UNL d   1      -1.926  -1.495   0.544  0.00  0.00     0.023 A 
ATOM      2  C1  UNL d   1      -2.631  -1.778  -0.626  0.00  0.00     0.003 A 
ATOM      3  C2  UNL d   1      -2.738  -0.812  -1.629  0.00  0.00     0.048 A 
ATOM      4  C3  UNL d   1      -2.138   0.434  -1.455  0.00  0.00     0.023 A 
ATOM      5  C4  UNL d   1      -1.432   0.722  -0.286  0.00  0.00     0.048 A 
ATOM      6  C5  UNL d   1      -1.328  -0.247   0.714  0.00  0.00     0.003 A 
ATOM      7  I   UNL d   1      -2.297   1.873  -2.946  0.00  0.00    -0.146 I 
ENDROOT
TORSDOF 0
ENDMDL
