MODEL 1
REMARK minimizedAffinity 2.86802077
REMARK minimizedRMSD -1
REMARK  0 active torsions:
REMARK  status: ('A' for Active; 'I' for Inactive)
ROOT
ATOM      1  C   UNL d   1       1.499  -3.021   1.124  0.00  0.00     0.023 A 
ATOM      2  C1  UNL d   1       1.525  -3.343  -0.233  0.00  0.00     0.003 A 
ATOM      3  C2  UNL d   1       2.189  -2.511  -1.137  0.00  0.00     0.048 A 
ATOM      4  C3  UNL d   1       2.826  -1.359  -0.677  0.00  0.00     0.023 A 
ATOM      5  C4  UNL d   1       2.803  -1.033   0.680  0.00  0.00     0.048 A 
ATOM      6  C5  UNL d   1       2.138  -1.867   1.580  0.00  0.00     0.003 A 
ATOM      7  I   UNL d   1       3.815  -0.119  -2.020  0.00  0.00    -0.146 I 
ENDROOT
TORSDOF 0
ENDMDL
