MODEL 1
REMARK minimizedAffinity 9.53142071
REMARK minimizedRMSD -1
REMARK  0 active torsions:
REMARK  status: ('A' for Active; 'I' for Inactive)
ROOT
ATOM      1  C   UNL d   1      -2.422   2.775  -4.113  0.00  0.00     0.023 A 
ATOM      2  C1  UNL d   1      -3.691   2.196  -4.116  0.00  0.00     0.003 A 
ATOM      3  C2  UNL d   1      -4.150   1.511  -2.989  0.00  0.00     0.048 A 
ATOM      4  C3  UNL d   1      -3.335   1.409  -1.862  0.00  0.00     0.023 A 
ATOM      5  C4  UNL d   1      -2.065   1.988  -1.855  0.00  0.00     0.048 A 
ATOM      6  C5  UNL d   1      -1.610   2.671  -2.984  0.00  0.00     0.003 A 
ATOM      7  I   UNL d   1      -4.016   0.390  -0.184  0.00  0.00    -0.146 I 
ENDROOT
TORSDOF 0
ENDMDL
