MODEL 1
REMARK minimizedAffinity 3.1765511
REMARK minimizedRMSD -1
REMARK  0 active torsions:
REMARK  status: ('A' for Active; 'I' for Inactive)
ROOT
ATOM      1  C   UNL d   1       2.750  -1.074  -0.065  0.00  0.00     0.023 A 
ATOM      2  C1  UNL d   1       2.077  -2.114   0.577  0.00  0.00     0.003 A 
ATOM      3  C2  UNL d   1       0.828  -1.885   1.159  0.00  0.00     0.048 A 
ATOM      4  C3  UNL d   1       0.258  -0.615   1.094  0.00  0.00     0.023 A 
ATOM      5  C4  UNL d   1       0.926   0.428   0.451  0.00  0.00     0.048 A 
ATOM      6  C5  UNL d   1       2.175   0.195  -0.128  0.00  0.00     0.003 A 
ATOM      7  I   UNL d   1      -1.601  -0.272   1.959  0.00  0.00    -0.146 I 
ENDROOT
TORSDOF 0
ENDMDL
