MODEL 1
REMARK minimizedAffinity 5.2922945
REMARK minimizedRMSD -1
REMARK  0 active torsions:
REMARK  status: ('A' for Active; 'I' for Inactive)
ROOT
ATOM      1  C   UNL d   1       1.852  -2.154   0.952  0.00  0.00     0.023 A 
ATOM      2  C1  UNL d   1       1.662  -0.794   1.198  0.00  0.00     0.003 A 
ATOM      3  C2  UNL d   1       2.161   0.154   0.303  0.00  0.00     0.048 A 
ATOM      4  C3  UNL d   1       2.848  -0.264  -0.836  0.00  0.00     0.023 A 
ATOM      5  C4  UNL d   1       3.040  -1.624  -1.087  0.00  0.00     0.048 A 
ATOM      6  C5  UNL d   1       2.540  -2.569  -0.189  0.00  0.00     0.003 A 
ATOM      7  I   UNL d   1       3.592   1.146  -2.170  0.00  0.00    -0.146 I 
ENDROOT
TORSDOF 0
ENDMDL
