MODEL 1
REMARK minimizedAffinity 6.46618414
REMARK minimizedRMSD -1
REMARK  0 active torsions:
REMARK  status: ('A' for Active; 'I' for Inactive)
ROOT
ATOM      1  C   UNL d   1      -3.201   0.845  -0.098  0.00  0.00     0.023 A 
ATOM      2  C1  UNL d   1      -3.327   0.744  -1.484  0.00  0.00     0.003 A 
ATOM      3  C2  UNL d   1      -2.537   1.538  -2.318  0.00  0.00     0.048 A 
ATOM      4  C3  UNL d   1      -1.622   2.430  -1.760  0.00  0.00     0.023 A 
ATOM      5  C4  UNL d   1      -1.492   2.534  -0.374  0.00  0.00     0.048 A 
ATOM      6  C5  UNL d   1      -2.285   1.739   0.456  0.00  0.00     0.003 A 
ATOM      7  I   UNL d   1      -0.445   3.612  -2.999  0.00  0.00    -0.146 I 
ENDROOT
TORSDOF 0
ENDMDL
