MODEL 1
REMARK minimizedAffinity 1.15618551
REMARK minimizedRMSD -1
REMARK  0 active torsions:
REMARK  status: ('A' for Active; 'I' for Inactive)
ROOT
ATOM      1  C   UNL d   1       2.308   0.052  -0.803  0.00  0.00     0.023 A 
ATOM      2  C1  UNL d   1       1.682   0.076   0.443  0.00  0.00     0.003 A 
ATOM      3  C2  UNL d   1       1.319  -1.119   1.067  0.00  0.00     0.048 A 
ATOM      4  C3  UNL d   1       1.586  -2.335   0.440  0.00  0.00     0.023 A 
ATOM      5  C4  UNL d   1       2.213  -2.365  -0.806  0.00  0.00     0.048 A 
ATOM      6  C5  UNL d   1       2.574  -1.167  -1.427  0.00  0.00     0.003 A 
ATOM      7  I   UNL d   1       1.047  -4.115   1.367  0.00  0.00    -0.146 I 
ENDROOT
TORSDOF 0
ENDMDL
