MODEL 1
REMARK minimizedAffinity 2.10043478
REMARK minimizedRMSD -1
REMARK  0 active torsions:
REMARK  status: ('A' for Active; 'I' for Inactive)
ROOT
ATOM      1  C   UNL d   1       1.530  -2.184   1.222  0.00  0.00     0.023 A 
ATOM      2  C1  UNL d   1       1.940  -2.811   0.045  0.00  0.00     0.003 A 
ATOM      3  C2  UNL d   1       2.592  -2.076  -0.948  0.00  0.00     0.048 A 
ATOM      4  C3  UNL d   1       2.831  -0.716  -0.757  0.00  0.00     0.023 A 
ATOM      5  C4  UNL d   1       2.424  -0.085   0.420  0.00  0.00     0.048 A 
ATOM      6  C5  UNL d   1       1.772  -0.823   1.409  0.00  0.00     0.003 A 
ATOM      7  I   UNL d   1       3.802   0.379  -2.233  0.00  0.00    -0.146 I 
ENDROOT
TORSDOF 0
ENDMDL
