MODEL 1
REMARK minimizedAffinity 5.72575903
REMARK minimizedRMSD -1
REMARK  0 active torsions:
REMARK  status: ('A' for Active; 'I' for Inactive)
ROOT
ATOM      1  C   UNL d   1      -2.622  -1.031  -1.410  0.00  0.00     0.023 A 
ATOM      2  C1  UNL d   1      -2.277  -2.316  -0.989  0.00  0.00     0.003 A 
ATOM      3  C2  UNL d   1      -1.612  -2.499   0.225  0.00  0.00     0.048 A 
ATOM      4  C3  UNL d   1      -1.297  -1.394   1.014  0.00  0.00     0.023 A 
ATOM      5  C4  UNL d   1      -1.641  -0.107   0.597  0.00  0.00     0.048 A 
ATOM      6  C5  UNL d   1      -2.305   0.072  -0.618  0.00  0.00     0.003 A 
ATOM      7  I   UNL d   1      -0.307  -1.664   2.822  0.00  0.00    -0.146 I 
ENDROOT
TORSDOF 0
ENDMDL
