MODEL 1
REMARK minimizedAffinity 6.85439682
REMARK minimizedRMSD -1
REMARK  0 active torsions:
REMARK  status: ('A' for Active; 'I' for Inactive)
ROOT
ATOM      1  C   UNL d   1      -3.456  -0.137  -0.552  0.00  0.00     0.023 A 
ATOM      2  C1  UNL d   1      -2.901  -1.409  -0.690  0.00  0.00     0.003 A 
ATOM      3  C2  UNL d   1      -2.039  -1.906   0.290  0.00  0.00     0.048 A 
ATOM      4  C3  UNL d   1      -1.738  -1.125   1.406  0.00  0.00     0.023 A 
ATOM      5  C4  UNL d   1      -2.292   0.148   1.548  0.00  0.00     0.048 A 
ATOM      6  C5  UNL d   1      -3.152   0.640   0.565  0.00  0.00     0.003 A 
ATOM      7  I   UNL d   1      -0.455  -1.862   2.866  0.00  0.00    -0.146 I 
ENDROOT
TORSDOF 0
ENDMDL
