MODEL 1
REMARK minimizedAffinity 8.12319374
REMARK minimizedRMSD -1
REMARK  0 active torsions:
REMARK  status: ('A' for Active; 'I' for Inactive)
ROOT
ATOM      1  C   UNL d   1       3.373   0.918  -0.413  0.00  0.00     0.023 A 
ATOM      2  C1  UNL d   1       2.462   1.905  -0.037  0.00  0.00     0.003 A 
ATOM      3  C2  UNL d   1       1.719   1.761   1.137  0.00  0.00     0.048 A 
ATOM      4  C3  UNL d   1       1.892   0.627   1.930  0.00  0.00     0.023 A 
ATOM      5  C4  UNL d   1       2.803  -0.363   1.558  0.00  0.00     0.048 A 
ATOM      6  C5  UNL d   1       3.543  -0.215   0.383  0.00  0.00     0.003 A 
ATOM      7  I   UNL d   1       0.787   0.410   3.677  0.00  0.00    -0.146 I 
ENDROOT
TORSDOF 0
ENDMDL
