MODEL 1
REMARK minimizedAffinity 4.47341061
REMARK minimizedRMSD -1
REMARK  0 active torsions:
REMARK  status: ('A' for Active; 'I' for Inactive)
ROOT
ATOM      1  C   UNL d   1       3.348   0.037   0.951  0.00  0.00     0.023 A 
ATOM      2  C1  UNL d   1       4.422  -0.021   0.063  0.00  0.00     0.003 A 
ATOM      3  C2  UNL d   1       4.312   0.548  -1.207  0.00  0.00     0.048 A 
ATOM      4  C3  UNL d   1       3.124   1.175  -1.582  0.00  0.00     0.023 A 
ATOM      5  C4  UNL d   1       2.047   1.237  -0.697  0.00  0.00     0.048 A 
ATOM      6  C5  UNL d   1       2.162   0.665   0.572  0.00  0.00     0.003 A 
ATOM      7  I   UNL d   1       2.957   2.024  -3.472  0.00  0.00    -0.146 I 
ENDROOT
TORSDOF 0
ENDMDL
