MODEL 1
REMARK minimizedAffinity 19.3974171
REMARK minimizedRMSD -1
REMARK  0 active torsions:
REMARK  status: ('A' for Active; 'I' for Inactive)
ROOT
ATOM      1  C   UNL d   1      -6.000  -5.551  -2.649  0.00  0.00     0.023 A 
ATOM      2  C1  UNL d   1      -5.209  -6.000  -1.592  0.00  0.00     0.003 A 
ATOM      3  C2  UNL d   1      -4.239  -5.161  -1.038  0.00  0.00     0.048 A 
ATOM      4  C3  UNL d   1      -4.067  -3.874  -1.546  0.00  0.00     0.023 A 
ATOM      5  C4  UNL d   1      -4.857  -3.420  -2.604  0.00  0.00     0.048 A 
ATOM      6  C5  UNL d   1      -5.824  -4.263  -3.155  0.00  0.00     0.003 A 
ATOM      7  I   UNL d   1      -2.624  -2.624  -0.724  0.00  0.00    -0.146 I 
ENDROOT
TORSDOF 0
ENDMDL
