MODEL 1
REMARK minimizedAffinity 7.59920359
REMARK minimizedRMSD -1
REMARK  0 active torsions:
REMARK  status: ('A' for Active; 'I' for Inactive)
ROOT
ATOM      1  C   UNL d   1       2.960   0.856   1.351  0.00  0.00     0.023 A 
ATOM      2  C1  UNL d   1       1.972   1.690   0.829  0.00  0.00     0.003 A 
ATOM      3  C2  UNL d   1       1.932   1.955  -0.541  0.00  0.00     0.048 A 
ATOM      4  C3  UNL d   1       2.884   1.382  -1.384  0.00  0.00     0.023 A 
ATOM      5  C4  UNL d   1       3.875   0.546  -0.866  0.00  0.00     0.048 A 
ATOM      6  C5  UNL d   1       3.910   0.285   0.505  0.00  0.00     0.003 A 
ATOM      7  I   UNL d   1       2.828   1.775  -3.424  0.00  0.00    -0.146 I 
ENDROOT
TORSDOF 0
ENDMDL
