MODEL 1
REMARK minimizedAffinity 16.6649456
REMARK minimizedRMSD -1
REMARK  0 active torsions:
REMARK  status: ('A' for Active; 'I' for Inactive)
ROOT
ATOM      1  C   UNL d   1       1.033   1.909   1.515  0.00  0.00     0.023 A 
ATOM      2  C1  UNL d   1       1.411   0.674   2.041  0.00  0.00     0.003 A 
ATOM      3  C2  UNL d   1       2.491  -0.019   1.490  0.00  0.00     0.048 A 
ATOM      4  C3  UNL d   1       3.189   0.529   0.414  0.00  0.00     0.023 A 
ATOM      5  C4  UNL d   1       2.814   1.766  -0.114  0.00  0.00     0.048 A 
ATOM      6  C5  UNL d   1       1.733   2.454   0.439  0.00  0.00     0.003 A 
ATOM      7  I   UNL d   1       4.797  -0.500  -0.407  0.00  0.00    -0.146 I 
ENDROOT
TORSDOF 0
ENDMDL
