MODEL 1
REMARK minimizedAffinity 12.4105282
REMARK minimizedRMSD -1
REMARK  0 active torsions:
REMARK  status: ('A' for Active; 'I' for Inactive)
ROOT
ATOM      1  C   UNL d   1      -4.101  -5.317  -1.283  0.00  0.00     0.023 A 
ATOM      2  C1  UNL d   1      -3.484  -4.135  -1.694  0.00  0.00     0.003 A 
ATOM      3  C2  UNL d   1      -4.028  -3.391  -2.743  0.00  0.00     0.048 A 
ATOM      4  C3  UNL d   1      -5.188  -3.835  -3.376  0.00  0.00     0.023 A 
ATOM      5  C4  UNL d   1      -5.809  -5.016  -2.968  0.00  0.00     0.048 A 
ATOM      6  C5  UNL d   1      -5.261  -5.757  -1.919  0.00  0.00     0.003 A 
ATOM      7  I   UNL d   1      -5.999  -2.729  -4.938  0.00  0.00    -0.146 I 
ENDROOT
TORSDOF 0
ENDMDL
