MODEL 1
REMARK minimizedAffinity 18.4417229
REMARK minimizedRMSD -1
REMARK  0 active torsions:
REMARK  status: ('A' for Active; 'I' for Inactive)
ROOT
ATOM      1  C   UNL d   1      -5.948  -4.176  -2.612  0.00  0.00     0.023 A 
ATOM      2  C1  UNL d   1      -5.757  -5.476  -2.144  0.00  0.00     0.003 A 
ATOM      3  C2  UNL d   1      -4.467  -6.000  -2.040  0.00  0.00     0.048 A 
ATOM      4  C3  UNL d   1      -3.372  -5.218  -2.405  0.00  0.00     0.023 A 
ATOM      5  C4  UNL d   1      -3.558  -3.916  -2.872  0.00  0.00     0.048 A 
ATOM      6  C5  UNL d   1      -4.850  -3.397  -2.975  0.00  0.00     0.003 A 
ATOM      7  I   UNL d   1      -1.451  -5.995  -2.251  0.00  0.00    -0.146 I 
ENDROOT
TORSDOF 0
ENDMDL
