MODEL 1
REMARK minimizedAffinity 8.7659502
REMARK minimizedRMSD -1
REMARK  0 active torsions:
REMARK  status: ('A' for Active; 'I' for Inactive)
ROOT
ATOM      1  C   UNL d   1      -1.929  -2.344  -2.632  0.00  0.00     0.023 A 
ATOM      2  C1  UNL d   1      -3.112  -2.673  -1.970  0.00  0.00     0.003 A 
ATOM      3  C2  UNL d   1      -3.090  -2.975  -0.607  0.00  0.00     0.048 A 
ATOM      4  C3  UNL d   1      -1.882  -2.946   0.088  0.00  0.00     0.023 A 
ATOM      5  C4  UNL d   1      -0.696  -2.617  -0.570  0.00  0.00     0.048 A 
ATOM      6  C5  UNL d   1      -0.723  -2.316  -1.933  0.00  0.00     0.003 A 
ATOM      7  I   UNL d   1      -1.846  -3.397   2.117  0.00  0.00    -0.146 I 
ENDROOT
TORSDOF 0
ENDMDL
