MODEL 1
REMARK minimizedAffinity 17.6139126
REMARK minimizedRMSD -1
REMARK  0 active torsions:
REMARK  status: ('A' for Active; 'I' for Inactive)
ROOT
ATOM      1  C   UNL d   1      -2.794  -2.957  -1.366  0.00  0.00     0.023 A 
ATOM      2  C1  UNL d   1      -2.913  -4.143  -2.090  0.00  0.00     0.003 A 
ATOM      3  C2  UNL d   1      -2.489  -4.196  -3.420  0.00  0.00     0.048 A 
ATOM      4  C3  UNL d   1      -1.946  -3.060  -4.018  0.00  0.00     0.023 A 
ATOM      5  C4  UNL d   1      -1.824  -1.871  -3.297  0.00  0.00     0.048 A 
ATOM      6  C5  UNL d   1      -2.250  -1.822  -1.969  0.00  0.00     0.003 A 
ATOM      7  I   UNL d   1      -1.314  -3.136  -5.997  0.00  0.00    -0.146 I 
ENDROOT
TORSDOF 0
ENDMDL
