MODEL 1
REMARK minimizedAffinity 12.6978197
REMARK minimizedRMSD -1
REMARK  0 active torsions:
REMARK  status: ('A' for Active; 'I' for Inactive)
ROOT
ATOM      1  C   UNL d   1      -1.172  -2.944   1.150  0.00  0.00     0.023 A 
ATOM      2  C1  UNL d   1      -2.325  -2.637   0.427  0.00  0.00     0.003 A 
ATOM      3  C2  UNL d   1      -3.412  -3.513   0.440  0.00  0.00     0.048 A 
ATOM      4  C3  UNL d   1      -3.341  -4.694   1.179  0.00  0.00     0.023 A 
ATOM      5  C4  UNL d   1      -2.190  -5.004   1.904  0.00  0.00     0.048 A 
ATOM      6  C5  UNL d   1      -1.104  -4.126   1.888  0.00  0.00     0.003 A 
ATOM      7  I   UNL d   1      -4.958  -5.999   1.200  0.00  0.00    -0.146 I 
ENDROOT
TORSDOF 0
ENDMDL
