MODEL 1
REMARK minimizedAffinity 3.11307049
REMARK minimizedRMSD -1
REMARK  0 active torsions:
REMARK  status: ('A' for Active; 'I' for Inactive)
ROOT
ATOM      1  C   UNL d   1      -1.915  -5.227   2.271  0.00  0.00     0.023 A 
ATOM      2  C1  UNL d   1      -2.840  -5.715   1.347  0.00  0.00     0.003 A 
ATOM      3  C2  UNL d   1      -3.107  -4.997   0.179  0.00  0.00     0.048 A 
ATOM      4  C3  UNL d   1      -2.445  -3.793  -0.059  0.00  0.00     0.023 A 
ATOM      5  C4  UNL d   1      -1.518  -3.302   0.862  0.00  0.00     0.048 A 
ATOM      6  C5  UNL d   1      -1.255  -4.022   2.028  0.00  0.00     0.003 A 
ATOM      7  I   UNL d   1      -2.841  -2.724  -1.797  0.00  0.00    -0.146 I 
ENDROOT
TORSDOF 0
ENDMDL
