MODEL 1
REMARK minimizedAffinity 2.88207364
REMARK minimizedRMSD -1
REMARK  0 active torsions:
REMARK  status: ('A' for Active; 'I' for Inactive)
ROOT
ATOM      1  C   UNL d   1       3.422   0.062   2.074  0.00  0.00     0.023 A 
ATOM      2  C1  UNL d   1       2.495   0.913   1.471  0.00  0.00     0.003 A 
ATOM      3  C2  UNL d   1       2.601   1.211   0.111  0.00  0.00     0.048 A 
ATOM      4  C3  UNL d   1       3.635   0.654  -0.640  0.00  0.00     0.023 A 
ATOM      5  C4  UNL d   1       4.565  -0.198  -0.041  0.00  0.00     0.048 A 
ATOM      6  C5  UNL d   1       4.455  -0.492   1.319  0.00  0.00     0.003 A 
ATOM      7  I   UNL d   1       3.795   1.096  -2.665  0.00  0.00    -0.146 I 
ENDROOT
TORSDOF 0
ENDMDL
