MODEL 1
REMARK minimizedAffinity 14.9385509
REMARK minimizedRMSD -1
REMARK  0 active torsions:
REMARK  status: ('A' for Active; 'I' for Inactive)
ROOT
ATOM      1  C   UNL d   1      -1.590  -4.636   3.499  0.00  0.00     0.023 A 
ATOM      2  C1  UNL d   1      -1.518  -3.248   3.376  0.00  0.00     0.003 A 
ATOM      3  C2  UNL d   1      -1.682  -2.648   2.125  0.00  0.00     0.048 A 
ATOM      4  C3  UNL d   1      -1.919  -3.441   1.003  0.00  0.00     0.023 A 
ATOM      5  C4  UNL d   1      -1.993  -4.830   1.123  0.00  0.00     0.048 A 
ATOM      6  C5  UNL d   1      -1.828  -5.426   2.374  0.00  0.00     0.003 A 
ATOM      7  I   UNL d   1      -2.164  -2.550  -0.858  0.00  0.00    -0.146 I 
ENDROOT
TORSDOF 0
ENDMDL
