MODEL 1
REMARK minimizedAffinity 9.04366493
REMARK minimizedRMSD -1
REMARK  0 active torsions:
REMARK  status: ('A' for Active; 'I' for Inactive)
ROOT
ATOM      1  C   UNL d   1      -3.108  -2.185  -2.425  0.00  0.00     0.023 A 
ATOM      2  C1  UNL d   1      -2.699  -3.268  -1.648  0.00  0.00     0.003 A 
ATOM      3  C2  UNL d   1      -1.850  -4.236  -2.188  0.00  0.00     0.048 A 
ATOM      4  C3  UNL d   1      -1.412  -4.114  -3.506  0.00  0.00     0.023 A 
ATOM      5  C4  UNL d   1      -1.818  -3.031  -4.288  0.00  0.00     0.048 A 
ATOM      6  C5  UNL d   1      -2.668  -2.066  -3.744  0.00  0.00     0.003 A 
ATOM      7  I   UNL d   1      -0.147  -5.553  -4.313  0.00  0.00    -0.146 I 
ENDROOT
TORSDOF 0
ENDMDL
