MODEL 1
REMARK minimizedAffinity 3.36576438
REMARK minimizedRMSD -1
REMARK  0 active torsions:
REMARK  status: ('A' for Active; 'I' for Inactive)
ROOT
ATOM      1  C   UNL d   1      -1.832   1.990   2.223  0.00  0.00     0.023 A 
ATOM      2  C1  UNL d   1      -1.409   0.665   2.111  0.00  0.00     0.003 A 
ATOM      3  C2  UNL d   1      -0.088   0.379   1.762  0.00  0.00     0.048 A 
ATOM      4  C3  UNL d   1       0.807   1.423   1.528  0.00  0.00     0.023 A 
ATOM      5  C4  UNL d   1       0.389   2.750   1.640  0.00  0.00     0.048 A 
ATOM      6  C5  UNL d   1      -0.934   3.031   1.988  0.00  0.00     0.003 A 
ATOM      7  I   UNL d   1       2.774   1.000   1.010  0.00  0.00    -0.146 I 
ENDROOT
TORSDOF 0
ENDMDL
