MODEL 1
REMARK minimizedAffinity 1.78482103
REMARK minimizedRMSD -1
REMARK  0 active torsions:
REMARK  status: ('A' for Active; 'I' for Inactive)
ROOT
ATOM      1  C   UNL d   1      -2.191   1.115   2.850  0.00  0.00     0.023 A 
ATOM      2  C1  UNL d   1      -2.101   2.450   3.242  0.00  0.00     0.003 A 
ATOM      3  C2  UNL d   1      -3.026   2.978   4.146  0.00  0.00     0.048 A 
ATOM      4  C3  UNL d   1      -4.037   2.164   4.654  0.00  0.00     0.023 A 
ATOM      5  C4  UNL d   1      -4.131   0.826   4.265  0.00  0.00     0.048 A 
ATOM      6  C5  UNL d   1      -3.204   0.304   3.361  0.00  0.00     0.003 A 
ATOM      7  I   UNL d   1      -5.415   2.946   5.999  0.00  0.00    -0.146 I 
ENDROOT
TORSDOF 0
ENDMDL
