MODEL 1
REMARK minimizedAffinity -0.775734425
REMARK minimizedRMSD -1
REMARK  2 active torsions:
REMARK  status: ('A' for Active; 'I' for Inactive)
REMARK    1  A    between atoms: C2'_3  and  C1'_4 
REMARK    2  A    between atoms: C1'_4  and  C1_5 
ROOT
ATOM      1  C1  I4B d   1       4.553  -4.627   3.598  0.00  0.00    -0.075 A 
ATOM      2  C2  I4B d   1       4.964  -3.317   3.609  0.00  0.00     0.003 A 
ATOM      3  C3  I4B d   1       5.364  -2.706   4.822  0.00  0.00     0.002 A 
ATOM      4  C4  I4B d   1       5.290  -3.421   6.000  0.00  0.00    -0.004 A 
ATOM      5  C5  I4B d   1       4.895  -4.755   5.983  0.00  0.00     0.002 A 
ATOM      6  C6  I4B d   1       4.536  -5.366   4.773  0.00  0.00     0.003 A 
ENDROOT
BRANCH   1   7
ATOM      7  C1' I4B d   1       4.106  -5.231   2.305  0.00  0.00     0.060 C 
BRANCH   7   8
ATOM      8  C2' I4B d   1       4.314  -4.202   1.212  0.00  0.00    -0.013 C 
ATOM      9  C4' I4B d   1       5.086  -4.783   0.056  0.00  0.00     0.013 C 
ATOM     10  C3' I4B d   1       2.966  -3.714   0.773  0.00  0.00     0.013 C 
ENDBRANCH   7   8
ENDBRANCH   1   7
TORSDOF 2
ENDMDL
