MODEL 1
REMARK minimizedAffinity 6.53754807
REMARK minimizedRMSD -1
REMARK  2 active torsions:
REMARK  status: ('A' for Active; 'I' for Inactive)
REMARK    1  A    between atoms: C2'_3  and  C1'_4 
REMARK    2  A    between atoms: C1'_4  and  C1_5 
ROOT
ATOM      1  C1  I4B d   1      -3.444  -1.084  -3.327  0.00  0.00    -0.075 A 
ATOM      2  C2  I4B d   1      -4.674  -1.576  -3.689  0.00  0.00     0.003 A 
ATOM      3  C3  I4B d   1      -4.918  -1.968  -5.028  0.00  0.00     0.002 A 
ATOM      4  C4  I4B d   1      -3.928  -1.806  -5.975  0.00  0.00    -0.004 A 
ATOM      5  C5  I4B d   1      -2.675  -1.329  -5.601  0.00  0.00     0.002 A 
ATOM      6  C6  I4B d   1      -2.427  -0.977  -4.267  0.00  0.00     0.003 A 
ENDROOT
BRANCH   1   7
ATOM      7  C1' I4B d   1      -3.231  -0.648  -1.912  0.00  0.00     0.060 C 
BRANCH   7   8
ATOM      8  C2' I4B d   1      -3.921   0.688  -1.726  0.00  0.00    -0.013 C 
ATOM      9  C4' I4B d   1      -2.926   1.819  -1.714  0.00  0.00     0.013 C 
ATOM     10  C3' I4B d   1      -4.915   0.854  -2.837  0.00  0.00     0.013 C 
ENDBRANCH   7   8
ENDBRANCH   1   7
TORSDOF 2
ENDMDL
