MODEL 1
REMARK minimizedAffinity 5.54618692
REMARK minimizedRMSD -1
REMARK  2 active torsions:
REMARK  status: ('A' for Active; 'I' for Inactive)
REMARK    1  A    between atoms: C2'_3  and  C1'_4 
REMARK    2  A    between atoms: C1'_4  and  C1_5 
ROOT
ATOM      1  C1  I4B d   1      -3.969   0.122  -4.572  0.00  0.00    -0.075 A 
ATOM      2  C2  I4B d   1      -5.239  -0.396  -4.629  0.00  0.00     0.003 A 
ATOM      3  C3  I4B d   1      -5.682  -1.307  -3.639  0.00  0.00     0.002 A 
ATOM      4  C4  I4B d   1      -4.811  -1.708  -2.646  0.00  0.00    -0.004 A 
ATOM      5  C5  I4B d   1      -3.532  -1.164  -2.577  0.00  0.00     0.002 A 
ATOM      6  C6  I4B d   1      -3.112  -0.233  -3.539  0.00  0.00     0.003 A 
ENDROOT
BRANCH   1   7
ATOM      7  C1' I4B d   1      -3.524   1.056  -5.653  0.00  0.00     0.060 C 
BRANCH   7   8
ATOM      8  C2' I4B d   1      -3.827   2.470  -5.202  0.00  0.00    -0.013 C 
ATOM      9  C4' I4B d   1      -5.293   2.784  -5.344  0.00  0.00     0.013 C 
ATOM     10  C3' I4B d   1      -3.379   2.609  -3.778  0.00  0.00     0.013 C 
ENDBRANCH   7   8
ENDBRANCH   1   7
TORSDOF 2
ENDMDL
