MODEL 1
REMARK minimizedAffinity 5.10793924
REMARK minimizedRMSD -1
REMARK  2 active torsions:
REMARK  status: ('A' for Active; 'I' for Inactive)
REMARK    1  A    between atoms: C2'_3  and  C1'_4 
REMARK    2  A    between atoms: C1'_4  and  C1_5 
ROOT
ATOM      1  C1  I4B d   1      -4.297  -0.823  -3.576  0.00  0.00    -0.075 A 
ATOM      2  C2  I4B d   1      -3.327  -1.404  -2.798  0.00  0.00     0.003 A 
ATOM      3  C3  I4B d   1      -2.931  -0.796  -1.582  0.00  0.00     0.002 A 
ATOM      4  C4  I4B d   1      -3.491   0.409  -1.210  0.00  0.00    -0.004 A 
ATOM      5  C5  I4B d   1      -4.491   0.984  -1.989  0.00  0.00     0.002 A 
ATOM      6  C6  I4B d   1      -4.905   0.358  -3.174  0.00  0.00     0.003 A 
ENDROOT
BRANCH   1   7
ATOM      7  C1' I4B d   1      -4.667  -1.475  -4.871  0.00  0.00     0.060 C 
BRANCH   7   8
ATOM      8  C2' I4B d   1      -3.679  -1.016  -5.924  0.00  0.00    -0.013 C 
ATOM      9  C4' I4B d   1      -3.515   0.481  -5.901  0.00  0.00     0.013 C 
ATOM     10  C3' I4B d   1      -2.374  -1.708  -5.668  0.00  0.00     0.013 C 
ENDBRANCH   7   8
ENDBRANCH   1   7
TORSDOF 2
ENDMDL
