MODEL 1
REMARK minimizedAffinity -4.63465929
REMARK minimizedRMSD -1
REMARK  2 active torsions:
REMARK  status: ('A' for Active; 'I' for Inactive)
REMARK    1  A    between atoms: C2'_3  and  C1'_4 
REMARK    2  A    between atoms: C1'_4  and  C1_5 
ROOT
ATOM      1  C1  I4B d   1      -3.111   0.122  -4.718  0.00  0.00    -0.075 A 
ATOM      2  C2  I4B d   1      -3.206  -0.858  -3.762  0.00  0.00     0.003 A 
ATOM      3  C3  I4B d   1      -4.456  -1.460  -3.480  0.00  0.00     0.002 A 
ATOM      4  C4  I4B d   1      -5.586  -1.019  -4.138  0.00  0.00    -0.004 A 
ATOM      5  C5  I4B d   1      -5.484  -0.040  -5.123  0.00  0.00     0.002 A 
ATOM      6  C6  I4B d   1      -4.237   0.525  -5.424  0.00  0.00     0.003 A 
ENDROOT
BRANCH   1   7
ATOM      7  C1' I4B d   1      -1.780   0.759  -4.967  0.00  0.00     0.060 C 
BRANCH   7   8
ATOM      8  C2' I4B d   1      -1.782   2.119  -4.299  0.00  0.00    -0.013 C 
ATOM      9  C4' I4B d   1      -1.781   1.990  -2.798  0.00  0.00     0.013 C 
ATOM     10  C3' I4B d   1      -0.577   2.872  -4.778  0.00  0.00     0.013 C 
ENDBRANCH   7   8
ENDBRANCH   1   7
TORSDOF 2
ENDMDL
