MODEL 1
REMARK minimizedAffinity 4.67067146
REMARK minimizedRMSD -1
REMARK  2 active torsions:
REMARK  status: ('A' for Active; 'I' for Inactive)
REMARK    1  A    between atoms: C2'_3  and  C1'_4 
REMARK    2  A    between atoms: C1'_4  and  C1_5 
ROOT
ATOM      1  C1  I4B d   1      -4.973   0.404  -4.944  0.00  0.00    -0.075 A 
ATOM      2  C2  I4B d   1      -5.022  -0.215  -3.720  0.00  0.00     0.003 A 
ATOM      3  C3  I4B d   1      -4.154  -1.296  -3.432  0.00  0.00     0.002 A 
ATOM      4  C4  I4B d   1      -3.294  -1.756  -4.409  0.00  0.00    -0.004 A 
ATOM      5  C5  I4B d   1      -3.230  -1.113  -5.642  0.00  0.00     0.002 A 
ATOM      6  C6  I4B d   1      -4.066  -0.018  -5.907  0.00  0.00     0.003 A 
ENDROOT
BRANCH   1   7
ATOM      7  C1' I4B d   1      -5.927   1.521  -5.225  0.00  0.00     0.060 C 
BRANCH   7   8
ATOM      8  C2' I4B d   1      -5.117   2.785  -5.430  0.00  0.00    -0.013 C 
ATOM      9  C4' I4B d   1      -5.991   3.924  -5.888  0.00  0.00     0.013 C 
ATOM     10  C3' I4B d   1      -4.435   3.113  -4.136  0.00  0.00     0.013 C 
ENDBRANCH   7   8
ENDBRANCH   1   7
TORSDOF 2
ENDMDL
