MODEL 1
REMARK minimizedAffinity 3.65810966
REMARK minimizedRMSD -1
REMARK  2 active torsions:
REMARK  status: ('A' for Active; 'I' for Inactive)
REMARK    1  A    between atoms: C2'_3  and  C1'_4 
REMARK    2  A    between atoms: C1'_4  and  C1_5 
ROOT
ATOM      1  C1  I4B d   1      -3.952  -0.409  -3.895  0.00  0.00    -0.075 A 
ATOM      2  C2  I4B d   1      -3.229   0.070  -4.959  0.00  0.00     0.003 A 
ATOM      3  C3  I4B d   1      -3.878   0.778  -6.000  0.00  0.00     0.002 A 
ATOM      4  C4  I4B d   1      -5.248   0.938  -5.962  0.00  0.00    -0.004 A 
ATOM      5  C5  I4B d   1      -5.976   0.471  -4.871  0.00  0.00     0.002 A 
ATOM      6  C6  I4B d   1      -5.322  -0.196  -3.825  0.00  0.00     0.003 A 
ENDROOT
BRANCH   1   7
ATOM      7  C1' I4B d   1      -3.240  -1.181  -2.829  0.00  0.00     0.060 C 
BRANCH   7   8
ATOM      8  C2' I4B d   1      -2.599  -0.186  -1.883  0.00  0.00    -0.013 C 
ATOM      9  C4' I4B d   1      -3.333   1.129  -1.894  0.00  0.00     0.013 C 
ATOM     10  C3' I4B d   1      -2.592  -0.791  -0.511  0.00  0.00     0.013 C 
ENDBRANCH   7   8
ENDBRANCH   1   7
TORSDOF 2
ENDMDL
