MODEL 1
REMARK minimizedAffinity 0.768199563
REMARK minimizedRMSD -1
REMARK  2 active torsions:
REMARK  status: ('A' for Active; 'I' for Inactive)
REMARK    1  A    between atoms: C2'_3  and  C1'_4 
REMARK    2  A    between atoms: C1'_4  and  C1_5 
ROOT
ATOM      1  C1  I4B d   1      -3.226   1.624  -3.707  0.00  0.00    -0.075 A 
ATOM      2  C2  I4B d   1      -2.857   0.776  -4.721  0.00  0.00     0.003 A 
ATOM      3  C3  I4B d   1      -2.897  -0.626  -4.526  0.00  0.00     0.002 A 
ATOM      4  C4  I4B d   1      -3.261  -1.132  -3.295  0.00  0.00    -0.004 A 
ATOM      5  C5  I4B d   1      -3.657  -0.270  -2.276  0.00  0.00     0.002 A 
ATOM      6  C6  I4B d   1      -3.652   1.116  -2.487  0.00  0.00     0.003 A 
ENDROOT
BRANCH   1   7
ATOM      7  C1' I4B d   1      -3.141   3.100  -3.936  0.00  0.00     0.060 C 
BRANCH   7   8
ATOM      8  C2' I4B d   1      -3.460   3.366  -5.393  0.00  0.00    -0.013 C 
ATOM      9  C4' I4B d   1      -4.749   4.132  -5.537  0.00  0.00     0.013 C 
ATOM     10  C3' I4B d   1      -2.310   4.123  -5.988  0.00  0.00     0.013 C 
ENDBRANCH   7   8
ENDBRANCH   1   7
TORSDOF 2
ENDMDL
