MODEL 1
REMARK minimizedAffinity 3.89187169
REMARK minimizedRMSD -1
REMARK  0 active torsions:
REMARK  status: ('A' for Active; 'I' for Inactive)
ROOT
ATOM      1  C1  BNZ d   1       1.152  -5.290  -1.465  0.00  0.00     0.000 A 
ATOM      2  C2  BNZ d   1       0.504  -5.667  -2.611  0.00  0.00     0.000 A 
ATOM      3  C3  BNZ d   1      -0.823  -5.996  -2.590  0.00  0.00     0.000 A 
ATOM      4  C4  BNZ d   1      -1.489  -5.985  -1.418  0.00  0.00     0.000 A 
ATOM      5  C5  BNZ d   1      -0.848  -5.616  -0.252  0.00  0.00     0.000 A 
ATOM      6  C6  BNZ d   1       0.477  -5.248  -0.284  0.00  0.00     0.000 A 
ENDROOT
TORSDOF 0
ENDMDL
