MODEL 1
REMARK minimizedAffinity 0.910934687
REMARK minimizedRMSD -1
REMARK  0 active torsions:
REMARK  status: ('A' for Active; 'I' for Inactive)
ROOT
ATOM      1  C1  BNZ d   1      -5.587   3.817  -5.987  0.00  0.00     0.000 A 
ATOM      2  C2  BNZ d   1      -5.829   5.164  -6.000  0.00  0.00     0.000 A 
ATOM      3  C3  BNZ d   1      -5.997   5.856  -4.833  0.00  0.00     0.000 A 
ATOM      4  C4  BNZ d   1      -5.963   5.194  -3.658  0.00  0.00     0.000 A 
ATOM      5  C5  BNZ d   1      -5.730   3.833  -3.630  0.00  0.00     0.000 A 
ATOM      6  C6  BNZ d   1      -5.522   3.147  -4.804  0.00  0.00     0.000 A 
ENDROOT
TORSDOF 0
ENDMDL
