MODEL 1
REMARK minimizedAffinity 6.81895351
REMARK minimizedRMSD -1
REMARK  0 active torsions:
REMARK  status: ('A' for Active; 'I' for Inactive)
ROOT
ATOM      1  C1  BNZ d   1      -2.736   4.049  -5.997  0.00  0.00     0.000 A 
ATOM      2  C2  BNZ d   1      -3.989   3.498  -5.995  0.00  0.00     0.000 A 
ATOM      3  C3  BNZ d   1      -4.158   2.141  -5.968  0.00  0.00     0.000 A 
ATOM      4  C4  BNZ d   1      -3.074   1.338  -5.983  0.00  0.00     0.000 A 
ATOM      5  C5  BNZ d   1      -1.804   1.879  -5.994  0.00  0.00     0.000 A 
ATOM      6  C6  BNZ d   1      -1.638   3.245  -5.982  0.00  0.00     0.000 A 
ENDROOT
TORSDOF 0
ENDMDL
