MODEL 1
REMARK minimizedAffinity -1.6805445
REMARK minimizedRMSD -1
REMARK  0 active torsions:
REMARK  status: ('A' for Active; 'I' for Inactive)
ROOT
ATOM      1  C1  BNZ d   1       3.515   5.998   1.747  0.00  0.00     0.000 A 
ATOM      2  C2  BNZ d   1       3.527   4.844   1.011  0.00  0.00     0.000 A 
ATOM      3  C3  BNZ d   1       3.096   3.665   1.550  0.00  0.00     0.000 A 
ATOM      4  C4  BNZ d   1       2.690   3.633   2.836  0.00  0.00     0.000 A 
ATOM      5  C5  BNZ d   1       2.681   4.787   3.595  0.00  0.00     0.000 A 
ATOM      6  C6  BNZ d   1       3.079   5.979   3.036  0.00  0.00     0.000 A 
ENDROOT
TORSDOF 0
ENDMDL
