MODEL 1
REMARK minimizedAffinity 3.64156771
REMARK minimizedRMSD -1
REMARK  0 active torsions:
REMARK  status: ('A' for Active; 'I' for Inactive)
ROOT
ATOM      1  C1  BNZ d   1       5.262   3.406   1.562  0.00  0.00     0.000 A 
ATOM      2  C2  BNZ d   1       4.958   4.459   0.741  0.00  0.00     0.000 A 
ATOM      3  C3  BNZ d   1       5.188   5.746   1.138  0.00  0.00     0.000 A 
ATOM      4  C4  BNZ d   1       5.684   5.981   2.370  0.00  0.00     0.000 A 
ATOM      5  C5  BNZ d   1       5.987   4.931   3.213  0.00  0.00     0.000 A 
ATOM      6  C6  BNZ d   1       5.791   3.635   2.795  0.00  0.00     0.000 A 
ENDROOT
TORSDOF 0
ENDMDL
