MODEL 1
REMARK minimizedAffinity 9.61747646
REMARK minimizedRMSD -1
REMARK  0 active torsions:
REMARK  status: ('A' for Active; 'I' for Inactive)
ROOT
ATOM      1  C1  BNZ d   1       1.209   2.600  -5.848  0.00  0.00     0.000 A 
ATOM      2  C2  BNZ d   1      -0.065   2.177  -5.573  0.00  0.00     0.000 A 
ATOM      3  C3  BNZ d   1      -0.318   1.370  -4.499  0.00  0.00     0.000 A 
ATOM      4  C4  BNZ d   1       0.707   0.955  -3.726  0.00  0.00     0.000 A 
ATOM      5  C5  BNZ d   1       1.997   1.365  -3.996  0.00  0.00     0.000 A 
ATOM      6  C6  BNZ d   1       2.243   2.209  -5.055  0.00  0.00     0.000 A 
ENDROOT
TORSDOF 0
ENDMDL
