MODEL 1
REMARK minimizedAffinity 7.1137867
REMARK minimizedRMSD -1
REMARK  0 active torsions:
REMARK  status: ('A' for Active; 'I' for Inactive)
ROOT
ATOM      1  C1  BNZ d   1       3.655  -0.001  -2.409  0.00  0.00     0.000 A 
ATOM      2  C2  BNZ d   1       4.833   0.661  -2.185  0.00  0.00     0.000 A 
ATOM      3  C3  BNZ d   1       5.942  -0.011  -1.752  0.00  0.00     0.000 A 
ATOM      4  C4  BNZ d   1       5.861  -1.335  -1.505  0.00  0.00     0.000 A 
ATOM      5  C5  BNZ d   1       4.678  -2.014  -1.718  0.00  0.00     0.000 A 
ATOM      6  C6  BNZ d   1       3.575  -1.342  -2.191  0.00  0.00     0.000 A 
ENDROOT
TORSDOF 0
ENDMDL
