MODEL 1
REMARK minimizedAffinity -1.27749336
REMARK minimizedRMSD -1
REMARK  0 active torsions:
REMARK  status: ('A' for Active; 'I' for Inactive)
ROOT
ATOM      1  C1  BNZ d   1      -4.482   2.047  -5.998  0.00  0.00     0.000 A 
ATOM      2  C2  BNZ d   1      -3.256   2.657  -5.999  0.00  0.00     0.000 A 
ATOM      3  C3  BNZ d   1      -3.152   4.020  -5.975  0.00  0.00     0.000 A 
ATOM      4  C4  BNZ d   1      -4.273   4.770  -5.991  0.00  0.00     0.000 A 
ATOM      5  C5  BNZ d   1      -5.516   4.170  -6.000  0.00  0.00     0.000 A 
ATOM      6  C6  BNZ d   1      -5.617   2.798  -5.984  0.00  0.00     0.000 A 
ENDROOT
TORSDOF 0
ENDMDL
