MODEL 1
REMARK minimizedAffinity -0.803014398
REMARK minimizedRMSD -1
REMARK  0 active torsions:
REMARK  status: ('A' for Active; 'I' for Inactive)
ROOT
ATOM      1  C1  BNZ d   1       4.979   4.313   4.884  0.00  0.00     0.000 A 
ATOM      2  C2  BNZ d   1       4.467   3.652   3.799  0.00  0.00     0.000 A 
ATOM      3  C3  BNZ d   1       3.415   4.171   3.097  0.00  0.00     0.000 A 
ATOM      4  C4  BNZ d   1       2.852   5.327   3.503  0.00  0.00     0.000 A 
ATOM      5  C5  BNZ d   1       3.351   6.000   4.601  0.00  0.00     0.000 A 
ATOM      6  C6  BNZ d   1       4.434   5.495   5.282  0.00  0.00     0.000 A 
ENDROOT
TORSDOF 0
ENDMDL
