MODEL 1
REMARK minimizedAffinity 0.718367815
REMARK minimizedRMSD -1
REMARK  0 active torsions:
REMARK  status: ('A' for Active; 'I' for Inactive)
ROOT
ATOM      1  C1  BNZ d   1      -1.441   0.493   1.233  0.00  0.00     0.000 A 
ATOM      2  C2  BNZ d   1      -0.460   1.432   1.054  0.00  0.00     0.000 A 
ATOM      3  C3  BNZ d   1       0.839   1.057   0.854  0.00  0.00     0.000 A 
ATOM      4  C4  BNZ d   1       1.162  -0.252   0.874  0.00  0.00     0.000 A 
ATOM      5  C5  BNZ d   1       0.186  -1.210   1.062  0.00  0.00     0.000 A 
ATOM      6  C6  BNZ d   1      -1.127  -0.831   1.224  0.00  0.00     0.000 A 
ENDROOT
TORSDOF 0
ENDMDL
