MODEL 1
REMARK minimizedAffinity -2.37268329
REMARK minimizedRMSD -1
REMARK  0 active torsions:
REMARK  status: ('A' for Active; 'I' for Inactive)
ROOT
ATOM      1  C1  BNZ d   1      -3.463   4.344  -6.000  0.00  0.00     0.000 A 
ATOM      2  C2  BNZ d   1      -3.963   3.072  -5.918  0.00  0.00     0.000 A 
ATOM      3  C3  BNZ d   1      -3.126   1.995  -5.826  0.00  0.00     0.000 A 
ATOM      4  C4  BNZ d   1      -1.792   2.188  -5.855  0.00  0.00     0.000 A 
ATOM      5  C5  BNZ d   1      -1.272   3.463  -5.946  0.00  0.00     0.000 A 
ATOM      6  C6  BNZ d   1      -2.117   4.548  -6.000  0.00  0.00     0.000 A 
ENDROOT
TORSDOF 0
ENDMDL
