MODEL 1
REMARK minimizedAffinity 1.91295099
REMARK minimizedRMSD -1
REMARK  0 active torsions:
REMARK  status: ('A' for Active; 'I' for Inactive)
ROOT
ATOM      1  C1  BNZ d   1      -0.187   3.792  -6.000  0.00  0.00     0.000 A 
ATOM      2  C2  BNZ d   1       1.122   4.195  -5.999  0.00  0.00     0.000 A 
ATOM      3  C3  BNZ d   1       2.095   3.413  -5.442  0.00  0.00     0.000 A 
ATOM      4  C4  BNZ d   1       1.753   2.250  -4.851  0.00  0.00     0.000 A 
ATOM      5  C5  BNZ d   1       0.436   1.834  -4.835  0.00  0.00     0.000 A 
ATOM      6  C6  BNZ d   1      -0.535   2.605  -5.432  0.00  0.00     0.000 A 
ENDROOT
TORSDOF 0
ENDMDL
