MODEL 1
REMARK minimizedAffinity 0.568901539
REMARK minimizedRMSD -1
REMARK  0 active torsions:
REMARK  status: ('A' for Active; 'I' for Inactive)
ROOT
ATOM      1  C1  BNZ d   1      -2.046   4.145  -6.000  0.00  0.00     0.000 A 
ATOM      2  C2  BNZ d   1      -0.784   4.676  -6.000  0.00  0.00     0.000 A 
ATOM      3  C3  BNZ d   1       0.317   3.866  -5.980  0.00  0.00     0.000 A 
ATOM      4  C4  BNZ d   1       0.154   2.528  -5.920  0.00  0.00     0.000 A 
ATOM      5  C5  BNZ d   1      -1.112   1.978  -5.910  0.00  0.00     0.000 A 
ATOM      6  C6  BNZ d   1      -2.217   2.795  -5.969  0.00  0.00     0.000 A 
ENDROOT
TORSDOF 0
ENDMDL
