MODEL 1
REMARK minimizedAffinity -2.58924413
REMARK minimizedRMSD -1
REMARK  0 active torsions:
REMARK  status: ('A' for Active; 'I' for Inactive)
ROOT
ATOM      1  C1  BNZ d   1       1.424   1.915   0.584  0.00  0.00     0.000 A 
ATOM      2  C2  BNZ d   1       2.633   1.327   0.327  0.00  0.00     0.000 A 
ATOM      3  C3  BNZ d   1       3.066   1.150  -0.958  0.00  0.00     0.000 A 
ATOM      4  C4  BNZ d   1       2.273   1.523  -1.982  0.00  0.00     0.000 A 
ATOM      5  C5  BNZ d   1       1.047   2.109  -1.740  0.00  0.00     0.000 A 
ATOM      6  C6  BNZ d   1       0.631   2.321  -0.445  0.00  0.00     0.000 A 
ENDROOT
TORSDOF 0
ENDMDL
