MODEL 1
REMARK minimizedAffinity -2.79634142
REMARK minimizedRMSD -1
REMARK  0 active torsions:
REMARK  status: ('A' for Active; 'I' for Inactive)
ROOT
ATOM      1  C1  BNZ d   1      -1.338   3.590  -5.815  0.00  0.00     0.000 A 
ATOM      2  C2  BNZ d   1      -1.388   2.247  -5.555  0.00  0.00     0.000 A 
ATOM      3  C3  BNZ d   1      -0.242   1.508  -5.463  0.00  0.00     0.000 A 
ATOM      4  C4  BNZ d   1       0.950   2.104  -5.672  0.00  0.00     0.000 A 
ATOM      5  C5  BNZ d   1       1.017   3.456  -5.945  0.00  0.00     0.000 A 
ATOM      6  C6  BNZ d   1      -0.137   4.204  -5.998  0.00  0.00     0.000 A 
ENDROOT
TORSDOF 0
ENDMDL
