MODEL 1
REMARK minimizedAffinity -0.0707034469
REMARK minimizedRMSD -1
REMARK  0 active torsions:
REMARK  status: ('A' for Active; 'I' for Inactive)
ROOT
ATOM      1  C1  BNZ d   1       0.169   3.379  -5.990  0.00  0.00     0.000 A 
ATOM      2  C2  BNZ d   1       0.779   4.605  -6.000  0.00  0.00     0.000 A 
ATOM      3  C3  BNZ d   1       0.040   5.755  -5.984  0.00  0.00     0.000 A 
ATOM      4  C4  BNZ d   1      -1.307   5.677  -6.000  0.00  0.00     0.000 A 
ATOM      5  C5  BNZ d   1      -1.936   4.449  -6.000  0.00  0.00     0.000 A 
ATOM      6  C6  BNZ d   1      -1.189   3.294  -5.976  0.00  0.00     0.000 A 
ENDROOT
TORSDOF 0
ENDMDL
