MODEL 1
REMARK minimizedAffinity -4.77115059
REMARK minimizedRMSD -1
REMARK  2 active torsions:
REMARK  status: ('A' for Active; 'I' for Inactive)
REMARK    1  A    between atoms: C2'_3  and  C1'_4 
REMARK    2  A    between atoms: C1'_4  and  C1_5 
ROOT
ATOM      1  C1  I4B d   1      -0.415  -0.681   0.792  0.00  0.00    -0.075 A 
ATOM      2  C2  I4B d   1      -0.329  -2.015   1.107  0.00  0.00     0.003 A 
ATOM      3  C3  I4B d   1      -1.401  -2.661   1.770  0.00  0.00     0.002 A 
ATOM      4  C4  I4B d   1      -2.510  -1.929   2.142  0.00  0.00    -0.004 A 
ATOM      5  C5  I4B d   1      -2.604  -0.582   1.801  0.00  0.00     0.002 A 
ATOM      6  C6  I4B d   1      -1.556   0.043   1.111  0.00  0.00     0.003 A 
ENDROOT
BRANCH   1   7
ATOM      7  C1' I4B d   1       0.749  -0.023   0.121  0.00  0.00     0.060 C 
BRANCH   7   8
ATOM      8  C2' I4B d   1       0.207   0.965  -0.891  0.00  0.00    -0.013 C 
ATOM      9  C4' I4B d   1       1.287   1.893  -1.380  0.00  0.00     0.013 C 
ATOM     10  C3' I4B d   1      -0.392   0.186  -2.024  0.00  0.00     0.013 C 
ENDBRANCH   7   8
ENDBRANCH   1   7
TORSDOF 2
ENDMDL
