MODEL 1
REMARK minimizedAffinity -2.50014114
REMARK minimizedRMSD -1
REMARK  2 active torsions:
REMARK  status: ('A' for Active; 'I' for Inactive)
REMARK    1  A    between atoms: C2'_3  and  C1'_4 
REMARK    2  A    between atoms: C1'_4  and  C1_5 
ROOT
ATOM      1  C1  I4B d   1      -1.245  -0.754   0.890  0.00  0.00    -0.075 A 
ATOM      2  C2  I4B d   1      -2.185   0.178   1.253  0.00  0.00     0.003 A 
ATOM      3  C3  I4B d   1      -2.908   0.027   2.461  0.00  0.00     0.002 A 
ATOM      4  C4  I4B d   1      -2.698  -1.089   3.245  0.00  0.00    -0.004 A 
ATOM      5  C5  I4B d   1      -1.728  -2.021   2.886  0.00  0.00     0.002 A 
ATOM      6  C6  I4B d   1      -0.989  -1.847   1.708  0.00  0.00     0.003 A 
ENDROOT
BRANCH   1   7
ATOM      7  C1' I4B d   1      -0.523  -0.582  -0.409  0.00  0.00     0.060 C 
BRANCH   7   8
ATOM      8  C2' I4B d   1       0.365   0.640  -0.290  0.00  0.00    -0.013 C 
ATOM      9  C4' I4B d   1       1.620   0.329   0.483  0.00  0.00     0.013 C 
ATOM     10  C3' I4B d   1       0.686   1.116  -1.675  0.00  0.00     0.013 C 
ENDBRANCH   7   8
ENDBRANCH   1   7
TORSDOF 2
ENDMDL
