MODEL 1
REMARK minimizedAffinity -3.09067774
REMARK minimizedRMSD -1
REMARK  2 active torsions:
REMARK  status: ('A' for Active; 'I' for Inactive)
REMARK    1  A    between atoms: C2'_3  and  C1'_4 
REMARK    2  A    between atoms: C1'_4  and  C1_5 
ROOT
ATOM      1  C1  I4B d   1       0.722   1.839  -1.309  0.00  0.00    -0.075 A 
ATOM      2  C2  I4B d   1      -0.354   1.845  -2.161  0.00  0.00     0.003 A 
ATOM      3  C3  I4B d   1      -0.193   2.246  -3.509  0.00  0.00     0.002 A 
ATOM      4  C4  I4B d   1       1.042   2.677  -3.947  0.00  0.00    -0.004 A 
ATOM      5  C5  I4B d   1       2.137   2.649  -3.088  0.00  0.00     0.002 A 
ATOM      6  C6  I4B d   1       1.979   2.215  -1.764  0.00  0.00     0.003 A 
ENDROOT
BRANCH   1   7
ATOM      7  C1' I4B d   1       0.509   1.442   0.118  0.00  0.00     0.060 C 
BRANCH   7   8
ATOM      8  C2' I4B d   1      -0.403   0.232   0.134  0.00  0.00    -0.013 C 
ATOM      9  C4' I4B d   1       0.357  -1.019   0.491  0.00  0.00     0.013 C 
ATOM     10  C3' I4B d   1      -1.504   0.495   1.117  0.00  0.00     0.013 C 
ENDBRANCH   7   8
ENDBRANCH   1   7
TORSDOF 2
ENDMDL
