MODEL 1
REMARK minimizedAffinity -3.41413379
REMARK minimizedRMSD -1
REMARK  2 active torsions:
REMARK  status: ('A' for Active; 'I' for Inactive)
REMARK    1  A    between atoms: C2'_3  and  C1'_4 
REMARK    2  A    between atoms: C1'_4  and  C1_5 
ROOT
ATOM      1  C1  I4B d   1      -1.598  -0.522   0.644  0.00  0.00    -0.075 A 
ATOM      2  C2  I4B d   1      -1.407   0.769   1.070  0.00  0.00     0.003 A 
ATOM      3  C3  I4B d   1      -0.371   1.558   0.512  0.00  0.00     0.002 A 
ATOM      4  C4  I4B d   1       0.476   1.003  -0.425  0.00  0.00    -0.004 A 
ATOM      5  C5  I4B d   1       0.267  -0.299  -0.872  0.00  0.00     0.002 A 
ATOM      6  C6  I4B d   1      -0.784  -1.062  -0.343  0.00  0.00     0.003 A 
ENDROOT
BRANCH   1   7
ATOM      7  C1' I4B d   1      -2.680  -1.337   1.278  0.00  0.00     0.060 C 
BRANCH   7   8
ATOM      8  C2' I4B d   1      -2.059  -2.622   1.787  0.00  0.00    -0.013 C 
ATOM      9  C4' I4B d   1      -1.142  -2.360   2.953  0.00  0.00     0.013 C 
ATOM     10  C3' I4B d   1      -3.170  -3.553   2.172  0.00  0.00     0.013 C 
ENDBRANCH   7   8
ENDBRANCH   1   7
TORSDOF 2
ENDMDL
