MODEL 1
REMARK minimizedAffinity -1.96401346
REMARK minimizedRMSD -1
REMARK  2 active torsions:
REMARK  status: ('A' for Active; 'I' for Inactive)
REMARK    1  A    between atoms: C2'_3  and  C1'_4 
REMARK    2  A    between atoms: C1'_4  and  C1_5 
ROOT
ATOM      1  C1  I4B d   1       0.668   0.984  -0.374  0.00  0.00    -0.075 A 
ATOM      2  C2  I4B d   1      -0.487   1.293   0.300  0.00  0.00     0.003 A 
ATOM      3  C3  I4B d   1      -1.063   0.358   1.193  0.00  0.00     0.002 A 
ATOM      4  C4  I4B d   1      -0.483  -0.885   1.343  0.00  0.00    -0.004 A 
ATOM      5  C5  I4B d   1       0.701  -1.188   0.677  0.00  0.00     0.002 A 
ATOM      6  C6  I4B d   1       1.287  -0.244  -0.178  0.00  0.00     0.003 A 
ENDROOT
BRANCH   1   7
ATOM      7  C1' I4B d   1       1.231   1.982  -1.335  0.00  0.00     0.060 C 
BRANCH   7   8
ATOM      8  C2' I4B d   1       0.650   1.692  -2.704  0.00  0.00    -0.013 C 
ATOM      9  C4' I4B d   1      -0.272   2.796  -3.150  0.00  0.00     0.013 C 
ATOM     10  C3' I4B d   1       1.790   1.518  -3.663  0.00  0.00     0.013 C 
ENDBRANCH   7   8
ENDBRANCH   1   7
TORSDOF 2
ENDMDL
