MODEL 1
REMARK minimizedAffinity -4.45824242
REMARK minimizedRMSD -1
REMARK  2 active torsions:
REMARK  status: ('A' for Active; 'I' for Inactive)
REMARK    1  A    between atoms: C2'_3  and  C1'_4 
REMARK    2  A    between atoms: C1'_4  and  C1_5 
ROOT
ATOM      1  C1  I4B d   1      -0.848  -0.998   0.826  0.00  0.00    -0.075 A 
ATOM      2  C2  I4B d   1      -2.063  -0.521   0.402  0.00  0.00     0.003 A 
ATOM      3  C3  I4B d   1      -3.263  -1.100   0.881  0.00  0.00     0.002 A 
ATOM      4  C4  I4B d   1      -3.201  -2.181   1.737  0.00  0.00    -0.004 A 
ATOM      5  C5  I4B d   1      -1.969  -2.649   2.183  0.00  0.00     0.002 A 
ATOM      6  C6  I4B d   1      -0.784  -2.046   1.735  0.00  0.00     0.003 A 
ENDROOT
BRANCH   1   7
ATOM      7  C1' I4B d   1       0.400  -0.384   0.275  0.00  0.00     0.060 C 
BRANCH   7   8
ATOM      8  C2' I4B d   1       0.063   1.016  -0.195  0.00  0.00    -0.013 C 
ATOM      9  C4' I4B d   1      -0.071   1.964   0.967  0.00  0.00     0.013 C 
ATOM     10  C3' I4B d   1       1.142   1.462  -1.136  0.00  0.00     0.013 C 
ENDBRANCH   7   8
ENDBRANCH   1   7
TORSDOF 2
ENDMDL
