MODEL 1
REMARK minimizedAffinity -1.86805046
REMARK minimizedRMSD -1
REMARK  2 active torsions:
REMARK  status: ('A' for Active; 'I' for Inactive)
REMARK    1  A    between atoms: C2'_3  and  C1'_4 
REMARK    2  A    between atoms: C1'_4  and  C1_5 
ROOT
ATOM      1  C1  I4B d   1       0.033   0.133   0.135  0.00  0.00    -0.075 A 
ATOM      2  C2  I4B d   1      -1.320  -0.087   0.194  0.00  0.00     0.003 A 
ATOM      3  C3  I4B d   1      -1.820  -1.369   0.525  0.00  0.00     0.002 A 
ATOM      4  C4  I4B d   1      -0.938  -2.409   0.737  0.00  0.00    -0.004 A 
ATOM      5  C5  I4B d   1       0.435  -2.179   0.698  0.00  0.00     0.002 A 
ATOM      6  C6  I4B d   1       0.924  -0.897   0.408  0.00  0.00     0.003 A 
ENDROOT
BRANCH   1   7
ATOM      7  C1' I4B d   1       0.526   1.492  -0.250  0.00  0.00     0.060 C 
BRANCH   7   8
ATOM      8  C2' I4B d   1       0.943   1.443  -1.706  0.00  0.00    -0.013 C 
ATOM      9  C4' I4B d   1      -0.005   2.231  -2.571  0.00  0.00     0.013 C 
ATOM     10  C3' I4B d   1       2.340   1.979  -1.806  0.00  0.00     0.013 C 
ENDBRANCH   7   8
ENDBRANCH   1   7
TORSDOF 2
ENDMDL
