MODEL 1
REMARK minimizedAffinity 5.18238735
REMARK minimizedRMSD -1
REMARK  2 active torsions:
REMARK  status: ('A' for Active; 'I' for Inactive)
REMARK    1  A    between atoms: C2'_3  and  C1'_4 
REMARK    2  A    between atoms: C1'_4  and  C1_5 
ROOT
ATOM      1  C1  I4B d   1       0.756   0.681  -0.897  0.00  0.00    -0.075 A 
ATOM      2  C2  I4B d   1      -0.504   0.991  -1.345  0.00  0.00     0.003 A 
ATOM      3  C3  I4B d   1      -0.673   1.754  -2.526  0.00  0.00     0.002 A 
ATOM      4  C4  I4B d   1       0.437   2.225  -3.196  0.00  0.00    -0.004 A 
ATOM      5  C5  I4B d   1       1.714   1.891  -2.753  0.00  0.00     0.002 A 
ATOM      6  C6  I4B d   1       1.875   1.103  -1.603  0.00  0.00     0.003 A 
ENDROOT
BRANCH   1   7
ATOM      7  C1' I4B d   1       0.898  -0.098   0.372  0.00  0.00     0.060 C 
BRANCH   7   8
ATOM      8  C2' I4B d   1       1.015  -1.564   0.008  0.00  0.00    -0.013 C 
ATOM      9  C4' I4B d   1       2.454  -1.970  -0.168  0.00  0.00     0.013 C 
ATOM     10  C3' I4B d   1       0.356  -2.364   1.093  0.00  0.00     0.013 C 
ENDBRANCH   7   8
ENDBRANCH   1   7
TORSDOF 2
ENDMDL
