MODEL 1
REMARK minimizedAffinity 1.14753723
REMARK minimizedRMSD -1
REMARK  2 active torsions:
REMARK  status: ('A' for Active; 'I' for Inactive)
REMARK    1  A    between atoms: C2'_3  and  C1'_4 
REMARK    2  A    between atoms: C1'_4  and  C1_5 
ROOT
ATOM      1  C1  I4B d   1       0.254   0.227   0.661  0.00  0.00    -0.075 A 
ATOM      2  C2  I4B d   1      -0.619   1.106   1.251  0.00  0.00     0.003 A 
ATOM      3  C3  I4B d   1      -1.624   1.739   0.479  0.00  0.00     0.002 A 
ATOM      4  C4  I4B d   1      -1.687   1.504  -0.879  0.00  0.00    -0.004 A 
ATOM      5  C5  I4B d   1      -0.815   0.594  -1.471  0.00  0.00     0.002 A 
ATOM      6  C6  I4B d   1       0.153  -0.058  -0.695  0.00  0.00     0.003 A 
ENDROOT
BRANCH   1   7
ATOM      7  C1' I4B d   1       1.324  -0.399   1.499  0.00  0.00     0.060 C 
BRANCH   7   8
ATOM      8  C2' I4B d   1       1.047  -1.886   1.575  0.00  0.00    -0.013 C 
ATOM      9  C4' I4B d   1      -0.432  -2.169   1.526  0.00  0.00     0.013 C 
ATOM     10  C3' I4B d   1       1.763  -2.550   0.437  0.00  0.00     0.013 C 
ENDBRANCH   7   8
ENDBRANCH   1   7
TORSDOF 2
ENDMDL
