MODEL 1
REMARK minimizedAffinity -6.07332897
REMARK minimizedRMSD -1
REMARK  2 active torsions:
REMARK  status: ('A' for Active; 'I' for Inactive)
REMARK    1  A    between atoms: C2'_3  and  C1'_4 
REMARK    2  A    between atoms: C1'_4  and  C1_5 
ROOT
ATOM      1  C1  I4B d   1      -0.210   0.360   0.335  0.00  0.00    -0.075 A 
ATOM      2  C2  I4B d   1      -1.446   0.335   0.930  0.00  0.00     0.003 A 
ATOM      3  C3  I4B d   1      -1.984  -0.886   1.404  0.00  0.00     0.002 A 
ATOM      4  C4  I4B d   1      -1.278  -2.058   1.219  0.00  0.00    -0.004 A 
ATOM      5  C5  I4B d   1      -0.015  -2.026   0.635  0.00  0.00     0.002 A 
ATOM      6  C6  I4B d   1       0.529  -0.808   0.202  0.00  0.00     0.003 A 
ENDROOT
BRANCH   1   7
ATOM      7  C1' I4B d   1       0.313   1.662  -0.184  0.00  0.00     0.060 C 
BRANCH   7   8
ATOM      8  C2' I4B d   1       0.634   1.483  -1.654  0.00  0.00    -0.013 C 
ATOM      9  C4' I4B d   1      -0.396   2.156  -2.523  0.00  0.00     0.013 C 
ATOM     10  C3' I4B d   1       2.002   2.046  -1.901  0.00  0.00     0.013 C 
ENDBRANCH   7   8
ENDBRANCH   1   7
TORSDOF 2
ENDMDL
