MODEL 1
REMARK minimizedAffinity -4.66287184
REMARK minimizedRMSD -1
REMARK  0 active torsions:
REMARK  status: ('A' for Active; 'I' for Inactive)
ROOT
ATOM      1  C1  BNZ d   1      -3.678   1.719   0.638  0.00  0.00     0.000 A 
ATOM      2  C2  BNZ d   1      -3.691   2.997   1.129  0.00  0.00     0.000 A 
ATOM      3  C3  BNZ d   1      -4.856   3.709   1.198  0.00  0.00     0.000 A 
ATOM      4  C4  BNZ d   1      -5.998   3.157   0.740  0.00  0.00     0.000 A 
ATOM      5  C5  BNZ d   1      -6.000   1.873   0.233  0.00  0.00     0.000 A 
ATOM      6  C6  BNZ d   1      -4.832   1.145   0.201  0.00  0.00     0.000 A 
ENDROOT
TORSDOF 0
ENDMDL
