MODEL 1
REMARK minimizedAffinity -1.25755429
REMARK minimizedRMSD -1
REMARK  0 active torsions:
REMARK  status: ('A' for Active; 'I' for Inactive)
ROOT
ATOM      1  C1  BNZ d   1       4.613  -5.965  -5.411  0.00  0.00     0.000 A 
ATOM      2  C2  BNZ d   1       4.883  -5.962  -4.069  0.00  0.00     0.000 A 
ATOM      3  C3  BNZ d   1       3.872  -6.000  -3.151  0.00  0.00     0.000 A 
ATOM      4  C4  BNZ d   1       2.591  -6.000  -3.574  0.00  0.00     0.000 A 
ATOM      5  C5  BNZ d   1       2.302  -5.993  -4.924  0.00  0.00     0.000 A 
ATOM      6  C6  BNZ d   1       3.324  -5.994  -5.846  0.00  0.00     0.000 A 
ENDROOT
TORSDOF 0
ENDMDL
