MODEL 1
REMARK minimizedAffinity 2.95278907
REMARK minimizedRMSD -1
REMARK  0 active torsions:
REMARK  status: ('A' for Active; 'I' for Inactive)
ROOT
ATOM      1  C1  BNZ d   1       1.281  -3.851   1.712  0.00  0.00     0.000 A 
ATOM      2  C2  BNZ d   1       0.589  -2.905   1.003  0.00  0.00     0.000 A 
ATOM      3  C3  BNZ d   1       0.651  -1.585   1.352  0.00  0.00     0.000 A 
ATOM      4  C4  BNZ d   1       1.371  -1.217   2.431  0.00  0.00     0.000 A 
ATOM      5  C5  BNZ d   1       2.066  -2.160   3.162  0.00  0.00     0.000 A 
ATOM      6  C6  BNZ d   1       2.033  -3.483   2.784  0.00  0.00     0.000 A 
ENDROOT
TORSDOF 0
ENDMDL
