MODEL 1
REMARK minimizedAffinity 3.97157383
REMARK minimizedRMSD -1
REMARK  0 active torsions:
REMARK  status: ('A' for Active; 'I' for Inactive)
ROOT
ATOM      1  C1  BNZ d   1       1.343  -4.098   4.094  0.00  0.00     0.000 A 
ATOM      2  C2  BNZ d   1       0.655  -2.917   4.183  0.00  0.00     0.000 A 
ATOM      3  C3  BNZ d   1       1.174  -1.764   3.664  0.00  0.00     0.000 A 
ATOM      4  C4  BNZ d   1       2.396  -1.784   3.094  0.00  0.00     0.000 A 
ATOM      5  C5  BNZ d   1       3.106  -2.964   3.006  0.00  0.00     0.000 A 
ATOM      6  C6  BNZ d   1       2.564  -4.131   3.494  0.00  0.00     0.000 A 
ENDROOT
TORSDOF 0
ENDMDL
