MODEL 1
REMARK minimizedAffinity 2.04677677
REMARK minimizedRMSD -1
REMARK  0 active torsions:
REMARK  status: ('A' for Active; 'I' for Inactive)
ROOT
ATOM      1  C1  BNZ d   1       1.390  -4.282   3.437  0.00  0.00     0.000 A 
ATOM      2  C2  BNZ d   1       0.945  -3.061   3.006  0.00  0.00     0.000 A 
ATOM      3  C3  BNZ d   1       1.556  -1.909   3.416  0.00  0.00     0.000 A 
ATOM      4  C4  BNZ d   1       2.584  -1.977   4.287  0.00  0.00     0.000 A 
ATOM      5  C5  BNZ d   1       3.038  -3.200   4.738  0.00  0.00     0.000 A 
ATOM      6  C6  BNZ d   1       2.445  -4.360   4.292  0.00  0.00     0.000 A 
ENDROOT
TORSDOF 0
ENDMDL
