MODEL 1
REMARK minimizedAffinity 0.388023466
REMARK minimizedRMSD -1
REMARK  0 active torsions:
REMARK  status: ('A' for Active; 'I' for Inactive)
ROOT
ATOM      1  C1  BNZ d   1       4.901  -5.949  -3.722  0.00  0.00     0.000 A 
ATOM      2  C2  BNZ d   1       4.073  -5.951  -2.631  0.00  0.00     0.000 A 
ATOM      3  C3  BNZ d   1       2.715  -5.996  -2.783  0.00  0.00     0.000 A 
ATOM      4  C4  BNZ d   1       2.187  -6.000  -4.024  0.00  0.00     0.000 A 
ATOM      5  C5  BNZ d   1       3.009  -5.989  -5.134  0.00  0.00     0.000 A 
ATOM      6  C6  BNZ d   1       4.376  -5.983  -4.976  0.00  0.00     0.000 A 
ENDROOT
TORSDOF 0
ENDMDL
