MODEL 1
REMARK minimizedAffinity -0.725631237
REMARK minimizedRMSD -1
REMARK  0 active torsions:
REMARK  status: ('A' for Active; 'I' for Inactive)
ROOT
ATOM      1  C1  BNZ d   1       1.401  -2.388   2.966  0.00  0.00     0.000 A 
ATOM      2  C2  BNZ d   1       1.373  -3.739   3.186  0.00  0.00     0.000 A 
ATOM      3  C3  BNZ d   1       2.152  -4.306   4.156  0.00  0.00     0.000 A 
ATOM      4  C4  BNZ d   1       2.986  -3.529   4.876  0.00  0.00     0.000 A 
ATOM      5  C5  BNZ d   1       3.033  -2.166   4.659  0.00  0.00     0.000 A 
ATOM      6  C6  BNZ d   1       2.219  -1.593   3.709  0.00  0.00     0.000 A 
ENDROOT
TORSDOF 0
ENDMDL
