MODEL 1
REMARK minimizedAffinity -4.48562431
REMARK minimizedRMSD -1
REMARK  2 active torsions:
REMARK  status: ('A' for Active; 'I' for Inactive)
REMARK    1  A    between atoms: C2'_3  and  C1'_4 
REMARK    2  A    between atoms: C1'_4  and  C1_5 
ROOT
ATOM      1  C1  I4B d   1      -0.782  -0.458   0.821  0.00  0.00    -0.075 A 
ATOM      2  C2  I4B d   1      -2.085  -0.064   0.997  0.00  0.00     0.003 A 
ATOM      3  C3  I4B d   1      -2.607   0.109   2.302  0.00  0.00     0.002 A 
ATOM      4  C4  I4B d   1      -1.811  -0.169   3.395  0.00  0.00    -0.004 A 
ATOM      5  C5  I4B d   1      -0.484  -0.546   3.214  0.00  0.00     0.002 A 
ATOM      6  C6  I4B d   1       0.038  -0.679   1.919  0.00  0.00     0.003 A 
ENDROOT
BRANCH   1   7
ATOM      7  C1' I4B d   1      -0.274  -0.663  -0.571  0.00  0.00     0.060 C 
BRANCH   7   8
ATOM      8  C2' I4B d   1       0.259   0.664  -1.073  0.00  0.00    -0.013 C 
ATOM      9  C4' I4B d   1       1.248   1.256  -0.104  0.00  0.00     0.013 C 
ATOM     10  C3' I4B d   1       0.888   0.431  -2.415  0.00  0.00     0.013 C 
ENDBRANCH   7   8
ENDBRANCH   1   7
TORSDOF 2
ENDMDL
