MODEL 1
REMARK minimizedAffinity -2.35434723
REMARK minimizedRMSD -1
REMARK  2 active torsions:
REMARK  status: ('A' for Active; 'I' for Inactive)
REMARK    1  A    between atoms: C2'_3  and  C1'_4 
REMARK    2  A    between atoms: C1'_4  and  C1_5 
ROOT
ATOM      1  C1  I4B d   1       0.354  -0.554  -0.287  0.00  0.00    -0.075 A 
ATOM      2  C2  I4B d   1      -0.018  -1.821   0.085  0.00  0.00     0.003 A 
ATOM      3  C3  I4B d   1      -0.573  -2.053   1.367  0.00  0.00     0.002 A 
ATOM      4  C4  I4B d   1      -0.691  -1.005   2.256  0.00  0.00    -0.004 A 
ATOM      5  C5  I4B d   1      -0.335   0.284   1.869  0.00  0.00     0.002 A 
ATOM      6  C6  I4B d   1       0.180   0.513   0.584  0.00  0.00     0.003 A 
ENDROOT
BRANCH   1   7
ATOM      7  C1' I4B d   1       0.968  -0.350  -1.636  0.00  0.00     0.060 C 
BRANCH   7   8
ATOM      8  C2' I4B d   1       1.105  -1.707  -2.296  0.00  0.00    -0.013 C 
ATOM      9  C4' I4B d   1      -0.045  -1.978  -3.229  0.00  0.00     0.013 C 
ATOM     10  C3' I4B d   1       2.414  -1.735  -3.028  0.00  0.00     0.013 C 
ENDBRANCH   7   8
ENDBRANCH   1   7
TORSDOF 2
ENDMDL
