MODEL 1
REMARK minimizedAffinity -5.59777832
REMARK minimizedRMSD -1
REMARK  2 active torsions:
REMARK  status: ('A' for Active; 'I' for Inactive)
REMARK    1  A    between atoms: C2'_3  and  C1'_4 
REMARK    2  A    between atoms: C1'_4  and  C1_5 
ROOT
ATOM      1  C1  I4B d   1       0.410  -0.627   0.085  0.00  0.00    -0.075 A 
ATOM      2  C2  I4B d   1       0.575  -0.756   1.442  0.00  0.00     0.003 A 
ATOM      3  C3  I4B d   1      -0.398  -0.237   2.330  0.00  0.00     0.002 A 
ATOM      4  C4  I4B d   1      -1.487   0.443   1.825  0.00  0.00    -0.004 A 
ATOM      5  C5  I4B d   1      -1.664   0.553   0.448  0.00  0.00     0.002 A 
ATOM      6  C6  I4B d   1      -0.716   0.004  -0.428  0.00  0.00     0.003 A 
ENDROOT
BRANCH   1   7
ATOM      7  C1' I4B d   1       1.473  -1.158  -0.824  0.00  0.00     0.060 C 
BRANCH   7   8
ATOM      8  C2' I4B d   1       0.905  -1.206  -2.228  0.00  0.00    -0.013 C 
ATOM      9  C4' I4B d   1       1.556  -0.177  -3.114  0.00  0.00     0.013 C 
ATOM     10  C3' I4B d   1       1.112  -2.591  -2.764  0.00  0.00     0.013 C 
ENDBRANCH   7   8
ENDBRANCH   1   7
TORSDOF 2
ENDMDL
