MODEL 1
REMARK minimizedAffinity -6.67312717
REMARK minimizedRMSD -1
REMARK  2 active torsions:
REMARK  status: ('A' for Active; 'I' for Inactive)
REMARK    1  A    between atoms: C2'_3  and  C1'_4 
REMARK    2  A    between atoms: C1'_4  and  C1_5 
ROOT
ATOM      1  C1  I4B d   1      -0.184   0.219  -0.320  0.00  0.00    -0.075 A 
ATOM      2  C2  I4B d   1      -1.218  -0.271   0.439  0.00  0.00     0.003 A 
ATOM      3  C3  I4B d   1      -1.081  -0.379   1.844  0.00  0.00     0.002 A 
ATOM      4  C4  I4B d   1       0.116  -0.035   2.439  0.00  0.00    -0.004 A 
ATOM      5  C5  I4B d   1       1.154   0.483   1.670  0.00  0.00     0.002 A 
ATOM      6  C6  I4B d   1       0.999   0.622   0.284  0.00  0.00     0.003 A 
ENDROOT
BRANCH   1   7
ATOM      7  C1' I4B d   1      -0.351   0.288  -1.805  0.00  0.00     0.060 C 
BRANCH   7   8
ATOM      8  C2' I4B d   1       0.639  -0.673  -2.431  0.00  0.00    -0.013 C 
ATOM      9  C4' I4B d   1      -0.067  -1.761  -3.196  0.00  0.00     0.013 C 
ATOM     10  C3' I4B d   1       1.548   0.116  -3.326  0.00  0.00     0.013 C 
ENDBRANCH   7   8
ENDBRANCH   1   7
TORSDOF 2
ENDMDL
