MODEL 1
REMARK minimizedAffinity -5.4434247
REMARK minimizedRMSD -1
REMARK  2 active torsions:
REMARK  status: ('A' for Active; 'I' for Inactive)
REMARK    1  A    between atoms: C2'_3  and  C1'_4 
REMARK    2  A    between atoms: C1'_4  and  C1_5 
ROOT
ATOM      1  C1  I4B d   1      -0.312   0.237   0.160  0.00  0.00    -0.075 A 
ATOM      2  C2  I4B d   1      -1.447  -0.080   0.863  0.00  0.00     0.003 A 
ATOM      3  C3  I4B d   1      -1.392  -0.243   2.269  0.00  0.00     0.002 A 
ATOM      4  C4  I4B d   1      -0.181  -0.130   2.920  0.00  0.00    -0.004 A 
ATOM      5  C5  I4B d   1       0.965   0.214   2.208  0.00  0.00     0.002 A 
ATOM      6  C6  I4B d   1       0.897   0.411   0.821  0.00  0.00     0.003 A 
ENDROOT
BRANCH   1   7
ATOM      7  C1' I4B d   1      -0.399   0.370  -1.327  0.00  0.00     0.060 C 
BRANCH   7   8
ATOM      8  C2' I4B d   1       0.802  -0.331  -1.930  0.00  0.00    -0.013 C 
ATOM      9  C4' I4B d   1       0.508  -1.783  -2.198  0.00  0.00     0.013 C 
ATOM     10  C3' I4B d   1       1.173   0.389  -3.192  0.00  0.00     0.013 C 
ENDBRANCH   7   8
ENDBRANCH   1   7
TORSDOF 2
ENDMDL
