MODEL 1
REMARK minimizedAffinity -2.89426303
REMARK minimizedRMSD -1
REMARK  2 active torsions:
REMARK  status: ('A' for Active; 'I' for Inactive)
REMARK    1  A    between atoms: C2'_3  and  C1'_4 
REMARK    2  A    between atoms: C1'_4  and  C1_5 
ROOT
ATOM      1  C1  I4B d   1      -0.245  -0.283   0.663  0.00  0.00    -0.075 A 
ATOM      2  C2  I4B d   1      -1.320  -0.622   1.447  0.00  0.00     0.003 A 
ATOM      3  C3  I4B d   1      -2.607  -0.113   1.150  0.00  0.00     0.002 A 
ATOM      4  C4  I4B d   1      -2.765   0.766   0.099  0.00  0.00    -0.004 A 
ATOM      5  C5  I4B d   1      -1.679   1.091  -0.709  0.00  0.00     0.002 A 
ATOM      6  C6  I4B d   1      -0.413   0.553  -0.433  0.00  0.00     0.003 A 
ENDROOT
BRANCH   1   7
ATOM      7  C1' I4B d   1       1.106  -0.813   1.024  0.00  0.00     0.060 C 
BRANCH   7   8
ATOM      8  C2' I4B d   1       1.747   0.163   1.990  0.00  0.00    -0.013 C 
ATOM      9  C4' I4B d   1       2.563   1.196   1.260  0.00  0.00     0.013 C 
ATOM     10  C3' I4B d   1       0.655   0.803   2.794  0.00  0.00     0.013 C 
ENDBRANCH   7   8
ENDBRANCH   1   7
TORSDOF 2
ENDMDL
