MODEL 1
REMARK minimizedAffinity -1.55814314
REMARK minimizedRMSD -1
REMARK  2 active torsions:
REMARK  status: ('A' for Active; 'I' for Inactive)
REMARK    1  A    between atoms: C2'_3  and  C1'_4 
REMARK    2  A    between atoms: C1'_4  and  C1_5 
ROOT
ATOM      1  C1  I4B d   1       0.402   0.439   0.774  0.00  0.00    -0.075 A 
ATOM      2  C2  I4B d   1       0.690   0.956   2.012  0.00  0.00     0.003 A 
ATOM      3  C3  I4B d   1      -0.048   0.542   3.147  0.00  0.00     0.002 A 
ATOM      4  C4  I4B d   1      -1.092  -0.348   2.992  0.00  0.00    -0.004 A 
ATOM      5  C5  I4B d   1      -1.367  -0.889   1.739  0.00  0.00     0.002 A 
ATOM      6  C6  I4B d   1      -0.608  -0.503   0.625  0.00  0.00     0.003 A 
ENDROOT
BRANCH   1   7
ATOM      7  C1' I4B d   1       1.180   0.923  -0.408  0.00  0.00     0.060 C 
BRANCH   7   8
ATOM      8  C2' I4B d   1       0.447   0.487  -1.660  0.00  0.00    -0.013 C 
ATOM      9  C4' I4B d   1      -0.763   1.348  -1.911  0.00  0.00     0.013 C 
ATOM     10  C3' I4B d   1       1.409   0.557  -2.808  0.00  0.00     0.013 C 
ENDBRANCH   7   8
ENDBRANCH   1   7
TORSDOF 2
ENDMDL
