MODEL 1
REMARK minimizedAffinity -5.87281227
REMARK minimizedRMSD -1
REMARK  2 active torsions:
REMARK  status: ('A' for Active; 'I' for Inactive)
REMARK    1  A    between atoms: C2'_3  and  C1'_4 
REMARK    2  A    between atoms: C1'_4  and  C1_5 
ROOT
ATOM      1  C1  I4B d   1       0.963  -0.230  -1.341  0.00  0.00    -0.075 A 
ATOM      2  C2  I4B d   1       2.291  -0.425  -1.624  0.00  0.00     0.003 A 
ATOM      3  C3  I4B d   1       2.675  -1.193  -2.751  0.00  0.00     0.002 A 
ATOM      4  C4  I4B d   1       1.704  -1.784  -3.533  0.00  0.00    -0.004 A 
ATOM      5  C5  I4B d   1       0.357  -1.565  -3.258  0.00  0.00     0.002 A 
ATOM      6  C6  I4B d   1      -0.017  -0.773  -2.163  0.00  0.00     0.003 A 
ENDROOT
BRANCH   1   7
ATOM      7  C1' I4B d   1       0.593   0.558  -0.125  0.00  0.00     0.060 C 
BRANCH   7   8
ATOM      8  C2' I4B d   1       0.128  -0.416   0.939  0.00  0.00    -0.013 C 
ATOM      9  C4' I4B d   1       1.121  -0.505   2.068  0.00  0.00     0.013 C 
ATOM     10  C3' I4B d   1      -1.212   0.042   1.432  0.00  0.00     0.013 C 
ENDBRANCH   7   8
ENDBRANCH   1   7
TORSDOF 2
ENDMDL
