MODEL 1
REMARK minimizedAffinity -0.831454277
REMARK minimizedRMSD -1
REMARK  1 active torsions:
REMARK  status: ('A' for Active; 'I' for Inactive)
REMARK    1  A    between atoms: C3_4  and  O_7 
ROOT
ATOM      1  C   UNL d   1       4.729   4.621   5.266  0.00  0.00    -0.033 A 
ATOM      2  C1  UNL d   1       5.577   3.544   5.002  0.00  0.00     0.039 A 
ATOM      3  C2  UNL d   1       5.143   2.238   5.238  0.00  0.00    -0.080 A 
ATOM      4  C3  UNL d   1       3.862   2.023   5.738  0.00  0.00     0.150 A 
ATOM      5  C4  UNL d   1       3.011   3.092   6.000  0.00  0.00    -0.007 A 
ATOM      6  C5  UNL d   1       3.446   4.395   5.764  0.00  0.00     0.039 A 
ENDROOT
BRANCH   4   7
ATOM      7  O   UNL d   1       3.396   0.767   5.989  0.00  0.00    -0.526 OA
ATOM      8  H5  UNL d   1       4.103   0.131   5.788  0.00  0.00     0.418 HD
ENDBRANCH   4   7
TORSDOF 1
ENDMDL
