MODEL 1
REMARK minimizedAffinity -2.98920035
REMARK minimizedRMSD -1
REMARK  1 active torsions:
REMARK  status: ('A' for Active; 'I' for Inactive)
REMARK    1  A    between atoms: C3_4  and  O_7 
ROOT
ATOM      1  C   UNL d   1       4.740   4.072   5.994  0.00  0.00    -0.033 A 
ATOM      2  C1  UNL d   1       3.636   3.218   6.000  0.00  0.00     0.039 A 
ATOM      3  C2  UNL d   1       2.346   3.741   5.889  0.00  0.00    -0.080 A 
ATOM      4  C3  UNL d   1       2.175   5.118   5.772  0.00  0.00     0.150 A 
ATOM      5  C4  UNL d   1       3.270   5.974   5.762  0.00  0.00    -0.007 A 
ATOM      6  C5  UNL d   1       4.558   5.450   5.874  0.00  0.00     0.039 A 
ENDROOT
BRANCH   4   7
ATOM      7  O   UNL d   1       0.935   5.675   5.666  0.00  0.00    -0.526 OA
ATOM      8  H5  UNL d   1       0.273   4.965   5.717  0.00  0.00     0.418 HD
ENDBRANCH   4   7
TORSDOF 1
ENDMDL
