MODEL 1
REMARK minimizedAffinity -0.62887156
REMARK minimizedRMSD -1
REMARK  1 active torsions:
REMARK  status: ('A' for Active; 'I' for Inactive)
REMARK    1  A    between atoms: C3_4  and  O_7 
ROOT
ATOM      1  C   UNL d   1       4.635   5.086   5.259  0.00  0.00    -0.033 A 
ATOM      2  C1  UNL d   1       3.516   4.687   5.993  0.00  0.00     0.039 A 
ATOM      3  C2  UNL d   1       3.123   3.348   5.996  0.00  0.00    -0.080 A 
ATOM      4  C3  UNL d   1       3.856   2.418   5.263  0.00  0.00     0.150 A 
ATOM      5  C4  UNL d   1       4.974   2.808   4.533  0.00  0.00    -0.007 A 
ATOM      6  C5  UNL d   1       5.364   4.147   4.530  0.00  0.00     0.039 A 
ENDROOT
BRANCH   4   7
ATOM      7  O   UNL d   1       3.508   1.101   5.232  0.00  0.00    -0.526 OA
ATOM      8  H5  UNL d   1       2.700   0.983   5.758  0.00  0.00     0.418 HD
ENDBRANCH   4   7
TORSDOF 1
ENDMDL
