MODEL 1
REMARK minimizedAffinity 6.49609852
REMARK minimizedRMSD -1
REMARK  1 active torsions:
REMARK  status: ('A' for Active; 'I' for Inactive)
REMARK    1  A    between atoms: C3_4  and  O_7 
ROOT
ATOM      1  C   UNL d   1       5.814   3.316   3.158  0.00  0.00    -0.033 A 
ATOM      2  C1  UNL d   1       4.724   2.467   3.363  0.00  0.00     0.039 A 
ATOM      3  C2  UNL d   1       3.755   2.790   4.314  0.00  0.00    -0.080 A 
ATOM      4  C3  UNL d   1       3.885   3.963   5.052  0.00  0.00     0.150 A 
ATOM      5  C4  UNL d   1       4.966   4.816   4.850  0.00  0.00    -0.007 A 
ATOM      6  C5  UNL d   1       5.933   4.491   3.900  0.00  0.00     0.039 A 
ENDROOT
BRANCH   4   7
ATOM      7  O   UNL d   1       2.967   4.318   5.994  0.00  0.00    -0.526 OA
ATOM      8  H5  UNL d   1       2.292   3.621   6.044  0.00  0.00     0.418 HD
ENDBRANCH   4   7
TORSDOF 1
ENDMDL
