MODEL 1
REMARK minimizedAffinity -4.00225019
REMARK minimizedRMSD -1
REMARK  1 active torsions:
REMARK  status: ('A' for Active; 'I' for Inactive)
REMARK    1  A    between atoms: C3_4  and  O_7 
ROOT
ATOM      1  C   UNL d   1       4.098   1.873   4.900  0.00  0.00    -0.033 A 
ATOM      2  C1  UNL d   1       5.096   2.294   4.019  0.00  0.00     0.039 A 
ATOM      3  C2  UNL d   1       5.626   3.581   4.125  0.00  0.00    -0.080 A 
ATOM      4  C3  UNL d   1       5.151   4.436   5.116  0.00  0.00     0.150 A 
ATOM      5  C4  UNL d   1       4.160   4.022   5.999  0.00  0.00    -0.007 A 
ATOM      6  C5  UNL d   1       3.631   2.736   5.891  0.00  0.00     0.039 A 
ENDROOT
BRANCH   4   7
ATOM      7  O   UNL d   1       5.634   5.703   5.255  0.00  0.00    -0.526 OA
ATOM      8  H5  UNL d   1       6.293   5.860   4.558  0.00  0.00     0.418 HD
ENDBRANCH   4   7
TORSDOF 1
ENDMDL
