MODEL 1
REMARK minimizedAffinity 1.2156508
REMARK minimizedRMSD -1
REMARK  1 active torsions:
REMARK  status: ('A' for Active; 'I' for Inactive)
REMARK    1  A    between atoms: C3_4  and  O_7 
ROOT
ATOM      1  C   UNL d   1       5.186   2.620   4.384  0.00  0.00    -0.033 A 
ATOM      2  C1  UNL d   1       4.886   3.725   3.585  0.00  0.00     0.039 A 
ATOM      3  C2  UNL d   1       3.911   4.638   3.991  0.00  0.00    -0.080 A 
ATOM      4  C3  UNL d   1       3.245   4.435   5.197  0.00  0.00     0.150 A 
ATOM      5  C4  UNL d   1       3.542   3.338   6.000  0.00  0.00    -0.007 A 
ATOM      6  C5  UNL d   1       4.515   2.427   5.592  0.00  0.00     0.039 A 
ENDROOT
BRANCH   4   7
ATOM      7  O   UNL d   1       2.283   5.296   5.633  0.00  0.00    -0.526 OA
ATOM      8  H5  UNL d   1       2.164   5.990   4.963  0.00  0.00     0.418 HD
ENDBRANCH   4   7
TORSDOF 1
ENDMDL
