MODEL 1
REMARK minimizedAffinity -5.45526505
REMARK minimizedRMSD -1
REMARK  2 active torsions:
REMARK  status: ('A' for Active; 'I' for Inactive)
REMARK    1  A    between atoms: C2'_3  and  C1'_4 
REMARK    2  A    between atoms: C1'_4  and  C1_5 
ROOT
ATOM      1  C1  I4B d   1       0.004  -1.135   0.094  0.00  0.00    -0.075 A 
ATOM      2  C2  I4B d   1       0.628  -1.292  -1.119  0.00  0.00     0.003 A 
ATOM      3  C3  I4B d   1       0.495  -2.505  -1.837  0.00  0.00     0.002 A 
ATOM      4  C4  I4B d   1      -0.224  -3.546  -1.286  0.00  0.00    -0.004 A 
ATOM      5  C5  I4B d   1      -0.874  -3.377  -0.066  0.00  0.00     0.002 A 
ATOM      6  C6  I4B d   1      -0.770  -2.160   0.622  0.00  0.00     0.003 A 
ENDROOT
BRANCH   1   7
ATOM      7  C1' I4B d   1       0.193   0.147   0.841  0.00  0.00     0.060 C 
BRANCH   7   8
ATOM      8  C2' I4B d   1       0.309   1.266  -0.174  0.00  0.00    -0.013 C 
ATOM      9  C4' I4B d   1      -1.048   1.776  -0.582  0.00  0.00     0.013 C 
ATOM     10  C3' I4B d   1       1.138   2.358   0.433  0.00  0.00     0.013 C 
ENDBRANCH   7   8
ENDBRANCH   1   7
TORSDOF 2
ENDMDL
