MODEL 1
REMARK minimizedAffinity -4.96625996
REMARK minimizedRMSD -1
REMARK  2 active torsions:
REMARK  status: ('A' for Active; 'I' for Inactive)
REMARK    1  A    between atoms: C2'_3  and  C1'_4 
REMARK    2  A    between atoms: C1'_4  and  C1_5 
ROOT
ATOM      1  C1  I4B d   1       0.289   1.414  -0.296  0.00  0.00    -0.075 A 
ATOM      2  C2  I4B d   1       0.159   1.172  -1.641  0.00  0.00     0.003 A 
ATOM      3  C3  I4B d   1      -0.007  -0.152  -2.114  0.00  0.00     0.002 A 
ATOM      4  C4  I4B d   1       0.013  -1.202  -1.218  0.00  0.00    -0.004 A 
ATOM      5  C5  I4B d   1       0.121  -0.953   0.147  0.00  0.00     0.002 A 
ATOM      6  C6  I4B d   1       0.248   0.364   0.613  0.00  0.00     0.003 A 
ENDROOT
BRANCH   1   7
ATOM      7  C1' I4B d   1       0.495   2.821   0.167  0.00  0.00     0.060 C 
BRANCH   7   8
ATOM      8  C2' I4B d   1       1.917   2.941   0.676  0.00  0.00    -0.013 C 
ATOM      9  C4' I4B d   1       2.855   3.370  -0.422  0.00  0.00     0.013 C 
ATOM     10  C3' I4B d   1       1.922   3.925   1.808  0.00  0.00     0.013 C 
ENDBRANCH   7   8
ENDBRANCH   1   7
TORSDOF 2
ENDMDL
