MODEL 1
REMARK minimizedAffinity -3.13322067
REMARK minimizedRMSD -1
REMARK  2 active torsions:
REMARK  status: ('A' for Active; 'I' for Inactive)
REMARK    1  A    between atoms: C2'_3  and  C1'_4 
REMARK    2  A    between atoms: C1'_4  and  C1_5 
ROOT
ATOM      1  C1  I4B d   1      -0.512  -0.188   1.030  0.00  0.00    -0.075 A 
ATOM      2  C2  I4B d   1      -1.725  -0.831   1.062  0.00  0.00     0.003 A 
ATOM      3  C3  I4B d   1      -1.791  -2.236   0.904  0.00  0.00     0.002 A 
ATOM      4  C4  I4B d   1      -0.633  -2.948   0.667  0.00  0.00    -0.004 A 
ATOM      5  C5  I4B d   1       0.598  -2.298   0.658  0.00  0.00     0.002 A 
ATOM      6  C6  I4B d   1       0.660  -0.911   0.853  0.00  0.00     0.003 A 
ENDROOT
BRANCH   1   7
ATOM      7  C1' I4B d   1      -0.482   1.301   1.168  0.00  0.00     0.060 C 
BRANCH   7   8
ATOM      8  C2' I4B d   1       0.403   1.854   0.070  0.00  0.00    -0.013 C 
ATOM      9  C4' I4B d   1      -0.242   1.695  -1.282  0.00  0.00     0.013 C 
ATOM     10  C3' I4B d   1       0.672   3.297   0.374  0.00  0.00     0.013 C 
ENDBRANCH   7   8
ENDBRANCH   1   7
TORSDOF 2
ENDMDL
