MODEL 1
REMARK minimizedAffinity -5.0180316
REMARK minimizedRMSD -1
REMARK  2 active torsions:
REMARK  status: ('A' for Active; 'I' for Inactive)
REMARK    1  A    between atoms: C2'_3  and  C1'_4 
REMARK    2  A    between atoms: C1'_4  and  C1_5 
ROOT
ATOM      1  C1  I4B d   1      -0.060   0.877   0.021  0.00  0.00    -0.075 A 
ATOM      2  C2  I4B d   1       0.569   0.043  -0.870  0.00  0.00     0.003 A 
ATOM      3  C3  I4B d   1       0.478  -1.362  -0.717  0.00  0.00     0.002 A 
ATOM      4  C4  I4B d   1      -0.204  -1.886   0.362  0.00  0.00    -0.004 A 
ATOM      5  C5  I4B d   1      -0.860  -1.039   1.251  0.00  0.00     0.002 A 
ATOM      6  C6  I4B d   1      -0.799   0.350   1.073  0.00  0.00     0.003 A 
ENDROOT
BRANCH   1   7
ATOM      7  C1' I4B d   1       0.083   2.356  -0.152  0.00  0.00     0.060 C 
BRANCH   7   8
ATOM      8  C2' I4B d   1       1.303   2.800   0.629  0.00  0.00    -0.013 C 
ATOM      9  C4' I4B d   1       2.517   2.886  -0.259  0.00  0.00     0.013 C 
ATOM     10  C3' I4B d   1       0.994   4.128   1.253  0.00  0.00     0.013 C 
ENDBRANCH   7   8
ENDBRANCH   1   7
TORSDOF 2
ENDMDL
