MODEL 1
REMARK minimizedAffinity -6.17692232
REMARK minimizedRMSD -1
REMARK  2 active torsions:
REMARK  status: ('A' for Active; 'I' for Inactive)
REMARK    1  A    between atoms: C2'_3  and  C1'_4 
REMARK    2  A    between atoms: C1'_4  and  C1_5 
ROOT
ATOM      1  C1  I4B d   1       0.034   0.284  -0.059  0.00  0.00    -0.075 A 
ATOM      2  C2  I4B d   1      -0.882   0.157   0.955  0.00  0.00     0.003 A 
ATOM      3  C3  I4B d   1      -1.104  -1.102   1.563  0.00  0.00     0.002 A 
ATOM      4  C4  I4B d   1      -0.429  -2.211   1.095  0.00  0.00    -0.004 A 
ATOM      5  C5  I4B d   1       0.517  -2.077   0.082  0.00  0.00     0.002 A 
ATOM      6  C6  I4B d   1       0.759  -0.820  -0.490  0.00  0.00     0.003 A 
ENDROOT
BRANCH   1   7
ATOM      7  C1' I4B d   1       0.219   1.622  -0.700  0.00  0.00     0.060 C 
BRANCH   7   8
ATOM      8  C2' I4B d   1       1.222   2.401   0.126  0.00  0.00    -0.013 C 
ATOM      9  C4' I4B d   1       2.551   2.495  -0.577  0.00  0.00     0.013 C 
ATOM     10  C3' I4B d   1       0.650   3.763   0.386  0.00  0.00     0.013 C 
ENDBRANCH   7   8
ENDBRANCH   1   7
TORSDOF 2
ENDMDL
