MODEL 1
REMARK minimizedAffinity -5.79866552
REMARK minimizedRMSD -1
REMARK  2 active torsions:
REMARK  status: ('A' for Active; 'I' for Inactive)
REMARK    1  A    between atoms: C2'_3  and  C1'_4 
REMARK    2  A    between atoms: C1'_4  and  C1_5 
ROOT
ATOM      1  C1  I4B d   1      -0.321   0.444  -0.048  0.00  0.00    -0.075 A 
ATOM      2  C2  I4B d   1      -1.123   0.310   1.058  0.00  0.00     0.003 A 
ATOM      3  C3  I4B d   1      -1.333  -0.965   1.636  0.00  0.00     0.002 A 
ATOM      4  C4  I4B d   1      -0.768  -2.079   1.049  0.00  0.00    -0.004 A 
ATOM      5  C5  I4B d   1       0.063  -1.939  -0.059  0.00  0.00     0.002 A 
ATOM      6  C6  I4B d   1       0.298  -0.668  -0.604  0.00  0.00     0.003 A 
ENDROOT
BRANCH   1   7
ATOM      7  C1' I4B d   1      -0.146   1.801  -0.651  0.00  0.00     0.060 C 
BRANCH   7   8
ATOM      8  C2' I4B d   1       0.666   2.641   0.314  0.00  0.00    -0.013 C 
ATOM      9  C4' I4B d   1       1.938   3.130  -0.326  0.00  0.00     0.013 C 
ATOM     10  C3' I4B d   1      -0.190   3.787   0.764  0.00  0.00     0.013 C 
ENDBRANCH   7   8
ENDBRANCH   1   7
TORSDOF 2
ENDMDL
