MODEL 1
REMARK minimizedAffinity -2.97606683
REMARK minimizedRMSD -1
REMARK  2 active torsions:
REMARK  status: ('A' for Active; 'I' for Inactive)
REMARK    1  A    between atoms: C2'_3  and  C1'_4 
REMARK    2  A    between atoms: C1'_4  and  C1_5 
ROOT
ATOM      1  C1  I4B d   1       0.662   1.691   0.168  0.00  0.00    -0.075 A 
ATOM      2  C2  I4B d   1       1.928   1.562   0.684  0.00  0.00     0.003 A 
ATOM      3  C3  I4B d   1       2.665   2.711   1.060  0.00  0.00     0.002 A 
ATOM      4  C4  I4B d   1       2.121   3.963   0.857  0.00  0.00    -0.004 A 
ATOM      5  C5  I4B d   1       0.830   4.091   0.355  0.00  0.00     0.002 A 
ATOM      6  C6  I4B d   1       0.090   2.948   0.019  0.00  0.00     0.003 A 
ENDROOT
BRANCH   1   7
ATOM      7  C1' I4B d   1      -0.075   0.458  -0.250  0.00  0.00     0.060 C 
BRANCH   7   8
ATOM      8  C2' I4B d   1      -0.594  -0.221   1.001  0.00  0.00    -0.013 C 
ATOM      9  C4' I4B d   1      -1.886   0.400   1.462  0.00  0.00     0.013 C 
ATOM     10  C3' I4B d   1      -0.772  -1.679   0.697  0.00  0.00     0.013 C 
ENDBRANCH   7   8
ENDBRANCH   1   7
TORSDOF 2
ENDMDL
