MODEL 1
REMARK minimizedAffinity -3.7556293
REMARK minimizedRMSD -1
REMARK  2 active torsions:
REMARK  status: ('A' for Active; 'I' for Inactive)
REMARK    1  A    between atoms: C2'_3  and  C1'_4 
REMARK    2  A    between atoms: C1'_4  and  C1_5 
ROOT
ATOM      1  C1  I4B d   1      -0.350   0.315   0.051  0.00  0.00    -0.075 A 
ATOM      2  C2  I4B d   1      -0.249  -0.790  -0.756  0.00  0.00     0.003 A 
ATOM      3  C3  I4B d   1      -0.481  -2.083  -0.228  0.00  0.00     0.002 A 
ATOM      4  C4  I4B d   1      -0.760  -2.228   1.115  0.00  0.00    -0.004 A 
ATOM      5  C5  I4B d   1      -0.886  -1.104   1.928  0.00  0.00     0.002 A 
ATOM      6  C6  I4B d   1      -0.692   0.176   1.390  0.00  0.00     0.003 A 
ENDROOT
BRANCH   1   7
ATOM      7  C1' I4B d   1      -0.067   1.663  -0.532  0.00  0.00     0.060 C 
BRANCH   7   8
ATOM      8  C2' I4B d   1       0.760   2.441   0.471  0.00  0.00    -0.013 C 
ATOM      9  C4' I4B d   1       2.112   2.794  -0.092  0.00  0.00     0.013 C 
ATOM     10  C3' I4B d   1      -0.008   3.673   0.847  0.00  0.00     0.013 C 
ENDBRANCH   7   8
ENDBRANCH   1   7
TORSDOF 2
ENDMDL
