MODEL 1
REMARK minimizedAffinity -4.24889326
REMARK minimizedRMSD -1
REMARK  2 active torsions:
REMARK  status: ('A' for Active; 'I' for Inactive)
REMARK    1  A    between atoms: C2'_3  and  C1'_4 
REMARK    2  A    between atoms: C1'_4  and  C1_5 
ROOT
ATOM      1  C1  I4B d   1      -0.104   1.041  -0.067  0.00  0.00    -0.075 A 
ATOM      2  C2  I4B d   1       0.450   0.262  -1.052  0.00  0.00     0.003 A 
ATOM      3  C3  I4B d   1       0.233  -1.137  -1.060  0.00  0.00     0.002 A 
ATOM      4  C4  I4B d   1      -0.496  -1.718  -0.043  0.00  0.00    -0.004 A 
ATOM      5  C5  I4B d   1      -1.076  -0.924   0.942  0.00  0.00     0.002 A 
ATOM      6  C6  I4B d   1      -0.889   0.466   0.924  0.00  0.00     0.003 A 
ENDROOT
BRANCH   1   7
ATOM      7  C1' I4B d   1       0.173   2.511  -0.070  0.00  0.00     0.060 C 
BRANCH   7   8
ATOM      8  C2' I4B d   1       1.554   2.728   0.514  0.00  0.00    -0.013 C 
ATOM      9  C4' I4B d   1       2.619   2.597  -0.543  0.00  0.00     0.013 C 
ATOM     10  C3' I4B d   1       1.582   4.088   1.146  0.00  0.00     0.013 C 
ENDBRANCH   7   8
ENDBRANCH   1   7
TORSDOF 2
ENDMDL
