MODEL 1
REMARK minimizedAffinity -6.65180731
REMARK minimizedRMSD -1
REMARK  2 active torsions:
REMARK  status: ('A' for Active; 'I' for Inactive)
REMARK    1  A    between atoms: C2'_3  and  C1'_4 
REMARK    2  A    between atoms: C1'_4  and  C1_5 
ROOT
ATOM      1  C1  I4B d   1      -0.005  -0.333  -0.655  0.00  0.00    -0.075 A 
ATOM      2  C2  I4B d   1      -0.104  -0.733   0.655  0.00  0.00     0.003 A 
ATOM      3  C3  I4B d   1      -0.112  -2.111   0.981  0.00  0.00     0.002 A 
ATOM      4  C4  I4B d   1      -0.070  -3.049  -0.030  0.00  0.00    -0.004 A 
ATOM      5  C5  I4B d   1       0.054  -2.642  -1.355  0.00  0.00     0.002 A 
ATOM      6  C6  I4B d   1       0.099  -1.276  -1.669  0.00  0.00     0.003 A 
ENDROOT
BRANCH   1   7
ATOM      7  C1' I4B d   1      -0.032   1.129  -0.966  0.00  0.00     0.060 C 
BRANCH   7   8
ATOM      8  C2' I4B d   1       0.639   1.863   0.177  0.00  0.00    -0.013 C 
ATOM      9  C4' I4B d   1       2.084   2.153  -0.135  0.00  0.00     0.013 C 
ATOM     10  C3' I4B d   1      -0.125   3.128   0.428  0.00  0.00     0.013 C 
ENDBRANCH   7   8
ENDBRANCH   1   7
TORSDOF 2
ENDMDL
