MODEL 1
REMARK minimizedAffinity -3.02933359
REMARK minimizedRMSD -1
REMARK  2 active torsions:
REMARK  status: ('A' for Active; 'I' for Inactive)
REMARK    1  A    between atoms: C2'_3  and  C1'_4 
REMARK    2  A    between atoms: C1'_4  and  C1_5 
ROOT
ATOM      1  C1  I4B d   1       0.172   0.797  -0.048  0.00  0.00    -0.075 A 
ATOM      2  C2  I4B d   1       0.885  -0.149  -0.740  0.00  0.00     0.003 A 
ATOM      3  C3  I4B d   1       0.639  -1.527  -0.523  0.00  0.00     0.002 A 
ATOM      4  C4  I4B d   1      -0.286  -1.911   0.426  0.00  0.00    -0.004 A 
ATOM      5  C5  I4B d   1      -1.024  -0.950   1.110  0.00  0.00     0.002 A 
ATOM      6  C6  I4B d   1      -0.803   0.413   0.864  0.00  0.00     0.003 A 
ENDROOT
BRANCH   1   7
ATOM      7  C1' I4B d   1       0.480   2.243  -0.278  0.00  0.00     0.060 C 
BRANCH   7   8
ATOM      8  C2' I4B d   1       1.588   2.641   0.676  0.00  0.00    -0.013 C 
ATOM      9  C4' I4B d   1       2.838   3.025  -0.072  0.00  0.00     0.013 C 
ATOM     10  C3' I4B d   1       1.089   3.779   1.516  0.00  0.00     0.013 C 
ENDBRANCH   7   8
ENDBRANCH   1   7
TORSDOF 2
ENDMDL
