MODEL 1
REMARK minimizedAffinity -5.44150925
REMARK minimizedRMSD -1
REMARK  2 active torsions:
REMARK  status: ('A' for Active; 'I' for Inactive)
REMARK    1  A    between atoms: C2'_3  and  C1'_4 
REMARK    2  A    between atoms: C1'_4  and  C1_5 
ROOT
ATOM      1  C1  I4B d   1      -0.086  -0.154  -0.392  0.00  0.00    -0.075 A 
ATOM      2  C2  I4B d   1       0.429  -1.187  -1.134  0.00  0.00     0.003 A 
ATOM      3  C3  I4B d   1       0.348  -2.518  -0.656  0.00  0.00     0.002 A 
ATOM      4  C4  I4B d   1      -0.208  -2.762   0.583  0.00  0.00    -0.004 A 
ATOM      5  C5  I4B d   1      -0.750  -1.716   1.324  0.00  0.00     0.002 A 
ATOM      6  C6  I4B d   1      -0.700  -0.405   0.828  0.00  0.00     0.003 A 
ENDROOT
BRANCH   1   7
ATOM      7  C1' I4B d   1       0.047   1.242  -0.912  0.00  0.00     0.060 C 
BRANCH   7   8
ATOM      8  C2' I4B d   1       0.853   2.040   0.093  0.00  0.00    -0.013 C 
ATOM      9  C4' I4B d   1       2.277   2.214  -0.366  0.00  0.00     0.013 C 
ATOM     10  C3' I4B d   1       0.178   3.366   0.280  0.00  0.00     0.013 C 
ENDBRANCH   7   8
ENDBRANCH   1   7
TORSDOF 2
ENDMDL
