MODEL 1
REMARK minimizedAffinity -6.14917469
REMARK minimizedRMSD -1
REMARK  0 active torsions:
REMARK  status: ('A' for Active; 'I' for Inactive)
ROOT
ATOM      1  O1  BZF d   1      -0.624  -2.550   1.313  0.00  0.00    -0.204 OA
ATOM      2  C2  BZF d   1      -1.909  -3.034   1.464  0.00  0.00     0.174 A 
ATOM      3  C3  BZF d   1      -2.775  -2.337   0.699  0.00  0.00    -0.012 A 
ATOM      4  C3A BZF d   1      -1.967  -1.417  -0.041  0.00  0.00    -0.107 A 
ATOM      5  C4  BZF d   1      -2.248  -0.467  -0.981  0.00  0.00     0.055 A 
ATOM      6  C5  BZF d   1      -1.240   0.312  -1.454  0.00  0.00    -0.016 A 
ATOM      7  C6  BZF d   1       0.058   0.172  -1.006  0.00  0.00     0.022 A 
ATOM      8  C7  BZF d   1       0.386  -0.761  -0.079  0.00  0.00     0.029 A 
ATOM      9  C7A BZF d   1      -0.625  -1.572   0.377  0.00  0.00     0.058 A 
ENDROOT
TORSDOF 0
ENDMDL
