MODEL 1
REMARK minimizedAffinity -5.11602116
REMARK minimizedRMSD -1
REMARK  0 active torsions:
REMARK  status: ('A' for Active; 'I' for Inactive)
ROOT
ATOM      1  O1  BZF d   1       0.698  -1.522   1.404  0.00  0.00    -0.204 OA
ATOM      2  C2  BZF d   1       1.198  -0.465   0.667  0.00  0.00     0.174 A 
ATOM      3  C3  BZF d   1       0.253   0.035  -0.154  0.00  0.00    -0.012 A 
ATOM      4  C3A BZF d   1      -0.937  -0.698   0.150  0.00  0.00    -0.107 A 
ATOM      5  C4  BZF d   1      -2.217  -0.649  -0.324  0.00  0.00     0.055 A 
ATOM      6  C5  BZF d   1      -3.124  -1.553   0.131  0.00  0.00    -0.016 A 
ATOM      7  C6  BZF d   1      -2.786  -2.520   1.054  0.00  0.00     0.022 A 
ATOM      8  C7  BZF d   1      -1.530  -2.605   1.557  0.00  0.00     0.029 A 
ATOM      9  C7A BZF d   1      -0.619  -1.673   1.124  0.00  0.00     0.058 A 
ENDROOT
TORSDOF 0
ENDMDL
