MODEL 1
REMARK minimizedAffinity -3.60663366
REMARK minimizedRMSD -1
REMARK  0 active torsions:
REMARK  status: ('A' for Active; 'I' for Inactive)
ROOT
ATOM      1  O1  BZF d   1      -0.201   0.738   1.494  0.00  0.00    -0.204 OA
ATOM      2  C2  BZF d   1       0.930   1.186   0.840  0.00  0.00     0.174 A 
ATOM      3  C3  BZF d   1       0.919   0.802  -0.453  0.00  0.00    -0.012 A 
ATOM      4  C3A BZF d   1      -0.339   0.146  -0.640  0.00  0.00    -0.107 A 
ATOM      5  C4  BZF d   1      -0.942  -0.440  -1.716  0.00  0.00     0.055 A 
ATOM      6  C5  BZF d   1      -2.142  -1.055  -1.547  0.00  0.00    -0.016 A 
ATOM      7  C6  BZF d   1      -2.764  -1.107  -0.317  0.00  0.00     0.022 A 
ATOM      8  C7  BZF d   1      -2.208  -0.535   0.779  0.00  0.00     0.029 A 
ATOM      9  C7A BZF d   1      -1.011   0.115   0.604  0.00  0.00     0.058 A 
ENDROOT
TORSDOF 0
ENDMDL
