MODEL 1
REMARK minimizedAffinity -3.39934468
REMARK minimizedRMSD -1
REMARK  0 active torsions:
REMARK  status: ('A' for Active; 'I' for Inactive)
ROOT
ATOM      1  O1  BZF d   1      -0.102   1.164   1.518  0.00  0.00    -0.204 OA
ATOM      2  C2  BZF d   1       1.085   1.202   0.814  0.00  0.00     0.174 A 
ATOM      3  C3  BZF d   1       0.995   0.471  -0.316  0.00  0.00    -0.012 A 
ATOM      4  C3A BZF d   1      -0.361   0.017  -0.363  0.00  0.00    -0.107 A 
ATOM      5  C4  BZF d   1      -1.067  -0.741  -1.253  0.00  0.00     0.055 A 
ATOM      6  C5  BZF d   1      -2.356  -1.063  -0.969  0.00  0.00    -0.016 A 
ATOM      7  C6  BZF d   1      -2.968  -0.651   0.196  0.00  0.00     0.022 A 
ATOM      8  C7  BZF d   1      -2.310   0.106   1.107  0.00  0.00     0.029 A 
ATOM      9  C7A BZF d   1      -1.017   0.462   0.808  0.00  0.00     0.058 A 
ENDROOT
TORSDOF 0
ENDMDL
