MODEL 1
REMARK minimizedAffinity -3.38459802
REMARK minimizedRMSD -1
REMARK  0 active torsions:
REMARK  status: ('A' for Active; 'I' for Inactive)
ROOT
ATOM      1  O1  BZF d   1       0.252  -0.195  -1.652  0.00  0.00    -0.204 OA
ATOM      2  C2  BZF d   1       1.307  -0.208  -0.760  0.00  0.00     0.174 A 
ATOM      3  C3  BZF d   1       0.862  -0.101   0.508  0.00  0.00    -0.012 A 
ATOM      4  C3A BZF d   1      -0.565  -0.109   0.409  0.00  0.00    -0.107 A 
ATOM      5  C4  BZF d   1      -1.571  -0.046   1.330  0.00  0.00     0.055 A 
ATOM      6  C5  BZF d   1      -2.859  -0.002   0.900  0.00  0.00    -0.016 A 
ATOM      7  C6  BZF d   1      -3.177  -0.014  -0.442  0.00  0.00     0.022 A 
ATOM      8  C7  BZF d   1      -2.214  -0.081  -1.394  0.00  0.00     0.029 A 
ATOM      9  C7A BZF d   1      -0.913  -0.159  -0.961  0.00  0.00     0.058 A 
ENDROOT
TORSDOF 0
ENDMDL
