MODEL 1
REMARK minimizedAffinity -5.50144768
REMARK minimizedRMSD -1
REMARK  0 active torsions:
REMARK  status: ('A' for Active; 'I' for Inactive)
ROOT
ATOM      1  O1  BZF d   1       1.098  -1.319   0.953  0.00  0.00    -0.204 OA
ATOM      2  C2  BZF d   1       0.559  -2.043   1.998  0.00  0.00     0.174 A 
ATOM      3  C3  BZF d   1      -0.779  -1.879   2.055  0.00  0.00    -0.012 A 
ATOM      4  C3A BZF d   1      -1.107  -1.071   0.921  0.00  0.00    -0.107 A 
ATOM      5  C4  BZF d   1      -2.281  -0.580   0.426  0.00  0.00     0.055 A 
ATOM      6  C5  BZF d   1      -2.250   0.238  -0.659  0.00  0.00    -0.016 A 
ATOM      7  C6  BZF d   1      -1.064   0.589  -1.270  0.00  0.00     0.022 A 
ATOM      8  C7  BZF d   1       0.126   0.123  -0.818  0.00  0.00     0.029 A 
ATOM      9  C7A BZF d   1       0.095  -0.730   0.258  0.00  0.00     0.058 A 
ENDROOT
TORSDOF 0
ENDMDL
