MODEL 1
REMARK minimizedAffinity -3.71577811
REMARK minimizedRMSD -1
REMARK  0 active torsions:
REMARK  status: ('A' for Active; 'I' for Inactive)
ROOT
ATOM      1  O1  BZF d   1       1.730   0.405  -1.006  0.00  0.00    -0.204 OA
ATOM      2  C2  BZF d   1       2.331   0.491   0.234  0.00  0.00     0.174 A 
ATOM      3  C3  BZF d   1       1.456   0.182   1.213  0.00  0.00    -0.012 A 
ATOM      4  C3A BZF d   1       0.257  -0.207   0.536  0.00  0.00    -0.107 A 
ATOM      5  C4  BZF d   1      -0.965  -0.639   0.965  0.00  0.00     0.055 A 
ATOM      6  C5  BZF d   1      -1.944  -0.866   0.050  0.00  0.00    -0.016 A 
ATOM      7  C6  BZF d   1      -1.737  -0.667  -1.299  0.00  0.00     0.022 A 
ATOM      8  C7  BZF d   1      -0.540  -0.244  -1.773  0.00  0.00     0.029 A 
ATOM      9  C7A BZF d   1       0.462  -0.045  -0.854  0.00  0.00     0.058 A 
ENDROOT
TORSDOF 0
ENDMDL
