MODEL 1
REMARK minimizedAffinity -2.1126492
REMARK minimizedRMSD -1
REMARK  0 active torsions:
REMARK  status: ('A' for Active; 'I' for Inactive)
ROOT
ATOM      1  O1  BZF d   1       0.478   1.093  -0.222  0.00  0.00    -0.204 OA
ATOM      2  C2  BZF d   1       0.163  -0.246  -0.097  0.00  0.00     0.174 A 
ATOM      3  C3  BZF d   1       0.923  -0.829   0.853  0.00  0.00    -0.012 A 
ATOM      4  C3A BZF d   1       1.700   0.231   1.416  0.00  0.00    -0.107 A 
ATOM      5  C4  BZF d   1       2.632   0.285   2.414  0.00  0.00     0.055 A 
ATOM      6  C5  BZF d   1       3.258   1.463   2.670  0.00  0.00    -0.016 A 
ATOM      7  C6  BZF d   1       2.982   2.605   1.946  0.00  0.00     0.022 A 
ATOM      8  C7  BZF d   1       2.062   2.602   0.951  0.00  0.00     0.029 A 
ATOM      9  C7A BZF d   1       1.403   1.421   0.711  0.00  0.00     0.058 A 
ENDROOT
TORSDOF 0
ENDMDL
