MODEL 1
REMARK minimizedAffinity -5.96287203
REMARK minimizedRMSD -1
REMARK  0 active torsions:
REMARK  status: ('A' for Active; 'I' for Inactive)
ROOT
ATOM      1  O1  BZF d   1       0.781  -0.550   0.543  0.00  0.00    -0.204 OA
ATOM      2  C2  BZF d   1       1.368   0.029  -0.565  0.00  0.00     0.174 A 
ATOM      3  C3  BZF d   1       0.437   0.355  -1.485  0.00  0.00    -0.012 A 
ATOM      4  C3A BZF d   1      -0.819   0.039  -0.878  0.00  0.00    -0.107 A 
ATOM      5  C4  BZF d   1      -2.116   0.152  -1.289  0.00  0.00     0.055 A 
ATOM      6  C5  BZF d   1      -3.107  -0.316  -0.486  0.00  0.00    -0.016 A 
ATOM      7  C6  BZF d   1      -2.837  -0.907   0.731  0.00  0.00     0.022 A 
ATOM      8  C7  BZF d   1      -1.567  -1.038   1.184  0.00  0.00     0.029 A 
ATOM      9  C7A BZF d   1      -0.565  -0.536   0.389  0.00  0.00     0.058 A 
ENDROOT
TORSDOF 0
ENDMDL
