MODEL 1
REMARK minimizedAffinity -3.86862016
REMARK minimizedRMSD -1
REMARK  0 active torsions:
REMARK  status: ('A' for Active; 'I' for Inactive)
ROOT
ATOM      1  O1  BZF d   1       0.747  -1.101   0.736  0.00  0.00    -0.204 OA
ATOM      2  C2  BZF d   1       0.994  -0.049  -0.124  0.00  0.00     0.174 A 
ATOM      3  C3  BZF d   1      -0.010   0.086  -1.015  0.00  0.00    -0.012 A 
ATOM      4  C3A BZF d   1      -0.986  -0.888  -0.632  0.00  0.00    -0.107 A 
ATOM      5  C4  BZF d   1      -2.213  -1.230  -1.123  0.00  0.00     0.055 A 
ATOM      6  C5  BZF d   1      -2.879  -2.276  -0.566  0.00  0.00    -0.016 A 
ATOM      7  C6  BZF d   1      -2.346  -3.003   0.478  0.00  0.00     0.022 A 
ATOM      8  C7  BZF d   1      -1.134  -2.698   1.002  0.00  0.00     0.029 A 
ATOM      9  C7A BZF d   1      -0.473  -1.621   0.463  0.00  0.00     0.058 A 
ENDROOT
TORSDOF 0
ENDMDL
