MODEL 1
REMARK minimizedAffinity -5.79754305
REMARK minimizedRMSD -1
REMARK  0 active torsions:
REMARK  status: ('A' for Active; 'I' for Inactive)
ROOT
ATOM      1  O1  BZF d   1      -2.019  -0.607  -1.517  0.00  0.00    -0.204 OA
ATOM      2  C2  BZF d   1      -3.086  -1.348  -1.049  0.00  0.00     0.174 A 
ATOM      3  C3  BZF d   1      -2.728  -2.075   0.029  0.00  0.00    -0.012 A 
ATOM      4  C3A BZF d   1      -1.375  -1.698   0.303  0.00  0.00    -0.107 A 
ATOM      5  C4  BZF d   1      -0.474  -2.066   1.262  0.00  0.00     0.055 A 
ATOM      6  C5  BZF d   1       0.789  -1.567   1.207  0.00  0.00    -0.016 A 
ATOM      7  C6  BZF d   1       1.187  -0.705   0.206  0.00  0.00     0.022 A 
ATOM      8  C7  BZF d   1       0.327  -0.308  -0.764  0.00  0.00     0.029 A 
ATOM      9  C7A BZF d   1      -0.959  -0.784  -0.692  0.00  0.00     0.058 A 
ENDROOT
TORSDOF 0
ENDMDL
