MODEL 1
REMARK minimizedAffinity -4.38401794
REMARK minimizedRMSD -1
REMARK  0 active torsions:
REMARK  status: ('A' for Active; 'I' for Inactive)
ROOT
ATOM      1  O1  BZF d   1       4.530   4.863  -1.914  0.00  0.00    -0.204 OA
ATOM      2  C2  BZF d   1       4.871   4.113  -3.023  0.00  0.00     0.174 A 
ATOM      3  C3  BZF d   1       4.398   2.855  -2.914  0.00  0.00    -0.012 A 
ATOM      4  C3A BZF d   1       3.639   2.842  -1.701  0.00  0.00    -0.107 A 
ATOM      5  C4  BZF d   1       2.912   1.882  -1.058  0.00  0.00     0.055 A 
ATOM      6  C5  BZF d   1       2.354   2.171   0.146  0.00  0.00    -0.016 A 
ATOM      7  C6  BZF d   1       2.507   3.407   0.739  0.00  0.00     0.022 A 
ATOM      8  C7  BZF d   1       3.215   4.394   0.138  0.00  0.00     0.029 A 
ATOM      9  C7A BZF d   1       3.753   4.115  -1.095  0.00  0.00     0.058 A 
ENDROOT
TORSDOF 0
ENDMDL
