MODEL 1
REMARK minimizedAffinity -5.43393993
REMARK minimizedRMSD -1
REMARK  0 active torsions:
REMARK  status: ('A' for Active; 'I' for Inactive)
ROOT
ATOM      1  O1  BZF d   1       0.475  -0.688   1.179  0.00  0.00    -0.204 OA
ATOM      2  C2  BZF d   1       0.562   0.402   0.334  0.00  0.00     0.174 A 
ATOM      3  C3  BZF d   1      -0.594   0.580  -0.338  0.00  0.00    -0.012 A 
ATOM      4  C3A BZF d   1      -1.488  -0.408   0.182  0.00  0.00    -0.107 A 
ATOM      5  C4  BZF d   1      -2.791  -0.725  -0.077  0.00  0.00     0.055 A 
ATOM      6  C5  BZF d   1      -3.348  -1.793   0.552  0.00  0.00    -0.016 A 
ATOM      7  C6  BZF d   1      -2.632  -2.568   1.440  0.00  0.00     0.022 A 
ATOM      8  C7  BZF d   1      -1.338  -2.290   1.732  0.00  0.00     0.029 A 
ATOM      9  C7A BZF d   1      -0.782  -1.192   1.124  0.00  0.00     0.058 A 
ENDROOT
TORSDOF 0
ENDMDL
