MODEL 1
REMARK minimizedAffinity -2.44418573
REMARK minimizedRMSD -1
REMARK  0 active torsions:
REMARK  status: ('A' for Active; 'I' for Inactive)
ROOT
ATOM      1  O1  BZF d   1       2.550   1.706   0.551  0.00  0.00    -0.204 OA
ATOM      2  C2  BZF d   1       1.886   2.619   1.347  0.00  0.00     0.174 A 
ATOM      3  C3  BZF d   1       2.265   3.879   1.048  0.00  0.00    -0.012 A 
ATOM      4  C3A BZF d   1       3.158   3.750  -0.062  0.00  0.00    -0.107 A 
ATOM      5  C4  BZF d   1       3.852   4.651  -0.818  0.00  0.00     0.055 A 
ATOM      6  C5  BZF d   1       4.693   4.194  -1.783  0.00  0.00    -0.016 A 
ATOM      7  C6  BZF d   1       4.868   2.846  -2.015  0.00  0.00     0.022 A 
ATOM      8  C7  BZF d   1       4.197   1.914  -1.295  0.00  0.00     0.029 A 
ATOM      9  C7A BZF d   1       3.321   2.373  -0.341  0.00  0.00     0.058 A 
ENDROOT
TORSDOF 0
ENDMDL
