MODEL 1
REMARK minimizedAffinity -4.18276453
REMARK minimizedRMSD -1
REMARK  0 active torsions:
REMARK  status: ('A' for Active; 'I' for Inactive)
ROOT
ATOM      1  O1  BZF d   1       2.396   4.292   1.067  0.00  0.00    -0.204 OA
ATOM      2  C2  BZF d   1       2.009   3.168   1.771  0.00  0.00     0.174 A 
ATOM      3  C3  BZF d   1       2.193   2.054   1.034  0.00  0.00    -0.012 A 
ATOM      4  C3A BZF d   1       2.815   2.501  -0.174  0.00  0.00    -0.107 A 
ATOM      5  C4  BZF d   1       3.259   1.859  -1.295  0.00  0.00     0.055 A 
ATOM      6  C5  BZF d   1       3.751   2.595  -2.326  0.00  0.00    -0.016 A 
ATOM      7  C6  BZF d   1       3.809   3.972  -2.273  0.00  0.00     0.022 A 
ATOM      8  C7  BZF d   1       3.384   4.653  -1.181  0.00  0.00     0.029 A 
ATOM      9  C7A BZF d   1       2.917   3.910  -0.124  0.00  0.00     0.058 A 
ENDROOT
TORSDOF 0
ENDMDL
