MODEL 1
REMARK minimizedAffinity -3.36747456
REMARK minimizedRMSD -1
REMARK  0 active torsions:
REMARK  status: ('A' for Active; 'I' for Inactive)
ROOT
ATOM      1  O1  BZF d   1       1.397  -1.064   0.763  0.00  0.00    -0.204 OA
ATOM      2  C2  BZF d   1       1.012  -1.945   1.755  0.00  0.00     0.174 A 
ATOM      3  C3  BZF d   1      -0.288  -2.278   1.620  0.00  0.00    -0.012 A 
ATOM      4  C3A BZF d   1      -0.719  -1.633   0.418  0.00  0.00    -0.107 A 
ATOM      5  C4  BZF d   1      -1.907  -1.598  -0.255  0.00  0.00     0.055 A 
ATOM      6  C5  BZF d   1      -2.018  -0.814  -1.359  0.00  0.00    -0.016 A 
ATOM      7  C6  BZF d   1      -0.964  -0.050  -1.816  0.00  0.00     0.022 A 
ATOM      8  C7  BZF d   1       0.235  -0.056  -1.185  0.00  0.00     0.029 A 
ATOM      9  C7A BZF d   1       0.360  -0.872  -0.088  0.00  0.00     0.058 A 
ENDROOT
TORSDOF 0
ENDMDL
