MODEL 1
REMARK minimizedAffinity -4.17083311
REMARK minimizedRMSD -1
REMARK  0 active torsions:
REMARK  status: ('A' for Active; 'I' for Inactive)
ROOT
ATOM      1  O1  BZF d   1       0.196  -2.340   1.180  0.00  0.00    -0.204 OA
ATOM      2  C2  BZF d   1      -0.835  -3.238   1.382  0.00  0.00     0.174 A 
ATOM      3  C3  BZF d   1      -1.845  -3.009   0.518  0.00  0.00    -0.012 A 
ATOM      4  C3A BZF d   1      -1.380  -1.958  -0.334  0.00  0.00    -0.107 A 
ATOM      5  C4  BZF d   1      -1.927  -1.302  -1.400  0.00  0.00     0.055 A 
ATOM      6  C5  BZF d   1      -1.242  -0.274  -1.965  0.00  0.00    -0.016 A 
ATOM      7  C6  BZF d   1      -0.012   0.129  -1.488  0.00  0.00     0.022 A 
ATOM      8  C7  BZF d   1       0.573  -0.495  -0.436  0.00  0.00     0.029 A 
ATOM      9  C7A BZF d   1      -0.102  -1.556   0.117  0.00  0.00     0.058 A 
ENDROOT
TORSDOF 0
ENDMDL
