MODEL 1
REMARK minimizedAffinity -4.39075518
REMARK minimizedRMSD -1
REMARK  0 active torsions:
REMARK  status: ('A' for Active; 'I' for Inactive)
ROOT
ATOM      1  O1  BZF d   1       3.750   4.894  -1.022  0.00  0.00    -0.204 OA
ATOM      2  C2  BZF d   1       3.943   4.290  -2.250  0.00  0.00     0.174 A 
ATOM      3  C3  BZF d   1       3.552   3.000  -2.215  0.00  0.00    -0.012 A 
ATOM      4  C3A BZF d   1       3.000   2.809  -0.909  0.00  0.00    -0.107 A 
ATOM      5  C4  BZF d   1       2.431   1.741  -0.277  0.00  0.00     0.055 A 
ATOM      6  C5  BZF d   1       2.061   1.863   1.025  0.00  0.00    -0.016 A 
ATOM      7  C6  BZF d   1       2.250   3.036   1.726  0.00  0.00     0.022 A 
ATOM      8  C7  BZF d   1       2.806   4.125   1.140  0.00  0.00     0.029 A 
ATOM      9  C7A BZF d   1       3.150   4.014  -0.185  0.00  0.00     0.058 A 
ENDROOT
TORSDOF 0
ENDMDL
