MODEL 1
REMARK minimizedAffinity -4.6167016
REMARK minimizedRMSD -1
REMARK  1 active torsions:
REMARK  status: ('A' for Active; 'I' for Inactive)
REMARK    1  A    between atoms: C1_2  and  C2_3 
ROOT
ATOM      1  C2  UNL d   1      -1.749   0.305  -1.283  0.00  0.00    -0.081 A 
ATOM      2  C3  UNL d   1      -0.563   0.665  -1.934  0.00  0.00     0.006 A 
ATOM      3  C4  UNL d   1       0.613   0.863  -1.206  0.00  0.00     0.002 A 
ATOM      4  C5  UNL d   1       0.625   0.696   0.183  0.00  0.00    -0.080 A 
ATOM      5  C6  UNL d   1       1.887   0.875   0.972  0.00  0.00     0.076 C 
ATOM      6  C7  UNL d   1      -0.564   0.353   0.836  0.00  0.00     0.002 A 
ATOM      7  C8  UNL d   1      -1.740   0.156   0.109  0.00  0.00     0.006 A 
ENDROOT
BRANCH   1   8
ATOM      8  C1  UNL d   1      -3.003   0.028  -2.071  0.00  0.00     0.054 C 
ATOM      9  C   UNL d   1      -2.708  -0.823  -3.299  0.00  0.00     0.018 C 
ENDBRANCH   1   8
TORSDOF 1
ENDMDL
