MODEL 1
REMARK minimizedAffinity -5.35899019
REMARK minimizedRMSD -1
REMARK  1 active torsions:
REMARK  status: ('A' for Active; 'I' for Inactive)
REMARK    1  A    between atoms: C1_2  and  C2_3 
ROOT
ATOM      1  C2  UNL d   1       0.266   0.287   0.203  0.00  0.00    -0.081 A 
ATOM      2  C3  UNL d   1       1.351   0.984   0.747  0.00  0.00     0.006 A 
ATOM      3  C4  UNL d   1       2.293   0.323   1.538  0.00  0.00     0.002 A 
ATOM      4  C5  UNL d   1       2.170  -1.048   1.792  0.00  0.00    -0.080 A 
ATOM      5  C6  UNL d   1       3.191  -1.776   2.615  0.00  0.00     0.076 C 
ATOM      6  C7  UNL d   1       1.076  -1.741   1.263  0.00  0.00     0.002 A 
ATOM      7  C8  UNL d   1       0.134  -1.080   0.472  0.00  0.00     0.006 A 
ENDROOT
BRANCH   1   8
ATOM      8  C1  UNL d   1      -0.716   0.983  -0.704  0.00  0.00     0.054 C 
ATOM      9  C   UNL d   1      -1.399  -0.002  -1.642  0.00  0.00     0.018 C 
ENDBRANCH   1   8
TORSDOF 1
ENDMDL
