MODEL 1
REMARK minimizedAffinity -5.35172749
REMARK minimizedRMSD -1
REMARK  1 active torsions:
REMARK  status: ('A' for Active; 'I' for Inactive)
REMARK    1  A    between atoms: C1_2  and  C2_3 
ROOT
ATOM      1  C2  UNL d   1      -0.459  -0.069   0.002  0.00  0.00    -0.081 A 
ATOM      2  C3  UNL d   1       0.369   1.059  -0.055  0.00  0.00     0.006 A 
ATOM      3  C4  UNL d   1       1.687   0.995   0.405  0.00  0.00     0.002 A 
ATOM      4  C5  UNL d   1       2.200  -0.199   0.921  0.00  0.00    -0.080 A 
ATOM      5  C6  UNL d   1       3.622  -0.290   1.390  0.00  0.00     0.076 C 
ATOM      6  C7  UNL d   1       1.368  -1.321   0.994  0.00  0.00     0.002 A 
ATOM      7  C8  UNL d   1       0.051  -1.257   0.535  0.00  0.00     0.006 A 
ENDROOT
BRANCH   1   8
ATOM      8  C1  UNL d   1      -1.859  -0.020  -0.553  0.00  0.00     0.054 C 
ATOM      9  C   UNL d   1      -1.861  -0.187  -2.066  0.00  0.00     0.018 C 
ENDBRANCH   1   8
TORSDOF 1
ENDMDL
