MODEL 1
REMARK minimizedAffinity -1.7802335
REMARK minimizedRMSD -1
REMARK  1 active torsions:
REMARK  status: ('A' for Active; 'I' for Inactive)
REMARK    1  A    between atoms: C1_2  and  C2_3 
ROOT
ATOM      1  C2  UNL d   1       1.162   0.828   1.527  0.00  0.00    -0.081 A 
ATOM      2  C3  UNL d   1       0.451  -0.275   2.016  0.00  0.00     0.006 A 
ATOM      3  C4  UNL d   1       0.892  -0.954   3.154  0.00  0.00     0.002 A 
ATOM      4  C5  UNL d   1       2.045  -0.537   3.827  0.00  0.00    -0.080 A 
ATOM      5  C6  UNL d   1       2.512  -1.239   5.068  0.00  0.00     0.076 C 
ATOM      6  C7  UNL d   1       2.765   0.554   3.329  0.00  0.00     0.002 A 
ATOM      7  C8  UNL d   1       2.326   1.233   2.190  0.00  0.00     0.006 A 
ENDROOT
BRANCH   1   8
ATOM      8  C1  UNL d   1       0.654   1.602   0.338  0.00  0.00     0.054 C 
ATOM      9  C   UNL d   1      -0.860   1.507   0.221  0.00  0.00     0.018 C 
ENDBRANCH   1   8
TORSDOF 1
ENDMDL
