MODEL 1
REMARK minimizedAffinity 9.95928383
REMARK minimizedRMSD -1
REMARK  1 active torsions:
REMARK  status: ('A' for Active; 'I' for Inactive)
REMARK    1  A    between atoms: C1_2  and  C2_3 
ROOT
ATOM      1  C2  UNL d   1       2.630  -1.545  -1.141  0.00  0.00    -0.076 A 
ATOM      2  C3  UNL d   1       1.934  -1.196   0.029  0.00  0.00     0.004 A 
ATOM      3  C4  UNL d   1       0.759  -1.855   0.387  0.00  0.00    -0.003 A 
ATOM      4  C5  UNL d   1       0.261  -2.873  -0.418  0.00  0.00     0.000 A 
ATOM      5  C6  UNL d   1       0.949  -3.243  -1.574  0.00  0.00     0.000 A 
ATOM      6  C7  UNL d   1       2.143  -2.601  -1.941  0.00  0.00    -0.073 A 
ATOM      7  C8  UNL d   1       2.840  -3.037  -3.200  0.00  0.00     0.078 C 
ENDROOT
BRANCH   1   8
ATOM      8  C1  UNL d   1       3.885  -0.777  -1.493  0.00  0.00     0.053 C 
ATOM      9  C   UNL d   1       4.009   0.524  -0.715  0.00  0.00     0.018 C 
ENDBRANCH   1   8
TORSDOF 1
ENDMDL
