MODEL 1
REMARK minimizedAffinity -1.15826893
REMARK minimizedRMSD -1
REMARK  1 active torsions:
REMARK  status: ('A' for Active; 'I' for Inactive)
REMARK    1  A    between atoms: C1_2  and  C2_3 
ROOT
ATOM      1  C2  UNL d   1       2.349  -1.189  -1.172  0.00  0.00    -0.076 A 
ATOM      2  C3  UNL d   1       2.001  -2.484  -1.594  0.00  0.00     0.004 A 
ATOM      3  C4  UNL d   1       2.813  -3.194  -2.476  0.00  0.00    -0.003 A 
ATOM      4  C5  UNL d   1       3.988  -2.620  -2.950  0.00  0.00     0.000 A 
ATOM      5  C6  UNL d   1       4.359  -1.344  -2.528  0.00  0.00     0.000 A 
ATOM      6  C7  UNL d   1       3.559  -0.621  -1.626  0.00  0.00    -0.073 A 
ATOM      7  C8  UNL d   1       4.003   0.754  -1.209  0.00  0.00     0.078 C 
ENDROOT
BRANCH   1   8
ATOM      8  C1  UNL d   1       1.415  -0.457  -0.235  0.00  0.00     0.053 C 
ATOM      9  C   UNL d   1      -0.049  -0.725  -0.545  0.00  0.00     0.018 C 
ENDBRANCH   1   8
TORSDOF 1
ENDMDL
