MODEL 1
REMARK minimizedAffinity 7.05315924
REMARK minimizedRMSD -1
REMARK  0 active torsions:
REMARK  status: ('A' for Active; 'I' for Inactive)
ROOT
ATOM      1  C4' PXY d   1       3.257  -3.989  -0.467  0.00  0.00     0.077 C 
ATOM      2  C1' PXY d   1       1.509   0.770  -3.244  0.00  0.00     0.077 C 
ATOM      3  C1  PXY d   1       1.973  -0.470  -2.507  0.00  0.00    -0.082 A 
ATOM      4  C2  PXY d   1       2.102  -1.612  -3.164  0.00  0.00     0.003 A 
ATOM      5  C3  PXY d   1       2.490  -2.750  -2.506  0.00  0.00     0.003 A 
ATOM      6  C4  PXY d   1       2.801  -2.709  -1.173  0.00  0.00    -0.082 A 
ATOM      7  C5  PXY d   1       2.682  -1.546  -0.498  0.00  0.00     0.003 A 
ATOM      8  C6  PXY d   1       2.247  -0.410  -1.175  0.00  0.00     0.003 A 
ENDROOT
TORSDOF 0
ENDMDL
