MODEL 1
REMARK minimizedAffinity -3.36598802
REMARK minimizedRMSD -1
REMARK  0 active torsions:
REMARK  status: ('A' for Active; 'I' for Inactive)
ROOT
ATOM      1  C4' PXY d   1      -5.640  -3.383   4.804  0.00  0.00     0.077 C 
ATOM      2  C1' PXY d   1      -4.858  -6.000  -0.291  0.00  0.00     0.077 C 
ATOM      3  C1  PXY d   1      -5.060  -5.325   1.052  0.00  0.00    -0.082 A 
ATOM      4  C2  PXY d   1      -5.832  -4.253   1.135  0.00  0.00     0.003 A 
ATOM      5  C3  PXY d   1      -6.000  -3.611   2.335  0.00  0.00     0.003 A 
ATOM      6  C4  PXY d   1      -5.415  -4.103   3.472  0.00  0.00    -0.082 A 
ATOM      7  C5  PXY d   1      -4.635  -5.202   3.396  0.00  0.00     0.003 A 
ATOM      8  C6  PXY d   1      -4.444  -5.814   2.161  0.00  0.00     0.003 A 
ENDROOT
TORSDOF 0
ENDMDL
