MODEL 1
REMARK minimizedAffinity 18.6027718
REMARK minimizedRMSD -1
REMARK  0 active torsions:
REMARK  status: ('A' for Active; 'I' for Inactive)
ROOT
ATOM      1  C4' PXY d   1      -6.000  -2.156   1.968  0.00  0.00     0.077 C 
ATOM      2  C1' PXY d   1      -1.797   1.630   3.160  0.00  0.00     0.077 C 
ATOM      3  C1  PXY d   1      -2.896   0.630   2.858  0.00  0.00    -0.082 A 
ATOM      4  C2  PXY d   1      -3.321   0.481   1.614  0.00  0.00     0.003 A 
ATOM      5  C3  PXY d   1      -4.336  -0.395   1.328  0.00  0.00     0.003 A 
ATOM      6  C4  PXY d   1      -4.886  -1.165   2.318  0.00  0.00    -0.082 A 
ATOM      7  C5  PXY d   1      -4.450  -1.027   3.588  0.00  0.00     0.003 A 
ATOM      8  C6  PXY d   1      -3.447  -0.102   3.864  0.00  0.00     0.003 A 
ENDROOT
TORSDOF 0
ENDMDL
