MODEL 1
REMARK minimizedAffinity 11.9965477
REMARK minimizedRMSD -1
REMARK  0 active torsions:
REMARK  status: ('A' for Active; 'I' for Inactive)
ROOT
ATOM      1  C4' PXY d   1       3.953  -4.668  -0.291  0.00  0.00     0.077 C 
ATOM      2  C1' PXY d   1       0.891  -0.484  -2.847  0.00  0.00     0.077 C 
ATOM      3  C1  PXY d   1       1.700  -1.572  -2.170  0.00  0.00    -0.082 A 
ATOM      4  C2  PXY d   1       1.855  -2.741  -2.769  0.00  0.00     0.003 A 
ATOM      5  C3  PXY d   1       2.557  -3.747  -2.157  0.00  0.00     0.003 A 
ATOM      6  C4  PXY d   1       3.152  -3.537  -0.942  0.00  0.00    -0.082 A 
ATOM      7  C5  PXY d   1       3.007  -2.343  -0.328  0.00  0.00     0.003 A 
ATOM      8  C6  PXY d   1       2.256  -1.349  -0.948  0.00  0.00     0.003 A 
ENDROOT
TORSDOF 0
ENDMDL
