MODEL 1
REMARK minimizedAffinity 12.4332123
REMARK minimizedRMSD -1
REMARK  0 active torsions:
REMARK  status: ('A' for Active; 'I' for Inactive)
ROOT
ATOM      1  C4' PXY d   1       0.792  -4.096  -2.294  0.00  0.00     0.077 C 
ATOM      2  C1' PXY d   1       3.068   0.978  -0.716  0.00  0.00     0.077 C 
ATOM      3  C1  PXY d   1       2.463  -0.346  -1.137  0.00  0.00    -0.082 A 
ATOM      4  C2  PXY d   1       2.593  -1.404  -0.353  0.00  0.00     0.003 A 
ATOM      5  C3  PXY d   1       2.079  -2.617  -0.734  0.00  0.00     0.003 A 
ATOM      6  C4  PXY d   1       1.379  -2.737  -1.904  0.00  0.00    -0.082 A 
ATOM      7  C5  PXY d   1       1.232  -1.659  -2.705  0.00  0.00     0.003 A 
ATOM      8  C6  PXY d   1       1.797  -0.447  -2.320  0.00  0.00     0.003 A 
ENDROOT
TORSDOF 0
ENDMDL
