MODEL 1
REMARK minimizedAffinity 12.5154924
REMARK minimizedRMSD -1
REMARK  0 active torsions:
REMARK  status: ('A' for Active; 'I' for Inactive)
ROOT
ATOM      1  C4' PXY d   1       0.957  -4.292  -2.343  0.00  0.00     0.077 C 
ATOM      2  C1' PXY d   1       3.257   0.739  -0.667  0.00  0.00     0.077 C 
ATOM      3  C1  PXY d   1       2.664  -0.587  -1.101  0.00  0.00    -0.082 A 
ATOM      4  C2  PXY d   1       1.813  -0.622  -2.113  0.00  0.00     0.003 A 
ATOM      5  C3  PXY d   1       1.243  -1.808  -2.499  0.00  0.00     0.003 A 
ATOM      6  C4  PXY d   1       1.588  -2.977  -1.876  0.00  0.00    -0.082 A 
ATOM      7  C5  PXY d   1       2.464  -2.951  -0.850  0.00  0.00     0.003 A 
ATOM      8  C6  PXY d   1       3.000  -1.731  -0.447  0.00  0.00     0.003 A 
ENDROOT
TORSDOF 0
ENDMDL
