MODEL 1
REMARK minimizedAffinity 8.57609749
REMARK minimizedRMSD -1
REMARK  0 active torsions:
REMARK  status: ('A' for Active; 'I' for Inactive)
ROOT
ATOM      1  C4' PXY d   1      -2.797   1.888   6.000  0.00  0.00     0.077 C 
ATOM      2  C1' PXY d   1      -4.595  -2.075   2.195  0.00  0.00     0.077 C 
ATOM      3  C1  PXY d   1      -4.118  -1.029   3.183  0.00  0.00    -0.082 A 
ATOM      4  C2  PXY d   1      -3.975  -1.351   4.458  0.00  0.00     0.003 A 
ATOM      5  C3  PXY d   1      -3.575  -0.409   5.371  0.00  0.00     0.003 A 
ATOM      6  C4  PXY d   1      -3.267   0.862   4.965  0.00  0.00    -0.082 A 
ATOM      7  C5  PXY d   1      -3.400   1.195   3.664  0.00  0.00     0.003 A 
ATOM      8  C6  PXY d   1      -3.847   0.236   2.760  0.00  0.00     0.003 A 
ENDROOT
TORSDOF 0
ENDMDL
