MODEL 1
REMARK minimizedAffinity 12.9497461
REMARK minimizedRMSD -1
REMARK  0 active torsions:
REMARK  status: ('A' for Active; 'I' for Inactive)
ROOT
ATOM      1  C4' PXY d   1      -5.166   2.633   4.897  0.00  0.00     0.077 C 
ATOM      2  C1' PXY d   1       0.466   1.330   4.978  0.00  0.00     0.077 C 
ATOM      3  C1  PXY d   1      -1.014   1.661   4.964  0.00  0.00    -0.082 A 
ATOM      4  C2  PXY d   1      -1.524   2.334   3.946  0.00  0.00     0.003 A 
ATOM      5  C3  PXY d   1      -2.854   2.670   3.933  0.00  0.00     0.003 A 
ATOM      6  C4  PXY d   1      -3.680   2.268   4.948  0.00  0.00    -0.082 A 
ATOM      7  C5  PXY d   1      -3.168   1.572   5.986  0.00  0.00     0.003 A 
ATOM      8  C6  PXY d   1      -1.808   1.277   6.000  0.00  0.00     0.003 A 
ENDROOT
TORSDOF 0
ENDMDL
