MODEL 1
REMARK minimizedAffinity 1.71609688
REMARK minimizedRMSD -1
REMARK  0 active torsions:
REMARK  status: ('A' for Active; 'I' for Inactive)
ROOT
ATOM      1  C4' PXY d   1       2.867  -0.505  -0.231  0.00  0.00     0.077 C 
ATOM      2  C1' PXY d   1       3.544  -5.820  -2.401  0.00  0.00     0.077 C 
ATOM      3  C1  PXY d   1       3.370  -4.430  -1.820  0.00  0.00    -0.082 A 
ATOM      4  C2  PXY d   1       2.571  -3.565  -2.423  0.00  0.00     0.003 A 
ATOM      5  C3  PXY d   1       2.427  -2.294  -1.929  0.00  0.00     0.003 A 
ATOM      6  C4  PXY d   1       3.066  -1.922  -0.776  0.00  0.00    -0.082 A 
ATOM      7  C5  PXY d   1       3.874  -2.803  -0.150  0.00  0.00     0.003 A 
ATOM      8  C6  PXY d   1       4.039  -4.075  -0.690  0.00  0.00     0.003 A 
ENDROOT
TORSDOF 0
ENDMDL
