MODEL 1
REMARK minimizedAffinity 7.49674702
REMARK minimizedRMSD -1
REMARK  0 active torsions:
REMARK  status: ('A' for Active; 'I' for Inactive)
ROOT
ATOM      1  C4' PXY d   1       3.455  -3.282  -0.543  0.00  0.00     0.077 C 
ATOM      2  C1' PXY d   1       0.971   0.916  -3.644  0.00  0.00     0.077 C 
ATOM      3  C1  PXY d   1       1.618  -0.194  -2.839  0.00  0.00    -0.082 A 
ATOM      4  C2  PXY d   1       1.897   0.003  -1.561  0.00  0.00     0.003 A 
ATOM      5  C3  PXY d   1       2.511  -0.979  -0.826  0.00  0.00     0.003 A 
ATOM      6  C4  PXY d   1       2.794  -2.193  -1.392  0.00  0.00    -0.082 A 
ATOM      7  C5  PXY d   1       2.503  -2.405  -2.693  0.00  0.00     0.003 A 
ATOM      8  C6  PXY d   1       1.917  -1.381  -3.432  0.00  0.00     0.003 A 
ENDROOT
TORSDOF 0
ENDMDL
