MODEL 1
REMARK minimizedAffinity 12.8995523
REMARK minimizedRMSD -1
REMARK  0 active torsions:
REMARK  status: ('A' for Active; 'I' for Inactive)
ROOT
ATOM      1  C4' PXY d   1      -3.421  -2.911   4.417  0.00  0.00     0.077 C 
ATOM      2  C1' PXY d   1      -3.408   2.796   3.498  0.00  0.00     0.077 C 
ATOM      3  C1  PXY d   1      -3.403   1.301   3.750  0.00  0.00    -0.082 A 
ATOM      4  C2  PXY d   1      -3.659   0.470   2.753  0.00  0.00     0.003 A 
ATOM      5  C3  PXY d   1      -3.691  -0.884   2.969  0.00  0.00     0.003 A 
ATOM      6  C4  PXY d   1      -3.405  -1.394   4.207  0.00  0.00    -0.082 A 
ATOM      7  C5  PXY d   1      -3.133  -0.553   5.227  0.00  0.00     0.003 A 
ATOM      8  C6  PXY d   1      -3.146   0.820   4.996  0.00  0.00     0.003 A 
ENDROOT
TORSDOF 0
ENDMDL
