MODEL 1
REMARK minimizedAffinity 7.64028168
REMARK minimizedRMSD -1
REMARK  0 active torsions:
REMARK  status: ('A' for Active; 'I' for Inactive)
ROOT
ATOM      1  C4' PXY d   1       0.489   1.531   5.038  0.00  0.00     0.077 C 
ATOM      2  C1' PXY d   1      -3.877  -0.142   1.639  0.00  0.00     0.077 C 
ATOM      3  C1  PXY d   1      -2.727   0.285   2.530  0.00  0.00    -0.082 A 
ATOM      4  C2  PXY d   1      -2.868   1.336   3.321  0.00  0.00     0.003 A 
ATOM      5  C3  PXY d   1      -1.827   1.755   4.110  0.00  0.00     0.003 A 
ATOM      6  C4  PXY d   1      -0.648   1.058   4.129  0.00  0.00    -0.082 A 
ATOM      7  C5  PXY d   1      -0.501  -0.022   3.332  0.00  0.00     0.003 A 
ATOM      8  C6  PXY d   1      -1.555  -0.406   2.509  0.00  0.00     0.003 A 
ENDROOT
TORSDOF 0
ENDMDL
