MODEL 1
REMARK minimizedAffinity -3.53790426
REMARK minimizedRMSD -1
REMARK  0 active torsions:
REMARK  status: ('A' for Active; 'I' for Inactive)
ROOT
ATOM      1  C4' PXY d   1       5.998  -5.601  -5.641  0.00  0.00     0.077 C 
ATOM      2  C1' PXY d   1       1.759  -3.424  -2.369  0.00  0.00     0.077 C 
ATOM      3  C1  PXY d   1       2.864  -3.992  -3.237  0.00  0.00    -0.082 A 
ATOM      4  C2  PXY d   1       3.702  -4.882  -2.731  0.00  0.00     0.003 A 
ATOM      5  C3  PXY d   1       4.727  -5.382  -3.493  0.00  0.00     0.003 A 
ATOM      6  C4  PXY d   1       4.862  -5.007  -4.803  0.00  0.00    -0.082 A 
ATOM      7  C5  PXY d   1       4.004  -4.108  -5.330  0.00  0.00     0.003 A 
ATOM      8  C6  PXY d   1       2.996  -3.582  -4.528  0.00  0.00     0.003 A 
ENDROOT
TORSDOF 0
ENDMDL
