MODEL 1
REMARK minimizedAffinity 10.6400681
REMARK minimizedRMSD -1
REMARK  0 active torsions:
REMARK  status: ('A' for Active; 'I' for Inactive)
ROOT
ATOM      1  C4' PXY d   1       6.000  -5.269  -1.180  0.00  0.00     0.077 C 
ATOM      2  C1' PXY d   1       0.899  -4.624  -3.823  0.00  0.00     0.077 C 
ATOM      3  C1  PXY d   1       2.237  -4.806  -3.133  0.00  0.00    -0.082 A 
ATOM      4  C2  PXY d   1       2.601  -3.963  -2.180  0.00  0.00     0.003 A 
ATOM      5  C3  PXY d   1       3.821  -4.094  -1.568  0.00  0.00     0.003 A 
ATOM      6  C4  PXY d   1       4.654  -5.130  -1.897  0.00  0.00    -0.082 A 
ATOM      7  C5  PXY d   1       4.285  -6.000  -2.861  0.00  0.00     0.003 A 
ATOM      8  C6  PXY d   1       3.060  -5.826  -3.499  0.00  0.00     0.003 A 
ENDROOT
TORSDOF 0
ENDMDL
