MODEL 1
REMARK minimizedAffinity 8.30529404
REMARK minimizedRMSD -1
REMARK  0 active torsions:
REMARK  status: ('A' for Active; 'I' for Inactive)
ROOT
ATOM      1  C4' PXY d   1       0.199  -5.895  -2.792  0.00  0.00     0.077 C 
ATOM      2  C1' PXY d   1      -5.249  -5.999  -0.863  0.00  0.00     0.077 C 
ATOM      3  C1  PXY d   1      -3.817  -5.966  -1.358  0.00  0.00    -0.082 A 
ATOM      4  C2  PXY d   1      -3.573  -5.996  -2.658  0.00  0.00     0.003 A 
ATOM      5  C3  PXY d   1      -2.282  -5.999  -3.122  0.00  0.00     0.003 A 
ATOM      6  C4  PXY d   1      -1.232  -5.917  -2.247  0.00  0.00    -0.082 A 
ATOM      7  C5  PXY d   1      -1.473  -5.875  -0.920  0.00  0.00     0.003 A 
ATOM      8  C6  PXY d   1      -2.788  -5.914  -0.468  0.00  0.00     0.003 A 
ENDROOT
TORSDOF 0
ENDMDL
