MODEL 1
REMARK minimizedAffinity 1.06992066
REMARK minimizedRMSD -1
REMARK  0 active torsions:
REMARK  status: ('A' for Active; 'I' for Inactive)
ROOT
ATOM      1  C4' PXY d   1       4.530  -4.951   0.345  0.00  0.00     0.077 C 
ATOM      2  C1' PXY d   1       1.901  -3.571  -4.615  0.00  0.00     0.077 C 
ATOM      3  C1  PXY d   1       2.597  -3.942  -3.321  0.00  0.00    -0.082 A 
ATOM      4  C2  PXY d   1       2.019  -3.664  -2.164  0.00  0.00     0.003 A 
ATOM      5  C3  PXY d   1       2.649  -3.964  -0.983  0.00  0.00     0.003 A 
ATOM      6  C4  PXY d   1       3.859  -4.603  -0.987  0.00  0.00    -0.082 A 
ATOM      7  C5  PXY d   1       4.451  -4.900  -2.164  0.00  0.00     0.003 A 
ATOM      8  C6  PXY d   1       3.814  -4.550  -3.351  0.00  0.00     0.003 A 
ENDROOT
TORSDOF 0
ENDMDL
