MODEL 1
REMARK minimizedAffinity 21.2866955
REMARK minimizedRMSD -1
REMARK  0 active torsions:
REMARK  status: ('A' for Active; 'I' for Inactive)
ROOT
ATOM      1  C4' PXY d   1       2.254   1.416   1.903  0.00  0.00     0.077 C 
ATOM      2  C1' PXY d   1      -1.624   2.677   6.000  0.00  0.00     0.077 C 
ATOM      3  C1  PXY d   1      -0.598   2.347   4.934  0.00  0.00    -0.082 A 
ATOM      4  C2  PXY d   1      -0.869   2.600   3.664  0.00  0.00     0.003 A 
ATOM      5  C3  PXY d   1       0.035   2.278   2.685  0.00  0.00     0.003 A 
ATOM      6  C4  PXY d   1       1.251   1.741   3.013  0.00  0.00    -0.082 A 
ATOM      7  C5  PXY d   1       1.540   1.491   4.308  0.00  0.00     0.003 A 
ATOM      8  C6  PXY d   1       0.592   1.786   5.283  0.00  0.00     0.003 A 
ENDROOT
TORSDOF 0
ENDMDL
