MODEL 1
REMARK minimizedAffinity 7.62244797
REMARK minimizedRMSD -1
REMARK  0 active torsions:
REMARK  status: ('A' for Active; 'I' for Inactive)
ROOT
ATOM      1  C4' PXY d   1       1.413   1.567   4.307  0.00  0.00     0.077 C 
ATOM      2  C1' PXY d   1       1.211   4.888  -0.419  0.00  0.00     0.077 C 
ATOM      3  C1  PXY d   1       1.257   4.026   0.827  0.00  0.00    -0.082 A 
ATOM      4  C2  PXY d   1       2.249   3.166   0.991  0.00  0.00     0.003 A 
ATOM      5  C3  PXY d   1       2.289   2.356   2.096  0.00  0.00     0.003 A 
ATOM      6  C4  PXY d   1       1.331   2.464   3.069  0.00  0.00    -0.082 A 
ATOM      7  C5  PXY d   1       0.321   3.346   2.914  0.00  0.00     0.003 A 
ATOM      8  C6  PXY d   1       0.277   4.131   1.765  0.00  0.00     0.003 A 
ENDROOT
TORSDOF 0
ENDMDL
