MODEL 1
REMARK minimizedAffinity 6.13994932
REMARK minimizedRMSD -1
REMARK  0 active torsions:
REMARK  status: ('A' for Active; 'I' for Inactive)
ROOT
ATOM      1  C4' PXY d   1       6.000  -4.889  -4.882  0.00  0.00     0.077 C 
ATOM      2  C1' PXY d   1       1.066  -3.540  -2.189  0.00  0.00     0.077 C 
ATOM      3  C1  PXY d   1       2.366  -3.895  -2.883  0.00  0.00    -0.082 A 
ATOM      4  C2  PXY d   1       2.583  -3.476  -4.119  0.00  0.00     0.003 A 
ATOM      5  C3  PXY d   1       3.739  -3.815  -4.774  0.00  0.00     0.003 A 
ATOM      6  C4  PXY d   1       4.706  -4.546  -4.138  0.00  0.00    -0.082 A 
ATOM      7  C5  PXY d   1       4.497  -4.969  -2.873  0.00  0.00     0.003 A 
ATOM      8  C6  PXY d   1       3.299  -4.649  -2.241  0.00  0.00     0.003 A 
ENDROOT
TORSDOF 0
ENDMDL
