MODEL 1
REMARK minimizedAffinity -2.29678559
REMARK minimizedRMSD -1
REMARK  0 active torsions:
REMARK  status: ('A' for Active; 'I' for Inactive)
ROOT
ATOM      1  C   UNL d   1       4.530  -4.196  -3.779  0.00  0.00     0.172 C 
ATOM      2  N   UNL d   1       4.104  -4.085  -2.403  0.00  0.00    -0.070 N 
ATOM      3  C1  UNL d   1       2.975  -3.446  -1.966  0.00  0.00    -0.004 A 
ATOM      4  C2  UNL d   1       2.927  -3.564  -0.594  0.00  0.00    -0.047 A 
ATOM      5  C3  UNL d   1       4.068  -4.299  -0.192  0.00  0.00    -0.047 A 
ATOM      6  C4  UNL d   1       4.780  -4.608  -1.332  0.00  0.00    -0.004 A 
ENDROOT
TORSDOF 0
ENDMDL
