MODEL 1
REMARK minimizedAffinity 3.6258173
REMARK minimizedRMSD -1
REMARK  0 active torsions:
REMARK  status: ('A' for Active; 'I' for Inactive)
ROOT
ATOM      1  C   UNL d   1      -3.718   1.639   4.920  0.00  0.00     0.172 C 
ATOM      2  N   UNL d   1      -3.462   0.725   3.832  0.00  0.00    -0.070 N 
ATOM      3  C1  UNL d   1      -4.116  -0.458   3.612  0.00  0.00    -0.004 A 
ATOM      4  C2  UNL d   1      -3.583  -1.031   2.478  0.00  0.00    -0.047 A 
ATOM      5  C3  UNL d   1      -2.573  -0.163   1.999  0.00  0.00    -0.047 A 
ATOM      6  C4  UNL d   1      -2.520   0.917   2.856  0.00  0.00    -0.004 A 
ENDROOT
TORSDOF 0
ENDMDL
