MODEL 1
REMARK minimizedAffinity 0.371261328
REMARK minimizedRMSD -1
REMARK  0 active torsions:
REMARK  status: ('A' for Active; 'I' for Inactive)
ROOT
ATOM      1  C   UNL d   1       3.386  -4.553  -0.247  0.00  0.00     0.172 C 
ATOM      2  N   UNL d   1       3.359  -4.370  -1.679  0.00  0.00    -0.070 N 
ATOM      3  C1  UNL d   1       2.288  -3.925  -2.407  0.00  0.00    -0.004 A 
ATOM      4  C2  UNL d   1       2.664  -3.888  -3.732  0.00  0.00    -0.047 A 
ATOM      5  C3  UNL d   1       4.008  -4.326  -3.804  0.00  0.00    -0.047 A 
ATOM      6  C4  UNL d   1       4.413  -4.618  -2.518  0.00  0.00    -0.004 A 
ENDROOT
TORSDOF 0
ENDMDL
