MODEL 1
REMARK minimizedAffinity 0.02861543
REMARK minimizedRMSD -1
REMARK  0 active torsions:
REMARK  status: ('A' for Active; 'I' for Inactive)
ROOT
ATOM      1  C   UNL d   1       3.711  -4.869  -4.096  0.00  0.00     0.172 C 
ATOM      2  N   UNL d   1       3.732  -4.574  -2.682  0.00  0.00    -0.070 N 
ATOM      3  C1  UNL d   1       4.578  -5.133  -1.762  0.00  0.00    -0.004 A 
ATOM      4  C2  UNL d   1       4.281  -4.591  -0.531  0.00  0.00    -0.047 A 
ATOM      5  C3  UNL d   1       3.218  -3.675  -0.717  0.00  0.00    -0.047 A 
ATOM      6  C4  UNL d   1       2.898  -3.684  -2.058  0.00  0.00    -0.004 A 
ENDROOT
TORSDOF 0
ENDMDL
