MODEL 1
REMARK minimizedAffinity -3.48359251
REMARK minimizedRMSD -1
REMARK  0 active torsions:
REMARK  status: ('A' for Active; 'I' for Inactive)
ROOT
ATOM      1  C   UNL d   1       3.552  -4.130  -0.200  0.00  0.00     0.172 C 
ATOM      2  N   UNL d   1       3.633  -4.008  -1.636  0.00  0.00    -0.070 N 
ATOM      3  C1  UNL d   1       2.756  -3.318  -2.430  0.00  0.00    -0.004 A 
ATOM      4  C2  UNL d   1       3.180  -3.442  -3.735  0.00  0.00    -0.047 A 
ATOM      5  C3  UNL d   1       4.352  -4.235  -3.726  0.00  0.00    -0.047 A 
ATOM      6  C4  UNL d   1       4.610  -4.571  -2.414  0.00  0.00    -0.004 A 
ENDROOT
TORSDOF 0
ENDMDL
