MODEL 1
REMARK minimizedAffinity -3.45005345
REMARK minimizedRMSD -1
REMARK  0 active torsions:
REMARK  status: ('A' for Active; 'I' for Inactive)
ROOT
ATOM      1  C   UNL d   1       3.772  -5.140  -3.493  0.00  0.00     0.172 C 
ATOM      2  N   UNL d   1       3.501  -4.152  -2.475  0.00  0.00    -0.070 N 
ATOM      3  C1  UNL d   1       2.881  -2.948  -2.676  0.00  0.00    -0.004 A 
ATOM      4  C2  UNL d   1       2.812  -2.300  -1.462  0.00  0.00    -0.047 A 
ATOM      5  C3  UNL d   1       3.413  -3.144  -0.497  0.00  0.00    -0.047 A 
ATOM      6  C4  UNL d   1       3.831  -4.283  -1.152  0.00  0.00    -0.004 A 
ENDROOT
TORSDOF 0
ENDMDL
