MODEL 1
REMARK minimizedAffinity -2.02812076
REMARK minimizedRMSD -1
REMARK  0 active torsions:
REMARK  status: ('A' for Active; 'I' for Inactive)
ROOT
ATOM      1  C   UNL d   1       1.749  -2.142  -2.027  0.00  0.00     0.172 C 
ATOM      2  N   UNL d   1       2.713  -3.124  -2.466  0.00  0.00    -0.070 N 
ATOM      3  C1  UNL d   1       3.080  -3.358  -3.764  0.00  0.00    -0.004 A 
ATOM      4  C2  UNL d   1       4.019  -4.367  -3.762  0.00  0.00    -0.047 A 
ATOM      5  C3  UNL d   1       4.222  -4.753  -2.416  0.00  0.00    -0.047 A 
ATOM      6  C4  UNL d   1       3.401  -3.968  -1.635  0.00  0.00    -0.004 A 
ENDROOT
TORSDOF 0
ENDMDL
