MODEL 1
REMARK minimizedAffinity 5.61095905
REMARK minimizedRMSD -1
REMARK  0 active torsions:
REMARK  status: ('A' for Active; 'I' for Inactive)
ROOT
ATOM      1  C   UNL d   1       4.295  -4.897  -0.555  0.00  0.00     0.172 C 
ATOM      2  N   UNL d   1       3.491  -4.709  -1.740  0.00  0.00    -0.070 N 
ATOM      3  C1  UNL d   1       3.879  -4.996  -3.022  0.00  0.00    -0.004 A 
ATOM      4  C2  UNL d   1       2.833  -4.678  -3.861  0.00  0.00    -0.047 A 
ATOM      5  C3  UNL d   1       1.781  -4.181  -3.056  0.00  0.00    -0.047 A 
ATOM      6  C4  UNL d   1       2.215  -4.212  -1.747  0.00  0.00    -0.004 A 
ENDROOT
TORSDOF 0
ENDMDL
