MODEL 1
REMARK minimizedAffinity -0.228470072
REMARK minimizedRMSD -1
REMARK  0 active torsions:
REMARK  status: ('A' for Active; 'I' for Inactive)
ROOT
ATOM      1  C   UNL d   1       2.428  -0.781  -1.871  0.00  0.00     0.172 C 
ATOM      2  N   UNL d   1       2.811  -2.151  -1.623  0.00  0.00    -0.070 N 
ATOM      3  C1  UNL d   1       3.594  -2.586  -0.587  0.00  0.00    -0.004 A 
ATOM      4  C2  UNL d   1       3.725  -3.953  -0.703  0.00  0.00    -0.047 A 
ATOM      5  C3  UNL d   1       2.997  -4.353  -1.848  0.00  0.00    -0.047 A 
ATOM      6  C4  UNL d   1       2.441  -3.218  -2.399  0.00  0.00    -0.004 A 
ENDROOT
TORSDOF 0
ENDMDL
