MODEL 1
REMARK minimizedAffinity -0.744104803
REMARK minimizedRMSD -1
REMARK  0 active torsions:
REMARK  status: ('A' for Active; 'I' for Inactive)
ROOT
ATOM      1  C   UNL d   1      -1.874   1.833   4.876  0.00  0.00     0.172 C 
ATOM      2  N   UNL d   1      -1.271   0.529   5.027  0.00  0.00    -0.070 N 
ATOM      3  C1  UNL d   1      -1.512  -0.559   4.232  0.00  0.00    -0.004 A 
ATOM      4  C2  UNL d   1      -0.747  -1.604   4.703  0.00  0.00    -0.047 A 
ATOM      5  C3  UNL d   1      -0.022  -1.127   5.821  0.00  0.00    -0.047 A 
ATOM      6  C4  UNL d   1      -0.365   0.196   6.000  0.00  0.00    -0.004 A 
ENDROOT
TORSDOF 0
ENDMDL
