MODEL 1
REMARK minimizedAffinity 0.37769556
REMARK minimizedRMSD -1
REMARK  0 active torsions:
REMARK  status: ('A' for Active; 'I' for Inactive)
ROOT
ATOM      1  C   UNL d   1      -1.128  -2.921   3.041  0.00  0.00     0.172 C 
ATOM      2  N   UNL d   1      -0.761  -2.985   1.646  0.00  0.00    -0.070 N 
ATOM      3  C1  UNL d   1       0.425  -2.555   1.113  0.00  0.00    -0.004 A 
ATOM      4  C2  UNL d   1       0.387  -2.790  -0.244  0.00  0.00    -0.047 A 
ATOM      5  C3  UNL d   1      -0.866  -3.379  -0.537  0.00  0.00    -0.047 A 
ATOM      6  C4  UNL d   1      -1.556  -3.488   0.651  0.00  0.00    -0.004 A 
ENDROOT
TORSDOF 0
ENDMDL
