MODEL 1
REMARK minimizedAffinity 2.69587779
REMARK minimizedRMSD -1
REMARK  0 active torsions:
REMARK  status: ('A' for Active; 'I' for Inactive)
ROOT
ATOM      1  C   UNL d   1      -2.922  -4.210  -5.544  0.00  0.00     0.172 C 
ATOM      2  N   UNL d   1      -2.633  -4.120  -4.132  0.00  0.00    -0.070 N 
ATOM      3  C1  UNL d   1      -3.050  -3.121  -3.294  0.00  0.00    -0.004 A 
ATOM      4  C2  UNL d   1      -2.569  -3.399  -2.033  0.00  0.00    -0.047 A 
ATOM      5  C3  UNL d   1      -1.837  -4.607  -2.116  0.00  0.00    -0.047 A 
ATOM      6  C4  UNL d   1      -1.892  -5.031  -3.427  0.00  0.00    -0.004 A 
ENDROOT
TORSDOF 0
ENDMDL
