MODEL 1
REMARK minimizedAffinity -1.38560104
REMARK minimizedRMSD -1
REMARK  0 active torsions:
REMARK  status: ('A' for Active; 'I' for Inactive)
ROOT
ATOM      1  C   UNL d   1      -2.506   2.213   2.547  0.00  0.00     0.172 C 
ATOM      2  N   UNL d   1      -1.787   1.501   3.578  0.00  0.00    -0.070 N 
ATOM      3  C1  UNL d   1      -2.212   1.320   4.867  0.00  0.00    -0.004 A 
ATOM      4  C2  UNL d   1      -1.248   0.593   5.531  0.00  0.00    -0.047 A 
ATOM      5  C3  UNL d   1      -0.207   0.329   4.610  0.00  0.00    -0.047 A 
ATOM      6  C4  UNL d   1      -0.567   0.902   3.408  0.00  0.00    -0.004 A 
ENDROOT
TORSDOF 0
ENDMDL
