MODEL 1
REMARK minimizedAffinity 2.31446958
REMARK minimizedRMSD -1
REMARK  0 active torsions:
REMARK  status: ('A' for Active; 'I' for Inactive)
ROOT
ATOM      1  C   UNL d   1       1.606   2.747  -2.252  0.00  0.00     0.172 C 
ATOM      2  N   UNL d   1       1.725   3.924  -1.424  0.00  0.00    -0.070 N 
ATOM      3  C1  UNL d   1       2.261   5.123  -1.813  0.00  0.00    -0.004 A 
ATOM      4  C2  UNL d   1       2.191   5.984  -0.740  0.00  0.00    -0.047 A 
ATOM      5  C3  UNL d   1       1.593   5.279   0.331  0.00  0.00    -0.047 A 
ATOM      6  C4  UNL d   1       1.315   4.006  -0.120  0.00  0.00    -0.004 A 
ENDROOT
TORSDOF 0
ENDMDL
