MODEL 1
REMARK minimizedAffinity 0.397550642
REMARK minimizedRMSD -1
REMARK  0 active torsions:
REMARK  status: ('A' for Active; 'I' for Inactive)
ROOT
ATOM      1  C   UNL d   1      -4.839  -0.973   2.662  0.00  0.00     0.172 C 
ATOM      2  N   UNL d   1      -3.950   0.162   2.739  0.00  0.00    -0.070 N 
ATOM      3  C1  UNL d   1      -4.100   1.341   2.058  0.00  0.00    -0.004 A 
ATOM      4  C2  UNL d   1      -3.050   2.164   2.402  0.00  0.00    -0.047 A 
ATOM      5  C3  UNL d   1      -2.239   1.455   3.320  0.00  0.00    -0.047 A 
ATOM      6  C4  UNL d   1      -2.820   0.218   3.511  0.00  0.00    -0.004 A 
ENDROOT
TORSDOF 0
ENDMDL
