MODEL 1
REMARK minimizedAffinity -1.40228534
REMARK minimizedRMSD -1
REMARK  0 active torsions:
REMARK  status: ('A' for Active; 'I' for Inactive)
ROOT
ATOM      1  C   UNL d   1       2.766   6.000  -1.482  0.00  0.00     0.172 C 
ATOM      2  N   UNL d   1       2.182   4.702  -1.235  0.00  0.00    -0.070 N 
ATOM      3  C1  UNL d   1       1.496   4.336  -0.108  0.00  0.00    -0.004 A 
ATOM      4  C2  UNL d   1       1.103   3.024  -0.260  0.00  0.00    -0.047 A 
ATOM      5  C3  UNL d   1       1.570   2.586  -1.522  0.00  0.00    -0.047 A 
ATOM      6  C4  UNL d   1       2.235   3.645  -2.104  0.00  0.00    -0.004 A 
ENDROOT
TORSDOF 0
ENDMDL
