MODEL 1
REMARK minimizedAffinity 0.311195374
REMARK minimizedRMSD -1
REMARK  0 active torsions:
REMARK  status: ('A' for Active; 'I' for Inactive)
ROOT
ATOM      1  C   UNL d   1       1.867   5.379  -0.772  0.00  0.00     0.172 C 
ATOM      2  N   UNL d   1       1.624   4.160  -1.507  0.00  0.00    -0.070 N 
ATOM      3  C1  UNL d   1       2.274   2.970  -1.316  0.00  0.00    -0.004 A 
ATOM      4  C2  UNL d   1       1.755   2.058  -2.210  0.00  0.00    -0.047 A 
ATOM      5  C3  UNL d   1       0.759   2.724  -2.964  0.00  0.00    -0.047 A 
ATOM      6  C4  UNL d   1       0.699   4.024  -2.508  0.00  0.00    -0.004 A 
ENDROOT
TORSDOF 0
ENDMDL
