MODEL 1
REMARK minimizedAffinity 5.19200182
REMARK minimizedRMSD -1
REMARK  0 active torsions:
REMARK  status: ('A' for Active; 'I' for Inactive)
ROOT
ATOM      1  C   UNL d   1      -0.778  -4.493  -5.539  0.00  0.00     0.172 C 
ATOM      2  N   UNL d   1      -1.288  -4.034  -4.268  0.00  0.00    -0.070 N 
ATOM      3  C1  UNL d   1      -1.113  -4.661  -3.064  0.00  0.00    -0.004 A 
ATOM      4  C2  UNL d   1      -1.749  -3.910  -2.100  0.00  0.00    -0.047 A 
ATOM      5  C3  UNL d   1      -2.327  -2.792  -2.748  0.00  0.00    -0.047 A 
ATOM      6  C4  UNL d   1      -2.027  -2.894  -4.089  0.00  0.00    -0.004 A 
ENDROOT
TORSDOF 0
ENDMDL
