MODEL 1
REMARK minimizedAffinity -4.71690512
REMARK minimizedRMSD -1
REMARK  1 active torsions:
REMARK  status: ('A' for Active; 'I' for Inactive)
REMARK    1  A    between atoms: N_2  and  C1_3 
ROOT
ATOM      1  C1  UNL d   1      -1.418  -0.547  -0.156  0.00  0.00     0.143 A 
ATOM      2  C2  UNL d   1      -2.782  -0.492  -0.465  0.00  0.00    -0.057 A 
ATOM      3  C3  UNL d   1      -3.687  -1.411   0.079  0.00  0.00     0.033 A 
ATOM      4  C4  UNL d   1      -3.239  -2.423   0.921  0.00  0.00    -0.042 A 
ATOM      5  C5  UNL d   1      -1.884  -2.513   1.221  0.00  0.00     0.033 A 
ATOM      6  C6  UNL d   1      -0.986  -1.588   0.681  0.00  0.00    -0.057 A 
ENDROOT
BRANCH   1   7
ATOM      7  N   UNL d   1      -0.454   0.277  -0.742  0.00  0.00    -0.732 N 
ATOM      8  C   UNL d   1       0.896   0.316  -0.222  0.00  0.00     0.284 C 
ATOM      9  H3  UNL d   1      -0.508   0.277  -1.758  0.00  0.00     0.395 HD
ENDBRANCH   1   7
TORSDOF 1
ENDMDL
