MODEL 1
REMARK minimizedAffinity -3.84387684
REMARK minimizedRMSD -1
REMARK  1 active torsions:
REMARK  status: ('A' for Active; 'I' for Inactive)
REMARK    1  A    between atoms: N_2  and  C1_3 
ROOT
ATOM      1  C1  UNL d   1      -0.058  -0.151  -0.043  0.00  0.00     0.143 A 
ATOM      2  C2  UNL d   1      -0.396   0.252  -1.339  0.00  0.00    -0.057 A 
ATOM      3  C3  UNL d   1      -1.712   0.159  -1.808  0.00  0.00     0.033 A 
ATOM      4  C4  UNL d   1      -2.711  -0.368  -0.996  0.00  0.00    -0.042 A 
ATOM      5  C5  UNL d   1      -2.393  -0.798   0.287  0.00  0.00     0.033 A 
ATOM      6  C6  UNL d   1      -1.078  -0.696   0.752  0.00  0.00    -0.057 A 
ENDROOT
BRANCH   1   7
ATOM      7  N   UNL d   1       1.250  -0.176   0.448  0.00  0.00    -0.732 N 
ATOM      8  C   UNL d   1       2.096   0.994   0.349  0.00  0.00     0.284 C 
ATOM      9  H3  UNL d   1       1.323  -0.668   1.335  0.00  0.00     0.395 HD
ENDBRANCH   1   7
TORSDOF 1
ENDMDL
