MODEL 1
REMARK minimizedAffinity -5.30289221
REMARK minimizedRMSD -1
REMARK  1 active torsions:
REMARK  status: ('A' for Active; 'I' for Inactive)
REMARK    1  A    between atoms: N_2  and  C1_3 
ROOT
ATOM      1  C1  UNL d   1      -0.740  -0.718   0.499  0.00  0.00     0.143 A 
ATOM      2  C2  UNL d   1      -1.686  -0.158  -0.366  0.00  0.00    -0.057 A 
ATOM      3  C3  UNL d   1      -2.961  -0.718  -0.507  0.00  0.00     0.033 A 
ATOM      4  C4  UNL d   1      -3.305  -1.868   0.195  0.00  0.00    -0.042 A 
ATOM      5  C5  UNL d   1      -2.372  -2.456   1.042  0.00  0.00     0.033 A 
ATOM      6  C6  UNL d   1      -1.102  -1.889   1.184  0.00  0.00    -0.057 A 
ENDROOT
BRANCH   1   7
ATOM      7  N   UNL d   1       0.578  -0.266   0.609  0.00  0.00    -0.732 N 
ATOM      8  C   UNL d   1       1.342   0.070  -0.573  0.00  0.00     0.284 C 
ATOM      9  H3  UNL d   1       0.703   0.382   1.383  0.00  0.00     0.395 HD
ENDBRANCH   1   7
TORSDOF 1
ENDMDL
