MODEL 1
REMARK minimizedAffinity -3.01785207
REMARK minimizedRMSD -1
REMARK  1 active torsions:
REMARK  status: ('A' for Active; 'I' for Inactive)
REMARK    1  A    between atoms: N_2  and  C1_3 
ROOT
ATOM      1  C1  UNL d   1      -0.111  -0.000   0.319  0.00  0.00     0.143 A 
ATOM      2  C2  UNL d   1      -0.842   0.112  -0.868  0.00  0.00    -0.057 A 
ATOM      3  C3  UNL d   1      -2.181  -0.290  -0.937  0.00  0.00     0.033 A 
ATOM      4  C4  UNL d   1      -2.807  -0.840   0.177  0.00  0.00    -0.042 A 
ATOM      5  C5  UNL d   1      -2.092  -0.984   1.361  0.00  0.00     0.033 A 
ATOM      6  C6  UNL d   1      -0.756  -0.575   1.425  0.00  0.00    -0.057 A 
ENDROOT
BRANCH   1   7
ATOM      7  N   UNL d   1       1.252   0.290   0.424  0.00  0.00    -0.732 N 
ATOM      8  C   UNL d   1       1.703   1.467   1.136  0.00  0.00     0.284 C 
ATOM      9  H3  UNL d   1       1.814  -0.541   0.597  0.00  0.00     0.395 HD
ENDBRANCH   1   7
TORSDOF 1
ENDMDL
