MODEL 1
REMARK minimizedAffinity -5.30556774
REMARK minimizedRMSD -1
REMARK  1 active torsions:
REMARK  status: ('A' for Active; 'I' for Inactive)
REMARK    1  A    between atoms: N_2  and  C1_3 
ROOT
ATOM      1  C1  UNL d   1      -0.502  -0.613   0.113  0.00  0.00     0.143 A 
ATOM      2  C2  UNL d   1      -1.188   0.023  -0.928  0.00  0.00    -0.057 A 
ATOM      3  C3  UNL d   1      -2.543  -0.235  -1.169  0.00  0.00     0.033 A 
ATOM      4  C4  UNL d   1      -3.231  -1.159  -0.389  0.00  0.00    -0.042 A 
ATOM      5  C5  UNL d   1      -2.563  -1.822   0.635  0.00  0.00     0.033 A 
ATOM      6  C6  UNL d   1      -1.211  -1.555   0.875  0.00  0.00    -0.057 A 
ENDROOT
BRANCH   1   7
ATOM      7  N   UNL d   1       0.869  -0.472   0.340  0.00  0.00    -0.732 N 
ATOM      8  C   UNL d   1       1.475   0.840   0.405  0.00  0.00     0.284 C 
ATOM      9  H3  UNL d   1       1.215  -1.125   1.040  0.00  0.00     0.395 HD
ENDBRANCH   1   7
TORSDOF 1
ENDMDL
