MODEL 1
REMARK minimizedAffinity -5.18402004
REMARK minimizedRMSD -1
REMARK  1 active torsions:
REMARK  status: ('A' for Active; 'I' for Inactive)
REMARK    1  A    between atoms: N_2  and  C1_3 
ROOT
ATOM      1  C1  UNL d   1      -0.212  -0.282  -0.090  0.00  0.00     0.143 A 
ATOM      2  C2  UNL d   1      -0.983   0.121  -1.186  0.00  0.00    -0.057 A 
ATOM      3  C3  UNL d   1      -2.322  -0.267  -1.314  0.00  0.00     0.033 A 
ATOM      4  C4  UNL d   1      -2.907  -1.092  -0.360  0.00  0.00    -0.042 A 
ATOM      5  C5  UNL d   1      -2.153  -1.526   0.725  0.00  0.00     0.033 A 
ATOM      6  C6  UNL d   1      -0.818  -1.129   0.851  0.00  0.00    -0.057 A 
ENDROOT
BRANCH   1   7
ATOM      7  N   UNL d   1       1.152  -0.010   0.044  0.00  0.00    -0.732 N 
ATOM      8  C   UNL d   1       1.604   1.292   0.484  0.00  0.00     0.284 C 
ATOM      9  H3  UNL d   1       1.664  -0.788   0.452  0.00  0.00     0.395 HD
ENDBRANCH   1   7
TORSDOF 1
ENDMDL
