MODEL 1
REMARK minimizedAffinity -4.08402491
REMARK minimizedRMSD -1
REMARK  1 active torsions:
REMARK  status: ('A' for Active; 'I' for Inactive)
REMARK    1  A    between atoms: N_2  and  C1_3 
ROOT
ATOM      1  C1  UNL d   1      -0.621  -0.851   0.624  0.00  0.00     0.143 A 
ATOM      2  C2  UNL d   1      -1.453  -0.345  -0.381  0.00  0.00    -0.057 A 
ATOM      3  C3  UNL d   1      -2.724  -0.886  -0.611  0.00  0.00     0.033 A 
ATOM      4  C4  UNL d   1      -3.174  -1.965   0.143  0.00  0.00    -0.042 A 
ATOM      5  C5  UNL d   1      -2.354  -2.499   1.130  0.00  0.00     0.033 A 
ATOM      6  C6  UNL d   1      -1.089  -1.950   1.360  0.00  0.00    -0.057 A 
ENDROOT
BRANCH   1   7
ATOM      7  N   UNL d   1       0.692  -0.420   0.836  0.00  0.00    -0.732 N 
ATOM      8  C   UNL d   1       1.327   0.492  -0.091  0.00  0.00     0.284 C 
ATOM      9  H3  UNL d   1       0.880  -0.217   1.815  0.00  0.00     0.395 HD
ENDBRANCH   1   7
TORSDOF 1
ENDMDL
