MODEL 1
REMARK minimizedAffinity -4.45131588
REMARK minimizedRMSD -1
REMARK  1 active torsions:
REMARK  status: ('A' for Active; 'I' for Inactive)
REMARK    1  A    between atoms: N_2  and  C1_3 
ROOT
ATOM      1  C1  UNL d   1      -0.895  -0.302   0.273  0.00  0.00     0.143 A 
ATOM      2  C2  UNL d   1      -1.802  -0.356  -0.791  0.00  0.00    -0.057 A 
ATOM      3  C3  UNL d   1      -2.890  -1.237  -0.773  0.00  0.00     0.033 A 
ATOM      4  C4  UNL d   1      -3.075  -2.102   0.299  0.00  0.00    -0.042 A 
ATOM      5  C5  UNL d   1      -2.173  -2.084   1.357  0.00  0.00     0.033 A 
ATOM      6  C6  UNL d   1      -1.091  -1.198   1.337  0.00  0.00    -0.057 A 
ENDROOT
BRANCH   1   7
ATOM      7  N   UNL d   1       0.261   0.481   0.271  0.00  0.00    -0.732 N 
ATOM      8  C   UNL d   1       1.510  -0.050  -0.233  0.00  0.00     0.284 C 
ATOM      9  H3  UNL d   1       0.078   1.444  -0.003  0.00  0.00     0.395 HD
ENDBRANCH   1   7
TORSDOF 1
ENDMDL
