MODEL 1
REMARK minimizedAffinity -3.50742507
REMARK minimizedRMSD -1
REMARK  1 active torsions:
REMARK  status: ('A' for Active; 'I' for Inactive)
REMARK    1  A    between atoms: N_2  and  C1_3 
ROOT
ATOM      1  C1  UNL d   1      -0.966  -0.455   0.301  0.00  0.00     0.143 A 
ATOM      2  C2  UNL d   1      -1.912  -0.579  -0.722  0.00  0.00    -0.057 A 
ATOM      3  C3  UNL d   1      -2.816  -1.648  -0.749  0.00  0.00     0.033 A 
ATOM      4  C4  UNL d   1      -2.770  -2.630   0.234  0.00  0.00    -0.042 A 
ATOM      5  C5  UNL d   1      -1.822  -2.541   1.247  0.00  0.00     0.033 A 
ATOM      6  C6  UNL d   1      -0.926  -1.467   1.272  0.00  0.00    -0.057 A 
ENDROOT
BRANCH   1   7
ATOM      7  N   UNL d   1       0.024   0.531   0.329  0.00  0.00    -0.732 N 
ATOM      8  C   UNL d   1       1.425   0.168   0.345  0.00  0.00     0.284 C 
ATOM      9  H3  UNL d   1      -0.195   1.319  -0.276  0.00  0.00     0.395 HD
ENDBRANCH   1   7
TORSDOF 1
ENDMDL
