MODEL 1
REMARK minimizedAffinity -3.95009851
REMARK minimizedRMSD -1
REMARK  1 active torsions:
REMARK  status: ('A' for Active; 'I' for Inactive)
REMARK    1  A    between atoms: N_2  and  C1_3 
ROOT
ATOM      1  C1  UNL d   1      -0.844  -0.745   0.858  0.00  0.00     0.143 A 
ATOM      2  C2  UNL d   1      -1.696  -0.107  -0.049  0.00  0.00    -0.057 A 
ATOM      3  C3  UNL d   1      -2.946  -0.647  -0.374  0.00  0.00     0.033 A 
ATOM      4  C4  UNL d   1      -3.355  -1.854   0.182  0.00  0.00    -0.042 A 
ATOM      5  C5  UNL d   1      -2.513  -2.519   1.067  0.00  0.00     0.033 A 
ATOM      6  C6  UNL d   1      -1.269  -1.971   1.393  0.00  0.00    -0.057 A 
ENDROOT
BRANCH   1   7
ATOM      7  N   UNL d   1       0.452  -0.310   1.148  0.00  0.00    -0.732 N 
ATOM      8  C   UNL d   1       1.275   0.290   0.119  0.00  0.00     0.284 C 
ATOM      9  H3  UNL d   1       0.513   0.154   2.051  0.00  0.00     0.395 HD
ENDBRANCH   1   7
TORSDOF 1
ENDMDL
