MODEL 1
REMARK minimizedAffinity -4.65468264
REMARK minimizedRMSD -1
REMARK  1 active torsions:
REMARK  status: ('A' for Active; 'I' for Inactive)
REMARK    1  A    between atoms: N_2  and  C1_3 
ROOT
ATOM      1  C1  UNL d   1      -0.425  -0.664  -0.064  0.00  0.00     0.143 A 
ATOM      2  C2  UNL d   1      -1.480  -0.205  -0.860  0.00  0.00    -0.057 A 
ATOM      3  C3  UNL d   1      -2.782  -0.692  -0.692  0.00  0.00     0.033 A 
ATOM      4  C4  UNL d   1      -3.047  -1.671   0.259  0.00  0.00    -0.042 A 
ATOM      5  C5  UNL d   1      -2.009  -2.161   1.045  0.00  0.00     0.033 A 
ATOM      6  C6  UNL d   1      -0.713  -1.665   0.877  0.00  0.00    -0.057 A 
ENDROOT
BRANCH   1   7
ATOM      7  N   UNL d   1       0.909  -0.291  -0.249  0.00  0.00    -0.732 N 
ATOM      8  C   UNL d   1       1.458   0.851   0.449  0.00  0.00     0.284 C 
ATOM      9  H3  UNL d   1       1.534  -1.093  -0.291  0.00  0.00     0.395 HD
ENDBRANCH   1   7
TORSDOF 1
ENDMDL
