MODEL 1
REMARK minimizedAffinity -2.61667466
REMARK minimizedRMSD -1
REMARK  1 active torsions:
REMARK  status: ('A' for Active; 'I' for Inactive)
REMARK    1  A    between atoms: N_2  and  C1_3 
ROOT
ATOM      1  C1  UNL d   1       0.524  -0.034   0.049  0.00  0.00     0.143 A 
ATOM      2  C2  UNL d   1      -0.626  -0.426   0.743  0.00  0.00    -0.057 A 
ATOM      3  C3  UNL d   1      -1.864  -0.530   0.098  0.00  0.00     0.033 A 
ATOM      4  C4  UNL d   1      -1.980  -0.214  -1.252  0.00  0.00    -0.042 A 
ATOM      5  C5  UNL d   1      -0.855   0.202  -1.956  0.00  0.00     0.033 A 
ATOM      6  C6  UNL d   1       0.379   0.297  -1.307  0.00  0.00    -0.057 A 
ENDROOT
BRANCH   1   7
ATOM      7  N   UNL d   1       1.763   0.183   0.657  0.00  0.00    -0.732 N 
ATOM      8  C   UNL d   1       2.434   1.459   0.526  0.00  0.00     0.284 C 
ATOM      9  H3  UNL d   1       1.814  -0.220   1.590  0.00  0.00     0.395 HD
ENDBRANCH   1   7
TORSDOF 1
ENDMDL
