MODEL 1
REMARK minimizedAffinity 13.5157738
REMARK minimizedRMSD -1
REMARK  0 active torsions:
REMARK  status: ('A' for Active; 'I' for Inactive)
ROOT
ATOM      1  C   UNL d   1       5.337   6.000   3.004  0.00  0.00     0.020 A 
ATOM      2  C1  UNL d   1       6.000   5.658   4.182  0.00  0.00     0.020 A 
ATOM      3  C2  UNL d   1       5.997   4.335   4.627  0.00  0.00     0.034 A 
ATOM      4  C3  UNL d   1       5.330   3.347   3.893  0.00  0.00     0.017 A 
ATOM      5  C4  UNL d   1       4.665   3.691   2.710  0.00  0.00     0.017 A 
ATOM      6  C5  UNL d   1       4.671   5.018   2.270  0.00  0.00     0.034 A 
ATOM      7 Cl   UNL d   1       3.819   2.528   1.750  0.00  0.00    -0.070 Cl
ATOM      8 Cl1  UNL d   1       5.367   1.730   4.501  0.00  0.00    -0.070 Cl
ENDROOT
TORSDOF 0
ENDMDL
