MODEL 1
REMARK minimizedAffinity 9.53504944
REMARK minimizedRMSD -1
REMARK  0 active torsions:
REMARK  status: ('A' for Active; 'I' for Inactive)
ROOT
ATOM      1  C   UNL d   1      -0.408   0.741   1.797  0.00  0.00     0.020 A 
ATOM      2  C1  UNL d   1       0.250  -0.478   1.641  0.00  0.00     0.020 A 
ATOM      3  C2  UNL d   1       1.028  -0.990   2.681  0.00  0.00     0.034 A 
ATOM      4  C3  UNL d   1       1.150  -0.283   3.883  0.00  0.00     0.017 A 
ATOM      5  C4  UNL d   1       0.489   0.941   4.039  0.00  0.00     0.017 A 
ATOM      6  C5  UNL d   1      -0.289   1.449   2.993  0.00  0.00     0.034 A 
ATOM      7 Cl   UNL d   1       0.592   1.871   5.492  0.00  0.00    -0.070 Cl
ATOM      8 Cl1  UNL d   1       2.128  -0.976   5.127  0.00  0.00    -0.070 Cl
ENDROOT
TORSDOF 0
ENDMDL
