MODEL 1
REMARK minimizedAffinity 13.5376835
REMARK minimizedRMSD -1
REMARK  0 active torsions:
REMARK  status: ('A' for Active; 'I' for Inactive)
ROOT
ATOM      1  C   UNL d   1       1.231  -5.579  -5.999  0.00  0.00     0.020 A 
ATOM      2  C1  UNL d   1       2.543  -5.822  -5.595  0.00  0.00     0.020 A 
ATOM      3  C2  UNL d   1       3.350  -4.764  -5.171  0.00  0.00     0.034 A 
ATOM      4  C3  UNL d   1       2.845  -3.459  -5.151  0.00  0.00     0.017 A 
ATOM      5  C4  UNL d   1       1.528  -3.216  -5.557  0.00  0.00     0.017 A 
ATOM      6  C5  UNL d   1       0.724  -4.279  -5.980  0.00  0.00     0.034 A 
ATOM      7 Cl   UNL d   1       0.835  -1.632  -5.559  0.00  0.00    -0.070 Cl
ATOM      8 Cl1  UNL d   1       3.899  -2.198  -4.614  0.00  0.00    -0.070 Cl
ENDROOT
TORSDOF 0
ENDMDL
