MODEL 1
REMARK minimizedAffinity 13.9628611
REMARK minimizedRMSD -1
REMARK  0 active torsions:
REMARK  status: ('A' for Active; 'I' for Inactive)
ROOT
ATOM      1  C   UNL d   1       3.277  -0.740  -5.411  0.00  0.00     0.020 A 
ATOM      2  C1  UNL d   1       3.399  -0.741  -4.022  0.00  0.00     0.020 A 
ATOM      3  C2  UNL d   1       2.255  -0.733  -3.221  0.00  0.00     0.034 A 
ATOM      4  C3  UNL d   1       0.985  -0.725  -3.808  0.00  0.00     0.017 A 
ATOM      5  C4  UNL d   1       0.864  -0.725  -5.203  0.00  0.00     0.017 A 
ATOM      6  C5  UNL d   1       2.012  -0.732  -6.000  0.00  0.00     0.034 A 
ATOM      7 Cl   UNL d   1      -0.670  -0.715  -6.000  0.00  0.00    -0.070 Cl
ATOM      8 Cl1  UNL d   1      -0.386  -0.717  -2.757  0.00  0.00    -0.070 Cl
ENDROOT
TORSDOF 0
ENDMDL
