MODEL 1
REMARK minimizedAffinity 11.1717634
REMARK minimizedRMSD -1
REMARK  0 active torsions:
REMARK  status: ('A' for Active; 'I' for Inactive)
ROOT
ATOM      1  C   UNL d   1       3.152   2.597   1.445  0.00  0.00     0.020 A 
ATOM      2  C1  UNL d   1       2.184   2.430   0.456  0.00  0.00     0.020 A 
ATOM      3  C2  UNL d   1       1.149   1.511   0.639  0.00  0.00     0.034 A 
ATOM      4  C3  UNL d   1       1.079   0.754   1.815  0.00  0.00     0.017 A 
ATOM      5  C4  UNL d   1       2.051   0.923   2.808  0.00  0.00     0.017 A 
ATOM      6  C5  UNL d   1       3.085   1.845   2.619  0.00  0.00     0.034 A 
ATOM      7 Cl   UNL d   1       2.032   0.026   4.285  0.00  0.00    -0.070 Cl
ATOM      8 Cl1  UNL d   1      -0.228  -0.364   1.975  0.00  0.00    -0.070 Cl
ENDROOT
TORSDOF 0
ENDMDL
