MODEL 1
REMARK minimizedAffinity 9.01192379
REMARK minimizedRMSD -1
REMARK  0 active torsions:
REMARK  status: ('A' for Active; 'I' for Inactive)
ROOT
ATOM      1  C   UNL d   1      -1.270   1.799   2.738  0.00  0.00     0.020 A 
ATOM      2  C1  UNL d   1      -2.576   1.640   2.278  0.00  0.00     0.020 A 
ATOM      3  C2  UNL d   1      -3.231   0.418   2.442  0.00  0.00     0.034 A 
ATOM      4  C3  UNL d   1      -2.579  -0.651   3.068  0.00  0.00     0.017 A 
ATOM      5  C4  UNL d   1      -1.268  -0.491   3.530  0.00  0.00     0.017 A 
ATOM      6  C5  UNL d   1      -0.617   0.735   3.363  0.00  0.00     0.034 A 
ATOM      7 Cl   UNL d   1      -0.398  -1.764   4.311  0.00  0.00    -0.070 Cl
ATOM      8 Cl1  UNL d   1      -3.449  -2.135   3.237  0.00  0.00    -0.070 Cl
ENDROOT
TORSDOF 0
ENDMDL
