MODEL 1
REMARK minimizedAffinity 15.4645796
REMARK minimizedRMSD -1
REMARK  0 active torsions:
REMARK  status: ('A' for Active; 'I' for Inactive)
ROOT
ATOM      1  C   UNL d   1      -0.366  -5.018  -6.000  0.00  0.00     0.020 A 
ATOM      2  C1  UNL d   1      -1.496  -4.215  -5.850  0.00  0.00     0.020 A 
ATOM      3  C2  UNL d   1      -1.365  -2.906  -5.382  0.00  0.00     0.034 A 
ATOM      4  C3  UNL d   1      -0.101  -2.396  -5.062  0.00  0.00     0.017 A 
ATOM      5  C4  UNL d   1       1.033  -3.203  -5.213  0.00  0.00     0.017 A 
ATOM      6  C5  UNL d   1       0.895  -4.513  -5.682  0.00  0.00     0.034 A 
ATOM      7 Cl   UNL d   1       2.625  -2.644  -4.838  0.00  0.00    -0.070 Cl
ATOM      8 Cl1  UNL d   1      -0.013  -0.768  -4.489  0.00  0.00    -0.070 Cl
ENDROOT
TORSDOF 0
ENDMDL
