MODEL 1
REMARK minimizedAffinity 22.51717
REMARK minimizedRMSD -1
REMARK  0 active torsions:
REMARK  status: ('A' for Active; 'I' for Inactive)
ROOT
ATOM      1  C   UNL d   1      -4.487   2.733   5.991  0.00  0.00    -0.002 A 
ATOM      2  C1  UNL d   1      -5.167   3.130   4.849  0.00  0.00     0.010 A 
ATOM      3  C2  UNL d   1      -5.132   2.348   3.693  0.00  0.00     0.041 A 
ATOM      4  C3  UNL d   1      -4.396   1.147   3.705  0.00  0.00    -0.075 A 
ATOM      5  S   UNL d   1      -4.211   0.028   2.406  0.00  0.00     0.015 SA
ATOM      6  C4  UNL d   1      -3.226  -1.005   3.338  0.00  0.00     0.022 A 
ATOM      7  C5  UNL d   1      -3.032  -0.523   4.611  0.00  0.00     0.026 A 
ATOM      8  C6  UNL d   1      -3.704   0.725   4.844  0.00  0.00    -0.082 A 
ATOM      9  C7  UNL d   1      -3.759   1.540   6.000  0.00  0.00     0.045 A 
ENDROOT
TORSDOF 0
ENDMDL
