MODEL 1
REMARK minimizedAffinity 11.4288273
REMARK minimizedRMSD -1
REMARK  0 active torsions:
REMARK  status: ('A' for Active; 'I' for Inactive)
ROOT
ATOM      1  C   UNL d   1      -3.742   1.548   5.381  0.00  0.00    -0.002 A 
ATOM      2  C1  UNL d   1      -4.260   1.758   4.111  0.00  0.00     0.010 A 
ATOM      3  C2  UNL d   1      -4.587   0.677   3.289  0.00  0.00     0.041 A 
ATOM      4  C3  UNL d   1      -4.384  -0.631   3.771  0.00  0.00    -0.075 A 
ATOM      5  S   UNL d   1      -4.713  -2.107   2.943  0.00  0.00     0.015 SA
ATOM      6  C4  UNL d   1      -4.175  -3.051   4.256  0.00  0.00     0.022 A 
ATOM      7  C5  UNL d   1      -3.751  -2.276   5.309  0.00  0.00     0.026 A 
ATOM      8  C6  UNL d   1      -3.865  -0.868   5.047  0.00  0.00    -0.082 A 
ATOM      9  C7  UNL d   1      -3.542   0.248   5.855  0.00  0.00     0.045 A 
ENDROOT
TORSDOF 0
ENDMDL
