MODEL 1
REMARK minimizedAffinity 26.5598373
REMARK minimizedRMSD -1
REMARK  0 active torsions:
REMARK  status: ('A' for Active; 'I' for Inactive)
ROOT
ATOM      1  C   UNL d   1       0.852  -2.323  -1.808  0.00  0.00    -0.002 A 
ATOM      2  C1  UNL d   1       1.359  -2.722  -0.580  0.00  0.00     0.010 A 
ATOM      3  C2  UNL d   1       2.238  -1.899   0.127  0.00  0.00     0.041 A 
ATOM      4  C3  UNL d   1       2.601  -0.655  -0.426  0.00  0.00    -0.075 A 
ATOM      5  S   UNL d   1       3.661   0.518   0.260  0.00  0.00     0.015 SA
ATOM      6  C4  UNL d   1       3.465   1.578  -1.061  0.00  0.00     0.022 A 
ATOM      7  C5  UNL d   1       2.615   1.064  -2.011  0.00  0.00     0.026 A 
ATOM      8  C6  UNL d   1       2.102  -0.230  -1.661  0.00  0.00    -0.082 A 
ATOM      9  C7  UNL d   1       1.214  -1.088  -2.354  0.00  0.00     0.045 A 
ENDROOT
TORSDOF 0
ENDMDL
