MODEL 1
REMARK minimizedAffinity 20.5284519
REMARK minimizedRMSD -1
REMARK  0 active torsions:
REMARK  status: ('A' for Active; 'I' for Inactive)
ROOT
ATOM      1  C   UNL d   1      -5.605  -4.632   0.300  0.00  0.00    -0.002 A 
ATOM      2  C1  UNL d   1      -4.475  -5.380   0.601  0.00  0.00     0.010 A 
ATOM      3  C2  UNL d   1      -3.514  -4.889   1.488  0.00  0.00     0.041 A 
ATOM      4  C3  UNL d   1      -3.711  -3.623   2.074  0.00  0.00    -0.075 A 
ATOM      5  S   UNL d   1      -2.670  -2.821   3.189  0.00  0.00     0.015 SA
ATOM      6  C4  UNL d   1      -3.700  -1.467   3.293  0.00  0.00     0.022 A 
ATOM      7  C5  UNL d   1      -4.816  -1.607   2.502  0.00  0.00     0.026 A 
ATOM      8  C6  UNL d   1      -4.841  -2.852   1.788  0.00  0.00    -0.082 A 
ATOM      9  C7  UNL d   1      -5.797  -3.377   0.884  0.00  0.00     0.045 A 
ENDROOT
TORSDOF 0
ENDMDL
