MODEL 1
REMARK minimizedAffinity 14.1960993
REMARK minimizedRMSD -1
REMARK  0 active torsions:
REMARK  status: ('A' for Active; 'I' for Inactive)
ROOT
ATOM      1  C   UNL d   1      -2.952   4.194  -4.653  0.00  0.00    -0.002 A 
ATOM      2  C1  UNL d   1      -3.052   3.555  -5.881  0.00  0.00     0.010 A 
ATOM      3  C2  UNL d   1      -2.756   2.196  -6.000  0.00  0.00     0.041 A 
ATOM      4  C3  UNL d   1      -2.357   1.482  -4.853  0.00  0.00    -0.075 A 
ATOM      5  S   UNL d   1      -1.946  -0.190  -4.759  0.00  0.00     0.015 SA
ATOM      6  C4  UNL d   1      -1.630  -0.095  -3.087  0.00  0.00     0.022 A 
ATOM      7  C5  UNL d   1      -1.827   1.174  -2.596  0.00  0.00     0.026 A 
ATOM      8  C6  UNL d   1      -2.250   2.104  -3.605  0.00  0.00    -0.082 A 
ATOM      9  C7  UNL d   1      -2.556   3.483  -3.518  0.00  0.00     0.045 A 
ENDROOT
TORSDOF 0
ENDMDL
