MODEL 1
REMARK minimizedAffinity 11.4521093
REMARK minimizedRMSD -1
REMARK  0 active torsions:
REMARK  status: ('A' for Active; 'I' for Inactive)
ROOT
ATOM      1  C   UNL d   1      -0.237   1.837  -4.467  0.00  0.00    -0.002 A 
ATOM      2  C1  UNL d   1      -1.394   1.180  -4.075  0.00  0.00     0.010 A 
ATOM      3  C2  UNL d   1      -2.647   1.754  -4.299  0.00  0.00     0.041 A 
ATOM      4  C3  UNL d   1      -2.718   3.011  -4.931  0.00  0.00    -0.075 A 
ATOM      5  S   UNL d   1      -4.143   3.906  -5.309  0.00  0.00     0.015 SA
ATOM      6  C4  UNL d   1      -3.248   5.181  -6.000  0.00  0.00     0.022 A 
ATOM      7  C5  UNL d   1      -1.895   4.947  -5.952  0.00  0.00     0.026 A 
ATOM      8  C6  UNL d   1      -1.567   3.692  -5.336  0.00  0.00    -0.082 A 
ATOM      9  C7  UNL d   1      -0.311   3.084  -5.094  0.00  0.00     0.045 A 
ENDROOT
TORSDOF 0
ENDMDL
