MODEL 1
REMARK minimizedAffinity 18.8600693
REMARK minimizedRMSD -1
REMARK  0 active torsions:
REMARK  status: ('A' for Active; 'I' for Inactive)
ROOT
ATOM      1  C   UNL d   1      -2.394   0.752   2.234  0.00  0.00    -0.002 A 
ATOM      2  C1  UNL d   1      -2.924   1.095   3.470  0.00  0.00     0.010 A 
ATOM      3  C2  UNL d   1      -4.043   0.429   3.972  0.00  0.00     0.041 A 
ATOM      4  C3  UNL d   1      -4.625  -0.600   3.206  0.00  0.00    -0.075 A 
ATOM      5  S   UNL d   1      -6.000  -1.555   3.620  0.00  0.00     0.015 SA
ATOM      6  C4  UNL d   1      -5.915  -2.442   2.167  0.00  0.00     0.022 A 
ATOM      7  C5  UNL d   1      -4.869  -2.033   1.373  0.00  0.00     0.026 A 
ATOM      8  C6  UNL d   1      -4.109  -0.965   1.959  0.00  0.00    -0.082 A 
ATOM      9  C7  UNL d   1      -2.974  -0.269   1.477  0.00  0.00     0.045 A 
ENDROOT
TORSDOF 0
ENDMDL
