MODEL 1
REMARK minimizedAffinity 16.1341076
REMARK minimizedRMSD -1
REMARK  0 active torsions:
REMARK  status: ('A' for Active; 'I' for Inactive)
ROOT
ATOM      1  C   UNL d   1      -3.846  -0.035   1.558  0.00  0.00    -0.002 A 
ATOM      2  C1  UNL d   1      -3.377   1.074   2.247  0.00  0.00     0.010 A 
ATOM      3  C2  UNL d   1      -3.175   1.020   3.627  0.00  0.00     0.041 A 
ATOM      4  C3  UNL d   1      -3.454  -0.181   4.310  0.00  0.00    -0.075 A 
ATOM      5  S   UNL d   1      -3.281  -0.481   5.999  0.00  0.00     0.015 SA
ATOM      6  C4  UNL d   1      -3.825  -2.089   5.845  0.00  0.00     0.022 A 
ATOM      7  C5  UNL d   1      -4.136  -2.406   4.544  0.00  0.00     0.026 A 
ATOM      8  C6  UNL d   1      -3.926  -1.312   3.637  0.00  0.00    -0.082 A 
ATOM      9  C7  UNL d   1      -4.121  -1.224   2.238  0.00  0.00     0.045 A 
ENDROOT
TORSDOF 0
ENDMDL
