MODEL 1
REMARK minimizedAffinity 12.8638248
REMARK minimizedRMSD -1
REMARK  0 active torsions:
REMARK  status: ('A' for Active; 'I' for Inactive)
ROOT
ATOM      1  C   UNL d   1      -5.462  -5.633  -5.731  0.00  0.00    -0.002 A 
ATOM      2  C1  UNL d   1      -5.999  -4.467  -5.205  0.00  0.00     0.010 A 
ATOM      3  C2  UNL d   1      -5.182  -3.368  -4.932  0.00  0.00     0.041 A 
ATOM      4  C3  UNL d   1      -3.802  -3.462  -5.201  0.00  0.00    -0.075 A 
ATOM      5  S   UNL d   1      -2.608  -2.244  -4.949  0.00  0.00     0.015 SA
ATOM      6  C4  UNL d   1      -1.358  -3.242  -5.534  0.00  0.00     0.022 A 
ATOM      7  C5  UNL d   1      -1.821  -4.479  -5.917  0.00  0.00     0.026 A 
ATOM      8  C6  UNL d   1      -3.238  -4.625  -5.732  0.00  0.00    -0.082 A 
ATOM      9  C7  UNL d   1      -4.093  -5.722  -5.996  0.00  0.00     0.045 A 
ENDROOT
TORSDOF 0
ENDMDL
