MODEL 1
REMARK minimizedAffinity 14.4070702
REMARK minimizedRMSD -1
REMARK  0 active torsions:
REMARK  status: ('A' for Active; 'I' for Inactive)
ROOT
ATOM      1  C   UNL d   1       2.236  -2.857  -0.338  0.00  0.00    -0.002 A 
ATOM      2  C1  UNL d   1       3.505  -2.958   0.215  0.00  0.00     0.010 A 
ATOM      3  C2  UNL d   1       4.371  -1.863   0.208  0.00  0.00     0.041 A 
ATOM      4  C3  UNL d   1       3.936  -0.653  -0.368  0.00  0.00    -0.075 A 
ATOM      5  S   UNL d   1       4.825   0.820  -0.489  0.00  0.00     0.015 SA
ATOM      6  C4  UNL d   1       3.540   1.617  -1.276  0.00  0.00     0.022 A 
ATOM      7  C5  UNL d   1       2.453   0.795  -1.450  0.00  0.00     0.026 A 
ATOM      8  C6  UNL d   1       2.662  -0.527  -0.929  0.00  0.00    -0.082 A 
ATOM      9  C7  UNL d   1       1.808  -1.655  -0.907  0.00  0.00     0.045 A 
ENDROOT
TORSDOF 0
ENDMDL
