MODEL 1
REMARK minimizedAffinity 6.14592791
REMARK minimizedRMSD -1
REMARK  0 active torsions:
REMARK  status: ('A' for Active; 'I' for Inactive)
ROOT
ATOM      1  C   UNL d   1       2.878  -2.526  -3.948  0.00  0.00    -0.002 A 
ATOM      2  C1  UNL d   1       3.802  -3.460  -4.395  0.00  0.00     0.010 A 
ATOM      3  C2  UNL d   1       4.130  -4.567  -3.609  0.00  0.00     0.041 A 
ATOM      4  C3  UNL d   1       3.506  -4.722  -2.356  0.00  0.00    -0.075 A 
ATOM      5  S   UNL d   1       3.750  -5.999  -1.224  0.00  0.00     0.015 SA
ATOM      6  C4  UNL d   1       2.633  -5.336  -0.121  0.00  0.00     0.022 A 
ATOM      7  C5  UNL d   1       2.078  -4.168  -0.588  0.00  0.00     0.026 A 
ATOM      8  C6  UNL d   1       2.571  -3.796  -1.885  0.00  0.00    -0.082 A 
ATOM      9  C7  UNL d   1       2.261  -2.684  -2.704  0.00  0.00     0.045 A 
ENDROOT
TORSDOF 0
ENDMDL
