MODEL 1
REMARK minimizedAffinity 8.18038845
REMARK minimizedRMSD -1
REMARK  0 active torsions:
REMARK  status: ('A' for Active; 'I' for Inactive)
ROOT
ATOM      1  C   UNL d   1       1.496  -2.742  -2.240  0.00  0.00    -0.002 A 
ATOM      2  C1  UNL d   1       2.101  -3.134  -1.054  0.00  0.00     0.010 A 
ATOM      3  C2  UNL d   1       2.815  -2.214  -0.283  0.00  0.00     0.041 A 
ATOM      4  C3  UNL d   1       2.909  -0.880  -0.728  0.00  0.00    -0.075 A 
ATOM      5  S   UNL d   1       3.731   0.420   0.052  0.00  0.00     0.015 SA
ATOM      6  C4  UNL d   1       3.297   1.525  -1.171  0.00  0.00     0.022 A 
ATOM      7  C5  UNL d   1       2.544   0.934  -2.157  0.00  0.00     0.026 A 
ATOM      8  C6  UNL d   1       2.308  -0.462  -1.918  0.00  0.00    -0.082 A 
ATOM      9  C7  UNL d   1       1.592  -1.419  -2.678  0.00  0.00     0.045 A 
ENDROOT
TORSDOF 0
ENDMDL
