MODEL 1
REMARK minimizedAffinity 10.5473261
REMARK minimizedRMSD -1
REMARK  0 active torsions:
REMARK  status: ('A' for Active; 'I' for Inactive)
ROOT
ATOM      1  C   UNL d   1       1.547  -2.502  -1.993  0.00  0.00    -0.002 A 
ATOM      2  C1  UNL d   1       2.239  -3.103  -0.951  0.00  0.00     0.010 A 
ATOM      3  C2  UNL d   1       3.108  -2.358  -0.152  0.00  0.00     0.041 A 
ATOM      4  C3  UNL d   1       3.271  -0.984  -0.419  0.00  0.00    -0.075 A 
ATOM      5  S   UNL d   1       4.281   0.127   0.428  0.00  0.00     0.015 SA
ATOM      6  C4  UNL d   1       3.818   1.426  -0.573  0.00  0.00     0.022 A 
ATOM      7  C5  UNL d   1       2.916   1.040  -1.535  0.00  0.00     0.026 A 
ATOM      8  C6  UNL d   1       2.585  -0.356  -1.462  0.00  0.00    -0.082 A 
ATOM      9  C7  UNL d   1       1.712  -1.139  -2.255  0.00  0.00     0.045 A 
ENDROOT
TORSDOF 0
ENDMDL
