MODEL 1
REMARK minimizedAffinity 8.42926311
REMARK minimizedRMSD -1
REMARK  0 active torsions:
REMARK  status: ('A' for Active; 'I' for Inactive)
ROOT
ATOM      1  C   UNL d   1       3.877  -0.836  -0.135  0.00  0.00    -0.002 A 
ATOM      2  C1  UNL d   1       4.154  -2.162   0.166  0.00  0.00     0.010 A 
ATOM      3  C2  UNL d   1       3.348  -3.186  -0.334  0.00  0.00     0.041 A 
ATOM      4  C3  UNL d   1       2.250  -2.853  -1.151  0.00  0.00    -0.075 A 
ATOM      5  S   UNL d   1       1.125  -3.940  -1.876  0.00  0.00     0.015 SA
ATOM      6  C4  UNL d   1       0.252  -2.670  -2.603  0.00  0.00     0.022 A 
ATOM      7  C5  UNL d   1       0.791  -1.440  -2.310  0.00  0.00     0.026 A 
ATOM      8  C6  UNL d   1       1.951  -1.525  -1.469  0.00  0.00    -0.082 A 
ATOM      9  C7  UNL d   1       2.787  -0.509  -0.946  0.00  0.00     0.045 A 
ENDROOT
TORSDOF 0
ENDMDL
