MODEL 1
REMARK minimizedAffinity 13.8610277
REMARK minimizedRMSD -1
REMARK  0 active torsions:
REMARK  status: ('A' for Active; 'I' for Inactive)
ROOT
ATOM      1  C   UNL d   1       1.497   1.087   3.876  0.00  0.00    -0.002 A 
ATOM      2  C1  UNL d   1       0.965   2.202   4.509  0.00  0.00     0.010 A 
ATOM      3  C2  UNL d   1      -0.394   2.501   4.398  0.00  0.00     0.041 A 
ATOM      4  C3  UNL d   1      -1.219   1.650   3.635  0.00  0.00    -0.075 A 
ATOM      5  S   UNL d   1      -2.912   1.817   3.359  0.00  0.00     0.015 SA
ATOM      6  C4  UNL d   1      -2.970   0.412   2.396  0.00  0.00     0.022 A 
ATOM      7  C5  UNL d   1      -1.736  -0.182   2.277  0.00  0.00     0.026 A 
ATOM      8  C6  UNL d   1      -0.706   0.521   2.989  0.00  0.00    -0.082 A 
ATOM      9  C7  UNL d   1       0.676   0.246   3.120  0.00  0.00     0.045 A 
ENDROOT
TORSDOF 0
ENDMDL
