MODEL 1
REMARK minimizedAffinity 2.88186479
REMARK minimizedRMSD -1
REMARK  0 active torsions:
REMARK  status: ('A' for Active; 'I' for Inactive)
ROOT
ATOM      1  C   UNL d   1       0.386   0.253   3.450  0.00  0.00     0.020 A 
ATOM      2  C1  UNL d   1      -0.407  -0.510   2.594  0.00  0.00     0.020 A 
ATOM      3  C2  UNL d   1      -0.243  -0.405   1.211  0.00  0.00     0.034 A 
ATOM      4  C3  UNL d   1       0.717   0.464   0.680  0.00  0.00     0.017 A 
ATOM      5  C4  UNL d   1       1.513   1.230   1.540  0.00  0.00     0.017 A 
ATOM      6  C5  UNL d   1       1.344   1.121   2.924  0.00  0.00     0.034 A 
ATOM      7 Cl   UNL d   1       2.718   2.324   0.960  0.00  0.00    -0.070 Cl
ATOM      8 Cl1  UNL d   1       0.867   0.543  -1.040  0.00  0.00    -0.070 Cl
ENDROOT
TORSDOF 0
ENDMDL
