MODEL 1
REMARK minimizedAffinity -2.97420669
REMARK minimizedRMSD -1
REMARK  0 active torsions:
REMARK  status: ('A' for Active; 'I' for Inactive)
ROOT
ATOM      1  C   UNL d   1       0.530   0.510  -1.447  0.00  0.00     0.020 A 
ATOM      2  C1  UNL d   1       1.552   0.869  -0.569  0.00  0.00     0.020 A 
ATOM      3  C2  UNL d   1       1.369   0.731   0.808  0.00  0.00     0.034 A 
ATOM      4  C3  UNL d   1       0.162   0.233   1.312  0.00  0.00     0.017 A 
ATOM      5  C4  UNL d   1      -0.863  -0.127   0.430  0.00  0.00     0.017 A 
ATOM      6  C5  UNL d   1      -0.675   0.013  -0.949  0.00  0.00     0.034 A 
ATOM      7 Cl   UNL d   1      -2.381  -0.748   0.976  0.00  0.00    -0.070 Cl
ATOM      8 Cl1  UNL d   1       0.005   0.089   3.027  0.00  0.00    -0.070 Cl
ENDROOT
TORSDOF 0
ENDMDL
