MODEL 1
REMARK minimizedAffinity -3.65746403
REMARK minimizedRMSD -1
REMARK  0 active torsions:
REMARK  status: ('A' for Active; 'I' for Inactive)
ROOT
ATOM      1  C   UNL d   1      -0.040   0.436   2.903  0.00  0.00     0.020 A 
ATOM      2  C1  UNL d   1       1.108   0.530   2.117  0.00  0.00     0.020 A 
ATOM      3  C2  UNL d   1       0.999   0.559   0.725  0.00  0.00     0.034 A 
ATOM      4  C3  UNL d   1      -0.259   0.495   0.115  0.00  0.00     0.017 A 
ATOM      5  C4  UNL d   1      -1.410   0.401   0.906  0.00  0.00     0.017 A 
ATOM      6  C5  UNL d   1      -1.296   0.372   2.299  0.00  0.00     0.034 A 
ATOM      7 Cl   UNL d   1      -2.997   0.317   0.226  0.00  0.00    -0.070 Cl
ATOM      8 Cl1  UNL d   1      -0.319   0.537  -1.611  0.00  0.00    -0.070 Cl
ENDROOT
TORSDOF 0
ENDMDL
