MODEL 1
REMARK minimizedAffinity -4.12168503
REMARK minimizedRMSD -1
REMARK  0 active torsions:
REMARK  status: ('A' for Active; 'I' for Inactive)
ROOT
ATOM      1  C   UNL d   1       0.602  -0.007   2.852  0.00  0.00     0.020 A 
ATOM      2  C1  UNL d   1      -0.642  -0.428   3.322  0.00  0.00     0.020 A 
ATOM      3  C2  UNL d   1      -1.728  -0.510   2.447  0.00  0.00     0.034 A 
ATOM      4  C3  UNL d   1      -1.572  -0.171   1.098  0.00  0.00     0.017 A 
ATOM      5  C4  UNL d   1      -0.323   0.251   0.627  0.00  0.00     0.017 A 
ATOM      6  C5  UNL d   1       0.761   0.331   1.507  0.00  0.00     0.034 A 
ATOM      7 Cl   UNL d   1      -0.053   0.685  -1.024  0.00  0.00    -0.070 Cl
ATOM      8 Cl1  UNL d   1      -2.957  -0.296   0.073  0.00  0.00    -0.070 Cl
ENDROOT
TORSDOF 0
ENDMDL
