MODEL 1
REMARK minimizedAffinity -5.45721626
REMARK minimizedRMSD -1
REMARK  0 active torsions:
REMARK  status: ('A' for Active; 'I' for Inactive)
ROOT
ATOM      1  C   UNL d   1       0.330  -0.496   2.667  0.00  0.00     0.020 A 
ATOM      2  C1  UNL d   1      -0.629  -0.861   1.723  0.00  0.00     0.020 A 
ATOM      3  C2  UNL d   1      -0.543  -0.375   0.417  0.00  0.00     0.034 A 
ATOM      4  C3  UNL d   1       0.504   0.479   0.051  0.00  0.00     0.017 A 
ATOM      5  C4  UNL d   1       1.466   0.845   1.000  0.00  0.00     0.017 A 
ATOM      6  C5  UNL d   1       1.375   0.355   2.306  0.00  0.00     0.034 A 
ATOM      7 Cl   UNL d   1       2.787   1.894   0.624  0.00  0.00    -0.070 Cl
ATOM      8 Cl1  UNL d   1       0.549   1.043  -1.582  0.00  0.00    -0.070 Cl
ENDROOT
TORSDOF 0
ENDMDL
