MODEL 1
REMARK minimizedAffinity -3.63965559
REMARK minimizedRMSD -1
REMARK  0 active torsions:
REMARK  status: ('A' for Active; 'I' for Inactive)
ROOT
ATOM      1  C   UNL d   1      -1.570  -0.485   2.057  0.00  0.00     0.020 A 
ATOM      2  C1  UNL d   1      -0.380  -0.161   2.707  0.00  0.00     0.020 A 
ATOM      3  C2  UNL d   1       0.608   0.562   2.036  0.00  0.00     0.034 A 
ATOM      4  C3  UNL d   1       0.409   0.962   0.710  0.00  0.00     0.017 A 
ATOM      5  C4  UNL d   1      -0.786   0.636   0.057  0.00  0.00     0.017 A 
ATOM      6  C5  UNL d   1      -1.772  -0.088   0.734  0.00  0.00     0.034 A 
ATOM      7 Cl   UNL d   1      -1.104   1.096  -1.578  0.00  0.00    -0.070 Cl
ATOM      8 Cl1  UNL d   1       1.673   1.854  -0.059  0.00  0.00    -0.070 Cl
ENDROOT
TORSDOF 0
ENDMDL
