MODEL 1
REMARK minimizedAffinity -5.04612875
REMARK minimizedRMSD -1
REMARK  0 active torsions:
REMARK  status: ('A' for Active; 'I' for Inactive)
ROOT
ATOM      1  C   UNL d   1      -0.041  -0.010   2.926  0.00  0.00     0.020 A 
ATOM      2  C1  UNL d   1       1.043   0.264   2.093  0.00  0.00     0.020 A 
ATOM      3  C2  UNL d   1       0.853   0.381   0.715  0.00  0.00     0.034 A 
ATOM      4  C3  UNL d   1      -0.424   0.223   0.165  0.00  0.00     0.017 A 
ATOM      5  C4  UNL d   1      -1.512  -0.053   1.002  0.00  0.00     0.017 A 
ATOM      6  C5  UNL d   1      -1.316  -0.168   2.381  0.00  0.00     0.034 A 
ATOM      7 Cl   UNL d   1      -3.117  -0.261   0.396  0.00  0.00    -0.070 Cl
ATOM      8 Cl1  UNL d   1      -0.587   0.381  -1.548  0.00  0.00    -0.070 Cl
ENDROOT
TORSDOF 0
ENDMDL
