MODEL 1
REMARK minimizedAffinity -5.4684906
REMARK minimizedRMSD -1
REMARK  0 active torsions:
REMARK  status: ('A' for Active; 'I' for Inactive)
ROOT
ATOM      1  C   UNL d   1      -2.858  -0.188   1.662  0.00  0.00     0.020 A 
ATOM      2  C1  UNL d   1      -2.068  -0.242   2.811  0.00  0.00     0.020 A 
ATOM      3  C2  UNL d   1      -0.683  -0.096   2.713  0.00  0.00     0.034 A 
ATOM      4  C3  UNL d   1      -0.082   0.105   1.465  0.00  0.00     0.017 A 
ATOM      5  C4  UNL d   1      -0.876   0.159   0.313  0.00  0.00     0.017 A 
ATOM      6  C5  UNL d   1      -2.262   0.012   0.416  0.00  0.00     0.034 A 
ATOM      7 Cl   UNL d   1      -0.207   0.403  -1.262  0.00  0.00    -0.070 Cl
ATOM      8 Cl1  UNL d   1       1.636   0.277   1.418  0.00  0.00    -0.070 Cl
ENDROOT
TORSDOF 0
ENDMDL
