MODEL 1
REMARK minimizedAffinity -5.08135891
REMARK minimizedRMSD -1
REMARK  0 active torsions:
REMARK  status: ('A' for Active; 'I' for Inactive)
ROOT
ATOM      1  C   UNL d   1      -0.077  -0.153   3.514  0.00  0.00     0.020 A 
ATOM      2  C1  UNL d   1       1.001   0.304   2.757  0.00  0.00     0.020 A 
ATOM      3  C2  UNL d   1       0.848   0.524   1.386  0.00  0.00     0.034 A 
ATOM      4  C3  UNL d   1      -0.385   0.287   0.768  0.00  0.00     0.017 A 
ATOM      5  C4  UNL d   1      -1.467  -0.172   1.529  0.00  0.00     0.017 A 
ATOM      6  C5  UNL d   1      -1.308  -0.390   2.901  0.00  0.00     0.034 A 
ATOM      7 Cl   UNL d   1      -3.019  -0.487   0.838  0.00  0.00    -0.070 Cl
ATOM      8 Cl1  UNL d   1      -0.502   0.580  -0.930  0.00  0.00    -0.070 Cl
ENDROOT
TORSDOF 0
ENDMDL
