MODEL 1
REMARK minimizedAffinity -1.84548688
REMARK minimizedRMSD -1
REMARK  0 active torsions:
REMARK  status: ('A' for Active; 'I' for Inactive)
ROOT
ATOM      1  C   UNL d   1       0.665   0.349   3.068  0.00  0.00     0.020 A 
ATOM      2  C1  UNL d   1      -0.345  -0.403   3.666  0.00  0.00     0.020 A 
ATOM      3  C2  UNL d   1      -1.356  -0.963   2.882  0.00  0.00     0.034 A 
ATOM      4  C3  UNL d   1      -1.360  -0.770   1.496  0.00  0.00     0.017 A 
ATOM      5  C4  UNL d   1      -0.346  -0.015   0.897  0.00  0.00     0.017 A 
ATOM      6  C5  UNL d   1       0.664   0.543   1.687  0.00  0.00     0.034 A 
ATOM      7 Cl   UNL d   1      -0.283   0.266  -0.808  0.00  0.00    -0.070 Cl
ATOM      8 Cl1  UNL d   1      -2.641  -1.492   0.588  0.00  0.00    -0.070 Cl
ENDROOT
TORSDOF 0
ENDMDL
