MODEL 1
REMARK minimizedAffinity -5.17770529
REMARK minimizedRMSD -1
REMARK  0 active torsions:
REMARK  status: ('A' for Active; 'I' for Inactive)
ROOT
ATOM      1  C   UNL d   1      -1.168  -0.820   2.196  0.00  0.00     0.020 A 
ATOM      2  C1  UNL d   1      -0.213  -0.324   3.082  0.00  0.00     0.020 A 
ATOM      3  C2  UNL d   1       0.844   0.455   2.605  0.00  0.00     0.034 A 
ATOM      4  C3  UNL d   1       0.948   0.739   1.239  0.00  0.00     0.017 A 
ATOM      5  C4  UNL d   1      -0.012   0.241   0.350  0.00  0.00     0.017 A 
ATOM      6  C5  UNL d   1      -1.067  -0.539   0.833  0.00  0.00     0.034 A 
ATOM      7 Cl   UNL d   1       0.050   0.549  -1.349  0.00  0.00    -0.070 Cl
ATOM      8 Cl1  UNL d   1       2.280   1.709   0.719  0.00  0.00    -0.070 Cl
ENDROOT
TORSDOF 0
ENDMDL
