MODEL 1
REMARK minimizedAffinity -4.23482895
REMARK minimizedRMSD -1
REMARK  0 active torsions:
REMARK  status: ('A' for Active; 'I' for Inactive)
ROOT
ATOM      1  C   UNL d   1      -0.043  -0.230   3.045  0.00  0.00     0.020 A 
ATOM      2  C1  UNL d   1       0.945  -0.020   2.085  0.00  0.00     0.020 A 
ATOM      3  C2  UNL d   1       0.617   0.572   0.863  0.00  0.00     0.034 A 
ATOM      4  C3  UNL d   1      -0.703   0.956   0.599  0.00  0.00     0.017 A 
ATOM      5  C4  UNL d   1      -1.694   0.745   1.564  0.00  0.00     0.017 A 
ATOM      6  C5  UNL d   1      -1.360   0.152   2.786  0.00  0.00     0.034 A 
ATOM      7 Cl   UNL d   1      -3.344   1.192   1.311  0.00  0.00    -0.070 Cl
ATOM      8 Cl1  UNL d   1      -1.037   1.682  -0.932  0.00  0.00    -0.070 Cl
ENDROOT
TORSDOF 0
ENDMDL
