MODEL 1
REMARK minimizedAffinity -4.59254074
REMARK minimizedRMSD -1
REMARK  0 active torsions:
REMARK  status: ('A' for Active; 'I' for Inactive)
ROOT
ATOM      1  C   UNL d   1      -0.971   0.767  -1.086  0.00  0.00     0.020 A 
ATOM      2  C1  UNL d   1      -1.988   0.395  -0.208  0.00  0.00     0.020 A 
ATOM      3  C2  UNL d   1      -1.694   0.141   1.134  0.00  0.00     0.034 A 
ATOM      4  C3  UNL d   1      -0.380   0.260   1.601  0.00  0.00     0.017 A 
ATOM      5  C4  UNL d   1       0.640   0.634   0.719  0.00  0.00     0.017 A 
ATOM      6  C5  UNL d   1       0.340   0.887  -0.623  0.00  0.00     0.034 A 
ATOM      7 Cl   UNL d   1       2.285   0.802   1.222  0.00  0.00    -0.070 Cl
ATOM      8 Cl1  UNL d   1      -0.089  -0.067   3.273  0.00  0.00    -0.070 Cl
ENDROOT
TORSDOF 0
ENDMDL
