MODEL 1
REMARK minimizedAffinity -4.31112289
REMARK minimizedRMSD -1
REMARK  0 active torsions:
REMARK  status: ('A' for Active; 'I' for Inactive)
ROOT
ATOM      1  C   UNL d   1      -1.496  -0.740   2.251  0.00  0.00     0.020 A 
ATOM      2  C1  UNL d   1      -0.590  -0.243   3.187  0.00  0.00     0.020 A 
ATOM      3  C2  UNL d   1       0.502   0.519   2.765  0.00  0.00     0.034 A 
ATOM      4  C3  UNL d   1       0.691   0.785   1.404  0.00  0.00     0.017 A 
ATOM      5  C4  UNL d   1      -0.219   0.284   0.466  0.00  0.00     0.017 A 
ATOM      6  C5  UNL d   1      -1.310  -0.477   0.893  0.00  0.00     0.034 A 
ATOM      7 Cl   UNL d   1      -0.052   0.571  -1.231  0.00  0.00    -0.070 Cl
ATOM      8 Cl1  UNL d   1       2.063   1.733   0.954  0.00  0.00    -0.070 Cl
ENDROOT
TORSDOF 0
ENDMDL
