MODEL 1
REMARK minimizedAffinity -6.07332563
REMARK minimizedRMSD -1
REMARK  0 active torsions:
REMARK  status: ('A' for Active; 'I' for Inactive)
ROOT
ATOM      1  C   UNL d   1      -1.830  -0.134   3.229  0.00  0.00     0.020 A 
ATOM      2  C1  UNL d   1      -2.637  -0.073   2.095  0.00  0.00     0.020 A 
ATOM      3  C2  UNL d   1      -2.062   0.121   0.837  0.00  0.00     0.034 A 
ATOM      4  C3  UNL d   1      -0.674   0.255   0.712  0.00  0.00     0.017 A 
ATOM      5  C4  UNL d   1       0.136   0.194   1.851  0.00  0.00     0.017 A 
ATOM      6  C5  UNL d   1      -0.446  -0.001   3.108  0.00  0.00     0.034 A 
ATOM      7 Cl   UNL d   1       1.856   0.351   1.776  0.00  0.00    -0.070 Cl
ATOM      8 Cl1  UNL d   1      -0.030   0.493  -0.874  0.00  0.00    -0.070 Cl
ENDROOT
TORSDOF 0
ENDMDL
