MODEL 1
REMARK minimizedAffinity -5.27320766
REMARK minimizedRMSD -1
REMARK  0 active torsions:
REMARK  status: ('A' for Active; 'I' for Inactive)
ROOT
ATOM      1  C   UNL d   1       0.398  -0.507   2.724  0.00  0.00     0.020 A 
ATOM      2  C1  UNL d   1      -0.947  -0.737   3.009  0.00  0.00     0.020 A 
ATOM      3  C2  UNL d   1      -1.921  -0.472   2.043  0.00  0.00     0.034 A 
ATOM      4  C3  UNL d   1      -1.550   0.025   0.788  0.00  0.00     0.017 A 
ATOM      5  C4  UNL d   1      -0.199   0.256   0.503  0.00  0.00     0.017 A 
ATOM      6  C5  UNL d   1       0.771  -0.011   1.474  0.00  0.00     0.034 A 
ATOM      7 Cl   UNL d   1       0.335   0.868  -1.022  0.00  0.00    -0.070 Cl
ATOM      8 Cl1  UNL d   1      -2.806   0.331  -0.358  0.00  0.00    -0.070 Cl
ENDROOT
TORSDOF 0
ENDMDL
