MODEL 1
REMARK minimizedAffinity -4.59032011
REMARK minimizedRMSD -1
REMARK  1 active torsions:
REMARK  status: ('A' for Active; 'I' for Inactive)
REMARK    1  A    between atoms: C1_2  and  C2_3 
ROOT
ATOM      1  C2  UNL d   1      -0.681   0.137   1.681  0.00  0.00    -0.077 A 
ATOM      2  C3  UNL d   1      -0.671   0.761   2.937  0.00  0.00     0.002 A 
ATOM      3  C4  UNL d   1      -1.850   1.276   3.479  0.00  0.00     0.002 A 
ATOM      4  C5  UNL d   1      -3.048   1.168   2.775  0.00  0.00    -0.004 A 
ATOM      5  C6  UNL d   1      -3.068   0.552   1.525  0.00  0.00     0.002 A 
ATOM      6  C7  UNL d   1      -1.890   0.038   0.980  0.00  0.00     0.002 A 
ENDROOT
BRANCH   1   7
ATOM      7  C1  UNL d   1       0.580  -0.462   1.116  0.00  0.00     0.055 C 
ATOM      8  C   UNL d   1       0.287  -1.315  -0.109  0.00  0.00     0.019 C 
ENDBRANCH   1   7
TORSDOF 1
ENDMDL
