MODEL 1
REMARK minimizedAffinity -3.36152339
REMARK minimizedRMSD -1
REMARK  1 active torsions:
REMARK  status: ('A' for Active; 'I' for Inactive)
REMARK    1  A    between atoms: C1_2  and  C2_3 
ROOT
ATOM      1  C2  UNL d   1       0.475  -0.243  -0.716  0.00  0.00    -0.077 A 
ATOM      2  C3  UNL d   1       0.151   1.007  -1.263  0.00  0.00     0.002 A 
ATOM      3  C4  UNL d   1       0.829   1.482  -2.388  0.00  0.00     0.002 A 
ATOM      4  C5  UNL d   1       1.830   0.713  -2.977  0.00  0.00    -0.004 A 
ATOM      5  C6  UNL d   1       2.160  -0.531  -2.439  0.00  0.00     0.002 A 
ATOM      6  C7  UNL d   1       1.485  -1.007  -1.315  0.00  0.00     0.002 A 
ENDROOT
BRANCH   1   7
ATOM      7  C1  UNL d   1      -0.288  -0.779   0.467  0.00  0.00     0.055 C 
ATOM      8  C   UNL d   1      -1.233   0.269   1.037  0.00  0.00     0.019 C 
ENDBRANCH   1   7
TORSDOF 1
ENDMDL
