MODEL 1
REMARK minimizedAffinity -2.89421749
REMARK minimizedRMSD -1
REMARK  1 active torsions:
REMARK  status: ('A' for Active; 'I' for Inactive)
REMARK    1  A    between atoms: C1_2  and  C2_3 
ROOT
ATOM      1  C2  UNL d   1      -0.194  -0.089   0.122  0.00  0.00    -0.077 A 
ATOM      2  C3  UNL d   1       0.462   0.585  -0.918  0.00  0.00     0.002 A 
ATOM      3  C4  UNL d   1       1.474  -0.049  -1.642  0.00  0.00     0.002 A 
ATOM      4  C5  UNL d   1       1.835  -1.360  -1.337  0.00  0.00    -0.004 A 
ATOM      5  C6  UNL d   1       1.190  -2.037  -0.303  0.00  0.00     0.002 A 
ATOM      6  C7  UNL d   1       0.179  -1.405   0.423  0.00  0.00     0.002 A 
ENDROOT
BRANCH   1   7
ATOM      7  C1  UNL d   1      -1.319   0.576   0.872  0.00  0.00     0.055 C 
ATOM      8  C   UNL d   1      -1.272   0.238   2.355  0.00  0.00     0.019 C 
ENDBRANCH   1   7
TORSDOF 1
ENDMDL
