MODEL 1
REMARK minimizedAffinity -2.93068433
REMARK minimizedRMSD -1
REMARK  1 active torsions:
REMARK  status: ('A' for Active; 'I' for Inactive)
REMARK    1  A    between atoms: C1_2  and  C2_3 
ROOT
ATOM      1  C2  UNL d   1      -0.802  -0.428   0.738  0.00  0.00    -0.077 A 
ATOM      2  C3  UNL d   1      -1.227  -0.675   2.051  0.00  0.00     0.002 A 
ATOM      3  C4  UNL d   1      -1.981   0.277   2.740  0.00  0.00     0.002 A 
ATOM      4  C5  UNL d   1      -2.320   1.480   2.123  0.00  0.00    -0.004 A 
ATOM      5  C6  UNL d   1      -1.901   1.735   0.818  0.00  0.00     0.002 A 
ATOM      6  C7  UNL d   1      -1.146   0.785   0.128  0.00  0.00     0.002 A 
ENDROOT
BRANCH   1   7
ATOM      7  C1  UNL d   1      -0.031  -1.474  -0.024  0.00  0.00     0.055 C 
ATOM      8  C   UNL d   1       1.345  -0.962  -0.428  0.00  0.00     0.019 C 
ENDBRANCH   1   7
TORSDOF 1
ENDMDL
