MODEL 1
REMARK minimizedAffinity -5.21594238
REMARK minimizedRMSD -1
REMARK  1 active torsions:
REMARK  status: ('A' for Active; 'I' for Inactive)
REMARK    1  A    between atoms: C1_2  and  C2_3 
ROOT
ATOM      1  C2  UNL d   1      -0.317  -0.094   0.011  0.00  0.00    -0.077 A 
ATOM      2  C3  UNL d   1       0.473   0.729  -0.804  0.00  0.00     0.002 A 
ATOM      3  C4  UNL d   1       1.628   0.227  -1.405  0.00  0.00     0.002 A 
ATOM      4  C5  UNL d   1       2.002  -1.100  -1.203  0.00  0.00    -0.004 A 
ATOM      5  C6  UNL d   1       1.223  -1.926  -0.392  0.00  0.00     0.002 A 
ATOM      6  C7  UNL d   1       0.069  -1.425   0.211  0.00  0.00     0.002 A 
ENDROOT
BRANCH   1   7
ATOM      7  C1  UNL d   1      -1.590   0.432   0.621  0.00  0.00     0.055 C 
ATOM      8  C   UNL d   1      -1.372   0.877   2.060  0.00  0.00     0.019 C 
ENDBRANCH   1   7
TORSDOF 1
ENDMDL
