MODEL 1
REMARK minimizedAffinity -2.5872097
REMARK minimizedRMSD -1
REMARK  1 active torsions:
REMARK  status: ('A' for Active; 'I' for Inactive)
REMARK    1  A    between atoms: C1_2  and  C2_3 
ROOT
ATOM      1  C2  UNL d   1      -0.127  -0.153   0.923  0.00  0.00    -0.077 A 
ATOM      2  C3  UNL d   1       0.516  -1.396   0.999  0.00  0.00     0.002 A 
ATOM      3  C4  UNL d   1       1.192  -1.911  -0.110  0.00  0.00     0.002 A 
ATOM      4  C5  UNL d   1       1.234  -1.187  -1.300  0.00  0.00    -0.004 A 
ATOM      5  C6  UNL d   1       0.595   0.049  -1.386  0.00  0.00     0.002 A 
ATOM      6  C7  UNL d   1      -0.082   0.564  -0.279  0.00  0.00     0.002 A 
ENDROOT
BRANCH   1   7
ATOM      7  C1  UNL d   1      -0.815   0.426   2.132  0.00  0.00     0.055 C 
ATOM      8  C   UNL d   1      -2.070   1.191   1.741  0.00  0.00     0.019 C 
ENDBRANCH   1   7
TORSDOF 1
ENDMDL
