MODEL 1
REMARK minimizedAffinity -3.15561223
REMARK minimizedRMSD -1
REMARK  1 active torsions:
REMARK  status: ('A' for Active; 'I' for Inactive)
REMARK    1  A    between atoms: C1_2  and  C2_3 
ROOT
ATOM      1  C2  UNL d   1      -1.230   0.581   1.129  0.00  0.00    -0.077 A 
ATOM      2  C3  UNL d   1      -0.371   1.408   1.865  0.00  0.00     0.002 A 
ATOM      3  C4  UNL d   1      -0.649   1.705   3.201  0.00  0.00     0.002 A 
ATOM      4  C5  UNL d   1      -1.784   1.176   3.812  0.00  0.00    -0.004 A 
ATOM      5  C6  UNL d   1      -2.646   0.354   3.087  0.00  0.00     0.002 A 
ATOM      6  C7  UNL d   1      -2.370   0.057   1.752  0.00  0.00     0.002 A 
ENDROOT
BRANCH   1   7
ATOM      7  C1  UNL d   1      -0.906   0.219  -0.297  0.00  0.00     0.055 C 
ATOM      8  C   UNL d   1      -0.132  -1.089  -0.374  0.00  0.00     0.019 C 
ENDBRANCH   1   7
TORSDOF 1
ENDMDL
