MODEL 1
REMARK minimizedAffinity -5.26249933
REMARK minimizedRMSD -1
REMARK  1 active torsions:
REMARK  status: ('A' for Active; 'I' for Inactive)
REMARK    1  A    between atoms: C1_2  and  C2_3 
ROOT
ATOM      1  C2  UNL d   1       1.120  -0.164  -1.303  0.00  0.00    -0.077 A 
ATOM      2  C3  UNL d   1       1.557  -1.438  -0.914  0.00  0.00     0.002 A 
ATOM      3  C4  UNL d   1       0.892  -2.134   0.097  0.00  0.00     0.002 A 
ATOM      4  C5  UNL d   1      -0.216  -1.566   0.724  0.00  0.00    -0.004 A 
ATOM      5  C6  UNL d   1      -0.657  -0.299   0.345  0.00  0.00     0.002 A 
ATOM      6  C7  UNL d   1       0.008   0.399  -0.664  0.00  0.00     0.002 A 
ENDROOT
BRANCH   1   7
ATOM      7  C1  UNL d   1       1.806   0.568  -2.427  0.00  0.00     0.055 C 
ATOM      8  C   UNL d   1       1.102   1.879  -2.745  0.00  0.00     0.019 C 
ENDBRANCH   1   7
TORSDOF 1
ENDMDL
