MODEL 1
REMARK minimizedAffinity 0.052735053
REMARK minimizedRMSD -1
REMARK  1 active torsions:
REMARK  status: ('A' for Active; 'I' for Inactive)
REMARK    1  A    between atoms: C1_2  and  C2_3 
ROOT
ATOM      1  C2  UNL d   1      -1.455   0.475   1.164  0.00  0.00    -0.077 A 
ATOM      2  C3  UNL d   1      -0.473  -0.522   1.072  0.00  0.00     0.002 A 
ATOM      3  C4  UNL d   1       0.498  -0.467   0.071  0.00  0.00     0.002 A 
ATOM      4  C5  UNL d   1       0.501   0.584  -0.843  0.00  0.00    -0.004 A 
ATOM      5  C6  UNL d   1      -0.472   1.580  -0.761  0.00  0.00     0.002 A 
ATOM      6  C7  UNL d   1      -1.445   1.526   0.238  0.00  0.00     0.002 A 
ENDROOT
BRANCH   1   7
ATOM      7  C1  UNL d   1      -2.474   0.444   2.273  0.00  0.00     0.055 C 
ATOM      8  C   UNL d   1      -1.856   0.848   3.604  0.00  0.00     0.019 C 
ENDBRANCH   1   7
TORSDOF 1
ENDMDL
