MODEL 1
REMARK minimizedAffinity -2.50798178
REMARK minimizedRMSD -1
REMARK  1 active torsions:
REMARK  status: ('A' for Active; 'I' for Inactive)
REMARK    1  A    between atoms: C1_2  and  C2_3 
ROOT
ATOM      1  C2  UNL d   1       1.064   0.157  -1.845  0.00  0.00    -0.077 A 
ATOM      2  C3  UNL d   1       1.576  -1.122  -1.587  0.00  0.00     0.002 A 
ATOM      3  C4  UNL d   1       1.164  -1.833  -0.458  0.00  0.00     0.002 A 
ATOM      4  C5  UNL d   1       0.237  -1.274   0.419  0.00  0.00    -0.004 A 
ATOM      5  C6  UNL d   1      -0.277  -0.002   0.172  0.00  0.00     0.002 A 
ATOM      6  C7  UNL d   1       0.134   0.710  -0.955  0.00  0.00     0.002 A 
ENDROOT
BRANCH   1   7
ATOM      7  C1  UNL d   1       1.469   0.905  -3.089  0.00  0.00     0.055 C 
ATOM      8  C   UNL d   1       1.182   2.393  -2.957  0.00  0.00     0.019 C 
ENDBRANCH   1   7
TORSDOF 1
ENDMDL
