MODEL 1
REMARK minimizedAffinity -4.25064468
REMARK minimizedRMSD -1
REMARK  1 active torsions:
REMARK  status: ('A' for Active; 'I' for Inactive)
REMARK    1  A    between atoms: C1_2  and  C2_3 
ROOT
ATOM      1  C2  UNL d   1      -0.660   0.279   0.427  0.00  0.00    -0.077 A 
ATOM      2  C3  UNL d   1      -0.346  -1.065   0.182  0.00  0.00     0.002 A 
ATOM      3  C4  UNL d   1       0.789  -1.402  -0.558  0.00  0.00     0.002 A 
ATOM      4  C5  UNL d   1       1.621  -0.401  -1.055  0.00  0.00    -0.004 A 
ATOM      5  C6  UNL d   1       1.315   0.939  -0.819  0.00  0.00     0.002 A 
ATOM      6  C7  UNL d   1       0.181   1.277  -0.080  0.00  0.00     0.002 A 
ENDROOT
BRANCH   1   7
ATOM      7  C1  UNL d   1      -1.857   0.642   1.267  0.00  0.00     0.055 C 
ATOM      8  C   UNL d   1      -1.511   1.715   2.289  0.00  0.00     0.019 C 
ENDBRANCH   1   7
TORSDOF 1
ENDMDL
