MODEL 1
REMARK minimizedAffinity -4.63080692
REMARK minimizedRMSD -1
REMARK  1 active torsions:
REMARK  status: ('A' for Active; 'I' for Inactive)
REMARK    1  A    between atoms: N_2  and  C1_3 
ROOT
ATOM      1  C1  UNL d   1       0.149   1.639   0.062  0.00  0.00     0.143 A 
ATOM      2  C2  UNL d   1       1.011   0.566  -0.188  0.00  0.00    -0.057 A 
ATOM      3  C3  UNL d   1       0.593  -0.758  -0.007  0.00  0.00     0.033 A 
ATOM      4  C4  UNL d   1      -0.690  -1.032   0.456  0.00  0.00    -0.042 A 
ATOM      5  C5  UNL d   1      -1.555   0.020   0.734  0.00  0.00     0.033 A 
ATOM      6  C6  UNL d   1      -1.134   1.340   0.545  0.00  0.00    -0.057 A 
ENDROOT
BRANCH   1   7
ATOM      7  N   UNL d   1       0.537   2.980  -0.005  0.00  0.00    -0.732 N 
ATOM      8  C   UNL d   1       1.721   3.440   0.688  0.00  0.00     0.284 C 
ATOM      9  H3  UNL d   1       0.422   3.372  -0.936  0.00  0.00     0.395 HD
ENDBRANCH   1   7
TORSDOF 1
ENDMDL
