MODEL 1
REMARK minimizedAffinity -3.48061824
REMARK minimizedRMSD -1
REMARK  1 active torsions:
REMARK  status: ('A' for Active; 'I' for Inactive)
REMARK    1  A    between atoms: N_2  and  C1_3 
ROOT
ATOM      1  C1  UNL d   1      -0.123  -0.365   0.073  0.00  0.00     0.143 A 
ATOM      2  C2  UNL d   1      -1.342  -0.001   0.654  0.00  0.00    -0.057 A 
ATOM      3  C3  UNL d   1      -1.683   1.344   0.844  0.00  0.00     0.033 A 
ATOM      4  C4  UNL d   1      -0.794   2.351   0.482  0.00  0.00    -0.042 A 
ATOM      5  C5  UNL d   1       0.435   2.011  -0.074  0.00  0.00     0.033 A 
ATOM      6  C6  UNL d   1       0.766   0.667  -0.268  0.00  0.00    -0.057 A 
ENDROOT
BRANCH   1   7
ATOM      7  N   UNL d   1       0.315  -1.686  -0.052  0.00  0.00    -0.732 N 
ATOM      8  C   UNL d   1      -0.592  -2.725  -0.490  0.00  0.00     0.284 C 
ATOM      9  H3  UNL d   1       1.247  -1.750  -0.457  0.00  0.00     0.395 HD
ENDBRANCH   1   7
TORSDOF 1
ENDMDL
