MODEL 1
REMARK minimizedAffinity -5.33527136
REMARK minimizedRMSD -1
REMARK  1 active torsions:
REMARK  status: ('A' for Active; 'I' for Inactive)
REMARK    1  A    between atoms: N_2  and  C1_3 
ROOT
ATOM      1  C1  UNL d   1       0.121   0.601  -0.203  0.00  0.00     0.143 A 
ATOM      2  C2  UNL d   1       1.273   1.232  -0.684  0.00  0.00    -0.057 A 
ATOM      3  C3  UNL d   1       1.429   2.621  -0.601  0.00  0.00     0.033 A 
ATOM      4  C4  UNL d   1       0.418   3.409  -0.060  0.00  0.00    -0.042 A 
ATOM      5  C5  UNL d   1      -0.746   2.805   0.402  0.00  0.00     0.033 A 
ATOM      6  C6  UNL d   1      -0.892   1.417   0.323  0.00  0.00    -0.057 A 
ENDROOT
BRANCH   1   7
ATOM      7  N   UNL d   1      -0.135  -0.765  -0.346  0.00  0.00    -0.732 N 
ATOM      8  C   UNL d   1       0.777  -1.747   0.201  0.00  0.00     0.284 C 
ATOM      9  H3  UNL d   1      -1.118  -0.992  -0.215  0.00  0.00     0.395 HD
ENDBRANCH   1   7
TORSDOF 1
ENDMDL
