MODEL 1
REMARK minimizedAffinity -4.20715046
REMARK minimizedRMSD -1
REMARK  1 active torsions:
REMARK  status: ('A' for Active; 'I' for Inactive)
REMARK    1  A    between atoms: N_2  and  C1_3 
ROOT
ATOM      1  C1  UNL d   1       0.174   0.526   0.190  0.00  0.00     0.143 A 
ATOM      2  C2  UNL d   1      -1.120   1.057   0.188  0.00  0.00    -0.057 A 
ATOM      3  C3  UNL d   1      -1.340   2.434   0.060  0.00  0.00     0.033 A 
ATOM      4  C4  UNL d   1      -0.263   3.310  -0.039  0.00  0.00    -0.042 A 
ATOM      5  C5  UNL d   1       1.032   2.806  -0.014  0.00  0.00     0.033 A 
ATOM      6  C6  UNL d   1       1.245   1.430   0.107  0.00  0.00    -0.057 A 
ENDROOT
BRANCH   1   7
ATOM      7  N   UNL d   1       0.461  -0.823   0.412  0.00  0.00    -0.732 N 
ATOM      8  C   UNL d   1      -0.215  -1.855  -0.345  0.00  0.00     0.284 C 
ATOM      9  H3  UNL d   1       1.455  -0.991   0.550  0.00  0.00     0.395 HD
ENDBRANCH   1   7
TORSDOF 1
ENDMDL
