MODEL 1
REMARK minimizedAffinity -3.75699186
REMARK minimizedRMSD -1
REMARK  1 active torsions:
REMARK  status: ('A' for Active; 'I' for Inactive)
REMARK    1  A    between atoms: N_2  and  C1_3 
ROOT
ATOM      1  C1  UNL d   1       0.083  -0.005   0.004  0.00  0.00     0.143 A 
ATOM      2  C2  UNL d   1      -1.285   0.277   0.082  0.00  0.00    -0.057 A 
ATOM      3  C3  UNL d   1      -1.745   1.574   0.337  0.00  0.00     0.033 A 
ATOM      4  C4  UNL d   1      -0.842   2.610   0.549  0.00  0.00    -0.042 A 
ATOM      5  C5  UNL d   1       0.523   2.348   0.501  0.00  0.00     0.033 A 
ATOM      6  C6  UNL d   1       0.976   1.052   0.239  0.00  0.00    -0.057 A 
ENDROOT
BRANCH   1   7
ATOM      7  N   UNL d   1       0.605  -1.292  -0.149  0.00  0.00    -0.732 N 
ATOM      8  C   UNL d   1      -0.120  -2.297  -0.898  0.00  0.00     0.284 C 
ATOM      9  H3  UNL d   1       1.607  -1.287  -0.323  0.00  0.00     0.395 HD
ENDBRANCH   1   7
TORSDOF 1
ENDMDL
