MODEL 1
REMARK minimizedAffinity -4.02920294
REMARK minimizedRMSD -1
REMARK  1 active torsions:
REMARK  status: ('A' for Active; 'I' for Inactive)
REMARK    1  A    between atoms: N_2  and  C1_3 
ROOT
ATOM      1  C1  UNL d   1      -0.092  -0.155   0.230  0.00  0.00     0.143 A 
ATOM      2  C2  UNL d   1       0.831   0.829  -0.141  0.00  0.00    -0.057 A 
ATOM      3  C3  UNL d   1       0.466   2.179  -0.208  0.00  0.00     0.033 A 
ATOM      4  C4  UNL d   1      -0.842   2.567   0.067  0.00  0.00    -0.042 A 
ATOM      5  C5  UNL d   1      -1.782   1.603   0.414  0.00  0.00     0.033 A 
ATOM      6  C6  UNL d   1      -1.409   0.257   0.486  0.00  0.00    -0.057 A 
ENDROOT
BRANCH   1   7
ATOM      7  N   UNL d   1       0.184  -1.524   0.220  0.00  0.00    -0.732 N 
ATOM      8  C   UNL d   1      -0.062  -2.317  -0.965  0.00  0.00     0.284 C 
ATOM      9  H3  UNL d   1       1.055  -1.748   0.697  0.00  0.00     0.395 HD
ENDBRANCH   1   7
TORSDOF 1
ENDMDL
