MODEL 1
REMARK minimizedAffinity -2.81600285
REMARK minimizedRMSD -1
REMARK  1 active torsions:
REMARK  status: ('A' for Active; 'I' for Inactive)
REMARK    1  A    between atoms: N_2  and  C1_3 
ROOT
ATOM      1  C1  UNL d   1      -0.200   0.649   0.183  0.00  0.00     0.143 A 
ATOM      2  C2  UNL d   1       0.646   1.133  -0.821  0.00  0.00    -0.057 A 
ATOM      3  C3  UNL d   1       1.173   2.429  -0.764  0.00  0.00     0.033 A 
ATOM      4  C4  UNL d   1       0.838   3.277   0.287  0.00  0.00    -0.042 A 
ATOM      5  C5  UNL d   1      -0.021   2.826   1.282  0.00  0.00     0.033 A 
ATOM      6  C6  UNL d   1      -0.539   1.529   1.223  0.00  0.00    -0.057 A 
ENDROOT
BRANCH   1   7
ATOM      7  N   UNL d   1      -0.834  -0.594   0.133  0.00  0.00    -0.732 N 
ATOM      8  C   UNL d   1      -0.098  -1.782  -0.243  0.00  0.00     0.284 C 
ATOM      9  H3  UNL d   1      -1.480  -0.733   0.907  0.00  0.00     0.395 HD
ENDBRANCH   1   7
TORSDOF 1
ENDMDL
