MODEL 1
REMARK minimizedAffinity -4.71207285
REMARK minimizedRMSD -1
REMARK  1 active torsions:
REMARK  status: ('A' for Active; 'I' for Inactive)
REMARK    1  A    between atoms: N_2  and  C1_3 
ROOT
ATOM      1  C1  UNL d   1      -0.079   0.414   0.357  0.00  0.00     0.143 A 
ATOM      2  C2  UNL d   1      -0.772   1.404   1.061  0.00  0.00    -0.057 A 
ATOM      3  C3  UNL d   1      -0.522   2.764   0.838  0.00  0.00     0.033 A 
ATOM      4  C4  UNL d   1       0.450   3.157  -0.077  0.00  0.00    -0.042 A 
ATOM      5  C5  UNL d   1       1.168   2.190  -0.770  0.00  0.00     0.033 A 
ATOM      6  C6  UNL d   1       0.909   0.834  -0.547  0.00  0.00    -0.057 A 
ENDROOT
BRANCH   1   7
ATOM      7  N   UNL d   1      -0.212  -0.954   0.605  0.00  0.00    -0.732 N 
ATOM      8  C   UNL d   1       0.047  -1.922  -0.439  0.00  0.00     0.284 C 
ATOM      9  H3  UNL d   1       0.150  -1.221   1.518  0.00  0.00     0.395 HD
ENDBRANCH   1   7
TORSDOF 1
ENDMDL
