MODEL 1
REMARK minimizedAffinity -3.0722456
REMARK minimizedRMSD -1
REMARK  2 active torsions:
REMARK  status: ('A' for Active; 'I' for Inactive)
REMARK    1  A    between atoms: C2'_3  and  C1'_4 
REMARK    2  A    between atoms: C1'_4  and  C1_5 
ROOT
ATOM      1  C1  I4B d   1       1.459   0.902   1.136  0.00  0.00    -0.075 A 
ATOM      2  C2  I4B d   1       1.269   0.477   2.427  0.00  0.00     0.003 A 
ATOM      3  C3  I4B d   1       0.098  -0.238   2.777  0.00  0.00     0.002 A 
ATOM      4  C4  I4B d   1      -0.874  -0.460   1.823  0.00  0.00    -0.004 A 
ATOM      5  C5  I4B d   1      -0.669  -0.048   0.509  0.00  0.00     0.002 A 
ATOM      6  C6  I4B d   1       0.510   0.626   0.160  0.00  0.00     0.003 A 
ENDROOT
BRANCH   1   7
ATOM      7  C1' I4B d   1       2.691   1.684   0.809  0.00  0.00     0.060 C 
BRANCH   7   8
ATOM      8  C2' I4B d   1       2.276   2.890  -0.009  0.00  0.00    -0.013 C 
ATOM      9  C4' I4B d   1       3.039   4.120   0.408  0.00  0.00     0.013 C 
ATOM     10  C3' I4B d   1       2.511   2.572  -1.455  0.00  0.00     0.013 C 
ENDBRANCH   7   8
ENDBRANCH   1   7
TORSDOF 2
ENDMDL
