MODEL 1
REMARK minimizedAffinity -6.48643732
REMARK minimizedRMSD -1
REMARK  2 active torsions:
REMARK  status: ('A' for Active; 'I' for Inactive)
REMARK    1  A    between atoms: C2'_3  and  C1'_4 
REMARK    2  A    between atoms: C1'_4  and  C1_5 
ROOT
ATOM      1  C1  I4B d   1       0.026   0.208   0.365  0.00  0.00    -0.075 A 
ATOM      2  C2  I4B d   1      -1.105  -0.307   0.948  0.00  0.00     0.003 A 
ATOM      3  C3  I4B d   1      -1.031  -0.937   2.214  0.00  0.00     0.002 A 
ATOM      4  C4  I4B d   1       0.194  -1.074   2.834  0.00  0.00    -0.004 A 
ATOM      5  C5  I4B d   1       1.336  -0.531   2.252  0.00  0.00     0.002 A 
ATOM      6  C6  I4B d   1       1.250   0.125   1.016  0.00  0.00     0.003 A 
ENDROOT
BRANCH   1   7
ATOM      7  C1' I4B d   1      -0.083   0.837  -0.988  0.00  0.00     0.060 C 
BRANCH   7   8
ATOM      8  C2' I4B d   1       1.142   0.441  -1.787  0.00  0.00    -0.013 C 
ATOM      9  C4' I4B d   1       0.817  -0.641  -2.783  0.00  0.00     0.013 C 
ATOM     10  C3' I4B d   1       1.664   1.669  -2.471  0.00  0.00     0.013 C 
ENDBRANCH   7   8
ENDBRANCH   1   7
TORSDOF 2
ENDMDL
