MODEL 1
REMARK minimizedAffinity 0.539200306
REMARK minimizedRMSD -1
REMARK  2 active torsions:
REMARK  status: ('A' for Active; 'I' for Inactive)
REMARK    1  A    between atoms: C2'_3  and  C1'_4 
REMARK    2  A    between atoms: C1'_4  and  C1_5 
ROOT
ATOM      1  C1  I4B d   1       0.331  -1.618  -4.783  0.00  0.00    -0.075 A 
ATOM      2  C2  I4B d   1       1.404  -0.763  -4.824  0.00  0.00     0.003 A 
ATOM      3  C3  I4B d   1       2.380  -0.794  -3.799  0.00  0.00     0.002 A 
ATOM      4  C4  I4B d   1       2.219  -1.655  -2.732  0.00  0.00    -0.004 A 
ATOM      5  C5  I4B d   1       1.142  -2.537  -2.704  0.00  0.00     0.002 A 
ATOM      6  C6  I4B d   1       0.199  -2.527  -3.741  0.00  0.00     0.003 A 
ENDROOT
BRANCH   1   7
ATOM      7  C1' I4B d   1      -0.698  -1.536  -5.865  0.00  0.00     0.060 C 
BRANCH   7   8
ATOM      8  C2' I4B d   1      -1.811  -0.627  -5.383  0.00  0.00    -0.013 C 
ATOM      9  C4' I4B d   1      -1.624   0.779  -5.889  0.00  0.00     0.013 C 
ATOM     10  C3' I4B d   1      -3.114  -1.203  -5.851  0.00  0.00     0.013 C 
ENDBRANCH   7   8
ENDBRANCH   1   7
TORSDOF 2
ENDMDL
