MODEL 1
REMARK minimizedAffinity -2.58569288
REMARK minimizedRMSD -1
REMARK  2 active torsions:
REMARK  status: ('A' for Active; 'I' for Inactive)
REMARK    1  A    between atoms: C2'_3  and  C1'_4 
REMARK    2  A    between atoms: C1'_4  and  C1_5 
ROOT
ATOM      1  C1  I4B d   1       2.339   2.031   0.193  0.00  0.00    -0.075 A 
ATOM      2  C2  I4B d   1       1.543   2.681  -0.717  0.00  0.00     0.003 A 
ATOM      3  C3  I4B d   1       1.860   3.999  -1.128  0.00  0.00     0.002 A 
ATOM      4  C4  I4B d   1       2.946   4.642  -0.569  0.00  0.00    -0.004 A 
ATOM      5  C5  I4B d   1       3.765   3.973   0.336  0.00  0.00     0.002 A 
ATOM      6  C6  I4B d   1       3.467   2.655   0.711  0.00  0.00     0.003 A 
ENDROOT
BRANCH   1   7
ATOM      7  C1' I4B d   1       1.956   0.653   0.630  0.00  0.00     0.060 C 
BRANCH   7   8
ATOM      8  C2' I4B d   1       0.455   0.627   0.830  0.00  0.00    -0.013 C 
ATOM      9  C4' I4B d   1      -0.219  -0.234  -0.206  0.00  0.00     0.013 C 
ATOM     10  C3' I4B d   1       0.181   0.120   2.215  0.00  0.00     0.013 C 
ENDBRANCH   7   8
ENDBRANCH   1   7
TORSDOF 2
ENDMDL
