MODEL 1
REMARK minimizedAffinity -0.375913173
REMARK minimizedRMSD -1
REMARK  2 active torsions:
REMARK  status: ('A' for Active; 'I' for Inactive)
REMARK    1  A    between atoms: C2'_3  and  C1'_4 
REMARK    2  A    between atoms: C1'_4  and  C1_5 
ROOT
ATOM      1  C1  I4B d   1       0.885  -0.631  -2.618  0.00  0.00    -0.075 A 
ATOM      2  C2  I4B d   1       1.923  -0.231  -3.422  0.00  0.00     0.003 A 
ATOM      3  C3  I4B d   1       2.371  -1.065  -4.475  0.00  0.00     0.002 A 
ATOM      4  C4  I4B d   1       1.791  -2.304  -4.654  0.00  0.00    -0.004 A 
ATOM      5  C5  I4B d   1       0.724  -2.698  -3.853  0.00  0.00     0.002 A 
ATOM      6  C6  I4B d   1       0.260  -1.851  -2.836  0.00  0.00     0.003 A 
ENDROOT
BRANCH   1   7
ATOM      7  C1' I4B d   1       0.459   0.261  -1.495  0.00  0.00     0.060 C 
BRANCH   7   8
ATOM      8  C2' I4B d   1      -0.627  -0.455  -0.717  0.00  0.00    -0.013 C 
ATOM      9  C4' I4B d   1      -0.264  -0.577   0.739  0.00  0.00     0.013 C 
ATOM     10  C3' I4B d   1      -1.904   0.310  -0.895  0.00  0.00     0.013 C 
ENDBRANCH   7   8
ENDBRANCH   1   7
TORSDOF 2
ENDMDL
