MODEL 1
REMARK minimizedAffinity -3.87377119
REMARK minimizedRMSD -1
REMARK  2 active torsions:
REMARK  status: ('A' for Active; 'I' for Inactive)
REMARK    1  A    between atoms: C2'_3  and  C1'_4 
REMARK    2  A    between atoms: C1'_4  and  C1_5 
ROOT
ATOM      1  C1  I4B d   1       1.153   0.747   0.465  0.00  0.00    -0.075 A 
ATOM      2  C2  I4B d   1       1.471   0.408   1.757  0.00  0.00     0.003 A 
ATOM      3  C3  I4B d   1       0.513  -0.227   2.583  0.00  0.00     0.002 A 
ATOM      4  C4  I4B d   1      -0.758  -0.457   2.098  0.00  0.00    -0.004 A 
ATOM      5  C5  I4B d   1      -1.072  -0.134   0.780  0.00  0.00     0.002 A 
ATOM      6  C6  I4B d   1      -0.107   0.461  -0.045  0.00  0.00     0.003 A 
ENDROOT
BRANCH   1   7
ATOM      7  C1' I4B d   1       2.178   1.446  -0.370  0.00  0.00     0.060 C 
BRANCH   7   8
ATOM      8  C2' I4B d   1       2.188   2.907   0.029  0.00  0.00    -0.013 C 
ATOM      9  C4' I4B d   1       3.573   3.361   0.405  0.00  0.00     0.013 C 
ATOM     10  C3' I4B d   1       1.650   3.705  -1.122  0.00  0.00     0.013 C 
ENDBRANCH   7   8
ENDBRANCH   1   7
TORSDOF 2
ENDMDL
