MODEL 1
REMARK minimizedAffinity 1.52692616
REMARK minimizedRMSD -1
REMARK  2 active torsions:
REMARK  status: ('A' for Active; 'I' for Inactive)
REMARK    1  A    between atoms: C2'_3  and  C1'_4 
REMARK    2  A    between atoms: C1'_4  and  C1_5 
ROOT
ATOM      1  C1  I4B d   1       1.300  -1.332  -2.370  0.00  0.00    -0.075 A 
ATOM      2  C2  I4B d   1       2.102  -2.444  -2.425  0.00  0.00     0.003 A 
ATOM      3  C3  I4B d   1       1.724  -3.558  -3.214  0.00  0.00     0.002 A 
ATOM      4  C4  I4B d   1       0.519  -3.537  -3.886  0.00  0.00    -0.004 A 
ATOM      5  C5  I4B d   1      -0.282  -2.400  -3.847  0.00  0.00     0.002 A 
ATOM      6  C6  I4B d   1       0.115  -1.285  -3.095  0.00  0.00     0.003 A 
ENDROOT
BRANCH   1   7
ATOM      7  C1' I4B d   1       1.713  -0.186  -1.502  0.00  0.00     0.060 C 
BRANCH   7   8
ATOM      8  C2' I4B d   1       1.929   1.021  -2.392  0.00  0.00    -0.013 C 
ATOM      9  C4' I4B d   1       2.115   2.273  -1.577  0.00  0.00     0.013 C 
ATOM     10  C3' I4B d   1       3.126   0.752  -3.254  0.00  0.00     0.013 C 
ENDBRANCH   7   8
ENDBRANCH   1   7
TORSDOF 2
ENDMDL
