MODEL 1
REMARK minimizedAffinity 3.91790199
REMARK minimizedRMSD -1
REMARK  2 active torsions:
REMARK  status: ('A' for Active; 'I' for Inactive)
REMARK    1  A    between atoms: C2'_3  and  C1'_4 
REMARK    2  A    between atoms: C1'_4  and  C1_5 
ROOT
ATOM      1  C1  I4B d   1      -5.153   1.805   4.007  0.00  0.00    -0.075 A 
ATOM      2  C2  I4B d   1      -5.593   2.666   3.033  0.00  0.00     0.003 A 
ATOM      3  C3  I4B d   1      -6.000   3.979   3.373  0.00  0.00     0.002 A 
ATOM      4  C4  I4B d   1      -5.998   4.370   4.697  0.00  0.00    -0.004 A 
ATOM      5  C5  I4B d   1      -5.530   3.503   5.680  0.00  0.00     0.002 A 
ATOM      6  C6  I4B d   1      -5.093   2.216   5.332  0.00  0.00     0.003 A 
ENDROOT
BRANCH   1   7
ATOM      7  C1' I4B d   1      -4.763   0.414   3.617  0.00  0.00     0.060 C 
BRANCH   7   8
ATOM      8  C2' I4B d   1      -3.298   0.228   3.958  0.00  0.00    -0.013 C 
ATOM      9  C4' I4B d   1      -2.698  -0.912   3.179  0.00  0.00     0.013 C 
ATOM     10  C3' I4B d   1      -2.587   1.516   3.668  0.00  0.00     0.013 C 
ENDBRANCH   7   8
ENDBRANCH   1   7
TORSDOF 2
ENDMDL
