MODEL 1
REMARK minimizedAffinity 11.1266918
REMARK minimizedRMSD -1
REMARK  2 active torsions:
REMARK  status: ('A' for Active; 'I' for Inactive)
REMARK    1  A    between atoms: C2'_3  and  C1'_4 
REMARK    2  A    between atoms: C1'_4  and  C1_5 
ROOT
ATOM      1  C1  I4B d   1      -0.577  -1.744  -2.772  0.00  0.00    -0.075 A 
ATOM      2  C2  I4B d   1      -1.643  -0.901  -2.578  0.00  0.00     0.003 A 
ATOM      3  C3  I4B d   1      -1.499   0.255  -1.773  0.00  0.00     0.002 A 
ATOM      4  C4  I4B d   1      -0.296   0.500  -1.144  0.00  0.00    -0.004 A 
ATOM      5  C5  I4B d   1       0.790  -0.344  -1.360  0.00  0.00     0.002 A 
ATOM      6  C6  I4B d   1       0.652  -1.467  -2.189  0.00  0.00     0.003 A 
ENDROOT
BRANCH   1   7
ATOM      7  C1' I4B d   1      -0.773  -2.973  -3.602  0.00  0.00     0.060 C 
BRANCH   7   8
ATOM      8  C2' I4B d   1      -0.496  -2.610  -5.047  0.00  0.00    -0.013 C 
ATOM      9  C4' I4B d   1       0.891  -3.028  -5.458  0.00  0.00     0.013 C 
ATOM     10  C3' I4B d   1      -1.537  -3.274  -5.899  0.00  0.00     0.013 C 
ENDBRANCH   7   8
ENDBRANCH   1   7
TORSDOF 2
ENDMDL
