MODEL 1
REMARK minimizedAffinity 9.84014988
REMARK minimizedRMSD -1
REMARK  2 active torsions:
REMARK  status: ('A' for Active; 'I' for Inactive)
REMARK    1  A    between atoms: C2'_3  and  C1'_4 
REMARK    2  A    between atoms: C1'_4  and  C1_5 
ROOT
ATOM      1  C1  I4B d   1       1.032  -1.824  -4.882  0.00  0.00    -0.075 A 
ATOM      2  C2  I4B d   1       2.178  -1.462  -5.545  0.00  0.00     0.003 A 
ATOM      3  C3  I4B d   1       3.248  -0.858  -4.842  0.00  0.00     0.002 A 
ATOM      4  C4  I4B d   1       3.110  -0.589  -3.495  0.00  0.00    -0.004 A 
ATOM      5  C5  I4B d   1       1.957  -0.978  -2.820  0.00  0.00     0.002 A 
ATOM      6  C6  I4B d   1       0.915  -1.610  -3.515  0.00  0.00     0.003 A 
ENDROOT
BRANCH   1   7
ATOM      7  C1' I4B d   1      -0.091  -2.430  -5.662  0.00  0.00     0.060 C 
BRANCH   7   8
ATOM      8  C2' I4B d   1      -1.226  -2.719  -4.700  0.00  0.00    -0.013 C 
ATOM      9  C4' I4B d   1      -2.117  -1.517  -4.532  0.00  0.00     0.013 C 
ATOM     10  C3' I4B d   1      -1.994  -3.893  -5.229  0.00  0.00     0.013 C 
ENDBRANCH   7   8
ENDBRANCH   1   7
TORSDOF 2
ENDMDL
