MODEL 1
REMARK minimizedAffinity 2.31544399
REMARK minimizedRMSD -1
REMARK  2 active torsions:
REMARK  status: ('A' for Active; 'I' for Inactive)
REMARK    1  A    between atoms: C2'_3  and  C1'_4 
REMARK    2  A    between atoms: C1'_4  and  C1_5 
ROOT
ATOM      1  C1  I4B d   1      -1.602  -5.999   1.181  0.00  0.00    -0.075 A 
ATOM      2  C2  I4B d   1      -2.342  -5.988   2.336  0.00  0.00     0.003 A 
ATOM      3  C3  I4B d   1      -3.756  -5.961   2.277  0.00  0.00     0.002 A 
ATOM      4  C4  I4B d   1      -4.384  -5.894   1.050  0.00  0.00    -0.004 A 
ATOM      5  C5  I4B d   1      -3.633  -5.928  -0.122  0.00  0.00     0.002 A 
ATOM      6  C6  I4B d   1      -2.233  -5.994  -0.056  0.00  0.00     0.003 A 
ENDROOT
BRANCH   1   7
ATOM      7  C1' I4B d   1      -0.109  -5.996   1.280  0.00  0.00     0.060 C 
BRANCH   7   8
ATOM      8  C2' I4B d   1       0.264  -5.522   2.670  0.00  0.00    -0.013 C 
ATOM      9  C4' I4B d   1       1.671  -5.927   3.024  0.00  0.00     0.013 C 
ATOM     10  C3' I4B d   1       0.104  -4.031   2.710  0.00  0.00     0.013 C 
ENDBRANCH   7   8
ENDBRANCH   1   7
TORSDOF 2
ENDMDL
