MODEL 1
REMARK minimizedAffinity 4.70820618
REMARK minimizedRMSD -1
REMARK  2 active torsions:
REMARK  status: ('A' for Active; 'I' for Inactive)
REMARK    1  A    between atoms: C2'_3  and  C1'_4 
REMARK    2  A    between atoms: C1'_4  and  C1_5 
ROOT
ATOM      1  C1  I4B d   1      -2.781  -4.080   0.366  0.00  0.00    -0.075 A 
ATOM      2  C2  I4B d   1      -1.748  -3.989   1.264  0.00  0.00     0.003 A 
ATOM      3  C3  I4B d   1      -0.671  -4.907   1.207  0.00  0.00     0.002 A 
ATOM      4  C4  I4B d   1      -0.693  -5.923   0.274  0.00  0.00    -0.004 A 
ATOM      5  C5  I4B d   1      -1.730  -5.999  -0.651  0.00  0.00     0.002 A 
ATOM      6  C6  I4B d   1      -2.775  -5.065  -0.613  0.00  0.00     0.003 A 
ENDROOT
BRANCH   1   7
ATOM      7  C1' I4B d   1      -3.918  -3.114   0.475  0.00  0.00     0.060 C 
BRANCH   7   8
ATOM      8  C2' I4B d   1      -5.090  -3.843   1.101  0.00  0.00    -0.013 C 
ATOM      9  C4' I4B d   1      -5.998  -2.889   1.833  0.00  0.00     0.013 C 
ATOM     10  C3' I4B d   1      -5.826  -4.560   0.009  0.00  0.00     0.013 C 
ENDBRANCH   7   8
ENDBRANCH   1   7
TORSDOF 2
ENDMDL
