MODEL 1
REMARK minimizedAffinity -1.74317634
REMARK minimizedRMSD -1
REMARK  2 active torsions:
REMARK  status: ('A' for Active; 'I' for Inactive)
REMARK    1  A    between atoms: C2'_3  and  C1'_4 
REMARK    2  A    between atoms: C1'_4  and  C1_5 
ROOT
ATOM      1  C1  I4B d   1      -2.784  -5.150   1.452  0.00  0.00    -0.075 A 
ATOM      2  C2  I4B d   1      -3.836  -5.965   1.116  0.00  0.00     0.003 A 
ATOM      3  C3  I4B d   1      -4.955  -5.437   0.427  0.00  0.00     0.002 A 
ATOM      4  C4  I4B d   1      -5.002  -4.088   0.141  0.00  0.00    -0.004 A 
ATOM      5  C5  I4B d   1      -3.925  -3.268   0.462  0.00  0.00     0.002 A 
ATOM      6  C6  I4B d   1      -2.803  -3.804   1.111  0.00  0.00     0.003 A 
ENDROOT
BRANCH   1   7
ATOM      7  C1' I4B d   1      -1.634  -5.734   2.209  0.00  0.00     0.060 C 
BRANCH   7   8
ATOM      8  C2' I4B d   1      -0.357  -5.137   1.651  0.00  0.00    -0.013 C 
ATOM      9  C4' I4B d   1      -0.177  -3.714   2.107  0.00  0.00     0.013 C 
ATOM     10  C3' I4B d   1       0.788  -5.998   2.094  0.00  0.00     0.013 C 
ENDBRANCH   7   8
ENDBRANCH   1   7
TORSDOF 2
ENDMDL
