MODEL 1
REMARK minimizedAffinity 3.38315296
REMARK minimizedRMSD -1
REMARK  0 active torsions:
REMARK  status: ('A' for Active; 'I' for Inactive)
ROOT
ATOM      1  C   UNL d   1      -3.343   1.991   1.329  0.00  0.00    -0.002 A 
ATOM      2  C1  UNL d   1      -3.655   1.201   0.231  0.00  0.00     0.010 A 
ATOM      3  C2  UNL d   1      -2.819   0.149  -0.148  0.00  0.00     0.041 A 
ATOM      4  C3  UNL d   1      -1.654  -0.100   0.604  0.00  0.00    -0.075 A 
ATOM      5  S   UNL d   1      -0.483  -1.335   0.327  0.00  0.00     0.015 SA
ATOM      6  C4  UNL d   1       0.459  -0.845   1.660  0.00  0.00     0.022 A 
ATOM      7  C5  UNL d   1      -0.092   0.234   2.312  0.00  0.00     0.026 A 
ATOM      8  C6  UNL d   1      -1.319   0.680   1.714  0.00  0.00    -0.082 A 
ATOM      9  C7  UNL d   1      -2.186   1.740   2.072  0.00  0.00     0.045 A 
ENDROOT
TORSDOF 0
ENDMDL
