MODEL 1
REMARK minimizedAffinity 3.54968643
REMARK minimizedRMSD -1
REMARK  0 active torsions:
REMARK  status: ('A' for Active; 'I' for Inactive)
ROOT
ATOM      1  C   UNL d   1      -0.612  -1.060   1.076  0.00  0.00    -0.002 A 
ATOM      2  C1  UNL d   1       0.282   0.001   1.087  0.00  0.00     0.010 A 
ATOM      3  C2  UNL d   1       1.657  -0.228   1.012  0.00  0.00     0.041 A 
ATOM      4  C3  UNL d   1       2.123  -1.554   0.923  0.00  0.00    -0.075 A 
ATOM      5  S   UNL d   1       3.764  -2.074   0.820  0.00  0.00     0.015 SA
ATOM      6  C4  UNL d   1       3.317  -3.718   0.759  0.00  0.00     0.022 A 
ATOM      7  C5  UNL d   1       1.953  -3.884   0.815  0.00  0.00     0.026 A 
ATOM      8  C6  UNL d   1       1.243  -2.640   0.910  0.00  0.00    -0.082 A 
ATOM      9  C7  UNL d   1      -0.146  -2.375   0.988  0.00  0.00     0.045 A 
ENDROOT
TORSDOF 0
ENDMDL
