MODEL 1
REMARK minimizedAffinity 2.02484155
REMARK minimizedRMSD -1
REMARK  0 active torsions:
REMARK  status: ('A' for Active; 'I' for Inactive)
ROOT
ATOM      1  C   UNL d   1      -0.255  -0.388   1.398  0.00  0.00    -0.002 A 
ATOM      2  C1  UNL d   1      -0.530  -1.572   2.069  0.00  0.00     0.010 A 
ATOM      3  C2  UNL d   1       0.225  -2.720   1.822  0.00  0.00     0.041 A 
ATOM      4  C3  UNL d   1       1.273  -2.658   0.882  0.00  0.00    -0.075 A 
ATOM      5  S   UNL d   1       2.331  -3.937   0.419  0.00  0.00     0.015 SA
ATOM      6  C4  UNL d   1       3.174  -2.943  -0.680  0.00  0.00     0.022 A 
ATOM      7  C5  UNL d   1       2.673  -1.663  -0.705  0.00  0.00     0.026 A 
ATOM      8  C6  UNL d   1       1.570  -1.477   0.195  0.00  0.00    -0.082 A 
ATOM      9  C7  UNL d   1       0.785  -0.330   0.467  0.00  0.00     0.045 A 
ENDROOT
TORSDOF 0
ENDMDL
