MODEL 1
REMARK minimizedAffinity 8.58845997
REMARK minimizedRMSD -1
REMARK  0 active torsions:
REMARK  status: ('A' for Active; 'I' for Inactive)
ROOT
ATOM      1  C   UNL d   1      -0.095  -1.848   0.601  0.00  0.00    -0.002 A 
ATOM      2  C1  UNL d   1       0.795  -0.791   0.730  0.00  0.00     0.010 A 
ATOM      3  C2  UNL d   1       2.162  -0.984   0.523  0.00  0.00     0.041 A 
ATOM      4  C3  UNL d   1       2.624  -2.270   0.179  0.00  0.00    -0.075 A 
ATOM      5  S   UNL d   1       4.254  -2.742  -0.122  0.00  0.00     0.015 SA
ATOM      6  C4  UNL d   1       3.808  -4.358  -0.430  0.00  0.00     0.022 A 
ATOM      7  C5  UNL d   1       2.452  -4.550  -0.310  0.00  0.00     0.026 A 
ATOM      8  C6  UNL d   1       1.747  -3.350   0.043  0.00  0.00    -0.082 A 
ATOM      9  C7  UNL d   1       0.367  -3.122   0.259  0.00  0.00     0.045 A 
ENDROOT
TORSDOF 0
ENDMDL
