MODEL 1
REMARK minimizedAffinity 2.3409512
REMARK minimizedRMSD -1
REMARK  0 active torsions:
REMARK  status: ('A' for Active; 'I' for Inactive)
ROOT
ATOM      1  C   UNL d   1      -0.581  -1.035   1.007  0.00  0.00    -0.002 A 
ATOM      2  C1  UNL d   1       0.392  -0.202   1.540  0.00  0.00     0.010 A 
ATOM      3  C2  UNL d   1       1.746  -0.515   1.408  0.00  0.00     0.041 A 
ATOM      4  C3  UNL d   1       2.110  -1.690   0.722  0.00  0.00    -0.075 A 
ATOM      5  S   UNL d   1       3.707  -2.275   0.436  0.00  0.00     0.015 SA
ATOM      6  C4  UNL d   1       3.135  -3.644  -0.402  0.00  0.00     0.022 A 
ATOM      7  C5  UNL d   1       1.763  -3.671  -0.471  0.00  0.00     0.026 A 
ATOM      8  C6  UNL d   1       1.149  -2.545   0.175  0.00  0.00    -0.082 A 
ATOM      9  C7  UNL d   1      -0.216  -2.200   0.327  0.00  0.00     0.045 A 
ENDROOT
TORSDOF 0
ENDMDL
