MODEL 1
REMARK minimizedAffinity -0.900413334
REMARK minimizedRMSD -1
REMARK  0 active torsions:
REMARK  status: ('A' for Active; 'I' for Inactive)
ROOT
ATOM      1  C   UNL d   1      -0.692  -1.533   1.018  0.00  0.00    -0.002 A 
ATOM      2  C1  UNL d   1       0.090  -0.387   1.052  0.00  0.00     0.010 A 
ATOM      3  C2  UNL d   1       1.461  -0.455   0.799  0.00  0.00     0.041 A 
ATOM      4  C3  UNL d   1       2.039  -1.706   0.507  0.00  0.00    -0.075 A 
ATOM      5  S   UNL d   1       3.697  -2.031   0.164  0.00  0.00     0.015 SA
ATOM      6  C4  UNL d   1       3.407  -3.698  -0.037  0.00  0.00     0.022 A 
ATOM      7  C5  UNL d   1       2.083  -4.017   0.150  0.00  0.00     0.026 A 
ATOM      8  C6  UNL d   1       1.272  -2.874   0.466  0.00  0.00    -0.082 A 
ATOM      9  C7  UNL d   1      -0.115  -2.773   0.727  0.00  0.00     0.045 A 
ENDROOT
TORSDOF 0
ENDMDL
