MODEL 1
REMARK minimizedAffinity -2.99797463
REMARK minimizedRMSD -1
REMARK  0 active torsions:
REMARK  status: ('A' for Active; 'I' for Inactive)
ROOT
ATOM      1  C   UNL d   1       5.996   2.116   3.125  0.00  0.00     0.078 C 
ATOM      2  C1  UNL d   1       5.995   0.807   3.857  0.00  0.00    -0.077 A 
ATOM      3  C2  UNL d   1       5.976  -0.408   3.161  0.00  0.00    -0.001 A 
ATOM      4  C3  UNL d   1       5.965  -1.619   3.855  0.00  0.00     0.003 A 
ATOM      5  C4  UNL d   1       5.972  -1.627   5.248  0.00  0.00    -0.005 A 
ATOM      6  C5  UNL d   1       5.989  -0.423   5.949  0.00  0.00     0.003 A 
ATOM      7  C6  UNL d   1       6.000   0.789   5.257  0.00  0.00    -0.001 A 
ENDROOT
TORSDOF 0
ENDMDL
