MODEL 1
REMARK minimizedAffinity 0.337790549
REMARK minimizedRMSD -1
REMARK  0 active torsions:
REMARK  status: ('A' for Active; 'I' for Inactive)
ROOT
ATOM      1  C   UNL d   1       5.406   2.541   3.777  0.00  0.00     0.078 C 
ATOM      2  C1  UNL d   1       5.423   1.098   4.185  0.00  0.00    -0.077 A 
ATOM      3  C2  UNL d   1       4.868   0.109   3.362  0.00  0.00    -0.001 A 
ATOM      4  C3  UNL d   1       4.882  -1.229   3.759  0.00  0.00     0.003 A 
ATOM      5  C4  UNL d   1       5.448  -1.590   4.980  0.00  0.00    -0.005 A 
ATOM      6  C5  UNL d   1       6.000  -0.614   5.806  0.00  0.00     0.003 A 
ATOM      7  C6  UNL d   1       5.987   0.725   5.411  0.00  0.00    -0.001 A 
ENDROOT
TORSDOF 0
ENDMDL
