MODEL 1
REMARK minimizedAffinity 11.8867159
REMARK minimizedRMSD -1
REMARK  0 active torsions:
REMARK  status: ('A' for Active; 'I' for Inactive)
ROOT
ATOM      1  C   UNL d   1      -2.381   1.161   3.476  0.00  0.00     0.078 C 
ATOM      2  C1  UNL d   1      -1.749   2.138   2.531  0.00  0.00    -0.077 A 
ATOM      3  C2  UNL d   1      -1.803   1.940   1.146  0.00  0.00    -0.001 A 
ATOM      4  C3  UNL d   1      -1.202   2.853   0.278  0.00  0.00     0.003 A 
ATOM      5  C4  UNL d   1      -0.541   3.970   0.786  0.00  0.00    -0.005 A 
ATOM      6  C5  UNL d   1      -0.481   4.175   2.163  0.00  0.00     0.003 A 
ATOM      7  C6  UNL d   1      -1.081   3.263   3.032  0.00  0.00    -0.001 A 
ENDROOT
TORSDOF 0
ENDMDL
