MODEL 1
REMARK minimizedAffinity 1.34995127
REMARK minimizedRMSD -1
REMARK  0 active torsions:
REMARK  status: ('A' for Active; 'I' for Inactive)
ROOT
ATOM      1  C   UNL d   1       5.967  -3.416   4.930  0.00  0.00     0.078 C 
ATOM      2  C1  UNL d   1       5.970  -1.919   4.832  0.00  0.00    -0.077 A 
ATOM      3  C2  UNL d   1       5.987  -1.278   3.588  0.00  0.00    -0.001 A 
ATOM      4  C3  UNL d   1       6.000   0.116   3.512  0.00  0.00     0.003 A 
ATOM      5  C4  UNL d   1       5.996   0.880   4.677  0.00  0.00    -0.005 A 
ATOM      6  C5  UNL d   1       5.981   0.250   5.920  0.00  0.00     0.003 A 
ATOM      7  C6  UNL d   1       5.969  -1.143   5.998  0.00  0.00    -0.001 A 
ENDROOT
TORSDOF 0
ENDMDL
