MODEL 1
REMARK minimizedAffinity 0.99535042
REMARK minimizedRMSD -1
REMARK  0 active torsions:
REMARK  status: ('A' for Active; 'I' for Inactive)
ROOT
ATOM      1  C   UNL d   1      -1.896   1.084   3.339  0.00  0.00     0.078 C 
ATOM      2  C1  UNL d   1      -1.164   2.308   2.874  0.00  0.00    -0.077 A 
ATOM      3  C2  UNL d   1      -0.896   2.516   1.516  0.00  0.00    -0.001 A 
ATOM      4  C3  UNL d   1      -0.205   3.655   1.099  0.00  0.00     0.003 A 
ATOM      5  C4  UNL d   1       0.224   4.594   2.034  0.00  0.00    -0.005 A 
ATOM      6  C5  UNL d   1      -0.036   4.395   3.388  0.00  0.00     0.003 A 
ATOM      7  C6  UNL d   1      -0.726   3.257   3.807  0.00  0.00    -0.001 A 
ENDROOT
TORSDOF 0
ENDMDL
