MODEL 1
REMARK minimizedAffinity -1.38911915
REMARK minimizedRMSD -1
REMARK  0 active torsions:
REMARK  status: ('A' for Active; 'I' for Inactive)
ROOT
ATOM      1  C   UNL d   1       5.989   0.443   3.571  0.00  0.00     0.078 C 
ATOM      2  C1  UNL d   1       6.000   1.889   3.967  0.00  0.00    -0.077 A 
ATOM      3  C2  UNL d   1       5.996   2.267   5.315  0.00  0.00    -0.001 A 
ATOM      4  C3  UNL d   1       5.996   3.617   5.670  0.00  0.00     0.003 A 
ATOM      5  C4  UNL d   1       5.999   4.600   4.682  0.00  0.00    -0.005 A 
ATOM      6  C5  UNL d   1       6.000   4.233   3.337  0.00  0.00     0.003 A 
ATOM      7  C6  UNL d   1       6.000   2.883   2.981  0.00  0.00    -0.001 A 
ENDROOT
TORSDOF 0
ENDMDL
