MODEL 1
REMARK minimizedAffinity -3.54099989
REMARK minimizedRMSD -1
REMARK  0 active torsions:
REMARK  status: ('A' for Active; 'I' for Inactive)
ROOT
ATOM      1  C   UNL d   1       5.982   3.630   3.001  0.00  0.00     0.078 C 
ATOM      2  C1  UNL d   1       5.865   2.387   3.832  0.00  0.00    -0.077 A 
ATOM      3  C2  UNL d   1       5.931   1.118   3.245  0.00  0.00    -0.001 A 
ATOM      4  C3  UNL d   1       5.810  -0.030   4.030  0.00  0.00     0.003 A 
ATOM      5  C4  UNL d   1       5.621   0.080   5.406  0.00  0.00    -0.005 A 
ATOM      6  C5  UNL d   1       5.552   1.339   5.999  0.00  0.00     0.003 A 
ATOM      7  C6  UNL d   1       5.672   2.488   5.216  0.00  0.00    -0.001 A 
ENDROOT
TORSDOF 0
ENDMDL
