MODEL 1
REMARK minimizedAffinity -3.5563314
REMARK minimizedRMSD -1
REMARK  0 active torsions:
REMARK  status: ('A' for Active; 'I' for Inactive)
ROOT
ATOM      1  C   UNL d   1       5.094   3.036   4.123  0.00  0.00     0.078 C 
ATOM      2  C1  UNL d   1       5.286   1.588   4.462  0.00  0.00    -0.077 A 
ATOM      3  C2  UNL d   1       5.815   1.201   5.700  0.00  0.00    -0.001 A 
ATOM      4  C3  UNL d   1       5.997  -0.150   5.999  0.00  0.00     0.003 A 
ATOM      5  C4  UNL d   1       5.655  -1.126   5.064  0.00  0.00    -0.005 A 
ATOM      6  C5  UNL d   1       5.130  -0.750   3.829  0.00  0.00     0.003 A 
ATOM      7  C6  UNL d   1       4.947   0.600   3.529  0.00  0.00    -0.001 A 
ENDROOT
TORSDOF 0
ENDMDL
