MODEL 1
REMARK minimizedAffinity -3.64637399
REMARK minimizedRMSD -1
REMARK  0 active torsions:
REMARK  status: ('A' for Active; 'I' for Inactive)
ROOT
ATOM      1  C   UNL d   1       6.000   3.369   4.045  0.00  0.00     0.078 C 
ATOM      2  C1  UNL d   1       5.817   1.906   4.321  0.00  0.00    -0.077 A 
ATOM      3  C2  UNL d   1       5.922   0.960   3.294  0.00  0.00    -0.001 A 
ATOM      4  C3  UNL d   1       5.740  -0.397   3.563  0.00  0.00     0.003 A 
ATOM      5  C4  UNL d   1       5.449  -0.821   4.859  0.00  0.00    -0.005 A 
ATOM      6  C5  UNL d   1       5.340   0.114   5.887  0.00  0.00     0.003 A 
ATOM      7  C6  UNL d   1       5.522   1.471   5.619  0.00  0.00    -0.001 A 
ENDROOT
TORSDOF 0
ENDMDL
