MODEL 1
REMARK minimizedAffinity 2.42062449
REMARK minimizedRMSD -1
REMARK  0 active torsions:
REMARK  status: ('A' for Active; 'I' for Inactive)
ROOT
ATOM      1  C   UNL d   1       5.999   3.067   2.996  0.00  0.00     0.078 C 
ATOM      2  C1  UNL d   1       5.861   1.647   3.457  0.00  0.00    -0.077 A 
ATOM      3  C2  UNL d   1       5.999   1.310   4.809  0.00  0.00    -0.001 A 
ATOM      4  C3  UNL d   1       5.878  -0.017   5.222  0.00  0.00     0.003 A 
ATOM      5  C4  UNL d   1       5.619  -1.020   4.289  0.00  0.00    -0.005 A 
ATOM      6  C5  UNL d   1       5.482  -0.695   2.941  0.00  0.00     0.003 A 
ATOM      7  C6  UNL d   1       5.603   0.632   2.526  0.00  0.00    -0.001 A 
ENDROOT
TORSDOF 0
ENDMDL
