MODEL 1
REMARK minimizedAffinity -3.71060729
REMARK minimizedRMSD -1
REMARK  0 active torsions:
REMARK  status: ('A' for Active; 'I' for Inactive)
ROOT
ATOM      1  C   UNL d   1       5.659   3.310   4.073  0.00  0.00     0.078 C 
ATOM      2  C1  UNL d   1       5.736   1.828   4.291  0.00  0.00    -0.077 A 
ATOM      3  C2  UNL d   1       5.826   1.293   5.582  0.00  0.00    -0.001 A 
ATOM      4  C3  UNL d   1       5.907  -0.088   5.769  0.00  0.00     0.003 A 
ATOM      5  C4  UNL d   1       5.900  -0.945   4.670  0.00  0.00    -0.005 A 
ATOM      6  C5  UNL d   1       5.812  -0.421   3.382  0.00  0.00     0.003 A 
ATOM      7  C6  UNL d   1       5.731   0.960   3.193  0.00  0.00    -0.001 A 
ENDROOT
TORSDOF 0
ENDMDL
