MODEL 1
REMARK minimizedAffinity -2.74262476
REMARK minimizedRMSD -1
REMARK  0 active torsions:
REMARK  status: ('A' for Active; 'I' for Inactive)
ROOT
ATOM      1  C   UNL d   1       5.419  -1.026   5.511  0.00  0.00     0.078 C 
ATOM      2  C1  UNL d   1       5.432   0.251   4.725  0.00  0.00    -0.077 A 
ATOM      3  C2  UNL d   1       4.878   1.426   5.249  0.00  0.00    -0.001 A 
ATOM      4  C3  UNL d   1       4.888   2.605   4.502  0.00  0.00     0.003 A 
ATOM      5  C4  UNL d   1       5.449   2.620   3.226  0.00  0.00    -0.005 A 
ATOM      6  C5  UNL d   1       6.000   1.456   2.696  0.00  0.00     0.003 A 
ATOM      7  C6  UNL d   1       5.991   0.276   3.441  0.00  0.00    -0.001 A 
ENDROOT
TORSDOF 0
ENDMDL
