MODEL 1
REMARK minimizedAffinity -2.40148473
REMARK minimizedRMSD -1
REMARK  0 active torsions:
REMARK  status: ('A' for Active; 'I' for Inactive)
ROOT
ATOM      1  C   UNL d   1       5.702   4.971   4.805  0.00  0.00     0.078 C 
ATOM      2  C1  UNL d   1       5.732   3.472   4.812  0.00  0.00    -0.077 A 
ATOM      3  C2  UNL d   1       5.549   2.753   5.999  0.00  0.00    -0.001 A 
ATOM      4  C3  UNL d   1       5.589   1.358   5.993  0.00  0.00     0.003 A 
ATOM      5  C4  UNL d   1       5.813   0.670   4.802  0.00  0.00    -0.005 A 
ATOM      6  C5  UNL d   1       5.999   1.377   3.616  0.00  0.00     0.003 A 
ATOM      7  C6  UNL d   1       5.959   2.772   3.621  0.00  0.00    -0.001 A 
ENDROOT
TORSDOF 0
ENDMDL
