MODEL 1
REMARK minimizedAffinity -0.63826412
REMARK minimizedRMSD -1
REMARK  0 active torsions:
REMARK  status: ('A' for Active; 'I' for Inactive)
ROOT
ATOM      1  C   UNL d   1       5.991  -1.160   4.893  0.00  0.00     0.078 C 
ATOM      2  C1  UNL d   1       5.987   0.187   4.234  0.00  0.00    -0.077 A 
ATOM      3  C2  UNL d   1       5.991   0.308   2.839  0.00  0.00    -0.001 A 
ATOM      4  C3  UNL d   1       5.997   1.568   2.240  0.00  0.00     0.003 A 
ATOM      5  C4  UNL d   1       6.000   2.718   3.027  0.00  0.00    -0.005 A 
ATOM      6  C5  UNL d   1       5.998   2.607   4.416  0.00  0.00     0.003 A 
ATOM      7  C6  UNL d   1       5.992   1.348   5.018  0.00  0.00    -0.001 A 
ENDROOT
TORSDOF 0
ENDMDL
