MODEL 1
REMARK minimizedAffinity -2.05044532
REMARK minimizedRMSD -1
REMARK  0 active torsions:
REMARK  status: ('A' for Active; 'I' for Inactive)
ROOT
ATOM      1  C   UNL d   1       5.628   4.279   4.875  0.00  0.00     0.078 C 
ATOM      2  C1  UNL d   1       5.623   2.787   4.729  0.00  0.00    -0.077 A 
ATOM      3  C2  UNL d   1       6.000   1.957   5.791  0.00  0.00    -0.001 A 
ATOM      4  C3  UNL d   1       5.999   0.569   5.638  0.00  0.00     0.003 A 
ATOM      5  C4  UNL d   1       5.623   0.000   4.423  0.00  0.00    -0.005 A 
ATOM      6  C5  UNL d   1       5.248   0.818   3.359  0.00  0.00     0.003 A 
ATOM      7  C6  UNL d   1       5.249   2.206   3.511  0.00  0.00    -0.001 A 
ENDROOT
TORSDOF 0
ENDMDL
