MODEL 1
REMARK minimizedAffinity -2.55618477
REMARK minimizedRMSD -1
REMARK  1 active torsions:
REMARK  status: ('A' for Active; 'I' for Inactive)
REMARK    1  A    between atoms: C3_4  and  O_7 
ROOT
ATOM      1  C   UNL d   1       0.538  -1.908   2.219  0.00  0.00    -0.033 A 
ATOM      2  C1  UNL d   1      -0.520  -0.999   2.275  0.00  0.00     0.039 A 
ATOM      3  C2  UNL d   1      -0.828  -0.215   1.161  0.00  0.00    -0.080 A 
ATOM      4  C3  UNL d   1      -0.073  -0.351  -0.001  0.00  0.00     0.150 A 
ATOM      5  C4  UNL d   1       0.980  -1.258  -0.064  0.00  0.00    -0.007 A 
ATOM      6  C5  UNL d   1       1.287  -2.039   1.050  0.00  0.00     0.039 A 
ENDROOT
BRANCH   4   7
ATOM      7  O   UNL d   1      -0.333   0.395  -1.112  0.00  0.00    -0.526 OA
ATOM      8  H5  UNL d   1      -1.069   0.998  -0.912  0.00  0.00     0.418 HD
ENDBRANCH   4   7
TORSDOF 1
ENDMDL
