MODEL 1
REMARK minimizedAffinity -2.62012982
REMARK minimizedRMSD -1
REMARK  1 active torsions:
REMARK  status: ('A' for Active; 'I' for Inactive)
REMARK    1  A    between atoms: C3_4  and  O_7 
ROOT
ATOM      1  C   UNL d   1      -0.201  -1.067   1.971  0.00  0.00    -0.033 A 
ATOM      2  C1  UNL d   1      -0.387  -0.204   0.890  0.00  0.00     0.039 A 
ATOM      3  C2  UNL d   1       0.386  -0.350  -0.264  0.00  0.00    -0.080 A 
ATOM      4  C3  UNL d   1       1.338  -1.364  -0.325  0.00  0.00     0.150 A 
ATOM      5  C4  UNL d   1       1.526  -2.230   0.747  0.00  0.00    -0.007 A 
ATOM      6  C5  UNL d   1       0.755  -2.082   1.899  0.00  0.00     0.039 A 
ENDROOT
BRANCH   4   7
ATOM      7  O   UNL d   1       2.119  -1.543  -1.428  0.00  0.00    -0.526 OA
ATOM      8  H5  UNL d   1       1.898  -0.854  -2.077  0.00  0.00     0.418 HD
ENDBRANCH   4   7
TORSDOF 1
ENDMDL
