MODEL 1
REMARK minimizedAffinity -4.47709608
REMARK minimizedRMSD -1
REMARK  1 active torsions:
REMARK  status: ('A' for Active; 'I' for Inactive)
REMARK    1  A    between atoms: C3_4  and  O_7 
ROOT
ATOM      1  C   UNL d   1      -0.090   0.018  -0.055  0.00  0.00    -0.033 A 
ATOM      2  C1  UNL d   1       1.299  -0.018   0.081  0.00  0.00     0.039 A 
ATOM      3  C2  UNL d   1       1.875  -0.198   1.340  0.00  0.00    -0.080 A 
ATOM      4  C3  UNL d   1       1.052  -0.342   2.454  0.00  0.00     0.150 A 
ATOM      5  C4  UNL d   1      -0.332  -0.311   2.325  0.00  0.00    -0.007 A 
ATOM      6  C5  UNL d   1      -0.906  -0.130   1.067  0.00  0.00     0.039 A 
ENDROOT
BRANCH   4   7
ATOM      7  O   UNL d   1       1.568  -0.515   3.704  0.00  0.00    -0.526 OA
ATOM      8  H5  UNL d   1       2.538  -0.486   3.643  0.00  0.00     0.418 HD
ENDBRANCH   4   7
TORSDOF 1
ENDMDL
