MODEL 1
REMARK minimizedAffinity -5.75508928
REMARK minimizedRMSD -1
REMARK  1 active torsions:
REMARK  status: ('A' for Active; 'I' for Inactive)
REMARK    1  A    between atoms: C3_4  and  O_7 
ROOT
ATOM      1  C   UNL d   1       1.389  -1.194   2.452  0.00  0.00    -0.033 A 
ATOM      2  C1  UNL d   1       0.171  -0.515   2.401  0.00  0.00     0.039 A 
ATOM      3  C2  UNL d   1      -0.362  -0.124   1.171  0.00  0.00    -0.080 A 
ATOM      4  C3  UNL d   1       0.332  -0.420   0.001  0.00  0.00     0.150 A 
ATOM      5  C4  UNL d   1       1.544  -1.100   0.044  0.00  0.00    -0.007 A 
ATOM      6  C5  UNL d   1       2.075  -1.488   1.274  0.00  0.00     0.039 A 
ENDROOT
BRANCH   4   7
ATOM      7  O   UNL d   1      -0.146  -0.056  -1.223  0.00  0.00    -0.526 OA
ATOM      8  H5  UNL d   1      -0.977   0.432  -1.096  0.00  0.00     0.418 HD
ENDBRANCH   4   7
TORSDOF 1
ENDMDL
