MODEL 1
REMARK minimizedAffinity -5.3251977
REMARK minimizedRMSD -1
REMARK  1 active torsions:
REMARK  status: ('A' for Active; 'I' for Inactive)
REMARK    1  A    between atoms: C3_4  and  O_7 
ROOT
ATOM      1  C   UNL d   1      -0.708  -0.027  -0.108  0.00  0.00    -0.033 A 
ATOM      2  C1  UNL d   1       0.673  -0.234  -0.121  0.00  0.00     0.039 A 
ATOM      3  C2  UNL d   1       1.369  -0.391   1.080  0.00  0.00    -0.080 A 
ATOM      4  C3  UNL d   1       0.673  -0.340   2.284  0.00  0.00     0.150 A 
ATOM      5  C4  UNL d   1      -0.704  -0.138   2.304  0.00  0.00    -0.007 A 
ATOM      6  C5  UNL d   1      -1.396   0.020   1.105  0.00  0.00     0.039 A 
ENDROOT
BRANCH   4   7
ATOM      7  O   UNL d   1       1.309  -0.483   3.481  0.00  0.00    -0.526 OA
ATOM      8  H5  UNL d   1       2.260  -0.587   3.314  0.00  0.00     0.418 HD
ENDBRANCH   4   7
TORSDOF 1
ENDMDL
