MODEL 1
REMARK minimizedAffinity -5.02798986
REMARK minimizedRMSD -1
REMARK  1 active torsions:
REMARK  status: ('A' for Active; 'I' for Inactive)
REMARK    1  A    between atoms: C3_4  and  O_7 
ROOT
ATOM      1  C   UNL d   1       0.412  -1.126  -1.083  0.00  0.00    -0.033 A 
ATOM      2  C1  UNL d   1       1.629  -1.607  -0.598  0.00  0.00     0.039 A 
ATOM      3  C2  UNL d   1       1.953  -1.458   0.752  0.00  0.00    -0.080 A 
ATOM      4  C3  UNL d   1       1.051  -0.827   1.605  0.00  0.00     0.150 A 
ATOM      5  C4  UNL d   1      -0.165  -0.349   1.129  0.00  0.00    -0.007 A 
ATOM      6  C5  UNL d   1      -0.486  -0.498  -0.219  0.00  0.00     0.039 A 
ENDROOT
BRANCH   4   7
ATOM      7  O   UNL d   1       1.325  -0.654   2.929  0.00  0.00    -0.526 OA
ATOM      8  H5  UNL d   1       2.212  -1.008   3.109  0.00  0.00     0.418 HD
ENDBRANCH   4   7
TORSDOF 1
ENDMDL
