MODEL 1
REMARK minimizedAffinity -4.31970453
REMARK minimizedRMSD -1
REMARK  1 active torsions:
REMARK  status: ('A' for Active; 'I' for Inactive)
REMARK    1  A    between atoms: C3_4  and  O_7 
ROOT
ATOM      1  C   UNL d   1      -0.740  -0.191  -0.139  0.00  0.00    -0.033 A 
ATOM      2  C1  UNL d   1       0.645  -0.078  -0.276  0.00  0.00     0.039 A 
ATOM      3  C2  UNL d   1       1.460  -0.039   0.857  0.00  0.00    -0.080 A 
ATOM      4  C3  UNL d   1       0.878  -0.115   2.119  0.00  0.00     0.150 A 
ATOM      5  C4  UNL d   1      -0.500  -0.231   2.264  0.00  0.00    -0.007 A 
ATOM      6  C5  UNL d   1      -1.312  -0.269   1.131  0.00  0.00     0.039 A 
ENDROOT
BRANCH   4   7
ATOM      7  O   UNL d   1       1.632  -0.076   3.254  0.00  0.00    -0.526 OA
ATOM      8  H5  UNL d   1       2.564   0.036   3.001  0.00  0.00     0.418 HD
ENDBRANCH   4   7
TORSDOF 1
ENDMDL
