MODEL 1
REMARK minimizedAffinity -4.74696541
REMARK minimizedRMSD -1
REMARK  0 active torsions:
REMARK  status: ('A' for Active; 'I' for Inactive)
ROOT
ATOM      1  C   UNL d   1       1.508   4.212  -0.676  0.00  0.00     0.020 A 
ATOM      2  C1  UNL d   1       1.816   3.556  -1.867  0.00  0.00     0.020 A 
ATOM      3  C2  UNL d   1       1.744   2.163  -1.936  0.00  0.00     0.034 A 
ATOM      4  C3  UNL d   1       1.363   1.422  -0.812  0.00  0.00     0.017 A 
ATOM      5  C4  UNL d   1       1.054   2.081   0.383  0.00  0.00     0.017 A 
ATOM      6  C5  UNL d   1       1.128   3.476   0.447  0.00  0.00     0.034 A 
ATOM      7 Cl   UNL d   1       0.576   1.234   1.812  0.00  0.00    -0.070 Cl
ATOM      8 Cl1  UNL d   1       1.295  -0.298  -0.969  0.00  0.00    -0.070 Cl
ENDROOT
TORSDOF 0
ENDMDL
