MODEL 1
REMARK minimizedAffinity 0.48842752
REMARK minimizedRMSD -1
REMARK  0 active torsions:
REMARK  status: ('A' for Active; 'I' for Inactive)
ROOT
ATOM      1  C   UNL d   1       1.028   3.284  -2.158  0.00  0.00     0.020 A 
ATOM      2  C1  UNL d   1       1.297   3.760  -0.876  0.00  0.00     0.020 A 
ATOM      3  C2  UNL d   1       1.327   2.875   0.205  0.00  0.00     0.034 A 
ATOM      4  C3  UNL d   1       1.088   1.511   0.005  0.00  0.00     0.017 A 
ATOM      5  C4  UNL d   1       0.818   1.034  -1.283  0.00  0.00     0.017 A 
ATOM      6  C5  UNL d   1       0.789   1.924  -2.361  0.00  0.00     0.034 A 
ATOM      7 Cl   UNL d   1       0.513  -0.635  -1.608  0.00  0.00    -0.070 Cl
ATOM      8 Cl1  UNL d   1       1.142   0.475   1.386  0.00  0.00    -0.070 Cl
ENDROOT
TORSDOF 0
ENDMDL
