MODEL 1
REMARK minimizedAffinity -3.01055431
REMARK minimizedRMSD -1
REMARK  0 active torsions:
REMARK  status: ('A' for Active; 'I' for Inactive)
ROOT
ATOM      1  C   UNL d   1       1.509   2.323  -0.719  0.00  0.00     0.020 A 
ATOM      2  C1  UNL d   1       1.121   1.676   0.454  0.00  0.00     0.020 A 
ATOM      3  C2  UNL d   1       0.928   0.292   0.457  0.00  0.00     0.034 A 
ATOM      4  C3  UNL d   1       1.123  -0.448  -0.715  0.00  0.00     0.017 A 
ATOM      5  C4  UNL d   1       1.512   0.202  -1.891  0.00  0.00     0.017 A 
ATOM      6  C5  UNL d   1       1.704   1.588  -1.889  0.00  0.00     0.034 A 
ATOM      7 Cl   UNL d   1       1.772  -0.644  -3.376  0.00  0.00    -0.070 Cl
ATOM      8 Cl1  UNL d   1       0.867  -2.155  -0.638  0.00  0.00    -0.070 Cl
ENDROOT
TORSDOF 0
ENDMDL
