MODEL 1
REMARK minimizedAffinity -3.08079624
REMARK minimizedRMSD -1
REMARK  0 active torsions:
REMARK  status: ('A' for Active; 'I' for Inactive)
ROOT
ATOM      1  C   UNL d   1       1.598   2.545  -1.058  0.00  0.00     0.020 A 
ATOM      2  C1  UNL d   1       1.825   2.048   0.225  0.00  0.00     0.020 A 
ATOM      3  C2  UNL d   1       1.967   0.674   0.426  0.00  0.00     0.034 A 
ATOM      4  C3  UNL d   1       1.882  -0.209  -0.656  0.00  0.00     0.017 A 
ATOM      5  C4  UNL d   1       1.654   0.290  -1.944  0.00  0.00     0.017 A 
ATOM      6  C5  UNL d   1       1.513   1.668  -2.140  0.00  0.00     0.034 A 
ATOM      7 Cl   UNL d   1       1.537  -0.736  -3.329  0.00  0.00    -0.070 Cl
ATOM      8 Cl1  UNL d   1       2.067  -1.896  -0.334  0.00  0.00    -0.070 Cl
ENDROOT
TORSDOF 0
ENDMDL
