MODEL 1
REMARK minimizedAffinity -1.77493227
REMARK minimizedRMSD -1
REMARK  0 active torsions:
REMARK  status: ('A' for Active; 'I' for Inactive)
ROOT
ATOM      1  C   UNL d   1       1.134  -0.920  -1.686  0.00  0.00     0.020 A 
ATOM      2  C1  UNL d   1       1.085  -0.983  -0.294  0.00  0.00     0.020 A 
ATOM      3  C2  UNL d   1       1.131   0.192   0.459  0.00  0.00     0.034 A 
ATOM      4  C3  UNL d   1       1.227   1.434  -0.178  0.00  0.00     0.017 A 
ATOM      5  C4  UNL d   1       1.277   1.496  -1.576  0.00  0.00     0.017 A 
ATOM      6  C5  UNL d   1       1.230   0.317  -2.325  0.00  0.00     0.034 A 
ATOM      7 Cl   UNL d   1       1.396   2.991  -2.434  0.00  0.00    -0.070 Cl
ATOM      8 Cl1  UNL d   1       1.280   2.846   0.816  0.00  0.00    -0.070 Cl
ENDROOT
TORSDOF 0
ENDMDL
