MODEL 1
REMARK minimizedAffinity -1.68581057
REMARK minimizedRMSD -1
REMARK  0 active torsions:
REMARK  status: ('A' for Active; 'I' for Inactive)
ROOT
ATOM      1  C   UNL d   1       0.075  -3.223  -1.158  0.00  0.00     0.020 A 
ATOM      2  C1  UNL d   1       0.932  -3.712  -0.173  0.00  0.00     0.020 A 
ATOM      3  C2  UNL d   1       1.876  -2.867   0.414  0.00  0.00     0.034 A 
ATOM      4  C3  UNL d   1       1.965  -1.528   0.016  0.00  0.00     0.017 A 
ATOM      5  C4  UNL d   1       1.105  -1.038  -0.973  0.00  0.00     0.017 A 
ATOM      6  C5  UNL d   1       0.161  -1.889  -1.557  0.00  0.00     0.034 A 
ATOM      7 Cl   UNL d   1       1.155   0.602  -1.516  0.00  0.00    -0.070 Cl
ATOM      8 Cl1  UNL d   1       3.156  -0.539   0.784  0.00  0.00    -0.070 Cl
ENDROOT
TORSDOF 0
ENDMDL
