MODEL 1
REMARK minimizedAffinity -1.40561128
REMARK minimizedRMSD -1
REMARK  0 active torsions:
REMARK  status: ('A' for Active; 'I' for Inactive)
ROOT
ATOM      1  C   UNL d   1       1.388  -1.029  -0.133  0.00  0.00     0.020 A 
ATOM      2  C1  UNL d   1       0.455  -1.264  -1.142  0.00  0.00     0.020 A 
ATOM      3  C2  UNL d   1      -0.311  -0.210  -1.645  0.00  0.00     0.034 A 
ATOM      4  C3  UNL d   1      -0.144   1.085  -1.140  0.00  0.00     0.017 A 
ATOM      5  C4  UNL d   1       0.793   1.320  -0.127  0.00  0.00     0.017 A 
ATOM      6  C5  UNL d   1       1.556   0.261   0.373  0.00  0.00     0.034 A 
ATOM      7 Cl   UNL d   1       1.055   2.890   0.547  0.00  0.00    -0.070 Cl
ATOM      8 Cl1  UNL d   1      -1.124   2.341  -1.809  0.00  0.00    -0.070 Cl
ENDROOT
TORSDOF 0
ENDMDL
