MODEL 1
REMARK minimizedAffinity -2.73061466
REMARK minimizedRMSD -1
REMARK  0 active torsions:
REMARK  status: ('A' for Active; 'I' for Inactive)
ROOT
ATOM      1  C   UNL d   1       0.832   2.786  -1.484  0.00  0.00     0.020 A 
ATOM      2  C1  UNL d   1       1.180   3.536  -0.361  0.00  0.00     0.020 A 
ATOM      3  C2  UNL d   1       1.602   2.893   0.805  0.00  0.00     0.034 A 
ATOM      4  C3  UNL d   1       1.676   1.496   0.850  0.00  0.00     0.017 A 
ATOM      5  C4  UNL d   1       1.326   0.744  -0.277  0.00  0.00     0.017 A 
ATOM      6  C5  UNL d   1       0.905   1.393  -1.442  0.00  0.00     0.034 A 
ATOM      7 Cl   UNL d   1       1.392  -0.983  -0.296  0.00  0.00    -0.070 Cl
ATOM      8 Cl1  UNL d   1       2.205   0.768   2.325  0.00  0.00    -0.070 Cl
ENDROOT
TORSDOF 0
ENDMDL
