MODEL 1
REMARK minimizedAffinity 3.7346251
REMARK minimizedRMSD -1
REMARK  0 active torsions:
REMARK  status: ('A' for Active; 'I' for Inactive)
ROOT
ATOM      1  C   UNL d   1       1.628  -0.269  -2.611  0.00  0.00     0.020 A 
ATOM      2  C1  UNL d   1       0.703   0.743  -2.361  0.00  0.00     0.020 A 
ATOM      3  C2  UNL d   1       0.789   1.493  -1.187  0.00  0.00     0.034 A 
ATOM      4  C3  UNL d   1       1.803   1.232  -0.257  0.00  0.00     0.017 A 
ATOM      5  C4  UNL d   1       2.731   0.215  -0.509  0.00  0.00     0.017 A 
ATOM      6  C5  UNL d   1       2.640  -0.532  -1.687  0.00  0.00     0.034 A 
ATOM      7 Cl   UNL d   1       4.009  -0.165   0.590  0.00  0.00    -0.070 Cl
ATOM      8 Cl1  UNL d   1       1.849   2.199   1.174  0.00  0.00    -0.070 Cl
ENDROOT
TORSDOF 0
ENDMDL
