MODEL 1
REMARK minimizedAffinity -2.59563231
REMARK minimizedRMSD -1
REMARK  0 active torsions:
REMARK  status: ('A' for Active; 'I' for Inactive)
ROOT
ATOM      1  C   UNL d   1       1.323   3.950  -1.588  0.00  0.00     0.020 A 
ATOM      2  C1  UNL d   1       1.601   4.348  -0.281  0.00  0.00     0.020 A 
ATOM      3  C2  UNL d   1       1.718   3.391   0.729  0.00  0.00     0.034 A 
ATOM      4  C3  UNL d   1       1.556   2.032   0.435  0.00  0.00     0.017 A 
ATOM      5  C4  UNL d   1       1.277   1.634  -0.878  0.00  0.00     0.017 A 
ATOM      6  C5  UNL d   1       1.161   2.596  -1.886  0.00  0.00     0.034 A 
ATOM      7 Cl   UNL d   1       1.064  -0.023  -1.318  0.00  0.00    -0.070 Cl
ATOM      8 Cl1  UNL d   1       1.714   0.904   1.734  0.00  0.00    -0.070 Cl
ENDROOT
TORSDOF 0
ENDMDL
