MODEL 1
REMARK minimizedAffinity 3.13106728
REMARK minimizedRMSD -1
REMARK  0 active torsions:
REMARK  status: ('A' for Active; 'I' for Inactive)
ROOT
ATOM      1  C   UNL d   1       0.932  -2.608  -0.203  0.00  0.00     0.020 A 
ATOM      2  C1  UNL d   1       0.336  -2.111  -1.361  0.00  0.00     0.020 A 
ATOM      3  C2  UNL d   1       0.344  -0.738  -1.616  0.00  0.00     0.034 A 
ATOM      4  C3  UNL d   1       0.951   0.143  -0.713  0.00  0.00     0.017 A 
ATOM      5  C4  UNL d   1       1.549  -0.357   0.449  0.00  0.00     0.017 A 
ATOM      6  C5  UNL d   1       1.538  -1.733   0.700  0.00  0.00     0.034 A 
ATOM      7 Cl   UNL d   1       2.317   0.667   1.611  0.00  0.00    -0.070 Cl
ATOM      8 Cl1  UNL d   1       0.924   1.828  -1.093  0.00  0.00    -0.070 Cl
ENDROOT
TORSDOF 0
ENDMDL
