MODEL 1
REMARK minimizedAffinity -2.31173611
REMARK minimizedRMSD -1
REMARK  0 active torsions:
REMARK  status: ('A' for Active; 'I' for Inactive)
ROOT
ATOM      1  C   UNL d   1       1.229   0.637  -1.508  0.00  0.00     0.020 A 
ATOM      2  C1  UNL d   1       1.160   0.312  -0.153  0.00  0.00     0.020 A 
ATOM      3  C2  UNL d   1       1.222   1.321   0.810  0.00  0.00     0.034 A 
ATOM      4  C3  UNL d   1       1.355   2.659   0.421  0.00  0.00     0.017 A 
ATOM      5  C4  UNL d   1       1.424   2.983  -0.939  0.00  0.00     0.017 A 
ATOM      6  C5  UNL d   1       1.361   1.969  -1.899  0.00  0.00     0.034 A 
ATOM      7 Cl   UNL d   1       1.588   4.611  -1.496  0.00  0.00    -0.070 Cl
ATOM      8 Cl1  UNL d   1       1.425   3.855   1.666  0.00  0.00    -0.070 Cl
ENDROOT
TORSDOF 0
ENDMDL
