MODEL 1
REMARK minimizedAffinity 0.974227726
REMARK minimizedRMSD -1
REMARK  0 active torsions:
REMARK  status: ('A' for Active; 'I' for Inactive)
ROOT
ATOM      1  C   UNL d   1       1.865   2.479  -1.760  0.00  0.00     0.020 A 
ATOM      2  C1  UNL d   1       2.241   1.196  -2.154  0.00  0.00     0.020 A 
ATOM      3  C2  UNL d   1       1.811   0.087  -1.423  0.00  0.00     0.034 A 
ATOM      4  C3  UNL d   1       1.003   0.258  -0.294  0.00  0.00     0.017 A 
ATOM      5  C4  UNL d   1       0.625   1.547   0.102  0.00  0.00     0.017 A 
ATOM      6  C5  UNL d   1       1.059   2.654  -0.634  0.00  0.00     0.034 A 
ATOM      7 Cl   UNL d   1      -0.371   1.838   1.484  0.00  0.00    -0.070 Cl
ATOM      8 Cl1  UNL d   1       0.508  -1.158   0.563  0.00  0.00    -0.070 Cl
ENDROOT
TORSDOF 0
ENDMDL
