MODEL 1
REMARK minimizedAffinity -2.00680184
REMARK minimizedRMSD -1
REMARK  0 active torsions:
REMARK  status: ('A' for Active; 'I' for Inactive)
ROOT
ATOM      1  C   UNL d   1       0.718   0.164   0.012  0.00  0.00     0.020 A 
ATOM      2  C1  UNL d   1       0.976   1.065   1.045  0.00  0.00     0.020 A 
ATOM      3  C2  UNL d   1       1.279   2.396   0.751  0.00  0.00     0.034 A 
ATOM      4  C3  UNL d   1       1.325   2.831  -0.579  0.00  0.00     0.017 A 
ATOM      5  C4  UNL d   1       1.065   1.926  -1.615  0.00  0.00     0.017 A 
ATOM      6  C5  UNL d   1       0.762   0.594  -1.315  0.00  0.00     0.034 A 
ATOM      7 Cl   UNL d   1       1.103   2.389  -3.280  0.00  0.00    -0.070 Cl
ATOM      8 Cl1  UNL d   1       1.706   4.491  -0.868  0.00  0.00    -0.070 Cl
ENDROOT
TORSDOF 0
ENDMDL
