MODEL 1
REMARK minimizedAffinity -3.36407828
REMARK minimizedRMSD -1
REMARK  0 active torsions:
REMARK  status: ('A' for Active; 'I' for Inactive)
ROOT
ATOM      1  C   UNL d   1       1.322   0.463  -2.225  0.00  0.00     0.020 A 
ATOM      2  C1  UNL d   1       0.947  -0.201  -1.057  0.00  0.00     0.020 A 
ATOM      3  C2  UNL d   1       0.724   0.522   0.116  0.00  0.00     0.034 A 
ATOM      4  C3  UNL d   1       0.876   1.914   0.125  0.00  0.00     0.017 A 
ATOM      5  C4  UNL d   1       1.252   2.579  -1.047  0.00  0.00     0.017 A 
ATOM      6  C5  UNL d   1       1.474   1.850  -2.220  0.00  0.00     0.034 A 
ATOM      7 Cl   UNL d   1       1.460   4.294  -1.114  0.00  0.00    -0.070 Cl
ATOM      8 Cl1  UNL d   1       0.584   2.744   1.612  0.00  0.00    -0.070 Cl
ENDROOT
TORSDOF 0
ENDMDL
