MODEL 1
REMARK minimizedAffinity -3.55441618
REMARK minimizedRMSD -1
REMARK  0 active torsions:
REMARK  status: ('A' for Active; 'I' for Inactive)
ROOT
ATOM      1  C   UNL d   1       1.262   0.878   0.541  0.00  0.00     0.020 A 
ATOM      2  C1  UNL d   1       0.564   0.129  -0.406  0.00  0.00     0.020 A 
ATOM      3  C2  UNL d   1       0.257   0.687  -1.649  0.00  0.00     0.034 A 
ATOM      4  C3  UNL d   1       0.647   1.998  -1.948  0.00  0.00     0.017 A 
ATOM      5  C4  UNL d   1       1.348   2.748  -0.997  0.00  0.00     0.017 A 
ATOM      6  C5  UNL d   1       1.653   2.185   0.246  0.00  0.00     0.034 A 
ATOM      7 Cl   UNL d   1       1.863   4.371  -1.294  0.00  0.00    -0.070 Cl
ATOM      8 Cl1  UNL d   1       0.234   2.623  -3.505  0.00  0.00    -0.070 Cl
ENDROOT
TORSDOF 0
ENDMDL
