MODEL 1
REMARK minimizedAffinity 0.984465599
REMARK minimizedRMSD -1
REMARK  0 active torsions:
REMARK  status: ('A' for Active; 'I' for Inactive)
ROOT
ATOM      1  C   UNL d   1       1.043   0.704  -0.216  0.00  0.00     0.020 A 
ATOM      2  C1  UNL d   1       1.215   1.127  -1.534  0.00  0.00     0.020 A 
ATOM      3  C2  UNL d   1       1.527   2.461  -1.804  0.00  0.00     0.034 A 
ATOM      4  C3  UNL d   1       1.668   3.377  -0.755  0.00  0.00     0.017 A 
ATOM      5  C4  UNL d   1       1.494   2.952   0.567  0.00  0.00     0.017 A 
ATOM      6  C5  UNL d   1       1.182   1.615   0.832  0.00  0.00     0.034 A 
ATOM      7 Cl   UNL d   1       1.651   4.024   1.914  0.00  0.00    -0.070 Cl
ATOM      8 Cl1  UNL d   1       2.055   5.011  -1.162  0.00  0.00    -0.070 Cl
ENDROOT
TORSDOF 0
ENDMDL
