MODEL 1
REMARK minimizedAffinity 16.538168
REMARK minimizedRMSD -1
REMARK  0 active torsions:
REMARK  status: ('A' for Active; 'I' for Inactive)
ROOT
ATOM      1  C   UNL d   1      -1.654   0.047  -1.121  0.00  0.00     0.020 A 
ATOM      2  C1  UNL d   1      -3.040   0.198  -1.131  0.00  0.00     0.020 A 
ATOM      3  C2  UNL d   1      -3.623   1.246  -1.847  0.00  0.00     0.034 A 
ATOM      4  C3  UNL d   1      -2.820   2.147  -2.555  0.00  0.00     0.017 A 
ATOM      5  C4  UNL d   1      -1.428   1.995  -2.545  0.00  0.00     0.017 A 
ATOM      6  C5  UNL d   1      -0.850   0.944  -1.826  0.00  0.00     0.034 A 
ATOM      7 Cl   UNL d   1      -0.372   3.066  -3.395  0.00  0.00    -0.070 Cl
ATOM      8 Cl1  UNL d   1      -3.608   3.419  -3.419  0.00  0.00    -0.070 Cl
ENDROOT
TORSDOF 0
ENDMDL
