MODEL 1
REMARK minimizedAffinity 8.65164661
REMARK minimizedRMSD -1
REMARK  0 active torsions:
REMARK  status: ('A' for Active; 'I' for Inactive)
ROOT
ATOM      1  C   UNL d   1      -3.329   1.641   4.610  0.00  0.00     0.020 A 
ATOM      2  C1  UNL d   1      -4.213   2.103   5.585  0.00  0.00     0.020 A 
ATOM      3  C2  UNL d   1      -4.161   3.436   5.999  0.00  0.00     0.034 A 
ATOM      4  C3  UNL d   1      -3.224   4.311   5.439  0.00  0.00     0.017 A 
ATOM      5  C4  UNL d   1      -2.337   3.847   4.461  0.00  0.00     0.017 A 
ATOM      6  C5  UNL d   1      -2.393   2.512   4.049  0.00  0.00     0.034 A 
ATOM      7 Cl   UNL d   1      -1.153   4.867   3.723  0.00  0.00    -0.070 Cl
ATOM      8 Cl1  UNL d   1      -3.217   5.946   5.999  0.00  0.00    -0.070 Cl
ENDROOT
TORSDOF 0
ENDMDL
