MODEL 1
REMARK minimizedAffinity 16.5409756
REMARK minimizedRMSD -1
REMARK  0 active torsions:
REMARK  status: ('A' for Active; 'I' for Inactive)
ROOT
ATOM      1  C   UNL d   1      -6.000   2.400  -5.600  0.00  0.00     0.020 A 
ATOM      2  C1  UNL d   1      -5.382   1.231  -5.157  0.00  0.00     0.020 A 
ATOM      3  C2  UNL d   1      -4.223   1.305  -4.381  0.00  0.00     0.034 A 
ATOM      4  C3  UNL d   1      -3.678   2.550  -4.046  0.00  0.00     0.017 A 
ATOM      5  C4  UNL d   1      -4.300   3.722  -4.491  0.00  0.00     0.017 A 
ATOM      6  C5  UNL d   1      -5.460   3.643  -5.267  0.00  0.00     0.034 A 
ATOM      7 Cl   UNL d   1      -3.687   5.295  -4.117  0.00  0.00    -0.070 Cl
ATOM      8 Cl1  UNL d   1      -2.244   2.566  -3.083  0.00  0.00    -0.070 Cl
ENDROOT
TORSDOF 0
ENDMDL
