MODEL 1
REMARK minimizedAffinity 6.30707359
REMARK minimizedRMSD -1
REMARK  0 active torsions:
REMARK  status: ('A' for Active; 'I' for Inactive)
ROOT
ATOM      1  C   UNL d   1      -2.626   1.779  -2.555  0.00  0.00     0.020 A 
ATOM      2  C1  UNL d   1      -2.491   3.027  -3.160  0.00  0.00     0.020 A 
ATOM      3  C2  UNL d   1      -3.447   3.465  -4.079  0.00  0.00     0.034 A 
ATOM      4  C3  UNL d   1      -4.542   2.652  -4.396  0.00  0.00     0.017 A 
ATOM      5  C4  UNL d   1      -4.676   1.399  -3.788  0.00  0.00     0.017 A 
ATOM      6  C5  UNL d   1      -3.716   0.966  -2.868  0.00  0.00     0.034 A 
ATOM      7 Cl   UNL d   1      -6.000   0.341  -4.129  0.00  0.00    -0.070 Cl
ATOM      8 Cl1  UNL d   1      -5.686   3.256  -5.542  0.00  0.00    -0.070 Cl
ENDROOT
TORSDOF 0
ENDMDL
