MODEL 1
REMARK minimizedAffinity 5.56333351
REMARK minimizedRMSD -1
REMARK  0 active torsions:
REMARK  status: ('A' for Active; 'I' for Inactive)
ROOT
ATOM      1  C   UNL d   1       1.012  -0.327   2.892  0.00  0.00     0.020 A 
ATOM      2  C1  UNL d   1       0.056  -1.137   3.504  0.00  0.00     0.020 A 
ATOM      3  C2  UNL d   1      -0.095  -2.465   3.102  0.00  0.00     0.034 A 
ATOM      4  C3  UNL d   1       0.710  -2.989   2.084  0.00  0.00     0.017 A 
ATOM      5  C4  UNL d   1       1.669  -2.176   1.469  0.00  0.00     0.017 A 
ATOM      6  C5  UNL d   1       1.817  -0.846   1.876  0.00  0.00     0.034 A 
ATOM      7 Cl   UNL d   1       2.700  -2.750   0.207  0.00  0.00    -0.070 Cl
ATOM      8 Cl1  UNL d   1       0.468  -4.640   1.637  0.00  0.00    -0.070 Cl
ENDROOT
TORSDOF 0
ENDMDL
