MODEL 1
REMARK minimizedAffinity 5.42833138
REMARK minimizedRMSD -1
REMARK  0 active torsions:
REMARK  status: ('A' for Active; 'I' for Inactive)
ROOT
ATOM      1  C   UNL d   1       3.336   5.089   5.499  0.00  0.00     0.020 A 
ATOM      2  C1  UNL d   1       2.366   5.999   5.916  0.00  0.00     0.020 A 
ATOM      3  C2  UNL d   1       1.105   6.000   5.315  0.00  0.00     0.034 A 
ATOM      4  C3  UNL d   1       0.812   5.088   4.294  0.00  0.00     0.017 A 
ATOM      5  C4  UNL d   1       1.787   4.175   3.876  0.00  0.00     0.017 A 
ATOM      6  C5  UNL d   1       3.048   4.179   4.482  0.00  0.00     0.034 A 
ATOM      7 Cl   UNL d   1       1.500   3.020   2.623  0.00  0.00    -0.070 Cl
ATOM      8 Cl1  UNL d   1      -0.767   5.145   3.595  0.00  0.00    -0.070 Cl
ENDROOT
TORSDOF 0
ENDMDL
