MODEL 1
REMARK minimizedAffinity 11.2996988
REMARK minimizedRMSD -1
REMARK  0 active torsions:
REMARK  status: ('A' for Active; 'I' for Inactive)
ROOT
ATOM      1  C   UNL d   1       0.885  -2.973   0.980  0.00  0.00     0.020 A 
ATOM      2  C1  UNL d   1       1.578  -1.867   1.470  0.00  0.00     0.020 A 
ATOM      3  C2  UNL d   1       2.931  -1.701   1.169  0.00  0.00     0.034 A 
ATOM      4  C3  UNL d   1       3.597  -2.643   0.376  0.00  0.00     0.017 A 
ATOM      5  C4  UNL d   1       2.900  -3.753  -0.115  0.00  0.00     0.017 A 
ATOM      6  C5  UNL d   1       1.545  -3.914   0.189  0.00  0.00     0.034 A 
ATOM      7 Cl   UNL d   1       3.653  -4.958  -1.100  0.00  0.00    -0.070 Cl
ATOM      8 Cl1  UNL d   1       5.271  -2.375   0.044  0.00  0.00    -0.070 Cl
ENDROOT
TORSDOF 0
ENDMDL
