MODEL 1
REMARK minimizedAffinity 10.0912609
REMARK minimizedRMSD -1
REMARK  0 active torsions:
REMARK  status: ('A' for Active; 'I' for Inactive)
ROOT
ATOM      1  C   UNL d   1       2.679  -3.479   0.656  0.00  0.00     0.020 A 
ATOM      2  C1  UNL d   1       1.607  -2.658   0.308  0.00  0.00     0.020 A 
ATOM      3  C2  UNL d   1       1.099  -1.743   1.233  0.00  0.00     0.034 A 
ATOM      4  C3  UNL d   1       1.663  -1.647   2.510  0.00  0.00     0.017 A 
ATOM      5  C4  UNL d   1       2.738  -2.472   2.859  0.00  0.00     0.017 A 
ATOM      6  C5  UNL d   1       3.243  -3.386   1.929  0.00  0.00     0.034 A 
ATOM      7 Cl   UNL d   1       3.486  -2.412   4.416  0.00  0.00    -0.070 Cl
ATOM      8 Cl1  UNL d   1       0.984  -0.494   3.603  0.00  0.00    -0.070 Cl
ENDROOT
TORSDOF 0
ENDMDL
