MODEL 1
REMARK minimizedAffinity 9.05515862
REMARK minimizedRMSD -1
REMARK  0 active torsions:
REMARK  status: ('A' for Active; 'I' for Inactive)
ROOT
ATOM      1  C   UNL d   1       5.999   5.061   4.255  0.00  0.00     0.020 A 
ATOM      2  C1  UNL d   1       5.584   5.982   5.215  0.00  0.00     0.020 A 
ATOM      3  C2  UNL d   1       4.254   5.999   5.638  0.00  0.00     0.034 A 
ATOM      4  C3  UNL d   1       3.333   5.092   5.101  0.00  0.00     0.017 A 
ATOM      5  C4  UNL d   1       3.750   4.167   4.137  0.00  0.00     0.017 A 
ATOM      6  C5  UNL d   1       5.084   4.155   3.717  0.00  0.00     0.034 A 
ATOM      7 Cl   UNL d   1       2.672   3.018   3.428  0.00  0.00    -0.070 Cl
ATOM      8 Cl1  UNL d   1       1.703   5.169   5.670  0.00  0.00    -0.070 Cl
ENDROOT
TORSDOF 0
ENDMDL
