MODEL 1
REMARK minimizedAffinity 13.8064013
REMARK minimizedRMSD -1
REMARK  0 active torsions:
REMARK  status: ('A' for Active; 'I' for Inactive)
ROOT
ATOM      1  C   UNL d   1      -1.375  -0.043  -1.358  0.00  0.00     0.020 A 
ATOM      2  C1  UNL d   1      -2.726   0.250  -1.176  0.00  0.00     0.020 A 
ATOM      3  C2  UNL d   1      -3.309   1.312  -1.870  0.00  0.00     0.034 A 
ATOM      4  C3  UNL d   1      -2.541   2.086  -2.748  0.00  0.00     0.017 A 
ATOM      5  C4  UNL d   1      -1.185   1.791  -2.929  0.00  0.00     0.017 A 
ATOM      6  C5  UNL d   1      -0.606   0.726  -2.232  0.00  0.00     0.034 A 
ATOM      7 Cl   UNL d   1      -0.173   2.700  -3.995  0.00  0.00    -0.070 Cl
ATOM      8 Cl1  UNL d   1      -3.327   3.385  -3.573  0.00  0.00    -0.070 Cl
ENDROOT
TORSDOF 0
ENDMDL
