MODEL 1
REMARK minimizedAffinity 15.2423649
REMARK minimizedRMSD -1
REMARK  0 active torsions:
REMARK  status: ('A' for Active; 'I' for Inactive)
ROOT
ATOM      1  C   UNL d   1       4.331   5.638  -5.864  0.00  0.00     0.020 A 
ATOM      2  C1  UNL d   1       4.680   4.311  -5.618  0.00  0.00     0.020 A 
ATOM      3  C2  UNL d   1       3.684   3.343  -5.472  0.00  0.00     0.034 A 
ATOM      4  C3  UNL d   1       2.334   3.701  -5.572  0.00  0.00     0.017 A 
ATOM      5  C4  UNL d   1       1.985   5.034  -5.819  0.00  0.00     0.017 A 
ATOM      6  C5  UNL d   1       2.987   5.999  -5.964  0.00  0.00     0.034 A 
ATOM      7 Cl   UNL d   1       0.342   5.552  -5.954  0.00  0.00    -0.070 Cl
ATOM      8 Cl1  UNL d   1       1.155   2.453  -5.381  0.00  0.00    -0.070 Cl
ENDROOT
TORSDOF 0
ENDMDL
