MODEL 1
REMARK minimizedAffinity 12.6591187
REMARK minimizedRMSD -1
REMARK  0 active torsions:
REMARK  status: ('A' for Active; 'I' for Inactive)
ROOT
ATOM      1  C   UNL d   1       2.056  -3.202   0.084  0.00  0.00     0.020 A 
ATOM      2  C1  UNL d   1       3.071  -2.314   0.437  0.00  0.00     0.020 A 
ATOM      3  C2  UNL d   1       2.817  -1.292   1.354  0.00  0.00     0.034 A 
ATOM      4  C3  UNL d   1       1.544  -1.156   1.922  0.00  0.00     0.017 A 
ATOM      5  C4  UNL d   1       0.526  -2.049   1.567  0.00  0.00     0.017 A 
ATOM      6  C5  UNL d   1       0.786  -3.070   0.648  0.00  0.00     0.034 A 
ATOM      7 Cl   UNL d   1      -1.068  -1.944   2.226  0.00  0.00    -0.070 Cl
ATOM      8 Cl1  UNL d   1       1.301   0.130   3.050  0.00  0.00    -0.070 Cl
ENDROOT
TORSDOF 0
ENDMDL
