MODEL 1
REMARK minimizedAffinity 5.42180777
REMARK minimizedRMSD -1
REMARK  0 active torsions:
REMARK  status: ('A' for Active; 'I' for Inactive)
ROOT
ATOM      1  C   UNL d   1       0.171   2.410  -3.435  0.00  0.00     0.020 A 
ATOM      2  C1  UNL d   1      -0.061   2.637  -4.791  0.00  0.00     0.020 A 
ATOM      3  C2  UNL d   1      -1.344   2.472  -5.317  0.00  0.00     0.034 A 
ATOM      4  C3  UNL d   1      -2.400   2.079  -4.486  0.00  0.00     0.017 A 
ATOM      5  C4  UNL d   1      -2.166   1.852  -3.125  0.00  0.00     0.017 A 
ATOM      6  C5  UNL d   1      -0.880   2.019  -2.604  0.00  0.00     0.034 A 
ATOM      7 Cl   UNL d   1      -3.419   1.365  -2.038  0.00  0.00    -0.070 Cl
ATOM      8 Cl1  UNL d   1      -3.961   1.895  -5.204  0.00  0.00    -0.070 Cl
ENDROOT
TORSDOF 0
ENDMDL
