MODEL 1
REMARK minimizedAffinity 1.35679519
REMARK minimizedRMSD -1
REMARK  1 active torsions:
REMARK  status: ('A' for Active; 'I' for Inactive)
REMARK    1  A    between atoms: C1_2  and  C2_3 
ROOT
ATOM      1  C2  UNL d   1      -2.454   5.940   4.987  0.00  0.00    -0.081 A 
ATOM      2  C3  UNL d   1      -2.213   5.952   3.608  0.00  0.00     0.006 A 
ATOM      3  C4  UNL d   1      -3.278   5.959   2.703  0.00  0.00     0.002 A 
ATOM      4  C5  UNL d   1      -4.599   5.962   3.162  0.00  0.00    -0.080 A 
ATOM      5  C6  UNL d   1      -5.751   6.000   2.202  0.00  0.00     0.076 C 
ATOM      6  C7  UNL d   1      -4.840   5.932   4.540  0.00  0.00     0.002 A 
ATOM      7  C8  UNL d   1      -3.776   5.924   5.445  0.00  0.00     0.006 A 
ENDROOT
BRANCH   1   8
ATOM      8  C1  UNL d   1      -1.309   5.997   5.965  0.00  0.00     0.054 C 
ATOM      9  C   UNL d   1       0.033   6.000   5.247  0.00  0.00     0.018 C 
ENDBRANCH   1   8
TORSDOF 1
ENDMDL
