MODEL 1
REMARK minimizedAffinity -2.39753127
REMARK minimizedRMSD -1
REMARK  1 active torsions:
REMARK  status: ('A' for Active; 'I' for Inactive)
REMARK    1  A    between atoms: C1_2  and  C2_3 
ROOT
ATOM      1  C2  UNL d   1       1.310   0.172  -2.855  0.00  0.00    -0.081 A 
ATOM      2  C3  UNL d   1       1.113  -0.269  -4.169  0.00  0.00     0.006 A 
ATOM      3  C4  UNL d   1       1.187  -1.629  -4.479  0.00  0.00     0.002 A 
ATOM      4  C5  UNL d   1       1.452  -2.571  -3.479  0.00  0.00    -0.080 A 
ATOM      5  C6  UNL d   1       1.505  -4.037  -3.793  0.00  0.00     0.076 C 
ATOM      6  C7  UNL d   1       1.666  -2.129  -2.169  0.00  0.00     0.002 A 
ATOM      7  C8  UNL d   1       1.593  -0.770  -1.859  0.00  0.00     0.006 A 
ENDROOT
BRANCH   1   8
ATOM      8  C1  UNL d   1       1.166   1.631  -2.506  0.00  0.00     0.054 C 
ATOM      9  C   UNL d   1       1.578   2.522  -3.669  0.00  0.00     0.018 C 
ENDBRANCH   1   8
TORSDOF 1
ENDMDL
