MODEL 1
REMARK minimizedAffinity 0.323783726
REMARK minimizedRMSD -1
REMARK  1 active torsions:
REMARK  status: ('A' for Active; 'I' for Inactive)
REMARK    1  A    between atoms: C1_2  and  C2_3 
ROOT
ATOM      1  C2  UNL d   1       1.292   1.159  -2.451  0.00  0.00    -0.081 A 
ATOM      2  C3  UNL d   1       1.103   0.748  -1.125  0.00  0.00     0.006 A 
ATOM      3  C4  UNL d   1       1.416  -0.557  -0.737  0.00  0.00     0.002 A 
ATOM      4  C5  UNL d   1       1.931  -1.469  -1.665  0.00  0.00    -0.080 A 
ATOM      5  C6  UNL d   1       2.299  -2.864  -1.255  0.00  0.00     0.076 C 
ATOM      6  C7  UNL d   1       2.103  -1.064  -2.993  0.00  0.00     0.002 A 
ATOM      7  C8  UNL d   1       1.789   0.240  -3.381  0.00  0.00     0.006 A 
ENDROOT
BRANCH   1   8
ATOM      8  C1  UNL d   1       1.016   2.584  -2.858  0.00  0.00     0.054 C 
ATOM      9  C   UNL d   1       1.710   3.569  -1.928  0.00  0.00     0.018 C 
ENDBRANCH   1   8
TORSDOF 1
ENDMDL
