MODEL 1
REMARK minimizedAffinity 14.5248117
REMARK minimizedRMSD -1
REMARK  1 active torsions:
REMARK  status: ('A' for Active; 'I' for Inactive)
REMARK    1  A    between atoms: C1_2  and  C2_3 
ROOT
ATOM      1  C2  UNL d   1      -3.390   4.619   3.346  0.00  0.00    -0.081 A 
ATOM      2  C3  UNL d   1      -3.393   4.236   1.999  0.00  0.00     0.006 A 
ATOM      3  C4  UNL d   1      -3.034   2.937   1.631  0.00  0.00     0.002 A 
ATOM      4  C5  UNL d   1      -2.674   1.998   2.604  0.00  0.00    -0.080 A 
ATOM      5  C6  UNL d   1      -2.315   0.592   2.225  0.00  0.00     0.076 C 
ATOM      6  C7  UNL d   1      -2.654   2.386   3.948  0.00  0.00     0.002 A 
ATOM      7  C8  UNL d   1      -3.012   3.685   4.316  0.00  0.00     0.006 A 
ENDROOT
BRANCH   1   8
ATOM      8  C1  UNL d   1      -3.839   6.000   3.751  0.00  0.00     0.054 C 
ATOM      9  C   UNL d   1      -4.433   6.000   5.152  0.00  0.00     0.018 C 
ENDBRANCH   1   8
TORSDOF 1
ENDMDL
