MODEL 1
REMARK minimizedAffinity 11.1061325
REMARK minimizedRMSD -1
REMARK  1 active torsions:
REMARK  status: ('A' for Active; 'I' for Inactive)
REMARK    1  A    between atoms: C1_2  and  C2_3 
ROOT
ATOM      1  C2  UNL d   1      -4.487   5.375   3.030  0.00  0.00    -0.081 A 
ATOM      2  C3  UNL d   1      -3.140   5.303   2.651  0.00  0.00     0.006 A 
ATOM      3  C4  UNL d   1      -2.128   5.516   3.590  0.00  0.00     0.002 A 
ATOM      4  C5  UNL d   1      -2.445   5.798   4.924  0.00  0.00    -0.080 A 
ATOM      5  C6  UNL d   1      -1.368   5.999   5.948  0.00  0.00     0.076 C 
ATOM      6  C7  UNL d   1      -3.790   5.887   5.298  0.00  0.00     0.002 A 
ATOM      7  C8  UNL d   1      -4.802   5.674   4.360  0.00  0.00     0.006 A 
ENDROOT
BRANCH   1   8
ATOM      8  C1  UNL d   1      -5.579   5.081   2.034  0.00  0.00     0.054 C 
ATOM      9  C   UNL d   1      -5.792   3.583   1.872  0.00  0.00     0.018 C 
ENDBRANCH   1   8
TORSDOF 1
ENDMDL
