MODEL 1
REMARK minimizedAffinity 8.35355949
REMARK minimizedRMSD -1
REMARK  1 active torsions:
REMARK  status: ('A' for Active; 'I' for Inactive)
REMARK    1  A    between atoms: C1_2  and  C2_3 
ROOT
ATOM      1  C2  UNL d   1       2.018   2.239  -2.914  0.00  0.00    -0.081 A 
ATOM      2  C3  UNL d   1       2.295   3.540  -2.477  0.00  0.00     0.006 A 
ATOM      3  C4  UNL d   1       2.553   3.794  -1.128  0.00  0.00     0.002 A 
ATOM      4  C5  UNL d   1       2.547   2.751  -0.196  0.00  0.00    -0.080 A 
ATOM      5  C6  UNL d   1       2.852   3.006   1.251  0.00  0.00     0.076 C 
ATOM      6  C7  UNL d   1       2.253   1.454  -0.629  0.00  0.00     0.002 A 
ATOM      7  C8  UNL d   1       1.994   1.200  -1.978  0.00  0.00     0.006 A 
ENDROOT
BRANCH   1   8
ATOM      8  C1  UNL d   1       1.803   1.952  -4.378  0.00  0.00     0.054 C 
ATOM      9  C   UNL d   1       3.111   2.021  -5.154  0.00  0.00     0.018 C 
ENDBRANCH   1   8
TORSDOF 1
ENDMDL
