MODEL 1
REMARK minimizedAffinity 2.64007878
REMARK minimizedRMSD -1
REMARK  1 active torsions:
REMARK  status: ('A' for Active; 'I' for Inactive)
REMARK    1  A    between atoms: C1_2  and  C2_3 
ROOT
ATOM      1  C2  UNL d   1       2.092   1.045  -2.754  0.00  0.00    -0.081 A 
ATOM      2  C3  UNL d   1       1.479   2.248  -3.123  0.00  0.00     0.006 A 
ATOM      3  C4  UNL d   1       2.002   3.018  -4.165  0.00  0.00     0.002 A 
ATOM      4  C5  UNL d   1       3.140   2.594  -4.859  0.00  0.00    -0.080 A 
ATOM      5  C6  UNL d   1       3.694   3.396  -6.000  0.00  0.00     0.076 C 
ATOM      6  C7  UNL d   1       3.762   1.400  -4.479  0.00  0.00     0.002 A 
ATOM      7  C8  UNL d   1       3.241   0.630  -3.436  0.00  0.00     0.006 A 
ENDROOT
BRANCH   1   8
ATOM      8  C1  UNL d   1       1.493   0.180  -1.674  0.00  0.00     0.054 C 
ATOM      9  C   UNL d   1       2.267  -1.121  -1.513  0.00  0.00     0.018 C 
ENDBRANCH   1   8
TORSDOF 1
ENDMDL
