MODEL 1
REMARK minimizedAffinity 4.84213018
REMARK minimizedRMSD -1
REMARK  1 active torsions:
REMARK  status: ('A' for Active; 'I' for Inactive)
REMARK    1  A    between atoms: C1_2  and  C2_3 
ROOT
ATOM      1  C2  UNL d   1       2.871   2.817  -4.237  0.00  0.00    -0.081 A 
ATOM      2  C3  UNL d   1       3.491   1.577  -4.038  0.00  0.00     0.006 A 
ATOM      3  C4  UNL d   1       2.926   0.633  -3.178  0.00  0.00     0.002 A 
ATOM      4  C5  UNL d   1       1.728   0.908  -2.509  0.00  0.00    -0.080 A 
ATOM      5  C6  UNL d   1       1.095  -0.109  -1.607  0.00  0.00     0.076 C 
ATOM      6  C7  UNL d   1       1.118   2.153  -2.695  0.00  0.00     0.002 A 
ATOM      7  C8  UNL d   1       1.683   3.098  -3.554  0.00  0.00     0.006 A 
ENDROOT
BRANCH   1   8
ATOM      8  C1  UNL d   1       3.444   3.812  -5.213  0.00  0.00     0.054 C 
ATOM      9  C   UNL d   1       2.345   4.512  -5.999  0.00  0.00     0.018 C 
ENDBRANCH   1   8
TORSDOF 1
ENDMDL
