MODEL 1
REMARK minimizedAffinity 4.61373758
REMARK minimizedRMSD -1
REMARK  1 active torsions:
REMARK  status: ('A' for Active; 'I' for Inactive)
REMARK    1  A    between atoms: C1_2  and  C2_3 
ROOT
ATOM      1  C2  UNL d   1      -4.630   5.765   3.848  0.00  0.00    -0.081 A 
ATOM      2  C3  UNL d   1      -3.418   5.790   3.146  0.00  0.00     0.006 A 
ATOM      3  C4  UNL d   1      -2.204   5.878   3.832  0.00  0.00     0.002 A 
ATOM      4  C5  UNL d   1      -2.181   5.935   5.229  0.00  0.00    -0.080 A 
ATOM      5  C6  UNL d   1      -0.883   6.000   5.979  0.00  0.00     0.076 C 
ATOM      6  C7  UNL d   1      -3.392   5.928   5.930  0.00  0.00     0.002 A 
ATOM      7  C8  UNL d   1      -4.606   5.841   5.245  0.00  0.00     0.006 A 
ENDROOT
BRANCH   1   8
ATOM      8  C1  UNL d   1      -5.937   5.605   3.115  0.00  0.00     0.054 C 
ATOM      9  C   UNL d   1      -5.956   4.325   2.291  0.00  0.00     0.018 C 
ENDBRANCH   1   8
TORSDOF 1
ENDMDL
