MODEL 1
REMARK minimizedAffinity 9.67478371
REMARK minimizedRMSD -1
REMARK  1 active torsions:
REMARK  status: ('A' for Active; 'I' for Inactive)
REMARK    1  A    between atoms: C1_2  and  C2_3 
ROOT
ATOM      1  C2  UNL d   1       1.883  -0.111  -2.216  0.00  0.00    -0.081 A 
ATOM      2  C3  UNL d   1       0.832   0.736  -1.843  0.00  0.00     0.006 A 
ATOM      3  C4  UNL d   1       0.776   2.047  -2.322  0.00  0.00     0.002 A 
ATOM      4  C5  UNL d   1       1.764   2.530  -3.186  0.00  0.00    -0.080 A 
ATOM      5  C6  UNL d   1       1.699   3.926  -3.731  0.00  0.00     0.076 C 
ATOM      6  C7  UNL d   1       2.823   1.689  -3.545  0.00  0.00     0.002 A 
ATOM      7  C8  UNL d   1       2.881   0.379  -3.066  0.00  0.00     0.006 A 
ENDROOT
BRANCH   1   8
ATOM      8  C1  UNL d   1       1.912  -1.546  -1.753  0.00  0.00     0.054 C 
ATOM      9  C   UNL d   1       0.919  -2.398  -2.530  0.00  0.00     0.018 C 
ENDBRANCH   1   8
TORSDOF 1
ENDMDL
