MODEL 1
REMARK minimizedAffinity 1.34154689
REMARK minimizedRMSD -1
REMARK  1 active torsions:
REMARK  status: ('A' for Active; 'I' for Inactive)
REMARK    1  A    between atoms: C1_2  and  C2_3 
ROOT
ATOM      1  C2  UNL d   1       1.524   0.928  -2.629  0.00  0.00    -0.081 A 
ATOM      2  C3  UNL d   1       1.720   0.488  -3.944  0.00  0.00     0.006 A 
ATOM      3  C4  UNL d   1       1.812   1.407  -4.992  0.00  0.00     0.002 A 
ATOM      4  C5  UNL d   1       1.717   2.780  -4.742  0.00  0.00    -0.080 A 
ATOM      5  C6  UNL d   1       1.844   3.779  -5.854  0.00  0.00     0.076 C 
ATOM      6  C7  UNL d   1       1.503   3.219  -3.431  0.00  0.00     0.002 A 
ATOM      7  C8  UNL d   1       1.410   2.300  -2.383  0.00  0.00     0.006 A 
ENDROOT
BRANCH   1   8
ATOM      8  C1  UNL d   1       1.489  -0.057  -1.489  0.00  0.00     0.054 C 
ATOM      9  C   UNL d   1       2.593  -1.097  -1.622  0.00  0.00     0.018 C 
ENDBRANCH   1   8
TORSDOF 1
ENDMDL
