MODEL 1
REMARK minimizedAffinity 1.52858222
REMARK minimizedRMSD -1
REMARK  1 active torsions:
REMARK  status: ('A' for Active; 'I' for Inactive)
REMARK    1  A    between atoms: C1_2  and  C2_3 
ROOT
ATOM      1  C2  UNL d   1       1.851  -0.544  -2.163  0.00  0.00    -0.081 A 
ATOM      2  C3  UNL d   1       1.477   0.304  -1.114  0.00  0.00     0.006 A 
ATOM      3  C4  UNL d   1       1.361   1.680  -1.323  0.00  0.00     0.002 A 
ATOM      4  C5  UNL d   1       1.610   2.230  -2.585  0.00  0.00    -0.080 A 
ATOM      5  C6  UNL d   1       1.460   3.702  -2.830  0.00  0.00     0.076 C 
ATOM      6  C7  UNL d   1       2.001   1.385  -3.629  0.00  0.00     0.002 A 
ATOM      7  C8  UNL d   1       2.118   0.009  -3.420  0.00  0.00     0.006 A 
ENDROOT
BRANCH   1   8
ATOM      8  C1  UNL d   1       1.914  -2.036  -1.958  0.00  0.00     0.054 C 
ATOM      9  C   UNL d   1       2.305  -2.382  -0.528  0.00  0.00     0.018 C 
ENDBRANCH   1   8
TORSDOF 1
ENDMDL
