MODEL 1
REMARK minimizedAffinity 3.64171553
REMARK minimizedRMSD -1
REMARK  1 active torsions:
REMARK  status: ('A' for Active; 'I' for Inactive)
REMARK    1  A    between atoms: C1_2  and  C2_3 
ROOT
ATOM      1  C2  UNL d   1       4.531  -4.041   5.775  0.00  0.00    -0.081 A 
ATOM      2  C3  UNL d   1       3.448  -3.225   5.423  0.00  0.00     0.006 A 
ATOM      3  C4  UNL d   1       3.642  -1.867   5.157  0.00  0.00     0.002 A 
ATOM      4  C5  UNL d   1       4.921  -1.305   5.231  0.00  0.00    -0.080 A 
ATOM      5  C6  UNL d   1       5.148   0.144   4.918  0.00  0.00     0.076 C 
ATOM      6  C7  UNL d   1       6.000  -2.116   5.600  0.00  0.00     0.002 A 
ATOM      7  C8  UNL d   1       5.806  -3.473   5.866  0.00  0.00     0.006 A 
ENDROOT
BRANCH   1   8
ATOM      8  C1  UNL d   1       4.335  -5.518   6.000  0.00  0.00     0.054 C 
ATOM      9  C   UNL d   1       2.868  -5.907   5.880  0.00  0.00     0.018 C 
ENDBRANCH   1   8
TORSDOF 1
ENDMDL
