MODEL 1
REMARK minimizedAffinity -5.56742287
REMARK minimizedRMSD -1
REMARK  1 active torsions:
REMARK  status: ('A' for Active; 'I' for Inactive)
REMARK    1  A    between atoms: C1_2  and  C2_3 
ROOT
ATOM      1  C2  UNL d   1      -1.256  -0.243  -0.161  0.00  0.00    -0.073 A 
ATOM      2  C3  UNL d   1      -1.490  -1.336   0.681  0.00  0.00    -0.002 A 
ATOM      3  C4  UNL d   1      -0.459  -1.854   1.466  0.00  0.00     0.004 A 
ATOM      4  C5  UNL d   1       0.813  -1.282   1.421  0.00  0.00    -0.004 A 
ATOM      5  C6  UNL d   1       1.063  -0.182   0.594  0.00  0.00    -0.075 A 
ATOM      6  C7  UNL d   1       2.425   0.443   0.533  0.00  0.00     0.076 C 
ATOM      7  C8  UNL d   1       0.023   0.331  -0.192  0.00  0.00     0.001 A 
ENDROOT
BRANCH   1   8
ATOM      8  C1  UNL d   1      -2.368   0.324  -1.005  0.00  0.00     0.053 C 
ATOM      9  C   UNL d   1      -2.373  -0.260  -2.409  0.00  0.00     0.018 C 
ENDBRANCH   1   8
TORSDOF 1
ENDMDL
