MODEL 1
REMARK minimizedAffinity -3.51974201
REMARK minimizedRMSD -1
REMARK  1 active torsions:
REMARK  status: ('A' for Active; 'I' for Inactive)
REMARK    1  A    between atoms: C1_2  and  C2_3 
ROOT
ATOM      1  C2  UNL d   1      -0.033   0.123   0.375  0.00  0.00    -0.073 A 
ATOM      2  C3  UNL d   1       0.937   1.082   0.061  0.00  0.00    -0.002 A 
ATOM      3  C4  UNL d   1       2.153   1.105   0.745  0.00  0.00     0.004 A 
ATOM      4  C5  UNL d   1       2.414   0.167   1.744  0.00  0.00    -0.004 A 
ATOM      5  C6  UNL d   1       1.462  -0.806   2.065  0.00  0.00    -0.075 A 
ATOM      6  C7  UNL d   1       1.727  -1.820   3.139  0.00  0.00     0.076 C 
ATOM      7  C8  UNL d   1       0.243  -0.821   1.375  0.00  0.00     0.001 A 
ENDROOT
BRANCH   1   8
ATOM      8  C1  UNL d   1      -1.345   0.090  -0.365  0.00  0.00     0.053 C 
ATOM      9  C   UNL d   1      -1.150  -0.089  -1.862  0.00  0.00     0.018 C 
ENDBRANCH   1   8
TORSDOF 1
ENDMDL
