MODEL 1
REMARK minimizedAffinity -4.49879169
REMARK minimizedRMSD -1
REMARK  1 active torsions:
REMARK  status: ('A' for Active; 'I' for Inactive)
REMARK    1  A    between atoms: C1_2  and  C2_3 
ROOT
ATOM      1  C2  UNL d   1      -0.814   0.386  -0.631  0.00  0.00    -0.073 A 
ATOM      2  C3  UNL d   1       0.117   1.431  -0.633  0.00  0.00    -0.002 A 
ATOM      3  C4  UNL d   1       1.295   1.327   0.106  0.00  0.00     0.004 A 
ATOM      4  C5  UNL d   1       1.559   0.177   0.849  0.00  0.00    -0.004 A 
ATOM      5  C6  UNL d   1       0.647  -0.884   0.854  0.00  0.00    -0.075 A 
ATOM      6  C7  UNL d   1       0.914  -2.128   1.650  0.00  0.00     0.076 C 
ATOM      7  C8  UNL d   1      -0.536  -0.771   0.111  0.00  0.00     0.001 A 
ENDROOT
BRANCH   1   8
ATOM      8  C1  UNL d   1      -2.085   0.491  -1.434  0.00  0.00     0.053 C 
ATOM      9  C   UNL d   1      -2.213  -0.634  -2.448  0.00  0.00     0.018 C 
ENDBRANCH   1   8
TORSDOF 1
ENDMDL
