MODEL 1
REMARK minimizedAffinity -5.48651934
REMARK minimizedRMSD -1
REMARK  1 active torsions:
REMARK  status: ('A' for Active; 'I' for Inactive)
REMARK    1  A    between atoms: C1_2  and  C2_3 
ROOT
ATOM      1  C2  UNL d   1      -0.053  -0.038   0.400  0.00  0.00    -0.073 A 
ATOM      2  C3  UNL d   1       0.855   0.943  -0.013  0.00  0.00    -0.002 A 
ATOM      3  C4  UNL d   1       2.122   1.021   0.569  0.00  0.00     0.004 A 
ATOM      4  C5  UNL d   1       2.494   0.116   1.563  0.00  0.00    -0.004 A 
ATOM      5  C6  UNL d   1       1.605  -0.879   1.981  0.00  0.00    -0.075 A 
ATOM      6  C7  UNL d   1       1.990  -1.859   3.050  0.00  0.00     0.076 C 
ATOM      7  C8  UNL d   1       0.334  -0.949   1.394  0.00  0.00     0.001 A 
ENDROOT
BRANCH   1   8
ATOM      8  C1  UNL d   1      -1.419  -0.130  -0.229  0.00  0.00     0.053 C 
ATOM      9  C   UNL d   1      -2.493  -0.480   0.788  0.00  0.00     0.018 C 
ENDBRANCH   1   8
TORSDOF 1
ENDMDL
