MODEL 1
REMARK minimizedAffinity -2.96371245
REMARK minimizedRMSD -1
REMARK  1 active torsions:
REMARK  status: ('A' for Active; 'I' for Inactive)
REMARK    1  A    between atoms: C1_2  and  C2_3 
ROOT
ATOM      1  C2  UNL d   1       1.883   0.293   1.391  0.00  0.00    -0.073 A 
ATOM      2  C3  UNL d   1       1.115   1.195   0.646  0.00  0.00    -0.002 A 
ATOM      3  C4  UNL d   1      -0.148   0.829   0.181  0.00  0.00     0.004 A 
ATOM      4  C5  UNL d   1      -0.660  -0.438   0.462  0.00  0.00    -0.004 A 
ATOM      5  C6  UNL d   1       0.087  -1.349   1.215  0.00  0.00    -0.075 A 
ATOM      6  C7  UNL d   1      -0.448  -2.717   1.524  0.00  0.00     0.076 C 
ATOM      7  C8  UNL d   1       1.357  -0.975   1.676  0.00  0.00     0.001 A 
ENDROOT
BRANCH   1   8
ATOM      8  C1  UNL d   1       3.246   0.686   1.901  0.00  0.00     0.053 C 
ATOM      9  C   UNL d   1       4.252  -0.446   1.767  0.00  0.00     0.018 C 
ENDBRANCH   1   8
TORSDOF 1
ENDMDL
