MODEL 1
REMARK minimizedAffinity -4.35750341
REMARK minimizedRMSD -1
REMARK  1 active torsions:
REMARK  status: ('A' for Active; 'I' for Inactive)
REMARK    1  A    between atoms: C1_2  and  C2_3 
ROOT
ATOM      1  C2  UNL d   1      -1.539   0.277  -0.890  0.00  0.00    -0.073 A 
ATOM      2  C3  UNL d   1      -1.323  -0.814  -0.042  0.00  0.00    -0.002 A 
ATOM      3  C4  UNL d   1      -0.229  -0.829   0.824  0.00  0.00     0.004 A 
ATOM      4  C5  UNL d   1       0.655   0.250   0.855  0.00  0.00    -0.004 A 
ATOM      5  C6  UNL d   1       0.450   1.355   0.023  0.00  0.00    -0.075 A 
ATOM      6  C7  UNL d   1       1.393   2.522   0.043  0.00  0.00     0.076 C 
ATOM      7  C8  UNL d   1      -0.650   1.361  -0.845  0.00  0.00     0.001 A 
ENDROOT
BRANCH   1   8
ATOM      8  C1  UNL d   1      -2.724   0.300  -1.822  0.00  0.00     0.053 C 
ATOM      9  C   UNL d   1      -2.377  -0.249  -3.197  0.00  0.00     0.018 C 
ENDBRANCH   1   8
TORSDOF 1
ENDMDL
