MODEL 1
REMARK minimizedAffinity -3.43492079
REMARK minimizedRMSD -1
REMARK  1 active torsions:
REMARK  status: ('A' for Active; 'I' for Inactive)
REMARK    1  A    between atoms: C1_2  and  C2_3 
ROOT
ATOM      1  C2  UNL d   1       0.569   0.333   0.530  0.00  0.00    -0.073 A 
ATOM      2  C3  UNL d   1       1.754   1.054   0.717  0.00  0.00    -0.002 A 
ATOM      3  C4  UNL d   1       2.807   0.503   1.448  0.00  0.00     0.004 A 
ATOM      4  C5  UNL d   1       2.689  -0.775   1.994  0.00  0.00    -0.004 A 
ATOM      5  C6  UNL d   1       1.518  -1.516   1.808  0.00  0.00    -0.075 A 
ATOM      6  C7  UNL d   1       1.375  -2.892   2.391  0.00  0.00     0.076 C 
ATOM      7  C8  UNL d   1       0.464  -0.955   1.075  0.00  0.00     0.001 A 
ENDROOT
BRANCH   1   8
ATOM      8  C1  UNL d   1      -0.568   0.921  -0.264  0.00  0.00     0.053 C 
ATOM      9  C   UNL d   1      -1.689  -0.082  -0.484  0.00  0.00     0.018 C 
ENDBRANCH   1   8
TORSDOF 1
ENDMDL
