MODEL 1
REMARK minimizedAffinity -2.6264708
REMARK minimizedRMSD -1
REMARK  1 active torsions:
REMARK  status: ('A' for Active; 'I' for Inactive)
REMARK    1  A    between atoms: C1_2  and  C2_3 
ROOT
ATOM      1  C2  UNL d   1       0.818   0.290   0.277  0.00  0.00    -0.073 A 
ATOM      2  C3  UNL d   1       0.588  -0.914   0.954  0.00  0.00    -0.002 A 
ATOM      3  C4  UNL d   1      -0.671  -1.514   0.915  0.00  0.00     0.004 A 
ATOM      4  C5  UNL d   1      -1.709  -0.923   0.196  0.00  0.00    -0.004 A 
ATOM      5  C6  UNL d   1      -1.496   0.274  -0.496  0.00  0.00    -0.075 A 
ATOM      6  C7  UNL d   1      -2.603   0.924  -1.273  0.00  0.00     0.076 C 
ATOM      7  C8  UNL d   1      -0.229   0.872  -0.451  0.00  0.00     0.001 A 
ENDROOT
BRANCH   1   8
ATOM      8  C1  UNL d   1       2.178   0.938   0.311  0.00  0.00     0.053 C 
ATOM      9  C   UNL d   1       3.025   0.427   1.464  0.00  0.00     0.018 C 
ENDBRANCH   1   8
TORSDOF 1
ENDMDL
