MODEL 1
REMARK minimizedAffinity -4.86922312
REMARK minimizedRMSD -1
REMARK  1 active torsions:
REMARK  status: ('A' for Active; 'I' for Inactive)
REMARK    1  A    between atoms: N_2  and  C1_3 
ROOT
ATOM      1  C1  UNL d   1      -0.202  -0.180   0.076  0.00  0.00     0.143 A 
ATOM      2  C2  UNL d   1       0.508  -1.150  -0.640  0.00  0.00    -0.057 A 
ATOM      3  C3  UNL d   1       0.510  -2.492  -0.239  0.00  0.00     0.033 A 
ATOM      4  C4  UNL d   1      -0.177  -2.883   0.905  0.00  0.00    -0.042 A 
ATOM      5  C5  UNL d   1      -0.870  -1.932   1.646  0.00  0.00     0.033 A 
ATOM      6  C6  UNL d   1      -0.874  -0.595   1.237  0.00  0.00    -0.057 A 
ENDROOT
BRANCH   1   7
ATOM      7  N   UNL d   1      -0.163   1.185  -0.215  0.00  0.00    -0.732 N 
ATOM      8  C   UNL d   1       0.925   2.010   0.264  0.00  0.00     0.284 C 
ATOM      9  H3  UNL d   1      -0.448   1.387  -1.171  0.00  0.00     0.395 HD
ENDBRANCH   1   7
TORSDOF 1
ENDMDL
