MODEL 1
REMARK minimizedAffinity -2.39696336
REMARK minimizedRMSD -1
REMARK  1 active torsions:
REMARK  status: ('A' for Active; 'I' for Inactive)
REMARK    1  A    between atoms: N_2  and  C1_3 
ROOT
ATOM      1  C1  UNL d   1       0.248  -1.320  -0.828  0.00  0.00     0.143 A 
ATOM      2  C2  UNL d   1      -0.671  -0.472  -0.201  0.00  0.00    -0.057 A 
ATOM      3  C3  UNL d   1      -1.239  -0.803   1.035  0.00  0.00     0.033 A 
ATOM      4  C4  UNL d   1      -0.918  -2.006   1.654  0.00  0.00    -0.042 A 
ATOM      5  C5  UNL d   1      -0.026  -2.876   1.038  0.00  0.00     0.033 A 
ATOM      6  C6  UNL d   1       0.543  -2.537  -0.193  0.00  0.00    -0.057 A 
ENDROOT
BRANCH   1   7
ATOM      7  N   UNL d   1       0.773  -1.092  -2.103  0.00  0.00    -0.732 N 
ATOM      8  C   UNL d   1       0.232  -0.049  -2.947  0.00  0.00     0.284 C 
ATOM      9  H3  UNL d   1       1.788  -1.159  -2.123  0.00  0.00     0.395 HD
ENDBRANCH   1   7
TORSDOF 1
ENDMDL
