MODEL 1
REMARK minimizedAffinity -3.48195529
REMARK minimizedRMSD -1
REMARK  1 active torsions:
REMARK  status: ('A' for Active; 'I' for Inactive)
REMARK    1  A    between atoms: N_2  and  C1_3 
ROOT
ATOM      1  C1  UNL d   1      -0.452   0.019  -0.191  0.00  0.00     0.143 A 
ATOM      2  C2  UNL d   1      -0.778   0.897   0.848  0.00  0.00    -0.057 A 
ATOM      3  C3  UNL d   1      -1.270   0.425   2.071  0.00  0.00     0.033 A 
ATOM      4  C4  UNL d   1      -1.472  -0.937   2.266  0.00  0.00    -0.042 A 
ATOM      5  C5  UNL d   1      -1.179  -1.827   1.239  0.00  0.00     0.033 A 
ATOM      6  C6  UNL d   1      -0.682  -1.349   0.022  0.00  0.00    -0.057 A 
ENDROOT
BRANCH   1   7
ATOM      7  N   UNL d   1      -0.052   0.434  -1.464  0.00  0.00    -0.732 N 
ATOM      8  C   UNL d   1       0.329  -0.535  -2.469  0.00  0.00     0.284 C 
ATOM      9  H3  UNL d   1      -0.620   1.200  -1.819  0.00  0.00     0.395 HD
ENDBRANCH   1   7
TORSDOF 1
ENDMDL
