MODEL 1
REMARK minimizedAffinity -2.78077006
REMARK minimizedRMSD -1
REMARK  1 active torsions:
REMARK  status: ('A' for Active; 'I' for Inactive)
REMARK    1  A    between atoms: N_2  and  C1_3 
ROOT
ATOM      1  C1  UNL d   1      -0.072  -0.044   0.007  0.00  0.00     0.143 A 
ATOM      2  C2  UNL d   1       0.781  -0.909  -0.687  0.00  0.00    -0.057 A 
ATOM      3  C3  UNL d   1       0.761  -2.289  -0.453  0.00  0.00     0.033 A 
ATOM      4  C4  UNL d   1      -0.095  -2.827   0.503  0.00  0.00    -0.042 A 
ATOM      5  C5  UNL d   1      -0.934  -1.983   1.222  0.00  0.00     0.033 A 
ATOM      6  C6  UNL d   1      -0.914  -0.606   0.979  0.00  0.00    -0.057 A 
ENDROOT
BRANCH   1   7
ATOM      7  N   UNL d   1      -0.030   1.348  -0.110  0.00  0.00    -0.732 N 
ATOM      8  C   UNL d   1       1.114   2.094   0.369  0.00  0.00     0.284 C 
ATOM      9  H3  UNL d   1      -0.395   1.674  -1.002  0.00  0.00     0.395 HD
ENDBRANCH   1   7
TORSDOF 1
ENDMDL
