MODEL 1
REMARK minimizedAffinity -4.9438715
REMARK minimizedRMSD -1
REMARK  1 active torsions:
REMARK  status: ('A' for Active; 'I' for Inactive)
REMARK    1  A    between atoms: N_2  and  C1_3 
ROOT
ATOM      1  C1  UNL d   1      -0.040  -0.255   0.142  0.00  0.00     0.143 A 
ATOM      2  C2  UNL d   1      -0.583  -0.886   1.266  0.00  0.00    -0.057 A 
ATOM      3  C3  UNL d   1      -0.721  -2.278   1.322  0.00  0.00     0.033 A 
ATOM      4  C4  UNL d   1      -0.344  -3.064   0.237  0.00  0.00    -0.042 A 
ATOM      5  C5  UNL d   1       0.174  -2.456  -0.901  0.00  0.00     0.033 A 
ATOM      6  C6  UNL d   1       0.316  -1.066  -0.947  0.00  0.00    -0.057 A 
ENDROOT
BRANCH   1   7
ATOM      7  N   UNL d   1       0.032   1.132  -0.013  0.00  0.00    -0.732 N 
ATOM      8  C   UNL d   1       0.020   1.728  -1.331  0.00  0.00     0.284 C 
ATOM      9  H3  UNL d   1      -0.531   1.629   0.673  0.00  0.00     0.395 HD
ENDBRANCH   1   7
TORSDOF 1
ENDMDL
