MODEL 1
REMARK minimizedAffinity -3.53158307
REMARK minimizedRMSD -1
REMARK  1 active torsions:
REMARK  status: ('A' for Active; 'I' for Inactive)
REMARK    1  A    between atoms: N_2  and  C1_3 
ROOT
ATOM      1  C1  UNL d   1      -0.360  -0.490   0.528  0.00  0.00     0.143 A 
ATOM      2  C2  UNL d   1       0.642  -1.264  -0.068  0.00  0.00    -0.057 A 
ATOM      3  C3  UNL d   1       0.460  -2.633  -0.299  0.00  0.00     0.033 A 
ATOM      4  C4  UNL d   1      -0.719  -3.260   0.090  0.00  0.00    -0.042 A 
ATOM      5  C5  UNL d   1      -1.717  -2.515   0.707  0.00  0.00     0.033 A 
ATOM      6  C6  UNL d   1      -1.533  -1.147   0.929  0.00  0.00    -0.057 A 
ENDROOT
BRANCH   1   7
ATOM      7  N   UNL d   1      -0.201   0.855   0.874  0.00  0.00    -0.732 N 
ATOM      8  C   UNL d   1       0.450   1.777  -0.032  0.00  0.00     0.284 C 
ATOM      9  H3  UNL d   1      -1.024   1.236   1.336  0.00  0.00     0.395 HD
ENDBRANCH   1   7
TORSDOF 1
ENDMDL
