MODEL 1
REMARK minimizedAffinity -3.31836557
REMARK minimizedRMSD -1
REMARK  1 active torsions:
REMARK  status: ('A' for Active; 'I' for Inactive)
REMARK    1  A    between atoms: N_2  and  C1_3 
ROOT
ATOM      1  C1  UNL d   1       0.082  -1.139  -0.526  0.00  0.00     0.143 A 
ATOM      2  C2  UNL d   1      -0.393  -2.034   0.439  0.00  0.00    -0.057 A 
ATOM      3  C3  UNL d   1      -0.645  -3.375   0.124  0.00  0.00     0.033 A 
ATOM      4  C4  UNL d   1      -0.453  -3.839  -1.174  0.00  0.00    -0.042 A 
ATOM      5  C5  UNL d   1      -0.006  -2.961  -2.155  0.00  0.00     0.033 A 
ATOM      6  C6  UNL d   1       0.250  -1.625  -1.832  0.00  0.00    -0.057 A 
ENDROOT
BRANCH   1   7
ATOM      7  N   UNL d   1       0.257   0.228  -0.299  0.00  0.00    -0.732 N 
ATOM      8  C   UNL d   1      -0.632   0.948   0.587  0.00  0.00     0.284 C 
ATOM      9  H3  UNL d   1       1.237   0.483  -0.202  0.00  0.00     0.395 HD
ENDBRANCH   1   7
TORSDOF 1
ENDMDL
