MODEL 1
REMARK minimizedAffinity -4.22578812
REMARK minimizedRMSD -1
REMARK  1 active torsions:
REMARK  status: ('A' for Active; 'I' for Inactive)
REMARK    1  A    between atoms: N_2  and  C1_3 
ROOT
ATOM      1  C1  UNL d   1       0.106  -0.093   0.221  0.00  0.00     0.143 A 
ATOM      2  C2  UNL d   1      -0.954  -0.664   0.932  0.00  0.00    -0.057 A 
ATOM      3  C3  UNL d   1      -1.058  -2.051   1.092  0.00  0.00     0.033 A 
ATOM      4  C4  UNL d   1      -0.116  -2.896   0.515  0.00  0.00    -0.042 A 
ATOM      5  C5  UNL d   1       0.933  -2.352  -0.217  0.00  0.00     0.033 A 
ATOM      6  C6  UNL d   1       1.035  -0.966  -0.367  0.00  0.00    -0.057 A 
ENDROOT
BRANCH   1   7
ATOM      7  N   UNL d   1       0.212   1.272  -0.056  0.00  0.00    -0.732 N 
ATOM      8  C   UNL d   1       1.379   2.020   0.358  0.00  0.00     0.284 C 
ATOM      9  H3  UNL d   1      -0.124   1.506  -0.988  0.00  0.00     0.395 HD
ENDBRANCH   1   7
TORSDOF 1
ENDMDL
