MODEL 1
REMARK minimizedAffinity 2.22339344
REMARK minimizedRMSD -1
REMARK  0 active torsions:
REMARK  status: ('A' for Active; 'I' for Inactive)
ROOT
ATOM      1  C   UNL d   1      -1.000   1.599   3.221  0.00  0.00     0.078 C 
ATOM      2  C1  UNL d   1      -0.216   0.508   2.555  0.00  0.00    -0.077 A 
ATOM      3  C2  UNL d   1      -0.802  -0.732   2.273  0.00  0.00    -0.001 A 
ATOM      4  C3  UNL d   1      -0.057  -1.742   1.661  0.00  0.00     0.003 A 
ATOM      5  C4  UNL d   1       1.278  -1.523   1.328  0.00  0.00    -0.005 A 
ATOM      6  C5  UNL d   1       1.870  -0.293   1.607  0.00  0.00     0.003 A 
ATOM      7  C6  UNL d   1       1.127   0.718   2.219  0.00  0.00    -0.001 A 
ENDROOT
TORSDOF 0
ENDMDL
