MODEL 1
REMARK minimizedAffinity 7.48564529
REMARK minimizedRMSD -1
REMARK  0 active torsions:
REMARK  status: ('A' for Active; 'I' for Inactive)
ROOT
ATOM      1  C   UNL d   1      -0.712   1.558   3.293  0.00  0.00     0.078 C 
ATOM      2  C1  UNL d   1      -0.138   0.277   2.765  0.00  0.00    -0.077 A 
ATOM      3  C2  UNL d   1       1.247   0.078   2.707  0.00  0.00    -0.001 A 
ATOM      4  C3  UNL d   1       1.768  -1.115   2.205  0.00  0.00     0.003 A 
ATOM      5  C4  UNL d   1       0.912  -2.118   1.755  0.00  0.00    -0.005 A 
ATOM      6  C5  UNL d   1      -0.468  -1.928   1.806  0.00  0.00     0.003 A 
ATOM      7  C6  UNL d   1      -0.991  -0.736   2.309  0.00  0.00    -0.001 A 
ENDROOT
TORSDOF 0
ENDMDL
