MODEL 1
REMARK minimizedAffinity 3.84373999
REMARK minimizedRMSD -1
REMARK  0 active torsions:
REMARK  status: ('A' for Active; 'I' for Inactive)
ROOT
ATOM      1  C   UNL d   1      -0.172  -1.862   1.353  0.00  0.00     0.078 C 
ATOM      2  C1  UNL d   1      -1.420  -1.511   0.600  0.00  0.00    -0.077 A 
ATOM      3  C2  UNL d   1      -2.552  -1.025   1.266  0.00  0.00    -0.001 A 
ATOM      4  C3  UNL d   1      -3.710  -0.712   0.554  0.00  0.00     0.003 A 
ATOM      5  C4  UNL d   1      -3.749  -0.882  -0.829  0.00  0.00    -0.005 A 
ATOM      6  C5  UNL d   1      -2.628  -1.367  -1.500  0.00  0.00     0.003 A 
ATOM      7  C6  UNL d   1      -1.469  -1.681  -0.789  0.00  0.00    -0.001 A 
ENDROOT
TORSDOF 0
ENDMDL
