MODEL 1
REMARK minimizedAffinity -2.67604184
REMARK minimizedRMSD -1
REMARK  0 active torsions:
REMARK  status: ('A' for Active; 'I' for Inactive)
ROOT
ATOM      1  C   UNL d   1       4.249   1.210   5.987  0.00  0.00     0.078 C 
ATOM      2  C1  UNL d   1       4.478   2.692   5.984  0.00  0.00    -0.077 A 
ATOM      3  C2  UNL d   1       5.775   3.221   5.991  0.00  0.00    -0.001 A 
ATOM      4  C3  UNL d   1       5.973   4.603   5.999  0.00  0.00     0.003 A 
ATOM      5  C4  UNL d   1       4.880   5.467   6.000  0.00  0.00    -0.005 A 
ATOM      6  C5  UNL d   1       3.586   4.950   5.995  0.00  0.00     0.003 A 
ATOM      7  C6  UNL d   1       3.386   3.568   5.988  0.00  0.00    -0.001 A 
ENDROOT
TORSDOF 0
ENDMDL
