MODEL 1
REMARK minimizedAffinity -2.75105906
REMARK minimizedRMSD -1
REMARK  0 active torsions:
REMARK  status: ('A' for Active; 'I' for Inactive)
ROOT
ATOM      1  C   UNL d   1      -6.000   5.245   2.980  0.00  0.00     0.078 C 
ATOM      2  C1  UNL d   1      -5.309   5.256   1.649  0.00  0.00    -0.077 A 
ATOM      3  C2  UNL d   1      -4.104   4.569   1.457  0.00  0.00    -0.001 A 
ATOM      4  C3  UNL d   1      -3.466   4.597   0.215  0.00  0.00     0.003 A 
ATOM      5  C4  UNL d   1      -4.025   5.311  -0.843  0.00  0.00    -0.005 A 
ATOM      6  C5  UNL d   1      -5.222   6.000  -0.660  0.00  0.00     0.003 A 
ATOM      7  C6  UNL d   1      -5.861   5.974   0.581  0.00  0.00    -0.001 A 
ENDROOT
TORSDOF 0
ENDMDL
