MODEL 1
REMARK minimizedAffinity 6.1522398
REMARK minimizedRMSD -1
REMARK  0 active torsions:
REMARK  status: ('A' for Active; 'I' for Inactive)
ROOT
ATOM      1  C   UNL d   1      -3.019   3.116  -3.726  0.00  0.00     0.078 C 
ATOM      2  C1  UNL d   1      -4.049   3.878  -4.506  0.00  0.00    -0.077 A 
ATOM      3  C2  UNL d   1      -5.013   3.210  -5.271  0.00  0.00    -0.001 A 
ATOM      4  C3  UNL d   1      -5.960   3.932  -5.999  0.00  0.00     0.003 A 
ATOM      5  C4  UNL d   1      -5.951   5.325  -5.971  0.00  0.00    -0.005 A 
ATOM      6  C5  UNL d   1      -4.994   5.998  -5.215  0.00  0.00     0.003 A 
ATOM      7  C6  UNL d   1      -4.046   5.278  -4.486  0.00  0.00    -0.001 A 
ENDROOT
TORSDOF 0
ENDMDL
