MODEL 1
REMARK minimizedAffinity 12.6339426
REMARK minimizedRMSD -1
REMARK  0 active torsions:
REMARK  status: ('A' for Active; 'I' for Inactive)
ROOT
ATOM      1  C   UNL d   1      -1.818  -1.903  -3.266  0.00  0.00     0.078 C 
ATOM      2  C1  UNL d   1      -2.059  -1.834  -1.787  0.00  0.00    -0.077 A 
ATOM      3  C2  UNL d   1      -1.342  -2.648  -0.902  0.00  0.00    -0.001 A 
ATOM      4  C3  UNL d   1      -1.582  -2.580   0.471  0.00  0.00     0.003 A 
ATOM      5  C4  UNL d   1      -2.541  -1.701   0.971  0.00  0.00    -0.005 A 
ATOM      6  C5  UNL d   1      -3.261  -0.889   0.097  0.00  0.00     0.003 A 
ATOM      7  C6  UNL d   1      -3.022  -0.955  -1.276  0.00  0.00    -0.001 A 
ENDROOT
TORSDOF 0
ENDMDL
