MODEL 1
REMARK minimizedAffinity 8.40532017
REMARK minimizedRMSD -1
REMARK  0 active torsions:
REMARK  status: ('A' for Active; 'I' for Inactive)
ROOT
ATOM      1  C   UNL d   1       2.630  -0.008  -1.930  0.00  0.00     0.078 C 
ATOM      2  C1  UNL d   1       3.804   0.201  -2.839  0.00  0.00    -0.077 A 
ATOM      3  C2  UNL d   1       4.069   1.458  -3.397  0.00  0.00    -0.001 A 
ATOM      4  C3  UNL d   1       5.160   1.636  -4.249  0.00  0.00     0.003 A 
ATOM      5  C4  UNL d   1       5.994   0.562  -4.552  0.00  0.00    -0.005 A 
ATOM      6  C5  UNL d   1       5.737  -0.693  -4.004  0.00  0.00     0.003 A 
ATOM      7  C6  UNL d   1       4.646  -0.873  -3.151  0.00  0.00    -0.001 A 
ENDROOT
TORSDOF 0
ENDMDL
