MODEL 1
REMARK minimizedAffinity 11.9173498
REMARK minimizedRMSD -1
REMARK  0 active torsions:
REMARK  status: ('A' for Active; 'I' for Inactive)
ROOT
ATOM      1  C   UNL d   1       3.911   2.318  -0.059  0.00  0.00     0.078 C 
ATOM      2  C1  UNL d   1       4.516   3.585   0.469  0.00  0.00    -0.077 A 
ATOM      3  C2  UNL d   1       4.744   3.758   1.840  0.00  0.00    -0.001 A 
ATOM      4  C3  UNL d   1       5.299   4.946   2.318  0.00  0.00     0.003 A 
ATOM      5  C4  UNL d   1       5.628   5.971   1.433  0.00  0.00    -0.005 A 
ATOM      6  C5  UNL d   1       5.403   5.808   0.068  0.00  0.00     0.003 A 
ATOM      7  C6  UNL d   1       4.848   4.621  -0.413  0.00  0.00    -0.001 A 
ENDROOT
TORSDOF 0
ENDMDL
