MODEL 1
REMARK minimizedAffinity 3.86255145
REMARK minimizedRMSD -1
REMARK  0 active torsions:
REMARK  status: ('A' for Active; 'I' for Inactive)
ROOT
ATOM      1  C   UNL d   1      -2.585   3.022  -4.865  0.00  0.00     0.078 C 
ATOM      2  C1  UNL d   1      -3.763   3.948  -4.847  0.00  0.00    -0.077 A 
ATOM      3  C2  UNL d   1      -4.914   3.667  -5.594  0.00  0.00    -0.001 A 
ATOM      4  C3  UNL d   1      -6.000   4.543  -5.576  0.00  0.00     0.003 A 
ATOM      5  C4  UNL d   1      -5.946   5.709  -4.814  0.00  0.00    -0.005 A 
ATOM      6  C5  UNL d   1      -4.804   5.999  -4.069  0.00  0.00     0.003 A 
ATOM      7  C6  UNL d   1      -3.717   5.123  -4.086  0.00  0.00    -0.001 A 
ENDROOT
TORSDOF 0
ENDMDL
