MODEL 1
REMARK minimizedAffinity 7.93386984
REMARK minimizedRMSD -1
REMARK  0 active torsions:
REMARK  status: ('A' for Active; 'I' for Inactive)
ROOT
ATOM      1  C   UNL d   1      -3.301   2.621   1.982  0.00  0.00     0.078 C 
ATOM      2  C1  UNL d   1      -4.038   3.796   1.411  0.00  0.00    -0.077 A 
ATOM      3  C2  UNL d   1      -3.472   4.581   0.399  0.00  0.00    -0.001 A 
ATOM      4  C3  UNL d   1      -4.165   5.677  -0.115  0.00  0.00     0.003 A 
ATOM      5  C4  UNL d   1      -5.429   6.000   0.376  0.00  0.00    -0.005 A 
ATOM      6  C5  UNL d   1      -6.000   5.226   1.385  0.00  0.00     0.003 A 
ATOM      7  C6  UNL d   1      -5.308   4.129   1.901  0.00  0.00    -0.001 A 
ENDROOT
TORSDOF 0
ENDMDL
