MODEL 1
REMARK minimizedAffinity 8.43331242
REMARK minimizedRMSD -1
REMARK  0 active torsions:
REMARK  status: ('A' for Active; 'I' for Inactive)
ROOT
ATOM      1  C   UNL d   1       2.974   2.238   5.993  0.00  0.00     0.078 C 
ATOM      2  C1  UNL d   1       3.726   3.535   6.000  0.00  0.00    -0.077 A 
ATOM      3  C2  UNL d   1       3.050   4.761   5.996  0.00  0.00    -0.001 A 
ATOM      4  C3  UNL d   1       3.763   5.961   5.993  0.00  0.00     0.003 A 
ATOM      5  C4  UNL d   1       5.156   5.946   5.992  0.00  0.00    -0.005 A 
ATOM      6  C5  UNL d   1       5.838   4.731   5.993  0.00  0.00     0.003 A 
ATOM      7  C6  UNL d   1       5.127   3.530   5.996  0.00  0.00    -0.001 A 
ENDROOT
TORSDOF 0
ENDMDL
