MODEL 1
REMARK minimizedAffinity 7.16591167
REMARK minimizedRMSD -1
REMARK  0 active torsions:
REMARK  status: ('A' for Active; 'I' for Inactive)
ROOT
ATOM      1  C   UNL d   1      -3.063   1.214   5.640  0.00  0.00     0.078 C 
ATOM      2  C1  UNL d   1      -2.797  -0.261   5.635  0.00  0.00    -0.077 A 
ATOM      3  C2  UNL d   1      -3.794  -1.175   5.998  0.00  0.00    -0.001 A 
ATOM      4  C3  UNL d   1      -3.529  -2.546   5.998  0.00  0.00     0.003 A 
ATOM      5  C4  UNL d   1      -2.268  -3.015   5.637  0.00  0.00    -0.005 A 
ATOM      6  C5  UNL d   1      -1.269  -2.113   5.275  0.00  0.00     0.003 A 
ATOM      7  C6  UNL d   1      -1.532  -0.742   5.275  0.00  0.00    -0.001 A 
ENDROOT
TORSDOF 0
ENDMDL
