MODEL 1
REMARK minimizedAffinity 9.34514332
REMARK minimizedRMSD -1
REMARK  0 active torsions:
REMARK  status: ('A' for Active; 'I' for Inactive)
ROOT
ATOM      1  C   UNL d   1      -1.968  -1.295   0.428  0.00  0.00     0.078 C 
ATOM      2  C1  UNL d   1      -1.901  -1.528  -1.052  0.00  0.00    -0.077 A 
ATOM      3  C2  UNL d   1      -2.576  -0.688  -1.946  0.00  0.00    -0.001 A 
ATOM      4  C3  UNL d   1      -2.513  -0.923  -3.320  0.00  0.00     0.003 A 
ATOM      5  C4  UNL d   1      -1.778  -1.999  -3.813  0.00  0.00    -0.005 A 
ATOM      6  C5  UNL d   1      -1.105  -2.842  -2.931  0.00  0.00     0.003 A 
ATOM      7  C6  UNL d   1      -1.167  -2.609  -1.556  0.00  0.00    -0.001 A 
ENDROOT
TORSDOF 0
ENDMDL
