MODEL 1
REMARK minimizedAffinity 5.42225599
REMARK minimizedRMSD -1
REMARK  0 active torsions:
REMARK  status: ('A' for Active; 'I' for Inactive)
ROOT
ATOM      1  C   UNL d   1      -5.107  -2.386   4.816  0.00  0.00     0.078 C 
ATOM      2  C1  UNL d   1      -3.839  -1.697   5.223  0.00  0.00    -0.077 A 
ATOM      3  C2  UNL d   1      -2.710  -2.432   5.605  0.00  0.00    -0.001 A 
ATOM      4  C3  UNL d   1      -1.539  -1.778   5.991  0.00  0.00     0.003 A 
ATOM      5  C4  UNL d   1      -1.486  -0.385   6.000  0.00  0.00    -0.005 A 
ATOM      6  C5  UNL d   1      -2.605   0.354   5.623  0.00  0.00     0.003 A 
ATOM      7  C6  UNL d   1      -3.777  -0.298   5.237  0.00  0.00    -0.001 A 
ENDROOT
TORSDOF 0
ENDMDL
