MODEL 1
REMARK minimizedAffinity 7.60110378
REMARK minimizedRMSD -1
REMARK  0 active torsions:
REMARK  status: ('A' for Active; 'I' for Inactive)
ROOT
ATOM      1  C   UNL d   1      -1.918   0.585   5.904  0.00  0.00     0.078 C 
ATOM      2  C1  UNL d   1      -2.048  -0.908   5.940  0.00  0.00    -0.077 A 
ATOM      3  C2  UNL d   1      -0.915  -1.731   5.926  0.00  0.00    -0.001 A 
ATOM      4  C3  UNL d   1      -1.051  -3.120   5.951  0.00  0.00     0.003 A 
ATOM      5  C4  UNL d   1      -2.318  -3.698   5.988  0.00  0.00    -0.005 A 
ATOM      6  C5  UNL d   1      -3.452  -2.888   6.000  0.00  0.00     0.003 A 
ATOM      7  C6  UNL d   1      -3.318  -1.499   5.975  0.00  0.00    -0.001 A 
ENDROOT
TORSDOF 0
ENDMDL
