MODEL 1
REMARK minimizedAffinity -4.69071102
REMARK minimizedRMSD -1
REMARK  1 active torsions:
REMARK  status: ('A' for Active; 'I' for Inactive)
REMARK    1  A    between atoms: C1_2  and  C2_3 
ROOT
ATOM      1  C2  UNL d   1      -0.669  -0.953   0.406  0.00  0.00    -0.077 A 
ATOM      2  C3  UNL d   1       0.698  -1.260   0.351  0.00  0.00     0.002 A 
ATOM      3  C4  UNL d   1       1.635  -0.262   0.080  0.00  0.00     0.002 A 
ATOM      4  C5  UNL d   1       1.217   1.050  -0.134  0.00  0.00    -0.004 A 
ATOM      5  C6  UNL d   1      -0.140   1.365  -0.083  0.00  0.00     0.002 A 
ATOM      6  C7  UNL d   1      -1.079   0.368   0.186  0.00  0.00     0.002 A 
ENDROOT
BRANCH   1   7
ATOM      7  C1  UNL d   1      -1.678  -2.019   0.746  0.00  0.00     0.055 C 
ATOM      8  C   UNL d   1      -1.232  -2.839   1.948  0.00  0.00     0.019 C 
ENDBRANCH   1   7
TORSDOF 1
ENDMDL
