MODEL 1
REMARK minimizedAffinity -5.05250311
REMARK minimizedRMSD -1
REMARK  1 active torsions:
REMARK  status: ('A' for Active; 'I' for Inactive)
REMARK    1  A    between atoms: C1_2  and  C2_3 
ROOT
ATOM      1  C2  UNL d   1       0.029  -0.130   0.184  0.00  0.00    -0.077 A 
ATOM      2  C3  UNL d   1      -1.356   0.040   0.319  0.00  0.00     0.002 A 
ATOM      3  C4  UNL d   1      -2.176  -1.052   0.608  0.00  0.00     0.002 A 
ATOM      4  C5  UNL d   1      -1.621  -2.319   0.770  0.00  0.00    -0.004 A 
ATOM      5  C6  UNL d   1      -0.245  -2.499   0.636  0.00  0.00     0.002 A 
ATOM      6  C7  UNL d   1       0.577  -1.409   0.345  0.00  0.00     0.002 A 
ENDROOT
BRANCH   1   7
ATOM      7  C1  UNL d   1       0.922   1.055  -0.080  0.00  0.00     0.055 C 
ATOM      8  C   UNL d   1       0.914   1.437  -1.553  0.00  0.00     0.019 C 
ENDBRANCH   1   7
TORSDOF 1
ENDMDL
