MODEL 1
REMARK minimizedAffinity -3.63766646
REMARK minimizedRMSD -1
REMARK  1 active torsions:
REMARK  status: ('A' for Active; 'I' for Inactive)
REMARK    1  A    between atoms: C1_2  and  C2_3 
ROOT
ATOM      1  C2  UNL d   1      -0.427  -1.453   0.659  0.00  0.00    -0.077 A 
ATOM      2  C3  UNL d   1       0.785  -1.174   0.012  0.00  0.00     0.002 A 
ATOM      3  C4  UNL d   1       1.036   0.101  -0.498  0.00  0.00     0.002 A 
ATOM      4  C5  UNL d   1       0.082   1.107  -0.364  0.00  0.00    -0.004 A 
ATOM      5  C6  UNL d   1      -1.127   0.839   0.276  0.00  0.00     0.002 A 
ATOM      6  C7  UNL d   1      -1.381  -0.435   0.786  0.00  0.00     0.002 A 
ENDROOT
BRANCH   1   7
ATOM      7  C1  UNL d   1      -0.680  -2.814   1.254  0.00  0.00     0.055 C 
ATOM      8  C   UNL d   1      -2.155  -3.016   1.568  0.00  0.00     0.019 C 
ENDBRANCH   1   7
TORSDOF 1
ENDMDL
