MODEL 1
REMARK minimizedAffinity -5.01475954
REMARK minimizedRMSD -1
REMARK  1 active torsions:
REMARK  status: ('A' for Active; 'I' for Inactive)
REMARK    1  A    between atoms: C1_2  and  C2_3 
ROOT
ATOM      1  C2  UNL d   1      -0.208   0.105   0.299  0.00  0.00    -0.077 A 
ATOM      2  C3  UNL d   1       0.313  -0.930   1.089  0.00  0.00     0.002 A 
ATOM      3  C4  UNL d   1      -0.438  -2.083   1.327  0.00  0.00     0.002 A 
ATOM      4  C5  UNL d   1      -1.711  -2.214   0.775  0.00  0.00    -0.004 A 
ATOM      5  C6  UNL d   1      -2.238  -1.190  -0.010  0.00  0.00     0.002 A 
ATOM      6  C7  UNL d   1      -1.489  -0.036  -0.248  0.00  0.00     0.002 A 
ENDROOT
BRANCH   1   7
ATOM      7  C1  UNL d   1       0.620   1.327  -0.000  0.00  0.00     0.055 C 
ATOM      8  C   UNL d   1       0.745   1.559  -1.499  0.00  0.00     0.019 C 
ENDBRANCH   1   7
TORSDOF 1
ENDMDL
