MODEL 1
REMARK minimizedAffinity -3.29293346
REMARK minimizedRMSD -1
REMARK  1 active torsions:
REMARK  status: ('A' for Active; 'I' for Inactive)
REMARK    1  A    between atoms: C1_2  and  C2_3 
ROOT
ATOM      1  C2  UNL d   1       0.291  -0.022   0.053  0.00  0.00    -0.077 A 
ATOM      2  C3  UNL d   1      -1.106   0.096   0.080  0.00  0.00     0.002 A 
ATOM      3  C4  UNL d   1      -1.892  -0.941   0.585  0.00  0.00     0.002 A 
ATOM      4  C5  UNL d   1      -1.291  -2.100   1.072  0.00  0.00    -0.004 A 
ATOM      5  C6  UNL d   1       0.097  -2.227   1.047  0.00  0.00     0.002 A 
ATOM      6  C7  UNL d   1       0.885  -1.192   0.541  0.00  0.00     0.002 A 
ENDROOT
BRANCH   1   7
ATOM      7  C1  UNL d   1       1.143   1.116  -0.447  0.00  0.00     0.055 C 
ATOM      8  C   UNL d   1       0.910   1.373  -1.928  0.00  0.00     0.019 C 
ENDBRANCH   1   7
TORSDOF 1
ENDMDL
