MODEL 1
REMARK minimizedAffinity -5.74429846
REMARK minimizedRMSD -1
REMARK  1 active torsions:
REMARK  status: ('A' for Active; 'I' for Inactive)
REMARK    1  A    between atoms: C1_2  and  C2_3 
ROOT
ATOM      1  C2  UNL d   1       0.010   0.095   0.198  0.00  0.00    -0.077 A 
ATOM      2  C3  UNL d   1      -1.388   0.168   0.272  0.00  0.00     0.002 A 
ATOM      3  C4  UNL d   1      -2.138  -0.964   0.595  0.00  0.00     0.002 A 
ATOM      4  C5  UNL d   1      -1.499  -2.176   0.849  0.00  0.00    -0.004 A 
ATOM      5  C6  UNL d   1      -0.109  -2.259   0.775  0.00  0.00     0.002 A 
ATOM      6  C7  UNL d   1       0.642  -1.129   0.452  0.00  0.00     0.002 A 
ENDROOT
BRANCH   1   7
ATOM      7  C1  UNL d   1       0.824   1.327  -0.101  0.00  0.00     0.055 C 
ATOM      8  C   UNL d   1       0.581   1.820  -1.521  0.00  0.00     0.019 C 
ENDBRANCH   1   7
TORSDOF 1
ENDMDL
