MODEL 1
REMARK minimizedAffinity -5.69400311
REMARK minimizedRMSD -1
REMARK  1 active torsions:
REMARK  status: ('A' for Active; 'I' for Inactive)
REMARK    1  A    between atoms: C1_2  and  C2_3 
ROOT
ATOM      1  C2  UNL d   1      -0.545  -0.807   0.564  0.00  0.00    -0.077 A 
ATOM      2  C3  UNL d   1      -1.502   0.101   1.038  0.00  0.00     0.002 A 
ATOM      3  C4  UNL d   1      -2.638  -0.356   1.708  0.00  0.00     0.002 A 
ATOM      4  C5  UNL d   1      -2.825  -1.722   1.914  0.00  0.00    -0.004 A 
ATOM      5  C6  UNL d   1      -1.880  -2.633   1.444  0.00  0.00     0.002 A 
ATOM      6  C7  UNL d   1      -0.745  -2.178   0.773  0.00  0.00     0.002 A 
ENDROOT
BRANCH   1   7
ATOM      7  C1  UNL d   1       0.706  -0.313  -0.116  0.00  0.00     0.055 C 
ATOM      8  C   UNL d   1       0.529   1.105  -0.637  0.00  0.00     0.019 C 
ENDBRANCH   1   7
TORSDOF 1
ENDMDL
