MODEL 1
REMARK minimizedAffinity -3.90462995
REMARK minimizedRMSD -1
REMARK  1 active torsions:
REMARK  status: ('A' for Active; 'I' for Inactive)
REMARK    1  A    between atoms: C1_2  and  C2_3 
ROOT
ATOM      1  C2  UNL d   1      -0.190  -0.038   0.219  0.00  0.00    -0.077 A 
ATOM      2  C3  UNL d   1      -1.477  -0.431   0.610  0.00  0.00     0.002 A 
ATOM      3  C4  UNL d   1      -1.703  -1.716   1.106  0.00  0.00     0.002 A 
ATOM      4  C5  UNL d   1      -0.646  -2.617   1.220  0.00  0.00    -0.004 A 
ATOM      5  C6  UNL d   1       0.637  -2.237   0.831  0.00  0.00     0.002 A 
ATOM      6  C7  UNL d   1       0.865  -0.953   0.334  0.00  0.00     0.002 A 
ENDROOT
BRANCH   1   7
ATOM      7  C1  UNL d   1       0.065   1.364  -0.271  0.00  0.00     0.055 C 
ATOM      8  C   UNL d   1       1.335   1.436  -1.106  0.00  0.00     0.019 C 
ENDBRANCH   1   7
TORSDOF 1
ENDMDL
