MODEL 1
REMARK minimizedAffinity -0.544768929
REMARK minimizedRMSD -1
REMARK  1 active torsions:
REMARK  status: ('A' for Active; 'I' for Inactive)
REMARK    1  A    between atoms: C1_2  and  C2_3 
ROOT
ATOM      1  C2  UNL d   1       0.719   1.641  -1.326  0.00  0.00    -0.077 A 
ATOM      2  C3  UNL d   1      -0.214   2.370  -2.077  0.00  0.00     0.002 A 
ATOM      3  C4  UNL d   1       0.210   3.193  -3.123  0.00  0.00     0.002 A 
ATOM      4  C5  UNL d   1       1.565   3.292  -3.429  0.00  0.00    -0.004 A 
ATOM      5  C6  UNL d   1       2.501   2.572  -2.686  0.00  0.00     0.002 A 
ATOM      6  C7  UNL d   1       2.080   1.750  -1.640  0.00  0.00     0.002 A 
ENDROOT
BRANCH   1   7
ATOM      7  C1  UNL d   1       0.260   0.715  -0.230  0.00  0.00     0.055 C 
ATOM      8  C   UNL d   1       0.261  -0.734  -0.693  0.00  0.00     0.019 C 
ENDBRANCH   1   7
TORSDOF 1
ENDMDL
