MODEL 1
REMARK minimizedAffinity -3.47104526
REMARK minimizedRMSD -1
REMARK  1 active torsions:
REMARK  status: ('A' for Active; 'I' for Inactive)
REMARK    1  A    between atoms: C1_2  and  C2_3 
ROOT
ATOM      1  C2  UNL d   1       0.756   1.228  -1.416  0.00  0.00    -0.077 A 
ATOM      2  C3  UNL d   1       2.104   1.531  -1.657  0.00  0.00     0.002 A 
ATOM      3  C4  UNL d   1       2.496   2.079  -2.880  0.00  0.00     0.002 A 
ATOM      4  C5  UNL d   1       1.548   2.333  -3.868  0.00  0.00    -0.004 A 
ATOM      5  C6  UNL d   1       0.205   2.034  -3.638  0.00  0.00     0.002 A 
ATOM      6  C7  UNL d   1      -0.189   1.485  -2.417  0.00  0.00     0.002 A 
ENDROOT
BRANCH   1   7
ATOM      7  C1  UNL d   1       0.324   0.682  -0.080  0.00  0.00     0.055 C 
ATOM      8  C   UNL d   1       0.382  -0.838  -0.058  0.00  0.00     0.019 C 
ENDBRANCH   1   7
TORSDOF 1
ENDMDL
