MODEL 1
REMARK minimizedAffinity -3.19756985
REMARK minimizedRMSD -1
REMARK  1 active torsions:
REMARK  status: ('A' for Active; 'I' for Inactive)
REMARK    1  A    between atoms: C1_2  and  C2_3 
ROOT
ATOM      1  C2  UNL d   1      -0.210  -0.623   0.837  0.00  0.00    -0.077 A 
ATOM      2  C3  UNL d   1      -0.808   0.641   0.931  0.00  0.00     0.002 A 
ATOM      3  C4  UNL d   1      -0.031   1.798   0.852  0.00  0.00     0.002 A 
ATOM      4  C5  UNL d   1       1.348   1.703   0.674  0.00  0.00    -0.004 A 
ATOM      5  C6  UNL d   1       1.953   0.450   0.582  0.00  0.00     0.002 A 
ATOM      6  C7  UNL d   1       1.178  -0.708   0.661  0.00  0.00     0.002 A 
ENDROOT
BRANCH   1   7
ATOM      7  C1  UNL d   1      -1.052  -1.871   0.872  0.00  0.00     0.055 C 
ATOM      8  C   UNL d   1      -0.428  -2.936   1.762  0.00  0.00     0.019 C 
ENDBRANCH   1   7
TORSDOF 1
ENDMDL
