MODEL 1
REMARK minimizedAffinity -2.54701543
REMARK minimizedRMSD -1
REMARK  1 active torsions:
REMARK  status: ('A' for Active; 'I' for Inactive)
REMARK    1  A    between atoms: C1_2  and  C2_3 
ROOT
ATOM      1  C2  UNL d   1       1.122   1.465  -1.234  0.00  0.00    -0.077 A 
ATOM      2  C3  UNL d   1       0.122   2.023  -2.043  0.00  0.00     0.002 A 
ATOM      3  C4  UNL d   1       0.461   2.717  -3.206  0.00  0.00     0.002 A 
ATOM      4  C5  UNL d   1       1.798   2.856  -3.573  0.00  0.00    -0.004 A 
ATOM      5  C6  UNL d   1       2.799   2.307  -2.774  0.00  0.00     0.002 A 
ATOM      6  C7  UNL d   1       2.463   1.613  -1.610  0.00  0.00     0.002 A 
ENDROOT
BRANCH   1   7
ATOM      7  C1  UNL d   1       0.757   0.673  -0.006  0.00  0.00     0.055 C 
ATOM      8  C   UNL d   1      -0.752   0.529   0.132  0.00  0.00     0.019 C 
ENDBRANCH   1   7
TORSDOF 1
ENDMDL
