MODEL 1
REMARK minimizedAffinity -4.41821241
REMARK minimizedRMSD -1
REMARK  1 active torsions:
REMARK  status: ('A' for Active; 'I' for Inactive)
REMARK    1  A    between atoms: C1_2  and  C2_3 
ROOT
ATOM      1  C2  UNL d   1      -0.157  -0.012   0.591  0.00  0.00    -0.077 A 
ATOM      2  C3  UNL d   1       0.419  -1.278   0.769  0.00  0.00     0.002 A 
ATOM      3  C4  UNL d   1      -0.388  -2.412   0.877  0.00  0.00     0.002 A 
ATOM      4  C5  UNL d   1      -1.774  -2.293   0.804  0.00  0.00    -0.004 A 
ATOM      5  C6  UNL d   1      -2.357  -1.039   0.629  0.00  0.00     0.002 A 
ATOM      6  C7  UNL d   1      -1.552   0.097   0.522  0.00  0.00     0.002 A 
ENDROOT
BRANCH   1   7
ATOM      7  C1  UNL d   1       0.713   1.206   0.424  0.00  0.00     0.055 C 
ATOM      8  C   UNL d   1       1.143   1.386  -1.024  0.00  0.00     0.019 C 
ENDBRANCH   1   7
TORSDOF 1
ENDMDL
