MODEL 1
REMARK minimizedAffinity -5.75794029
REMARK minimizedRMSD -1
REMARK  1 active torsions:
REMARK  status: ('A' for Active; 'I' for Inactive)
REMARK    1  A    between atoms: C1_2  and  C2_3 
ROOT
ATOM      1  C2  UNL d   1      -0.552  -0.593   0.668  0.00  0.00    -0.077 A 
ATOM      2  C3  UNL d   1      -1.389   0.465   1.048  0.00  0.00     0.002 A 
ATOM      3  C4  UNL d   1      -2.583   0.213   1.727  0.00  0.00     0.002 A 
ATOM      4  C5  UNL d   1      -2.948  -1.096   2.034  0.00  0.00    -0.004 A 
ATOM      5  C6  UNL d   1      -2.124  -2.156   1.658  0.00  0.00     0.002 A 
ATOM      6  C7  UNL d   1      -0.931  -1.905   0.979  0.00  0.00     0.002 A 
ENDROOT
BRANCH   1   7
ATOM      7  C1  UNL d   1       0.760  -0.319  -0.020  0.00  0.00     0.055 C 
ATOM      8  C   UNL d   1       0.847   1.125  -0.491  0.00  0.00     0.019 C 
ENDBRANCH   1   7
TORSDOF 1
ENDMDL
