MODEL 1
REMARK minimizedAffinity 10.8072195
REMARK minimizedRMSD -1
REMARK  1 active torsions:
REMARK  status: ('A' for Active; 'I' for Inactive)
REMARK    1  A    between atoms: C1_2  and  C2_3 
ROOT
ATOM      1  C2  UNL d   1      -5.050   0.378  -2.755  0.00  0.00    -0.077 A 
ATOM      2  C3  UNL d   1      -5.480   0.751  -1.474  0.00  0.00     0.002 A 
ATOM      3  C4  UNL d   1      -4.588   0.746  -0.400  0.00  0.00     0.002 A 
ATOM      4  C5  UNL d   1      -3.260   0.373  -0.597  0.00  0.00    -0.004 A 
ATOM      5  C6  UNL d   1      -2.823  -0.001  -1.867  0.00  0.00     0.002 A 
ATOM      6  C7  UNL d   1      -3.714   0.002  -2.942  0.00  0.00     0.002 A 
ENDROOT
BRANCH   1   7
ATOM      7  C1  UNL d   1      -5.999   0.429  -3.924  0.00  0.00     0.055 C 
ATOM      8  C   UNL d   1      -5.250   0.376  -5.248  0.00  0.00     0.019 C 
ENDBRANCH   1   7
TORSDOF 1
ENDMDL
