MODEL 1
REMARK minimizedAffinity 9.89577198
REMARK minimizedRMSD -1
REMARK  1 active torsions:
REMARK  status: ('A' for Active; 'I' for Inactive)
REMARK    1  A    between atoms: C1_2  and  C2_3 
ROOT
ATOM      1  C2  UNL d   1      -1.586  -5.999  -1.396  0.00  0.00    -0.077 A 
ATOM      2  C3  UNL d   1      -1.318  -5.999  -2.772  0.00  0.00     0.002 A 
ATOM      3  C4  UNL d   1      -2.365  -5.999  -3.695  0.00  0.00     0.002 A 
ATOM      4  C5  UNL d   1      -3.686  -5.994  -3.253  0.00  0.00    -0.004 A 
ATOM      5  C6  UNL d   1      -3.963  -5.996  -1.887  0.00  0.00     0.002 A 
ATOM      6  C7  UNL d   1      -2.918  -5.998  -0.962  0.00  0.00     0.002 A 
ENDROOT
BRANCH   1   7
ATOM      7  C1  UNL d   1      -0.458  -5.950  -0.398  0.00  0.00     0.055 C 
ATOM      8  C   UNL d   1      -0.980  -5.999   1.030  0.00  0.00     0.019 C 
ENDBRANCH   1   7
TORSDOF 1
ENDMDL
