MODEL 1
REMARK minimizedAffinity 7.3527422
REMARK minimizedRMSD -1
REMARK  1 active torsions:
REMARK  status: ('A' for Active; 'I' for Inactive)
REMARK    1  A    between atoms: C1_2  and  C2_3 
ROOT
ATOM      1  C2  UNL d   1       3.050   0.575  -0.413  0.00  0.00    -0.077 A 
ATOM      2  C3  UNL d   1       2.316  -0.198  -1.324  0.00  0.00     0.002 A 
ATOM      3  C4  UNL d   1       1.876  -1.475  -0.974  0.00  0.00     0.002 A 
ATOM      4  C5  UNL d   1       2.161  -1.990   0.289  0.00  0.00    -0.004 A 
ATOM      5  C6  UNL d   1       2.892  -1.231   1.202  0.00  0.00     0.002 A 
ATOM      6  C7  UNL d   1       3.334   0.046   0.853  0.00  0.00     0.002 A 
ENDROOT
BRANCH   1   7
ATOM      7  C1  UNL d   1       3.484   1.972  -0.772  0.00  0.00     0.055 C 
ATOM      8  C   UNL d   1       4.321   1.983  -2.043  0.00  0.00     0.019 C 
ENDBRANCH   1   7
TORSDOF 1
ENDMDL
