MODEL 1
REMARK minimizedAffinity 4.48131609
REMARK minimizedRMSD -1
REMARK  1 active torsions:
REMARK  status: ('A' for Active; 'I' for Inactive)
REMARK    1  A    between atoms: C1_2  and  C2_3 
ROOT
ATOM      1  C2  UNL d   1       2.668  -0.393  -0.771  0.00  0.00    -0.077 A 
ATOM      2  C3  UNL d   1       2.477  -0.667  -2.133  0.00  0.00     0.002 A 
ATOM      3  C4  UNL d   1       1.943  -1.891  -2.539  0.00  0.00     0.002 A 
ATOM      4  C5  UNL d   1       1.592  -2.849  -1.590  0.00  0.00    -0.004 A 
ATOM      5  C6  UNL d   1       1.780  -2.587  -0.234  0.00  0.00     0.002 A 
ATOM      6  C7  UNL d   1       2.314  -1.365   0.174  0.00  0.00     0.002 A 
ENDROOT
BRANCH   1   7
ATOM      7  C1  UNL d   1       3.198   0.946  -0.329  0.00  0.00     0.055 C 
ATOM      8  C   UNL d   1       3.597   1.804  -1.520  0.00  0.00     0.019 C 
ENDBRANCH   1   7
TORSDOF 1
ENDMDL
