MODEL 1
REMARK minimizedAffinity 2.12006164
REMARK minimizedRMSD -1
REMARK  1 active torsions:
REMARK  status: ('A' for Active; 'I' for Inactive)
REMARK    1  A    between atoms: C1_2  and  C2_3 
ROOT
ATOM      1  C2  UNL d   1      -5.405   4.211   3.514  0.00  0.00    -0.077 A 
ATOM      2  C3  UNL d   1      -5.959   3.679   4.687  0.00  0.00     0.002 A 
ATOM      3  C4  UNL d   1      -5.741   4.302   5.917  0.00  0.00     0.002 A 
ATOM      4  C5  UNL d   1      -4.973   5.462   5.985  0.00  0.00    -0.004 A 
ATOM      5  C6  UNL d   1      -4.416   5.998   4.825  0.00  0.00     0.002 A 
ATOM      6  C7  UNL d   1      -4.632   5.376   3.595  0.00  0.00     0.002 A 
ENDROOT
BRANCH   1   7
ATOM      7  C1  UNL d   1      -5.679   3.568   2.180  0.00  0.00     0.055 C 
ATOM      8  C   UNL d   1      -4.426   2.922   1.608  0.00  0.00     0.019 C 
ENDBRANCH   1   7
TORSDOF 1
ENDMDL
