MODEL 1
REMARK minimizedAffinity 9.26784515
REMARK minimizedRMSD -1
REMARK  1 active torsions:
REMARK  status: ('A' for Active; 'I' for Inactive)
REMARK    1  A    between atoms: C1_2  and  C2_3 
ROOT
ATOM      1  C2  UNL d   1      -4.754   0.055  -2.297  0.00  0.00    -0.077 A 
ATOM      2  C3  UNL d   1      -3.752  -0.298  -1.382  0.00  0.00     0.002 A 
ATOM      3  C4  UNL d   1      -3.875   0.045  -0.033  0.00  0.00     0.002 A 
ATOM      4  C5  UNL d   1      -4.999   0.737   0.412  0.00  0.00    -0.004 A 
ATOM      5  C6  UNL d   1      -6.000   1.094  -0.491  0.00  0.00     0.002 A 
ATOM      6  C7  UNL d   1      -5.879   0.754  -1.839  0.00  0.00     0.002 A 
ENDROOT
BRANCH   1   7
ATOM      7  C1  UNL d   1      -4.647  -0.356  -3.742  0.00  0.00     0.055 C 
ATOM      8  C   UNL d   1      -6.000  -0.774  -4.300  0.00  0.00     0.019 C 
ENDBRANCH   1   7
TORSDOF 1
ENDMDL
