MODEL 1
REMARK minimizedAffinity 11.7773075
REMARK minimizedRMSD -1
REMARK  1 active torsions:
REMARK  status: ('A' for Active; 'I' for Inactive)
REMARK    1  A    between atoms: C1_2  and  C2_3 
ROOT
ATOM      1  C2  UNL d   1       3.741   1.603  -0.261  0.00  0.00    -0.077 A 
ATOM      2  C3  UNL d   1       4.867   1.867   0.531  0.00  0.00     0.002 A 
ATOM      3  C4  UNL d   1       5.992   2.483  -0.022  0.00  0.00     0.002 A 
ATOM      4  C5  UNL d   1       6.000   2.842  -1.368  0.00  0.00    -0.004 A 
ATOM      5  C6  UNL d   1       4.886   2.582  -2.165  0.00  0.00     0.002 A 
ATOM      6  C7  UNL d   1       3.761   1.966  -1.614  0.00  0.00     0.002 A 
ENDROOT
BRANCH   1   7
ATOM      7  C1  UNL d   1       2.509   0.985   0.345  0.00  0.00     0.055 C 
ATOM      8  C   UNL d   1       1.577   0.441  -0.728  0.00  0.00     0.019 C 
ENDBRANCH   1   7
TORSDOF 1
ENDMDL
