MODEL 1
REMARK minimizedAffinity 2.83742046
REMARK minimizedRMSD -1
REMARK  0 active torsions:
REMARK  status: ('A' for Active; 'I' for Inactive)
ROOT
ATOM      1  C   UNL d   1       2.298   1.509   0.227  0.00  0.00     0.078 C 
ATOM      2  C1  UNL d   1       2.211   0.355  -0.726  0.00  0.00    -0.077 A 
ATOM      3  C2  UNL d   1       2.702  -0.909  -0.376  0.00  0.00    -0.001 A 
ATOM      4  C3  UNL d   1       2.624  -1.972  -1.277  0.00  0.00     0.003 A 
ATOM      5  C4  UNL d   1       2.055  -1.782  -2.535  0.00  0.00    -0.005 A 
ATOM      6  C5  UNL d   1       1.564  -0.528  -2.893  0.00  0.00     0.003 A 
ATOM      7  C6  UNL d   1       1.642   0.536  -1.993  0.00  0.00    -0.001 A 
ENDROOT
TORSDOF 0
ENDMDL
