MODEL 1
REMARK minimizedAffinity -3.08944106
REMARK minimizedRMSD -1
REMARK  0 active torsions:
REMARK  status: ('A' for Active; 'I' for Inactive)
ROOT
ATOM      1  C   UNL d   1       2.409   5.767   0.289  0.00  0.00     0.078 C 
ATOM      2  C1  UNL d   1       1.730   4.431   0.242  0.00  0.00    -0.077 A 
ATOM      3  C2  UNL d   1       0.334   4.332   0.186  0.00  0.00    -0.001 A 
ATOM      4  C3  UNL d   1      -0.284   3.082   0.153  0.00  0.00     0.003 A 
ATOM      5  C4  UNL d   1       0.484   1.920   0.178  0.00  0.00    -0.005 A 
ATOM      6  C5  UNL d   1       1.874   2.008   0.236  0.00  0.00     0.003 A 
ATOM      7  C6  UNL d   1       2.494   3.258   0.269  0.00  0.00    -0.001 A 
ENDROOT
TORSDOF 0
ENDMDL
