MODEL 1
REMARK minimizedAffinity 0.130512595
REMARK minimizedRMSD -1
REMARK  0 active torsions:
REMARK  status: ('A' for Active; 'I' for Inactive)
ROOT
ATOM      1  C   UNL d   1      -1.952   3.339  -0.483  0.00  0.00     0.078 C 
ATOM      2  C1  UNL d   1      -2.889   2.499   0.333  0.00  0.00    -0.077 A 
ATOM      3  C2  UNL d   1      -2.436   1.352   0.996  0.00  0.00    -0.001 A 
ATOM      4  C3  UNL d   1      -3.321   0.573   1.744  0.00  0.00     0.003 A 
ATOM      5  C4  UNL d   1      -4.665   0.933   1.835  0.00  0.00    -0.005 A 
ATOM      6  C5  UNL d   1      -5.124   2.072   1.176  0.00  0.00     0.003 A 
ATOM      7  C6  UNL d   1      -4.241   2.851   0.428  0.00  0.00    -0.001 A 
ENDROOT
TORSDOF 0
ENDMDL
