MODEL 1
REMARK minimizedAffinity 0.156863183
REMARK minimizedRMSD -1
REMARK  0 active torsions:
REMARK  status: ('A' for Active; 'I' for Inactive)
ROOT
ATOM      1  C   UNL d   1       0.243  -3.375   1.775  0.00  0.00     0.078 C 
ATOM      2  C1  UNL d   1       1.551  -3.845   1.211  0.00  0.00    -0.077 A 
ATOM      3  C2  UNL d   1       2.467  -2.939   0.662  0.00  0.00    -0.001 A 
ATOM      4  C3  UNL d   1       3.676  -3.392   0.132  0.00  0.00     0.003 A 
ATOM      5  C4  UNL d   1       3.980  -4.752   0.145  0.00  0.00    -0.005 A 
ATOM      6  C5  UNL d   1       3.074  -5.661   0.687  0.00  0.00     0.003 A 
ATOM      7  C6  UNL d   1       1.864  -5.210   1.217  0.00  0.00    -0.001 A 
ENDROOT
TORSDOF 0
ENDMDL
