MODEL 1
REMARK minimizedAffinity 2.77733541
REMARK minimizedRMSD -1
REMARK  0 active torsions:
REMARK  status: ('A' for Active; 'I' for Inactive)
ROOT
ATOM      1  C   UNL d   1       2.251   1.787   0.819  0.00  0.00     0.078 C 
ATOM      2  C1  UNL d   1       2.571   1.289  -0.558  0.00  0.00    -0.077 A 
ATOM      3  C2  UNL d   1       3.896   1.065  -0.954  0.00  0.00    -0.001 A 
ATOM      4  C3  UNL d   1       4.180   0.611  -2.243  0.00  0.00     0.003 A 
ATOM      5  C4  UNL d   1       3.146   0.377  -3.147  0.00  0.00    -0.005 A 
ATOM      6  C5  UNL d   1       1.825   0.599  -2.763  0.00  0.00     0.003 A 
ATOM      7  C6  UNL d   1       1.538   1.054  -1.474  0.00  0.00    -0.001 A 
ENDROOT
TORSDOF 0
ENDMDL
