MODEL 1
REMARK minimizedAffinity -1.23913229
REMARK minimizedRMSD -1
REMARK  0 active torsions:
REMARK  status: ('A' for Active; 'I' for Inactive)
ROOT
ATOM      1  C   UNL d   1      -0.595   2.631   0.851  0.00  0.00     0.078 C 
ATOM      2  C1  UNL d   1       0.878   2.506   0.604  0.00  0.00    -0.077 A 
ATOM      3  C2  UNL d   1       1.585   3.513  -0.065  0.00  0.00    -0.001 A 
ATOM      4  C3  UNL d   1       2.955   3.379  -0.297  0.00  0.00     0.003 A 
ATOM      5  C4  UNL d   1       3.630   2.240   0.136  0.00  0.00    -0.005 A 
ATOM      6  C5  UNL d   1       2.935   1.232   0.801  0.00  0.00     0.003 A 
ATOM      7  C6  UNL d   1       1.565   1.364   1.034  0.00  0.00    -0.001 A 
ENDROOT
TORSDOF 0
ENDMDL
