MODEL 1
REMARK minimizedAffinity 1.0341264
REMARK minimizedRMSD -1
REMARK  0 active torsions:
REMARK  status: ('A' for Active; 'I' for Inactive)
ROOT
ATOM      1  C   UNL d   1       1.718   2.683   0.421  0.00  0.00     0.078 C 
ATOM      2  C1  UNL d   1       0.234   2.518   0.276  0.00  0.00    -0.077 A 
ATOM      3  C2  UNL d   1      -0.470   1.603   1.067  0.00  0.00    -0.001 A 
ATOM      4  C3  UNL d   1      -1.850   1.452   0.914  0.00  0.00     0.003 A 
ATOM      5  C4  UNL d   1      -2.536   2.214  -0.030  0.00  0.00    -0.005 A 
ATOM      6  C5  UNL d   1      -1.843   3.126  -0.823  0.00  0.00     0.003 A 
ATOM      7  C6  UNL d   1      -0.464   3.277  -0.672  0.00  0.00    -0.001 A 
ENDROOT
TORSDOF 0
ENDMDL
