MODEL 1
REMARK minimizedAffinity -1.15902388
REMARK minimizedRMSD -1
REMARK  0 active torsions:
REMARK  status: ('A' for Active; 'I' for Inactive)
ROOT
ATOM      1  C   UNL d   1       1.757  -0.210  -0.282  0.00  0.00     0.078 C 
ATOM      2  C1  UNL d   1       2.458   0.967   0.328  0.00  0.00    -0.077 A 
ATOM      3  C2  UNL d   1       3.772   0.859   0.799  0.00  0.00    -0.001 A 
ATOM      4  C3  UNL d   1       4.409   1.960   1.373  0.00  0.00     0.003 A 
ATOM      5  C4  UNL d   1       3.739   3.177   1.484  0.00  0.00    -0.005 A 
ATOM      6  C5  UNL d   1       2.431   3.293   1.020  0.00  0.00     0.003 A 
ATOM      7  C6  UNL d   1       1.792   2.193   0.445  0.00  0.00    -0.001 A 
ENDROOT
TORSDOF 0
ENDMDL
