MODEL 1
REMARK minimizedAffinity 2.32068563
REMARK minimizedRMSD -1
REMARK  0 active torsions:
REMARK  status: ('A' for Active; 'I' for Inactive)
ROOT
ATOM      1  C   UNL d   1      -0.152   2.535   1.976  0.00  0.00     0.078 C 
ATOM      2  C1  UNL d   1       1.315   2.486   1.672  0.00  0.00    -0.077 A 
ATOM      3  C2  UNL d   1       2.254   2.254   2.684  0.00  0.00    -0.001 A 
ATOM      4  C3  UNL d   1       3.618   2.220   2.388  0.00  0.00     0.003 A 
ATOM      5  C4  UNL d   1       4.055   2.418   1.080  0.00  0.00    -0.005 A 
ATOM      6  C5  UNL d   1       3.128   2.652   0.066  0.00  0.00     0.003 A 
ATOM      7  C6  UNL d   1       1.764   2.686   0.360  0.00  0.00    -0.001 A 
ENDROOT
TORSDOF 0
ENDMDL
