MODEL 1
REMARK minimizedAffinity 0.156342059
REMARK minimizedRMSD -1
REMARK  0 active torsions:
REMARK  status: ('A' for Active; 'I' for Inactive)
ROOT
ATOM      1  C   UNL d   1      -1.197  -4.106   2.886  0.00  0.00     0.078 C 
ATOM      2  C1  UNL d   1      -1.681  -4.491   1.520  0.00  0.00    -0.077 A 
ATOM      3  C2  UNL d   1      -1.094  -5.551   0.819  0.00  0.00    -0.001 A 
ATOM      4  C3  UNL d   1      -1.548  -5.892  -0.456  0.00  0.00     0.003 A 
ATOM      5  C4  UNL d   1      -2.591  -5.177  -1.042  0.00  0.00    -0.005 A 
ATOM      6  C5  UNL d   1      -3.180  -4.119  -0.353  0.00  0.00     0.003 A 
ATOM      7  C6  UNL d   1      -2.727  -3.777   0.922  0.00  0.00    -0.001 A 
ENDROOT
TORSDOF 0
ENDMDL
