MODEL 1
REMARK minimizedAffinity 1.74388015
REMARK minimizedRMSD -1
REMARK  0 active torsions:
REMARK  status: ('A' for Active; 'I' for Inactive)
ROOT
ATOM      1  C   UNL d   1       3.284   1.625   1.175  0.00  0.00     0.078 C 
ATOM      2  C1  UNL d   1       1.959   2.324   1.090  0.00  0.00    -0.077 A 
ATOM      3  C2  UNL d   1       1.636   3.125  -0.012  0.00  0.00    -0.001 A 
ATOM      4  C3  UNL d   1       0.404   3.777  -0.073  0.00  0.00     0.003 A 
ATOM      5  C4  UNL d   1      -0.515   3.636   0.965  0.00  0.00    -0.005 A 
ATOM      6  C5  UNL d   1      -0.202   2.842   2.066  0.00  0.00     0.003 A 
ATOM      7  C6  UNL d   1       1.030   2.189   2.129  0.00  0.00    -0.001 A 
ENDROOT
TORSDOF 0
ENDMDL
