MODEL 1
REMARK minimizedAffinity 6.71153116
REMARK minimizedRMSD -1
REMARK  0 active torsions:
REMARK  status: ('A' for Active; 'I' for Inactive)
ROOT
ATOM      1  C   UNL d   1       2.497   2.063   0.606  0.00  0.00     0.078 C 
ATOM      2  C1  UNL d   1       2.242   1.038  -0.458  0.00  0.00    -0.077 A 
ATOM      3  C2  UNL d   1       2.449  -0.325  -0.212  0.00  0.00    -0.001 A 
ATOM      4  C3  UNL d   1       2.217  -1.267  -1.215  0.00  0.00     0.003 A 
ATOM      5  C4  UNL d   1       1.777  -0.857  -2.472  0.00  0.00    -0.005 A 
ATOM      6  C5  UNL d   1       1.570   0.497  -2.727  0.00  0.00     0.003 A 
ATOM      7  C6  UNL d   1       1.802   1.441  -1.726  0.00  0.00    -0.001 A 
ENDROOT
TORSDOF 0
ENDMDL
