MODEL 1
REMARK minimizedAffinity 5.85586929
REMARK minimizedRMSD -1
REMARK  0 active torsions:
REMARK  status: ('A' for Active; 'I' for Inactive)
ROOT
ATOM      1  C   UNL d   1       1.872   2.529   0.641  0.00  0.00     0.078 C 
ATOM      2  C1  UNL d   1       1.838   1.219  -0.087  0.00  0.00    -0.077 A 
ATOM      3  C2  UNL d   1       1.982   0.007   0.601  0.00  0.00    -0.001 A 
ATOM      4  C3  UNL d   1       1.958  -1.205  -0.091  0.00  0.00     0.003 A 
ATOM      5  C4  UNL d   1       1.791  -1.217  -1.475  0.00  0.00    -0.005 A 
ATOM      6  C5  UNL d   1       1.650  -0.017  -2.168  0.00  0.00     0.003 A 
ATOM      7  C6  UNL d   1       1.673   1.196  -1.478  0.00  0.00    -0.001 A 
ENDROOT
TORSDOF 0
ENDMDL
