MODEL 1
REMARK minimizedAffinity -3.94930482
REMARK minimizedRMSD -1
REMARK  1 active torsions:
REMARK  status: ('A' for Active; 'I' for Inactive)
REMARK    1  A    between atoms: C1_2  and  C2_3 
ROOT
ATOM      1  C2  UNL d   1      -0.131   0.398   0.205  0.00  0.00    -0.073 A 
ATOM      2  C3  UNL d   1      -0.942   0.555   1.335  0.00  0.00    -0.002 A 
ATOM      3  C4  UNL d   1      -1.427  -0.563   2.015  0.00  0.00     0.004 A 
ATOM      4  C5  UNL d   1      -1.103  -1.847   1.576  0.00  0.00    -0.004 A 
ATOM      5  C6  UNL d   1      -0.285  -2.024   0.456  0.00  0.00    -0.075 A 
ATOM      6  C7  UNL d   1       0.072  -3.398  -0.030  0.00  0.00     0.076 C 
ATOM      7  C8  UNL d   1       0.197  -0.896  -0.223  0.00  0.00     0.001 A 
ENDROOT
BRANCH   1   8
ATOM      8  C1  UNL d   1       0.401   1.602  -0.528  0.00  0.00     0.053 C 
ATOM      9  C   UNL d   1       0.952   2.652   0.424  0.00  0.00     0.018 C 
ENDBRANCH   1   8
TORSDOF 1
ENDMDL
