MODEL 1
REMARK minimizedAffinity -4.46772528
REMARK minimizedRMSD -1
REMARK  1 active torsions:
REMARK  status: ('A' for Active; 'I' for Inactive)
REMARK    1  A    between atoms: C1_2  and  C2_3 
ROOT
ATOM      1  C2  UNL d   1      -0.005   1.493   0.044  0.00  0.00    -0.073 A 
ATOM      2  C3  UNL d   1      -0.680   0.919   1.127  0.00  0.00    -0.002 A 
ATOM      3  C4  UNL d   1      -0.848  -0.464   1.200  0.00  0.00     0.004 A 
ATOM      4  C5  UNL d   1      -0.338  -1.287   0.196  0.00  0.00    -0.004 A 
ATOM      5  C6  UNL d   1       0.350  -0.734  -0.889  0.00  0.00    -0.075 A 
ATOM      6  C7  UNL d   1       0.902  -1.605  -1.978  0.00  0.00     0.076 C 
ATOM      7  C8  UNL d   1       0.512   0.656  -0.956  0.00  0.00     0.001 A 
ENDROOT
BRANCH   1   8
ATOM      8  C1  UNL d   1       0.185   2.986  -0.036  0.00  0.00     0.053 C 
ATOM      9  C   UNL d   1       1.643   3.384   0.131  0.00  0.00     0.018 C 
ENDBRANCH   1   8
TORSDOF 1
ENDMDL
