MODEL 1
REMARK minimizedAffinity -4.86861181
REMARK minimizedRMSD -1
REMARK  1 active torsions:
REMARK  status: ('A' for Active; 'I' for Inactive)
REMARK    1  A    between atoms: C1_2  and  C2_3 
ROOT
ATOM      1  C2  UNL d   1       0.140  -0.533   0.886  0.00  0.00    -0.073 A 
ATOM      2  C3  UNL d   1      -0.265  -0.315  -0.436  0.00  0.00    -0.002 A 
ATOM      3  C4  UNL d   1       0.008   0.901  -1.065  0.00  0.00     0.004 A 
ATOM      4  C5  UNL d   1       0.692   1.906  -0.383  0.00  0.00    -0.004 A 
ATOM      5  C6  UNL d   1       1.116   1.703   0.935  0.00  0.00    -0.075 A 
ATOM      6  C7  UNL d   1       1.851   2.776   1.683  0.00  0.00     0.076 C 
ATOM      7  C8  UNL d   1       0.836   0.481   1.561  0.00  0.00     0.001 A 
ENDROOT
BRANCH   1   8
ATOM      8  C1  UNL d   1      -0.146  -1.846   1.568  0.00  0.00     0.053 C 
ATOM      9  C   UNL d   1       0.188  -3.034   0.679  0.00  0.00     0.018 C 
ENDBRANCH   1   8
TORSDOF 1
ENDMDL
