MODEL 1
REMARK minimizedAffinity -2.05444646
REMARK minimizedRMSD -1
REMARK  1 active torsions:
REMARK  status: ('A' for Active; 'I' for Inactive)
REMARK    1  A    between atoms: C1_2  and  C2_3 
ROOT
ATOM      1  C2  UNL d   1      -0.358  -0.733   0.200  0.00  0.00    -0.073 A 
ATOM      2  C3  UNL d   1       0.126  -0.992  -1.088  0.00  0.00    -0.002 A 
ATOM      3  C4  UNL d   1       0.483   0.061  -1.932  0.00  0.00     0.004 A 
ATOM      4  C5  UNL d   1       0.367   1.380  -1.496  0.00  0.00    -0.004 A 
ATOM      5  C6  UNL d   1      -0.103   1.659  -0.208  0.00  0.00    -0.075 A 
ATOM      6  C7  UNL d   1      -0.236   3.074   0.275  0.00  0.00     0.076 C 
ATOM      7  C8  UNL d   1      -0.462   0.597   0.632  0.00  0.00     0.001 A 
ENDROOT
BRANCH   1   8
ATOM      8  C1  UNL d   1      -0.739  -1.866   1.117  0.00  0.00     0.053 C 
ATOM      9  C   UNL d   1      -0.851  -3.187   0.374  0.00  0.00     0.018 C 
ENDBRANCH   1   8
TORSDOF 1
ENDMDL
