MODEL 1
REMARK minimizedAffinity -5.19615746
REMARK minimizedRMSD -1
REMARK  1 active torsions:
REMARK  status: ('A' for Active; 'I' for Inactive)
REMARK    1  A    between atoms: C1_2  and  C2_3 
ROOT
ATOM      1  C2  UNL d   1      -0.311  -2.090  -0.196  0.00  0.00    -0.073 A 
ATOM      2  C3  UNL d   1      -1.126  -2.241   0.931  0.00  0.00    -0.002 A 
ATOM      3  C4  UNL d   1      -1.394  -1.151   1.759  0.00  0.00     0.004 A 
ATOM      4  C5  UNL d   1      -0.857   0.102   1.466  0.00  0.00    -0.004 A 
ATOM      5  C6  UNL d   1      -0.049   0.277   0.337  0.00  0.00    -0.075 A 
ATOM      6  C7  UNL d   1       0.538   1.618   0.008  0.00  0.00     0.076 C 
ATOM      7  C8  UNL d   1       0.217  -0.824  -0.488  0.00  0.00     0.001 A 
ENDROOT
BRANCH   1   8
ATOM      8  C1  UNL d   1      -0.024  -3.263  -1.097  0.00  0.00     0.053 C 
ATOM      9  C   UNL d   1      -0.087  -2.882  -2.567  0.00  0.00     0.018 C 
ENDBRANCH   1   8
TORSDOF 1
ENDMDL
