MODEL 1
REMARK minimizedAffinity -3.91172147
REMARK minimizedRMSD -1
REMARK  1 active torsions:
REMARK  status: ('A' for Active; 'I' for Inactive)
REMARK    1  A    between atoms: C1_2  and  C2_3 
ROOT
ATOM      1  C2  UNL d   1       0.017   0.373   0.102  0.00  0.00    -0.073 A 
ATOM      2  C3  UNL d   1      -0.991   0.542   1.058  0.00  0.00    -0.002 A 
ATOM      3  C4  UNL d   1      -1.606  -0.568   1.638  0.00  0.00     0.004 A 
ATOM      4  C5  UNL d   1      -1.216  -1.856   1.274  0.00  0.00    -0.004 A 
ATOM      5  C6  UNL d   1      -0.202  -2.046   0.329  0.00  0.00    -0.075 A 
ATOM      6  C7  UNL d   1       0.227  -3.426  -0.075  0.00  0.00     0.076 C 
ATOM      7  C8  UNL d   1       0.409  -0.926  -0.251  0.00  0.00     0.001 A 
ENDROOT
BRANCH   1   8
ATOM      8  C1  UNL d   1       0.688   1.569  -0.523  0.00  0.00     0.053 C 
ATOM      9  C   UNL d   1       0.758   2.748   0.434  0.00  0.00     0.018 C 
ENDBRANCH   1   8
TORSDOF 1
ENDMDL
