MODEL 1
REMARK minimizedAffinity -3.12294292
REMARK minimizedRMSD -1
REMARK  1 active torsions:
REMARK  status: ('A' for Active; 'I' for Inactive)
REMARK    1  A    between atoms: C1_2  and  C2_3 
ROOT
ATOM      1  C2  UNL d   1       0.355   0.431   0.149  0.00  0.00    -0.073 A 
ATOM      2  C3  UNL d   1      -0.735   0.793   0.948  0.00  0.00    -0.002 A 
ATOM      3  C4  UNL d   1      -1.464  -0.182   1.630  0.00  0.00     0.004 A 
ATOM      4  C5  UNL d   1      -1.107  -1.526   1.526  0.00  0.00    -0.004 A 
ATOM      5  C6  UNL d   1      -0.013  -1.907   0.742  0.00  0.00    -0.075 A 
ATOM      6  C7  UNL d   1       0.383  -3.349   0.618  0.00  0.00     0.076 C 
ATOM      7  C8  UNL d   1       0.712  -0.922   0.058  0.00  0.00     0.001 A 
ENDROOT
BRANCH   1   8
ATOM      8  C1  UNL d   1       1.149   1.482  -0.584  0.00  0.00     0.053 C 
ATOM      9  C   UNL d   1       1.497   2.661   0.310  0.00  0.00     0.018 C 
ENDBRANCH   1   8
TORSDOF 1
ENDMDL
