MODEL 1
REMARK minimizedAffinity -0.489920139
REMARK minimizedRMSD -1
REMARK  1 active torsions:
REMARK  status: ('A' for Active; 'I' for Inactive)
REMARK    1  A    between atoms: C1_2  and  C2_3 
ROOT
ATOM      1  C2  UNL d   1      -0.273   1.191   0.085  0.00  0.00    -0.073 A 
ATOM      2  C3  UNL d   1       0.160   0.978  -1.229  0.00  0.00    -0.002 A 
ATOM      3  C4  UNL d   1       0.171  -0.310  -1.767  0.00  0.00     0.004 A 
ATOM      4  C5  UNL d   1      -0.256  -1.394  -1.001  0.00  0.00    -0.004 A 
ATOM      5  C6  UNL d   1      -0.703  -1.200   0.310  0.00  0.00    -0.075 A 
ATOM      6  C7  UNL d   1      -1.164  -2.357   1.147  0.00  0.00     0.076 C 
ATOM      7  C8  UNL d   1      -0.709   0.096   0.844  0.00  0.00     0.001 A 
ENDROOT
BRANCH   1   8
ATOM      8  C1  UNL d   1      -0.293   2.580   0.668  0.00  0.00     0.053 C 
ATOM      9  C   UNL d   1       1.052   3.275   0.532  0.00  0.00     0.018 C 
ENDBRANCH   1   8
TORSDOF 1
ENDMDL
