MODEL 1
REMARK minimizedAffinity -2.98088479
REMARK minimizedRMSD -1
REMARK  1 active torsions:
REMARK  status: ('A' for Active; 'I' for Inactive)
REMARK    1  A    between atoms: C1_2  and  C2_3 
ROOT
ATOM      1  C2  UNL d   1      -0.046  -0.029  -0.418  0.00  0.00    -0.073 A 
ATOM      2  C3  UNL d   1       0.459   0.016  -1.722  0.00  0.00    -0.002 A 
ATOM      3  C4  UNL d   1       0.822  -1.161  -2.378  0.00  0.00     0.004 A 
ATOM      4  C5  UNL d   1       0.678  -2.394  -1.741  0.00  0.00    -0.004 A 
ATOM      5  C6  UNL d   1       0.164  -2.460  -0.442  0.00  0.00    -0.075 A 
ATOM      6  C7  UNL d   1       0.004  -3.777   0.259  0.00  0.00     0.076 C 
ATOM      7  C8  UNL d   1      -0.196  -1.273   0.211  0.00  0.00     0.001 A 
ENDROOT
BRANCH   1   8
ATOM      8  C1  UNL d   1      -0.446   1.239   0.292  0.00  0.00     0.053 C 
ATOM      9  C   UNL d   1       0.517   2.380   0.006  0.00  0.00     0.018 C 
ENDBRANCH   1   8
TORSDOF 1
ENDMDL
