MODEL 1
REMARK minimizedAffinity -4.59572029
REMARK minimizedRMSD -1
REMARK  1 active torsions:
REMARK  status: ('A' for Active; 'I' for Inactive)
REMARK    1  A    between atoms: C1_2  and  C2_3 
ROOT
ATOM      1  C2  UNL d   1       0.535   0.596   0.066  0.00  0.00    -0.073 A 
ATOM      2  C3  UNL d   1      -0.599   1.043   0.752  0.00  0.00    -0.002 A 
ATOM      3  C4  UNL d   1      -1.503   0.128   1.292  0.00  0.00     0.004 A 
ATOM      4  C5  UNL d   1      -1.279  -1.242   1.158  0.00  0.00    -0.004 A 
ATOM      5  C6  UNL d   1      -0.145  -1.709   0.486  0.00  0.00    -0.075 A 
ATOM      6  C7  UNL d   1       0.109  -3.180   0.331  0.00  0.00     0.076 C 
ATOM      7  C8  UNL d   1       0.757  -0.784  -0.056  0.00  0.00     0.001 A 
ENDROOT
BRANCH   1   8
ATOM      8  C1  UNL d   1       1.518   1.581  -0.514  0.00  0.00     0.053 C 
ATOM      9  C   UNL d   1       1.720   2.784   0.393  0.00  0.00     0.018 C 
ENDBRANCH   1   8
TORSDOF 1
ENDMDL
