MODEL 1
REMARK minimizedAffinity 5.81234503
REMARK minimizedRMSD -1
REMARK  2 active torsions:
REMARK  status: ('A' for Active; 'I' for Inactive)
REMARK    1  A    between atoms: C1_2  and  C2_3 
REMARK    2  A    between atoms: C2_3  and  C3_4 
ROOT
ATOM      1  C3  UNL d   1      -4.224   5.253   4.267  0.00  0.00    -0.075 A 
ATOM      2  C4  UNL d   1      -5.068   5.993   3.427  0.00  0.00     0.002 A 
ATOM      3  C5  UNL d   1      -5.953   5.347   2.565  0.00  0.00     0.002 A 
ATOM      4  C6  UNL d   1      -5.999   3.955   2.523  0.00  0.00    -0.004 A 
ATOM      5  C7  UNL d   1      -5.153   3.209   3.341  0.00  0.00     0.002 A 
ATOM      6  C8  UNL d   1      -4.269   3.854   4.209  0.00  0.00     0.002 A 
ENDROOT
BRANCH   1   7
ATOM      7  C2  UNL d   1      -3.284   5.947   5.224  0.00  0.00     0.056 C 
BRANCH   7   8
ATOM      8  C1  UNL d   1      -1.830   5.997   4.744  0.00  0.00     0.007 C 
ATOM      9  C   UNL d   1      -0.838   5.481   5.778  0.00  0.00     0.009 C 
ENDBRANCH   7   8
ENDBRANCH   1   7
TORSDOF 2
ENDMDL
