MODEL 1
REMARK minimizedAffinity 6.56690073
REMARK minimizedRMSD -1
REMARK  2 active torsions:
REMARK  status: ('A' for Active; 'I' for Inactive)
REMARK    1  A    between atoms: C1_2  and  C2_3 
REMARK    2  A    between atoms: C2_3  and  C3_4 
ROOT
ATOM      1  C3  UNL d   1      -4.962   4.651   3.520  0.00  0.00    -0.075 A 
ATOM      2  C4  UNL d   1      -5.999   4.635   4.464  0.00  0.00     0.002 A 
ATOM      3  C5  UNL d   1      -5.858   5.302   5.681  0.00  0.00     0.002 A 
ATOM      4  C6  UNL d   1      -4.678   5.983   5.974  0.00  0.00    -0.004 A 
ATOM      5  C7  UNL d   1      -3.635   5.991   5.050  0.00  0.00     0.002 A 
ATOM      6  C8  UNL d   1      -3.775   5.328   3.830  0.00  0.00     0.002 A 
ENDROOT
BRANCH   1   7
ATOM      7  C2  UNL d   1      -5.119   3.956   2.188  0.00  0.00     0.056 C 
BRANCH   7   8
ATOM      8  C1  UNL d   1      -5.375   4.907   1.015  0.00  0.00     0.007 C 
ATOM      9  C   UNL d   1      -4.420   4.692  -0.152  0.00  0.00     0.009 C 
ENDBRANCH   7   8
ENDBRANCH   1   7
TORSDOF 2
ENDMDL
