MODEL 1
REMARK minimizedAffinity 10.1769257
REMARK minimizedRMSD -1
REMARK  2 active torsions:
REMARK  status: ('A' for Active; 'I' for Inactive)
REMARK    1  A    between atoms: C1_2  and  C2_3 
REMARK    2  A    between atoms: C2_3  and  C3_4 
ROOT
ATOM      1  C3  UNL d   1       2.440  -0.754   1.141  0.00  0.00    -0.075 A 
ATOM      2  C4  UNL d   1       3.442   0.149   1.523  0.00  0.00     0.002 A 
ATOM      3  C5  UNL d   1       3.791   1.214   0.691  0.00  0.00     0.002 A 
ATOM      4  C6  UNL d   1       3.151   1.382  -0.535  0.00  0.00    -0.004 A 
ATOM      5  C7  UNL d   1       2.166   0.481  -0.932  0.00  0.00     0.002 A 
ATOM      6  C8  UNL d   1       1.812  -0.582  -0.099  0.00  0.00     0.002 A 
ENDROOT
BRANCH   1   7
ATOM      7  C2  UNL d   1       2.037  -1.891   2.050  0.00  0.00     0.056 C 
BRANCH   7   8
ATOM      8  C1  UNL d   1       0.793  -1.602   2.897  0.00  0.00     0.007 C 
ATOM      9  C   UNL d   1       0.726  -2.436   4.169  0.00  0.00     0.009 C 
ENDBRANCH   7   8
ENDBRANCH   1   7
TORSDOF 2
ENDMDL
