MODEL 1
REMARK minimizedAffinity -2.69524956
REMARK minimizedRMSD -1
REMARK  0 active torsions:
REMARK  status: ('A' for Active; 'I' for Inactive)
ROOT
ATOM      1  C   UNL d   1      -1.898  -0.448  -2.061  0.00  0.00     0.078 C 
ATOM      2  C1  UNL d   1      -0.867   0.192  -1.179  0.00  0.00    -0.077 A 
ATOM      3  C2  UNL d   1      -1.092   0.353   0.193  0.00  0.00    -0.001 A 
ATOM      4  C3  UNL d   1      -0.128   0.960   1.000  0.00  0.00     0.003 A 
ATOM      5  C4  UNL d   1       1.067   1.410   0.444  0.00  0.00    -0.005 A 
ATOM      6  C5  UNL d   1       1.300   1.255  -0.921  0.00  0.00     0.003 A 
ATOM      7  C6  UNL d   1       0.337   0.649  -1.730  0.00  0.00    -0.001 A 
ENDROOT
TORSDOF 0
ENDMDL
