MODEL 1
REMARK minimizedAffinity 4.3040843
REMARK minimizedRMSD -1
REMARK  0 active torsions:
REMARK  status: ('A' for Active; 'I' for Inactive)
ROOT
ATOM      1  C   UNL d   1      -2.039   1.142   0.897  0.00  0.00     0.078 C 
ATOM      2  C1  UNL d   1      -3.318   1.890   0.667  0.00  0.00    -0.077 A 
ATOM      3  C2  UNL d   1      -3.669   2.342  -0.611  0.00  0.00    -0.001 A 
ATOM      4  C3  UNL d   1      -4.858   3.046  -0.809  0.00  0.00     0.003 A 
ATOM      5  C4  UNL d   1      -5.706   3.304   0.266  0.00  0.00    -0.005 A 
ATOM      6  C5  UNL d   1      -5.364   2.859   1.542  0.00  0.00     0.003 A 
ATOM      7  C6  UNL d   1      -4.176   2.156   1.742  0.00  0.00    -0.001 A 
ENDROOT
TORSDOF 0
ENDMDL
