MODEL 1
REMARK minimizedAffinity -6.11180878
REMARK minimizedRMSD -1
REMARK  0 active torsions:
REMARK  status: ('A' for Active; 'I' for Inactive)
ROOT
ATOM      1  C   UNL d   1      -1.194   0.317  -0.178  0.00  0.00     0.078 C 
ATOM      2  C1  UNL d   1       0.093  -0.185   0.404  0.00  0.00    -0.077 A 
ATOM      3  C2  UNL d   1       0.222  -1.511   0.834  0.00  0.00    -0.001 A 
ATOM      4  C3  UNL d   1       1.423  -1.962   1.383  0.00  0.00     0.003 A 
ATOM      5  C4  UNL d   1       2.505  -1.093   1.508  0.00  0.00    -0.005 A 
ATOM      6  C5  UNL d   1       2.386   0.229   1.085  0.00  0.00     0.003 A 
ATOM      7  C6  UNL d   1       1.185   0.682   0.536  0.00  0.00    -0.001 A 
ENDROOT
TORSDOF 0
ENDMDL
