MODEL 1
REMARK minimizedAffinity -4.94291735
REMARK minimizedRMSD -1
REMARK  0 active torsions:
REMARK  status: ('A' for Active; 'I' for Inactive)
ROOT
ATOM      1  C   UNL d   1      -0.565  -0.056  -0.154  0.00  0.00     0.078 C 
ATOM      2  C1  UNL d   1       0.668  -0.652   0.457  0.00  0.00    -0.077 A 
ATOM      3  C2  UNL d   1       0.579  -1.602   1.481  0.00  0.00    -0.001 A 
ATOM      4  C3  UNL d   1       1.735  -2.141   2.048  0.00  0.00     0.003 A 
ATOM      5  C4  UNL d   1       2.989  -1.734   1.597  0.00  0.00    -0.005 A 
ATOM      6  C5  UNL d   1       3.089  -0.787   0.580  0.00  0.00     0.003 A 
ATOM      7  C6  UNL d   1       1.934  -0.248   0.013  0.00  0.00    -0.001 A 
ENDROOT
TORSDOF 0
ENDMDL
