MODEL 1
REMARK minimizedAffinity -3.37074232
REMARK minimizedRMSD -1
REMARK  0 active torsions:
REMARK  status: ('A' for Active; 'I' for Inactive)
ROOT
ATOM      1  C   UNL d   1      -1.500  -0.145  -0.335  0.00  0.00     0.078 C 
ATOM      2  C1  UNL d   1      -0.231  -0.176   0.464  0.00  0.00    -0.077 A 
ATOM      3  C2  UNL d   1       0.075  -1.266   1.288  0.00  0.00    -0.001 A 
ATOM      4  C3  UNL d   1       1.255  -1.278   2.034  0.00  0.00     0.003 A 
ATOM      5  C4  UNL d   1       2.137  -0.201   1.964  0.00  0.00    -0.005 A 
ATOM      6  C5  UNL d   1       1.840   0.889   1.149  0.00  0.00     0.003 A 
ATOM      7  C6  UNL d   1       0.660   0.902   0.402  0.00  0.00    -0.001 A 
ENDROOT
TORSDOF 0
ENDMDL
