MODEL 1
REMARK minimizedAffinity -5.28625154
REMARK minimizedRMSD -1
REMARK  0 active torsions:
REMARK  status: ('A' for Active; 'I' for Inactive)
ROOT
ATOM      1  C   UNL d   1      -0.939  -1.227   0.089  0.00  0.00     0.078 C 
ATOM      2  C1  UNL d   1       0.398  -1.440   0.733  0.00  0.00    -0.077 A 
ATOM      3  C2  UNL d   1       1.539  -0.778   0.264  0.00  0.00    -0.001 A 
ATOM      4  C3  UNL d   1       2.779  -0.994   0.867  0.00  0.00     0.003 A 
ATOM      5  C4  UNL d   1       2.890  -1.873   1.943  0.00  0.00    -0.005 A 
ATOM      6  C5  UNL d   1       1.761  -2.538   2.415  0.00  0.00     0.003 A 
ATOM      7  C6  UNL d   1       0.520  -2.324   1.813  0.00  0.00    -0.001 A 
ENDROOT
TORSDOF 0
ENDMDL
