MODEL 1
REMARK minimizedAffinity -5.33091879
REMARK minimizedRMSD -1
REMARK  0 active torsions:
REMARK  status: ('A' for Active; 'I' for Inactive)
ROOT
ATOM      1  C   UNL d   1      -0.325  -0.396  -0.714  0.00  0.00     0.078 C 
ATOM      2  C1  UNL d   1       0.924  -0.560   0.100  0.00  0.00    -0.077 A 
ATOM      3  C2  UNL d   1       1.781   0.522   0.332  0.00  0.00    -0.001 A 
ATOM      4  C3  UNL d   1       2.944   0.353   1.084  0.00  0.00     0.003 A 
ATOM      5  C4  UNL d   1       3.263  -0.899   1.608  0.00  0.00    -0.005 A 
ATOM      6  C5  UNL d   1       2.417  -1.982   1.380  0.00  0.00     0.003 A 
ATOM      7  C6  UNL d   1       1.253  -1.815   0.629  0.00  0.00    -0.001 A 
ENDROOT
TORSDOF 0
ENDMDL
