MODEL 1
REMARK minimizedAffinity -3.2655201
REMARK minimizedRMSD -1
REMARK  0 active torsions:
REMARK  status: ('A' for Active; 'I' for Inactive)
ROOT
ATOM      1  C   UNL d   1      -0.742   0.339  -0.198  0.00  0.00     0.078 C 
ATOM      2  C1  UNL d   1      -1.857   0.141  -1.181  0.00  0.00    -0.077 A 
ATOM      3  C2  UNL d   1      -2.434  -1.121  -1.372  0.00  0.00    -0.001 A 
ATOM      4  C3  UNL d   1      -3.465  -1.293  -2.297  0.00  0.00     0.003 A 
ATOM      5  C4  UNL d   1      -3.927  -0.208  -3.039  0.00  0.00    -0.005 A 
ATOM      6  C5  UNL d   1      -3.358   1.051  -2.858  0.00  0.00     0.003 A 
ATOM      7  C6  UNL d   1      -2.327   1.225  -1.933  0.00  0.00    -0.001 A 
ENDROOT
TORSDOF 0
ENDMDL
