MODEL 1
REMARK minimizedAffinity -2.2541995
REMARK minimizedRMSD -1
REMARK  0 active torsions:
REMARK  status: ('A' for Active; 'I' for Inactive)
ROOT
ATOM      1  C   UNL d   1      -0.268  -0.236  -1.503  0.00  0.00     0.020 A 
ATOM      2  C1  UNL d   1       0.343   0.378  -0.410  0.00  0.00     0.020 A 
ATOM      3  C2  UNL d   1       1.719   0.613  -0.421  0.00  0.00     0.034 A 
ATOM      4  C3  UNL d   1       2.490   0.233  -1.526  0.00  0.00     0.017 A 
ATOM      5  C4  UNL d   1       1.876  -0.384  -2.622  0.00  0.00     0.017 A 
ATOM      6  C5  UNL d   1       0.497  -0.616  -2.606  0.00  0.00     0.034 A 
ATOM      7 Cl   UNL d   1       2.761  -0.880  -4.021  0.00  0.00    -0.070 Cl
ATOM      8 Cl1  UNL d   1       4.187   0.554  -1.471  0.00  0.00    -0.070 Cl
ENDROOT
TORSDOF 0
ENDMDL
