MODEL 1
REMARK minimizedAffinity -1.18029821
REMARK minimizedRMSD -1
REMARK  0 active torsions:
REMARK  status: ('A' for Active; 'I' for Inactive)
ROOT
ATOM      1  C   UNL d   1       1.633   0.490  -2.684  0.00  0.00     0.020 A 
ATOM      2  C1  UNL d   1       1.196   1.537  -1.873  0.00  0.00     0.020 A 
ATOM      3  C2  UNL d   1       0.502   1.262  -0.693  0.00  0.00     0.034 A 
ATOM      4  C3  UNL d   1       0.242  -0.062  -0.321  0.00  0.00     0.017 A 
ATOM      5  C4  UNL d   1       0.681  -1.112  -1.135  0.00  0.00     0.017 A 
ATOM      6  C5  UNL d   1       1.376  -0.831  -2.316  0.00  0.00     0.034 A 
ATOM      7 Cl   UNL d   1       0.398  -2.771  -0.742  0.00  0.00    -0.070 Cl
ATOM      8 Cl1  UNL d   1      -0.622  -0.328   1.152  0.00  0.00    -0.070 Cl
ENDROOT
TORSDOF 0
ENDMDL
