MODEL 1
REMARK minimizedAffinity -1.08401155
REMARK minimizedRMSD -1
REMARK  0 active torsions:
REMARK  status: ('A' for Active; 'I' for Inactive)
ROOT
ATOM      1  C   UNL d   1       2.380   0.072  -1.910  0.00  0.00     0.020 A 
ATOM      2  C1  UNL d   1       1.722   1.208  -1.442  0.00  0.00     0.020 A 
ATOM      3  C2  UNL d   1       0.676   1.081  -0.525  0.00  0.00     0.034 A 
ATOM      4  C3  UNL d   1       0.286  -0.185  -0.074  0.00  0.00     0.017 A 
ATOM      5  C4  UNL d   1       0.948  -1.325  -0.544  0.00  0.00     0.017 A 
ATOM      6  C5  UNL d   1       1.994  -1.192  -1.462  0.00  0.00     0.034 A 
ATOM      7 Cl   UNL d   1       0.523  -2.921  -0.033  0.00  0.00    -0.070 Cl
ATOM      8 Cl1  UNL d   1      -1.015  -0.268   1.061  0.00  0.00    -0.070 Cl
ENDROOT
TORSDOF 0
ENDMDL
