MODEL 1
REMARK minimizedAffinity -3.93838644
REMARK minimizedRMSD -1
REMARK  0 active torsions:
REMARK  status: ('A' for Active; 'I' for Inactive)
ROOT
ATOM      1  C   UNL d   1      -2.098   3.022   2.991  0.00  0.00     0.020 A 
ATOM      2  C1  UNL d   1      -3.468   2.839   2.812  0.00  0.00     0.020 A 
ATOM      3  C2  UNL d   1      -3.939   1.709   2.140  0.00  0.00     0.034 A 
ATOM      4  C3  UNL d   1      -3.039   0.758   1.646  0.00  0.00     0.017 A 
ATOM      5  C4  UNL d   1      -1.664   0.943   1.826  0.00  0.00     0.017 A 
ATOM      6  C5  UNL d   1      -1.197   2.076   2.500  0.00  0.00     0.034 A 
ATOM      7 Cl   UNL d   1      -0.492  -0.187   1.245  0.00  0.00    -0.070 Cl
ATOM      8 Cl1  UNL d   1      -3.692  -0.616   0.825  0.00  0.00    -0.070 Cl
ENDROOT
TORSDOF 0
ENDMDL
