MODEL 1
REMARK minimizedAffinity -3.16383433
REMARK minimizedRMSD -1
REMARK  0 active torsions:
REMARK  status: ('A' for Active; 'I' for Inactive)
ROOT
ATOM      1  C   UNL d   1      -1.928   4.015  -5.706  0.00  0.00     0.020 A 
ATOM      2  C1  UNL d   1      -2.063   5.376  -5.974  0.00  0.00     0.020 A 
ATOM      3  C2  UNL d   1      -3.328   5.968  -5.964  0.00  0.00     0.034 A 
ATOM      4  C3  UNL d   1      -4.463   5.198  -5.685  0.00  0.00     0.017 A 
ATOM      5  C4  UNL d   1      -4.327   3.831  -5.416  0.00  0.00     0.017 A 
ATOM      6  C5  UNL d   1      -3.058   3.244  -5.427  0.00  0.00     0.034 A 
ATOM      7 Cl   UNL d   1      -5.680   2.816  -5.064  0.00  0.00    -0.070 Cl
ATOM      8 Cl1  UNL d   1      -5.996   5.995  -5.690  0.00  0.00    -0.070 Cl
ENDROOT
TORSDOF 0
ENDMDL
