MODEL 1
REMARK minimizedAffinity -3.57503366
REMARK minimizedRMSD -1
REMARK  0 active torsions:
REMARK  status: ('A' for Active; 'I' for Inactive)
ROOT
ATOM      1  C   UNL d   1       0.150  -0.115   1.081  0.00  0.00     0.020 A 
ATOM      2  C1  UNL d   1       0.771   0.996   0.511  0.00  0.00     0.020 A 
ATOM      3  C2  UNL d   1       1.324   0.907  -0.769  0.00  0.00     0.034 A 
ATOM      4  C3  UNL d   1       1.256  -0.295  -1.482  0.00  0.00     0.017 A 
ATOM      5  C4  UNL d   1       0.633  -1.410  -0.909  0.00  0.00     0.017 A 
ATOM      6  C5  UNL d   1       0.081  -1.315   0.372  0.00  0.00     0.034 A 
ATOM      7 Cl   UNL d   1       0.511  -2.927  -1.728  0.00  0.00    -0.070 Cl
ATOM      8 Cl1  UNL d   1       1.961  -0.334  -3.059  0.00  0.00    -0.070 Cl
ENDROOT
TORSDOF 0
ENDMDL
