MODEL 1
REMARK minimizedAffinity -3.32766676
REMARK minimizedRMSD -1
REMARK  0 active torsions:
REMARK  status: ('A' for Active; 'I' for Inactive)
ROOT
ATOM      1  C   UNL d   1       0.029   0.856  -1.913  0.00  0.00     0.020 A 
ATOM      2  C1  UNL d   1       0.550  -0.392  -2.252  0.00  0.00     0.020 A 
ATOM      3  C2  UNL d   1       0.573  -1.420  -1.306  0.00  0.00     0.034 A 
ATOM      4  C3  UNL d   1       0.074  -1.201  -0.017  0.00  0.00     0.017 A 
ATOM      5  C4  UNL d   1      -0.449   0.052   0.322  0.00  0.00     0.017 A 
ATOM      6  C5  UNL d   1      -0.469   1.077  -0.628  0.00  0.00     0.034 A 
ATOM      7 Cl   UNL d   1      -1.083   0.398   1.893  0.00  0.00    -0.070 Cl
ATOM      8 Cl1  UNL d   1       0.133  -2.517   1.102  0.00  0.00    -0.070 Cl
ENDROOT
TORSDOF 0
ENDMDL
