MODEL 1
REMARK minimizedAffinity -3.86113977
REMARK minimizedRMSD -1
REMARK  0 active torsions:
REMARK  status: ('A' for Active; 'I' for Inactive)
ROOT
ATOM      1  C   UNL d   1       2.306   0.103  -2.494  0.00  0.00     0.020 A 
ATOM      2  C1  UNL d   1       1.239  -0.790  -2.583  0.00  0.00     0.020 A 
ATOM      3  C2  UNL d   1       0.316  -0.881  -1.539  0.00  0.00     0.034 A 
ATOM      4  C3  UNL d   1       0.457  -0.078  -0.402  0.00  0.00     0.017 A 
ATOM      5  C4  UNL d   1       1.529   0.819  -0.313  0.00  0.00     0.017 A 
ATOM      6  C5  UNL d   1       2.450   0.906  -1.361  0.00  0.00     0.034 A 
ATOM      7 Cl   UNL d   1       1.770   1.843   1.058  0.00  0.00    -0.070 Cl
ATOM      8 Cl1  UNL d   1      -0.722  -0.242   0.850  0.00  0.00    -0.070 Cl
ENDROOT
TORSDOF 0
ENDMDL
