MODEL 1
REMARK minimizedAffinity -3.58025122
REMARK minimizedRMSD -1
REMARK  0 active torsions:
REMARK  status: ('A' for Active; 'I' for Inactive)
ROOT
ATOM      1  C   UNL d   1       1.701   0.093  -2.666  0.00  0.00     0.020 A 
ATOM      2  C1  UNL d   1       0.383  -0.315  -2.865  0.00  0.00     0.020 A 
ATOM      3  C2  UNL d   1      -0.503  -0.366  -1.786  0.00  0.00     0.034 A 
ATOM      4  C3  UNL d   1      -0.071  -0.009  -0.504  0.00  0.00     0.017 A 
ATOM      5  C4  UNL d   1       1.252   0.401  -0.305  0.00  0.00     0.017 A 
ATOM      6  C5  UNL d   1       2.135   0.450  -1.389  0.00  0.00     0.034 A 
ATOM      7 Cl   UNL d   1       1.858   0.857   1.248  0.00  0.00    -0.070 Cl
ATOM      8 Cl1  UNL d   1      -1.220  -0.095   0.784  0.00  0.00    -0.070 Cl
ENDROOT
TORSDOF 0
ENDMDL
