MODEL 1
REMARK minimizedAffinity -2.91453671
REMARK minimizedRMSD -1
REMARK  0 active torsions:
REMARK  status: ('A' for Active; 'I' for Inactive)
ROOT
ATOM      1  C   UNL d   1       0.236  -0.472   1.259  0.00  0.00     0.020 A 
ATOM      2  C1  UNL d   1      -0.112  -1.449   0.327  0.00  0.00     0.020 A 
ATOM      3  C2  UNL d   1       0.191  -1.264  -1.023  0.00  0.00     0.034 A 
ATOM      4  C3  UNL d   1       0.843  -0.100  -1.446  0.00  0.00     0.017 A 
ATOM      5  C4  UNL d   1       1.192   0.880  -0.510  0.00  0.00     0.017 A 
ATOM      6  C5  UNL d   1       0.887   0.690   0.842  0.00  0.00     0.034 A 
ATOM      7 Cl   UNL d   1       1.998   2.342  -0.955  0.00  0.00    -0.070 Cl
ATOM      8 Cl1  UNL d   1       1.186   0.062  -3.132  0.00  0.00    -0.070 Cl
ENDROOT
TORSDOF 0
ENDMDL
