MODEL 1
REMARK minimizedAffinity -4.03074598
REMARK minimizedRMSD -1
REMARK  0 active torsions:
REMARK  status: ('A' for Active; 'I' for Inactive)
ROOT
ATOM      1  C   UNL d   1       2.386   0.381  -1.724  0.00  0.00     0.020 A 
ATOM      2  C1  UNL d   1       2.738  -0.953  -1.921  0.00  0.00     0.020 A 
ATOM      3  C2  UNL d   1       2.093  -1.960  -1.200  0.00  0.00     0.034 A 
ATOM      4  C3  UNL d   1       1.092  -1.634  -0.277  0.00  0.00     0.017 A 
ATOM      5  C4  UNL d   1       0.739  -0.294  -0.080  0.00  0.00     0.017 A 
ATOM      6  C5  UNL d   1       1.388   0.710  -0.805  0.00  0.00     0.034 A 
ATOM      7 Cl   UNL d   1      -0.486   0.186   1.040  0.00  0.00    -0.070 Cl
ATOM      8 Cl1  UNL d   1       0.336  -2.930   0.580  0.00  0.00    -0.070 Cl
ENDROOT
TORSDOF 0
ENDMDL
