MODEL 1
REMARK minimizedAffinity -4.04607725
REMARK minimizedRMSD -1
REMARK  0 active torsions:
REMARK  status: ('A' for Active; 'I' for Inactive)
ROOT
ATOM      1  C   UNL d   1       1.143  -1.126  -2.621  0.00  0.00     0.020 A 
ATOM      2  C1  UNL d   1       2.174  -0.188  -2.641  0.00  0.00     0.020 A 
ATOM      3  C2  UNL d   1       2.283   0.752  -1.613  0.00  0.00     0.034 A 
ATOM      4  C3  UNL d   1       1.359   0.755  -0.562  0.00  0.00     0.017 A 
ATOM      5  C4  UNL d   1       0.324  -0.187  -0.544  0.00  0.00     0.017 A 
ATOM      6  C5  UNL d   1       0.220  -1.125  -1.575  0.00  0.00     0.034 A 
ATOM      7 Cl   UNL d   1      -0.855  -0.245   0.720  0.00  0.00    -0.070 Cl
ATOM      8 Cl1  UNL d   1       1.554   1.945   0.675  0.00  0.00    -0.070 Cl
ENDROOT
TORSDOF 0
ENDMDL
