MODEL 1
REMARK minimizedAffinity -2.68244481
REMARK minimizedRMSD -1
REMARK  0 active torsions:
REMARK  status: ('A' for Active; 'I' for Inactive)
ROOT
ATOM      1  C   UNL d   1       1.432   0.707  -1.926  0.00  0.00     0.020 A 
ATOM      2  C1  UNL d   1       1.501  -0.477  -2.659  0.00  0.00     0.020 A 
ATOM      3  C2  UNL d   1       1.044  -1.672  -2.099  0.00  0.00     0.034 A 
ATOM      4  C3  UNL d   1       0.516  -1.686  -0.803  0.00  0.00     0.017 A 
ATOM      5  C4  UNL d   1       0.447  -0.497  -0.068  0.00  0.00     0.017 A 
ATOM      6  C5  UNL d   1       0.906   0.697  -0.633  0.00  0.00     0.034 A 
ATOM      7 Cl   UNL d   1      -0.191  -0.435   1.537  0.00  0.00    -0.070 Cl
ATOM      8 Cl1  UNL d   1      -0.031  -3.199  -0.175  0.00  0.00    -0.070 Cl
ENDROOT
TORSDOF 0
ENDMDL
