MODEL 1
REMARK minimizedAffinity -3.48505712
REMARK minimizedRMSD -1
REMARK  0 active torsions:
REMARK  status: ('A' for Active; 'I' for Inactive)
ROOT
ATOM      1  C   UNL d   1      -3.780   5.996  -5.735  0.00  0.00     0.020 A 
ATOM      2  C1  UNL d   1      -5.147   5.890  -5.986  0.00  0.00     0.020 A 
ATOM      3  C2  UNL d   1      -5.781   4.649  -5.887  0.00  0.00     0.034 A 
ATOM      4  C3  UNL d   1      -5.047   3.510  -5.535  0.00  0.00     0.017 A 
ATOM      5  C4  UNL d   1      -3.674   3.618  -5.284  0.00  0.00     0.017 A 
ATOM      6  C5  UNL d   1      -3.045   4.863  -5.385  0.00  0.00     0.034 A 
ATOM      7 Cl   UNL d   1      -2.703   2.258  -4.845  0.00  0.00    -0.070 Cl
ATOM      8 Cl1  UNL d   1      -5.895   2.009  -5.431  0.00  0.00    -0.070 Cl
ENDROOT
TORSDOF 0
ENDMDL
