MODEL 1
REMARK minimizedAffinity -3.38180304
REMARK minimizedRMSD -1
REMARK  0 active torsions:
REMARK  status: ('A' for Active; 'I' for Inactive)
ROOT
ATOM      1  C   UNL d   1       1.627  -1.797  -2.801  0.00  0.00     0.020 A 
ATOM      2  C1  UNL d   1       0.486  -2.153  -2.083  0.00  0.00     0.020 A 
ATOM      3  C2  UNL d   1       0.039  -1.344  -1.036  0.00  0.00     0.034 A 
ATOM      4  C3  UNL d   1       0.734  -0.176  -0.704  0.00  0.00     0.017 A 
ATOM      5  C4  UNL d   1       1.879   0.181  -1.425  0.00  0.00     0.017 A 
ATOM      6  C5  UNL d   1       2.322  -0.633  -2.472  0.00  0.00     0.034 A 
ATOM      7 Cl   UNL d   1       2.789   1.608  -1.074  0.00  0.00    -0.070 Cl
ATOM      8 Cl1  UNL d   1       0.125   0.778   0.603  0.00  0.00    -0.070 Cl
ENDROOT
TORSDOF 0
ENDMDL
