MODEL 1
REMARK minimizedAffinity -3.43381929
REMARK minimizedRMSD -1
REMARK  0 active torsions:
REMARK  status: ('A' for Active; 'I' for Inactive)
ROOT
ATOM      1  C   UNL d   1       1.209   0.069  -2.588  0.00  0.00     0.020 A 
ATOM      2  C1  UNL d   1       0.725   1.195  -1.924  0.00  0.00     0.020 A 
ATOM      3  C2  UNL d   1       0.112   1.060  -0.676  0.00  0.00     0.034 A 
ATOM      4  C3  UNL d   1      -0.017  -0.204  -0.089  0.00  0.00     0.017 A 
ATOM      5  C4  UNL d   1       0.469  -1.333  -0.756  0.00  0.00     0.017 A 
ATOM      6  C5  UNL d   1       1.082  -1.193  -2.005  0.00  0.00     0.034 A 
ATOM      7 Cl   UNL d   1       0.346  -2.925  -0.095  0.00  0.00    -0.070 Cl
ATOM      8 Cl1  UNL d   1      -0.785  -0.296   1.457  0.00  0.00    -0.070 Cl
ENDROOT
TORSDOF 0
ENDMDL
