MODEL 1
REMARK minimizedAffinity -3.30526972
REMARK minimizedRMSD -1
REMARK  0 active torsions:
REMARK  status: ('A' for Active; 'I' for Inactive)
ROOT
ATOM      1  C   UNL d   1      -0.593  -1.112   0.410  0.00  0.00     0.020 A 
ATOM      2  C1  UNL d   1      -0.394   0.167  -0.108  0.00  0.00     0.020 A 
ATOM      3  C2  UNL d   1       0.357   0.340  -1.272  0.00  0.00     0.034 A 
ATOM      4  C3  UNL d   1       0.912  -0.768  -1.923  0.00  0.00     0.017 A 
ATOM      5  C4  UNL d   1       0.712  -2.052  -1.402  0.00  0.00     0.017 A 
ATOM      6  C5  UNL d   1      -0.041  -2.219  -0.235  0.00  0.00     0.034 A 
ATOM      7 Cl   UNL d   1       1.365  -3.467  -2.148  0.00  0.00    -0.070 Cl
ATOM      8 Cl1  UNL d   1       1.829  -0.481  -3.359  0.00  0.00    -0.070 Cl
ENDROOT
TORSDOF 0
ENDMDL
