MODEL 1
REMARK minimizedAffinity -3.64211607
REMARK minimizedRMSD -1
REMARK  0 active torsions:
REMARK  status: ('A' for Active; 'I' for Inactive)
ROOT
ATOM      1  C   UNL d   1      -0.162   1.018   0.299  0.00  0.00     0.020 A 
ATOM      2  C1  UNL d   1      -0.667  -0.128   0.913  0.00  0.00     0.020 A 
ATOM      3  C2  UNL d   1      -0.334  -1.390   0.416  0.00  0.00     0.034 A 
ATOM      4  C3  UNL d   1       0.505  -1.510  -0.698  0.00  0.00     0.017 A 
ATOM      5  C4  UNL d   1       1.011  -0.359  -1.313  0.00  0.00     0.017 A 
ATOM      6  C5  UNL d   1       0.675   0.902  -0.811  0.00  0.00     0.034 A 
ATOM      7 Cl   UNL d   1       2.053  -0.426  -2.691  0.00  0.00    -0.070 Cl
ATOM      8 Cl1  UNL d   1       0.875  -3.102  -1.258  0.00  0.00    -0.070 Cl
ENDROOT
TORSDOF 0
ENDMDL
