MODEL 1
REMARK minimizedAffinity 17.570919
REMARK minimizedRMSD -1
REMARK  1 active torsions:
REMARK  status: ('A' for Active; 'I' for Inactive)
REMARK    1  A    between atoms: C1_2  and  C2_3 
ROOT
ATOM      1  C2  UNL d   1       4.025   2.195   3.221  0.00  0.00    -0.081 A 
ATOM      2  C3  UNL d   1       5.147   1.384   3.010  0.00  0.00     0.006 A 
ATOM      3  C4  UNL d   1       5.782   1.362   1.766  0.00  0.00     0.002 A 
ATOM      4  C5  UNL d   1       5.310   2.155   0.714  0.00  0.00    -0.080 A 
ATOM      5  C6  UNL d   1       6.000   2.163  -0.617  0.00  0.00     0.076 C 
ATOM      6  C7  UNL d   1       4.179   2.952   0.919  0.00  0.00     0.002 A 
ATOM      7  C8  UNL d   1       3.544   2.974   2.163  0.00  0.00     0.006 A 
ENDROOT
BRANCH   1   8
ATOM      8  C1  UNL d   1       3.378   2.271   4.580  0.00  0.00     0.054 C 
ATOM      9  C   UNL d   1       4.161   3.180   5.516  0.00  0.00     0.018 C 
ENDBRANCH   1   8
TORSDOF 1
ENDMDL
