MODEL 1
REMARK minimizedAffinity 10.8483953
REMARK minimizedRMSD -1
REMARK  1 active torsions:
REMARK  status: ('A' for Active; 'I' for Inactive)
REMARK    1  A    between atoms: C1_2  and  C2_3 
ROOT
ATOM      1  C2  UNL d   1      -1.748  -2.542   1.605  0.00  0.00    -0.081 A 
ATOM      2  C3  UNL d   1      -2.133  -1.342   0.995  0.00  0.00     0.006 A 
ATOM      3  C4  UNL d   1      -2.076  -1.204  -0.394  0.00  0.00     0.002 A 
ATOM      4  C5  UNL d   1      -1.641  -2.264  -1.196  0.00  0.00    -0.080 A 
ATOM      5  C6  UNL d   1      -1.604  -2.139  -2.690  0.00  0.00     0.076 C 
ATOM      6  C7  UNL d   1      -1.239  -3.457  -0.585  0.00  0.00     0.002 A 
ATOM      7  C8  UNL d   1      -1.295  -3.596   0.804  0.00  0.00     0.006 A 
ENDROOT
BRANCH   1   8
ATOM      8  C1  UNL d   1      -1.869  -2.717   3.097  0.00  0.00     0.054 C 
ATOM      9  C   UNL d   1      -2.091  -1.382   3.794  0.00  0.00     0.018 C 
ENDBRANCH   1   8
TORSDOF 1
ENDMDL
