MODEL 1
REMARK minimizedAffinity 9.66519833
REMARK minimizedRMSD -1
REMARK  1 active torsions:
REMARK  status: ('A' for Active; 'I' for Inactive)
REMARK    1  A    between atoms: C1_2  and  C2_3 
ROOT
ATOM      1  C2  UNL d   1       4.120   2.339   2.703  0.00  0.00    -0.081 A 
ATOM      2  C3  UNL d   1       3.073   1.497   2.312  0.00  0.00     0.006 A 
ATOM      3  C4  UNL d   1       2.605   1.512   0.996  0.00  0.00     0.002 A 
ATOM      4  C5  UNL d   1       3.183   2.363   0.047  0.00  0.00    -0.080 A 
ATOM      5  C6  UNL d   1       2.711   2.367  -1.376  0.00  0.00     0.076 C 
ATOM      6  C7  UNL d   1       4.218   3.217   0.442  0.00  0.00     0.002 A 
ATOM      7  C8  UNL d   1       4.685   3.203   1.758  0.00  0.00     0.006 A 
ENDROOT
BRANCH   1   8
ATOM      8  C1  UNL d   1       4.669   2.279   4.106  0.00  0.00     0.054 C 
ATOM      9  C   UNL d   1       4.224   3.481   4.926  0.00  0.00     0.018 C 
ENDBRANCH   1   8
TORSDOF 1
ENDMDL
