MODEL 1
REMARK minimizedAffinity 12.5989399
REMARK minimizedRMSD -1
REMARK  1 active torsions:
REMARK  status: ('A' for Active; 'I' for Inactive)
REMARK    1  A    between atoms: C1_2  and  C2_3 
ROOT
ATOM      1  C2  UNL d   1       4.733   0.314  -3.004  0.00  0.00    -0.081 A 
ATOM      2  C3  UNL d   1       4.568  -0.819  -2.198  0.00  0.00     0.006 A 
ATOM      3  C4  UNL d   1       3.372  -1.030  -1.508  0.00  0.00     0.002 A 
ATOM      4  C5  UNL d   1       2.318  -0.116  -1.619  0.00  0.00    -0.080 A 
ATOM      5  C6  UNL d   1       1.018  -0.345  -0.908  0.00  0.00     0.076 C 
ATOM      6  C7  UNL d   1       2.490   1.026  -2.410  0.00  0.00     0.002 A 
ATOM      7  C8  UNL d   1       3.686   1.237  -3.099  0.00  0.00     0.006 A 
ENDROOT
BRANCH   1   8
ATOM      8  C1  UNL d   1       5.998   0.511  -3.800  0.00  0.00     0.054 C 
ATOM      9  C   UNL d   1       6.000   1.856  -4.512  0.00  0.00     0.018 C 
ENDBRANCH   1   8
TORSDOF 1
ENDMDL
