MODEL 1
REMARK minimizedAffinity 6.51423931
REMARK minimizedRMSD -1
REMARK  1 active torsions:
REMARK  status: ('A' for Active; 'I' for Inactive)
REMARK    1  A    between atoms: C1_2  and  C2_3 
ROOT
ATOM      1  C2  UNL d   1      -5.358   4.883   0.888  0.00  0.00    -0.081 A 
ATOM      2  C3  UNL d   1      -4.110   4.337   0.564  0.00  0.00     0.006 A 
ATOM      3  C4  UNL d   1      -3.511   4.618  -0.666  0.00  0.00     0.002 A 
ATOM      4  C5  UNL d   1      -4.145   5.457  -1.589  0.00  0.00    -0.080 A 
ATOM      5  C6  UNL d   1      -3.499   5.791  -2.900  0.00  0.00     0.076 C 
ATOM      6  C7  UNL d   1      -5.400   5.989  -1.273  0.00  0.00     0.002 A 
ATOM      7  C8  UNL d   1      -5.999   5.707  -0.043  0.00  0.00     0.006 A 
ENDROOT
BRANCH   1   8
ATOM      8  C1  UNL d   1      -5.977   4.634   2.240  0.00  0.00     0.054 C 
ATOM      9  C   UNL d   1      -5.986   5.899   3.086  0.00  0.00     0.018 C 
ENDBRANCH   1   8
TORSDOF 1
ENDMDL
