MODEL 1
REMARK minimizedAffinity 9.47576332
REMARK minimizedRMSD -1
REMARK  1 active torsions:
REMARK  status: ('A' for Active; 'I' for Inactive)
REMARK    1  A    between atoms: C1_2  and  C2_3 
ROOT
ATOM      1  C2  UNL d   1      -1.945  -2.680   1.488  0.00  0.00    -0.081 A 
ATOM      2  C3  UNL d   1      -1.014  -3.469   0.801  0.00  0.00     0.006 A 
ATOM      3  C4  UNL d   1      -0.732  -3.221  -0.545  0.00  0.00     0.002 A 
ATOM      4  C5  UNL d   1      -1.369  -2.176  -1.223  0.00  0.00    -0.080 A 
ATOM      5  C6  UNL d   1      -1.053  -1.881  -2.659  0.00  0.00     0.076 C 
ATOM      6  C7  UNL d   1      -2.312  -1.399  -0.542  0.00  0.00     0.002 A 
ATOM      7  C8  UNL d   1      -2.595  -1.647   0.803  0.00  0.00     0.006 A 
ENDROOT
BRANCH   1   8
ATOM      8  C1  UNL d   1      -2.203  -2.903   2.956  0.00  0.00     0.054 C 
ATOM      9  C   UNL d   1      -2.983  -1.745   3.563  0.00  0.00     0.018 C 
ENDBRANCH   1   8
TORSDOF 1
ENDMDL
