MODEL 1
REMARK minimizedAffinity 13.1619368
REMARK minimizedRMSD -1
REMARK  1 active torsions:
REMARK  status: ('A' for Active; 'I' for Inactive)
REMARK    1  A    between atoms: C1_2  and  C2_3 
ROOT
ATOM      1  C2  UNL d   1      -2.038  -2.546   1.743  0.00  0.00    -0.081 A 
ATOM      2  C3  UNL d   1      -1.081  -3.326   1.083  0.00  0.00     0.006 A 
ATOM      3  C4  UNL d   1      -0.615  -2.956  -0.181  0.00  0.00     0.002 A 
ATOM      4  C5  UNL d   1      -1.093  -1.796  -0.802  0.00  0.00    -0.080 A 
ATOM      5  C6  UNL d   1      -0.579  -1.371  -2.145  0.00  0.00     0.076 C 
ATOM      6  C7  UNL d   1      -2.062  -1.027  -0.149  0.00  0.00     0.002 A 
ATOM      7  C8  UNL d   1      -2.528  -1.397   1.114  0.00  0.00     0.006 A 
ENDROOT
BRANCH   1   8
ATOM      8  C1  UNL d   1      -2.494  -2.908   3.134  0.00  0.00     0.054 C 
ATOM      9  C   UNL d   1      -2.082  -1.847   4.145  0.00  0.00     0.018 C 
ENDBRANCH   1   8
TORSDOF 1
ENDMDL
