MODEL 1
REMARK minimizedAffinity 8.83888054
REMARK minimizedRMSD -1
REMARK  1 active torsions:
REMARK  status: ('A' for Active; 'I' for Inactive)
REMARK    1  A    between atoms: C1_2  and  C2_3 
ROOT
ATOM      1  C2  UNL d   1       4.509   1.832   1.840  0.00  0.00    -0.081 A 
ATOM      2  C3  UNL d   1       4.827   1.971   0.483  0.00  0.00     0.006 A 
ATOM      3  C4  UNL d   1       4.836   3.232  -0.117  0.00  0.00     0.002 A 
ATOM      4  C5  UNL d   1       4.535   4.376   0.631  0.00  0.00    -0.080 A 
ATOM      5  C6  UNL d   1       4.571   5.739   0.007  0.00  0.00     0.076 C 
ATOM      6  C7  UNL d   1       4.201   4.235   1.982  0.00  0.00     0.002 A 
ATOM      7  C8  UNL d   1       4.191   2.974   2.582  0.00  0.00     0.006 A 
ENDROOT
BRANCH   1   8
ATOM      8  C1  UNL d   1       4.561   0.480   2.504  0.00  0.00     0.054 C 
ATOM      9  C   UNL d   1       5.987   0.103   2.881  0.00  0.00     0.018 C 
ENDBRANCH   1   8
TORSDOF 1
ENDMDL
