MODEL 1
REMARK minimizedAffinity 16.9723511
REMARK minimizedRMSD -1
REMARK  1 active torsions:
REMARK  status: ('A' for Active; 'I' for Inactive)
REMARK    1  A    between atoms: C1_2  and  C2_3 
ROOT
ATOM      1  C2  UNL d   1       4.555   1.767   1.512  0.00  0.00    -0.081 A 
ATOM      2  C3  UNL d   1       5.101   1.940   0.235  0.00  0.00     0.006 A 
ATOM      3  C4  UNL d   1       5.113   3.201  -0.366  0.00  0.00     0.002 A 
ATOM      4  C5  UNL d   1       4.586   4.311   0.303  0.00  0.00    -0.080 A 
ATOM      5  C6  UNL d   1       4.620   5.676  -0.318  0.00  0.00     0.076 C 
ATOM      6  C7  UNL d   1       4.024   4.135   1.572  0.00  0.00     0.002 A 
ATOM      7  C8  UNL d   1       4.011   2.874   2.173  0.00  0.00     0.006 A 
ENDROOT
BRANCH   1   8
ATOM      8  C1  UNL d   1       4.599   0.421   2.189  0.00  0.00     0.054 C 
ATOM      9  C   UNL d   1       5.982   0.131   2.754  0.00  0.00     0.018 C 
ENDBRANCH   1   8
TORSDOF 1
ENDMDL
