MODEL 1
REMARK minimizedAffinity 22.4073658
REMARK minimizedRMSD -1
REMARK  1 active torsions:
REMARK  status: ('A' for Active; 'I' for Inactive)
REMARK    1  A    between atoms: C1_2  and  C2_3 
ROOT
ATOM      1  C2  UNL d   1       3.376   2.333  -0.004  0.00  0.00    -0.081 A 
ATOM      2  C3  UNL d   1       3.397   2.608   1.368  0.00  0.00     0.006 A 
ATOM      3  C4  UNL d   1       3.973   3.788   1.845  0.00  0.00     0.002 A 
ATOM      4  C5  UNL d   1       4.529   4.715   0.958  0.00  0.00    -0.080 A 
ATOM      5  C6  UNL d   1       5.124   6.000   1.454  0.00  0.00     0.076 C 
ATOM      6  C7  UNL d   1       4.524   4.432  -0.412  0.00  0.00     0.002 A 
ATOM      7  C8  UNL d   1       3.949   3.252  -0.890  0.00  0.00     0.006 A 
ENDROOT
BRANCH   1   8
ATOM      8  C1  UNL d   1       2.698   1.092  -0.527  0.00  0.00     0.054 C 
ATOM      9  C   UNL d   1       2.609   1.108  -2.046  0.00  0.00     0.018 C 
ENDBRANCH   1   8
TORSDOF 1
ENDMDL
