MODEL 1
REMARK minimizedAffinity 18.3900471
REMARK minimizedRMSD -1
REMARK  1 active torsions:
REMARK  status: ('A' for Active; 'I' for Inactive)
REMARK    1  A    between atoms: C1_2  and  C2_3 
ROOT
ATOM      1  C2  UNL d   1      -0.624  -4.853   1.465  0.00  0.00    -0.081 A 
ATOM      2  C3  UNL d   1      -0.367  -4.937   0.091  0.00  0.00     0.006 A 
ATOM      3  C4  UNL d   1      -0.635  -3.851  -0.747  0.00  0.00     0.002 A 
ATOM      4  C5  UNL d   1      -1.157  -2.663  -0.225  0.00  0.00    -0.080 A 
ATOM      5  C6  UNL d   1      -1.421  -1.481  -1.108  0.00  0.00     0.076 C 
ATOM      6  C7  UNL d   1      -1.431  -2.586   1.145  0.00  0.00     0.002 A 
ATOM      7  C8  UNL d   1      -1.163  -3.671   1.983  0.00  0.00     0.006 A 
ENDROOT
BRANCH   1   8
ATOM      8  C1  UNL d   1      -0.276  -5.999   2.380  0.00  0.00     0.054 C 
ATOM      9  C   UNL d   1      -1.154  -6.000   3.624  0.00  0.00     0.018 C 
ENDBRANCH   1   8
TORSDOF 1
ENDMDL
