MODEL 1
REMARK minimizedAffinity 23.9007378
REMARK minimizedRMSD -1
REMARK  1 active torsions:
REMARK  status: ('A' for Active; 'I' for Inactive)
REMARK    1  A    between atoms: C1_2  and  C2_3 
ROOT
ATOM      1  C2  UNL d   1      -1.185  -3.698   0.429  0.00  0.00    -0.081 A 
ATOM      2  C3  UNL d   1      -2.376  -3.568   1.153  0.00  0.00     0.006 A 
ATOM      3  C4  UNL d   1      -3.200  -2.455   0.966  0.00  0.00     0.002 A 
ATOM      4  C5  UNL d   1      -2.851  -1.460   0.047  0.00  0.00    -0.080 A 
ATOM      5  C6  UNL d   1      -3.741  -0.275  -0.186  0.00  0.00     0.076 C 
ATOM      6  C7  UNL d   1      -1.652  -1.582  -0.664  0.00  0.00     0.002 A 
ATOM      7  C8  UNL d   1      -0.827  -2.693  -0.477  0.00  0.00     0.006 A 
ENDROOT
BRANCH   1   8
ATOM      8  C1  UNL d   1      -0.327  -4.928   0.581  0.00  0.00     0.054 C 
ATOM      9  C   UNL d   1       0.047  -5.166   2.037  0.00  0.00     0.018 C 
ENDBRANCH   1   8
TORSDOF 1
ENDMDL
