MODEL 1
REMARK minimizedAffinity 23.4320087
REMARK minimizedRMSD -1
REMARK  1 active torsions:
REMARK  status: ('A' for Active; 'I' for Inactive)
REMARK    1  A    between atoms: C1_2  and  C2_3 
ROOT
ATOM      1  C2  UNL d   1       3.468   2.424   1.696  0.00  0.00    -0.081 A 
ATOM      2  C3  UNL d   1       2.308   2.740   2.413  0.00  0.00     0.006 A 
ATOM      3  C4  UNL d   1       2.283   2.627   3.805  0.00  0.00     0.002 A 
ATOM      4  C5  UNL d   1       3.420   2.204   4.503  0.00  0.00    -0.080 A 
ATOM      5  C6  UNL d   1       3.416   2.107   6.000  0.00  0.00     0.076 C 
ATOM      6  C7  UNL d   1       4.573   1.870   3.785  0.00  0.00     0.002 A 
ATOM      7  C8  UNL d   1       4.598   1.982   2.393  0.00  0.00     0.006 A 
ENDROOT
BRANCH   1   8
ATOM      8  C1  UNL d   1       3.518   2.606   0.200  0.00  0.00     0.054 C 
ATOM      9  C   UNL d   1       4.430   3.762  -0.186  0.00  0.00     0.018 C 
ENDBRANCH   1   8
TORSDOF 1
ENDMDL
