MODEL 1
REMARK minimizedAffinity 0.807587206
REMARK minimizedRMSD -1
REMARK  1 active torsions:
REMARK  status: ('A' for Active; 'I' for Inactive)
REMARK    1  A    between atoms: C1_2  and  C2_3 
ROOT
ATOM      1  C2  UNL d   1       3.549  -5.975  -3.555  0.00  0.00    -0.076 A 
ATOM      2  C3  UNL d   1       2.144  -5.998  -3.588  0.00  0.00     0.004 A 
ATOM      3  C4  UNL d   1       1.454  -6.000  -4.799  0.00  0.00    -0.003 A 
ATOM      4  C5  UNL d   1       2.159  -5.979  -5.998  0.00  0.00     0.000 A 
ATOM      5  C6  UNL d   1       3.553  -5.973  -5.984  0.00  0.00     0.000 A 
ATOM      6  C7  UNL d   1       4.264  -5.988  -4.772  0.00  0.00    -0.073 A 
ATOM      7  C8  UNL d   1       5.767  -5.976  -4.816  0.00  0.00     0.078 C 
ENDROOT
BRANCH   1   8
ATOM      8  C1  UNL d   1       4.242  -5.947  -2.211  0.00  0.00     0.053 C 
ATOM      9  C   UNL d   1       3.260  -5.906  -1.050  0.00  0.00     0.018 C 
ENDBRANCH   1   8
TORSDOF 1
ENDMDL
