MODEL 1
REMARK minimizedAffinity 0.356785804
REMARK minimizedRMSD -1
REMARK  1 active torsions:
REMARK  status: ('A' for Active; 'I' for Inactive)
REMARK    1  A    between atoms: C1_2  and  C2_3 
ROOT
ATOM      1  C2  UNL d   1       3.420  -4.841  -3.402  0.00  0.00    -0.076 A 
ATOM      2  C3  UNL d   1       3.013  -5.987  -2.698  0.00  0.00     0.004 A 
ATOM      3  C4  UNL d   1       2.980  -6.000  -1.305  0.00  0.00    -0.003 A 
ATOM      4  C5  UNL d   1       3.352  -4.865  -0.593  0.00  0.00     0.000 A 
ATOM      5  C6  UNL d   1       3.742  -3.713  -1.275  0.00  0.00     0.000 A 
ATOM      6  C7  UNL d   1       3.766  -3.679  -2.680  0.00  0.00    -0.073 A 
ATOM      7  C8  UNL d   1       4.200  -2.411  -3.363  0.00  0.00     0.078 C 
ENDROOT
BRANCH   1   8
ATOM      8  C1  UNL d   1       3.462  -4.895  -4.913  0.00  0.00     0.053 C 
ATOM      9  C   UNL d   1       2.584  -5.999  -5.481  0.00  0.00     0.018 C 
ENDBRANCH   1   8
TORSDOF 1
ENDMDL
