MODEL 1
REMARK minimizedAffinity 5.96447611
REMARK minimizedRMSD -1
REMARK  1 active torsions:
REMARK  status: ('A' for Active; 'I' for Inactive)
REMARK    1  A    between atoms: C1_2  and  C2_3 
ROOT
ATOM      1  C2  UNL d   1      -3.085   1.952  -0.883  0.00  0.00    -0.076 A 
ATOM      2  C3  UNL d   1      -2.137   1.444   0.022  0.00  0.00     0.004 A 
ATOM      3  C4  UNL d   1      -1.226   0.464  -0.369  0.00  0.00    -0.003 A 
ATOM      4  C5  UNL d   1      -1.248  -0.024  -1.671  0.00  0.00     0.000 A 
ATOM      5  C6  UNL d   1      -2.170   0.482  -2.586  0.00  0.00     0.000 A 
ATOM      6  C7  UNL d   1      -3.085   1.482  -2.214  0.00  0.00    -0.073 A 
ATOM      7  C8  UNL d   1      -4.061   1.986  -3.241  0.00  0.00     0.078 C 
ENDROOT
BRANCH   1   8
ATOM      8  C1  UNL d   1      -4.065   2.995  -0.396  0.00  0.00     0.053 C 
ATOM      9  C   UNL d   1      -4.668   2.641   0.955  0.00  0.00     0.018 C 
ENDBRANCH   1   8
TORSDOF 1
ENDMDL
