MODEL 1
REMARK minimizedAffinity 3.91058135
REMARK minimizedRMSD -1
REMARK  1 active torsions:
REMARK  status: ('A' for Active; 'I' for Inactive)
REMARK    1  A    between atoms: C1_2  and  C2_3 
ROOT
ATOM      1  C2  UNL d   1       3.120  -5.976  -3.778  0.00  0.00    -0.076 A 
ATOM      2  C3  UNL d   1       4.186  -5.993  -4.694  0.00  0.00     0.004 A 
ATOM      3  C4  UNL d   1       5.509  -5.979  -4.255  0.00  0.00    -0.003 A 
ATOM      4  C5  UNL d   1       5.788  -5.950  -2.893  0.00  0.00     0.000 A 
ATOM      5  C6  UNL d   1       4.743  -5.951  -1.970  0.00  0.00     0.000 A 
ATOM      6  C7  UNL d   1       3.403  -5.981  -2.395  0.00  0.00    -0.073 A 
ATOM      7  C8  UNL d   1       2.316  -5.974  -1.356  0.00  0.00     0.078 C 
ENDROOT
BRANCH   1   8
ATOM      8  C1  UNL d   1       1.706  -5.964  -4.313  0.00  0.00     0.053 C 
ATOM      9  C   UNL d   1       1.658  -5.953  -5.833  0.00  0.00     0.018 C 
ENDBRANCH   1   8
TORSDOF 1
ENDMDL
