MODEL 1
REMARK minimizedAffinity 14.2587109
REMARK minimizedRMSD -1
REMARK  1 active torsions:
REMARK  status: ('A' for Active; 'I' for Inactive)
REMARK    1  A    between atoms: C1_2  and  C2_3 
ROOT
ATOM      1  C2  UNL d   1      -5.948   3.903   0.093  0.00  0.00    -0.076 A 
ATOM      2  C3  UNL d   1      -5.997   3.141  -1.087  0.00  0.00     0.004 A 
ATOM      3  C4  UNL d   1      -5.965   1.748  -1.043  0.00  0.00    -0.003 A 
ATOM      4  C5  UNL d   1      -5.884   1.095   0.181  0.00  0.00     0.000 A 
ATOM      5  C6  UNL d   1      -5.852   1.834   1.363  0.00  0.00     0.000 A 
ATOM      6  C7  UNL d   1      -5.899   3.239   1.338  0.00  0.00    -0.073 A 
ATOM      7  C8  UNL d   1      -5.855   3.986   2.642  0.00  0.00     0.078 C 
ENDROOT
BRANCH   1   8
ATOM      8  C1  UNL d   1      -5.958   5.411  -0.017  0.00  0.00     0.053 C 
ATOM      9  C   UNL d   1      -5.979   5.889  -1.461  0.00  0.00     0.018 C 
ENDBRANCH   1   8
TORSDOF 1
ENDMDL
