MODEL 1
REMARK minimizedAffinity -4.35538244
REMARK minimizedRMSD -1
REMARK  0 active torsions:
REMARK  status: ('A' for Active; 'I' for Inactive)
ROOT
ATOM      1  C   UNL d   1      -2.996   0.923  -1.809  0.00  0.00     0.020 A 
ATOM      2  C1  UNL d   1      -1.876   1.560  -2.342  0.00  0.00     0.020 A 
ATOM      3  C2  UNL d   1      -0.627   1.397  -1.737  0.00  0.00     0.034 A 
ATOM      4  C3  UNL d   1      -0.496   0.596  -0.597  0.00  0.00     0.017 A 
ATOM      5  C4  UNL d   1      -1.621  -0.043  -0.064  0.00  0.00     0.017 A 
ATOM      6  C5  UNL d   1      -2.869   0.123  -0.673  0.00  0.00     0.034 A 
ATOM      7 Cl   UNL d   1      -1.538  -1.048   1.340  0.00  0.00    -0.070 Cl
ATOM      8 Cl1  UNL d   1       1.078   0.439   0.098  0.00  0.00    -0.070 Cl
ENDROOT
TORSDOF 0
ENDMDL
