MODEL 1
REMARK minimizedAffinity -5.4072957
REMARK minimizedRMSD -1
REMARK  0 active torsions:
REMARK  status: ('A' for Active; 'I' for Inactive)
ROOT
ATOM      1  C   UNL d   1      -1.786  -0.279   1.228  0.00  0.00     0.020 A 
ATOM      2  C1  UNL d   1      -1.427   0.755   0.365  0.00  0.00     0.020 A 
ATOM      3  C2  UNL d   1      -0.191   0.726  -0.283  0.00  0.00     0.034 A 
ATOM      4  C3  UNL d   1       0.691  -0.340  -0.069  0.00  0.00     0.017 A 
ATOM      5  C4  UNL d   1       0.329  -1.378   0.797  0.00  0.00     0.017 A 
ATOM      6  C5  UNL d   1      -0.910  -1.343   1.444  0.00  0.00     0.034 A 
ATOM      7 Cl   UNL d   1       1.364  -2.726   1.111  0.00  0.00    -0.070 Cl
ATOM      8 Cl1  UNL d   1       2.203  -0.311  -0.904  0.00  0.00    -0.070 Cl
ENDROOT
TORSDOF 0
ENDMDL
