MODEL 1
REMARK minimizedAffinity -1.23009753
REMARK minimizedRMSD -1
REMARK  0 active torsions:
REMARK  status: ('A' for Active; 'I' for Inactive)
ROOT
ATOM      1  C   UNL d   1      -0.172   1.512  -1.227  0.00  0.00     0.020 A 
ATOM      2  C1  UNL d   1       1.137   1.111  -1.490  0.00  0.00     0.020 A 
ATOM      3  C2  UNL d   1       1.752   0.158  -0.675  0.00  0.00     0.034 A 
ATOM      4  C3  UNL d   1       1.058  -0.396   0.407  0.00  0.00     0.017 A 
ATOM      5  C4  UNL d   1      -0.256   0.007   0.670  0.00  0.00     0.017 A 
ATOM      6  C5  UNL d   1      -0.867   0.961  -0.150  0.00  0.00     0.034 A 
ATOM      7 Cl   UNL d   1      -1.176  -0.633   1.986  0.00  0.00    -0.070 Cl
ATOM      8 Cl1  UNL d   1       1.881  -1.569   1.373  0.00  0.00    -0.070 Cl
ENDROOT
TORSDOF 0
ENDMDL
