MODEL 1
REMARK minimizedAffinity -4.2339716
REMARK minimizedRMSD -1
REMARK  0 active torsions:
REMARK  status: ('A' for Active; 'I' for Inactive)
ROOT
ATOM      1  C   UNL d   1      -1.326   0.577   1.355  0.00  0.00     0.020 A 
ATOM      2  C1  UNL d   1      -1.025   1.454   0.314  0.00  0.00     0.020 A 
ATOM      3  C2  UNL d   1       0.174   1.318  -0.389  0.00  0.00     0.034 A 
ATOM      4  C3  UNL d   1       1.076   0.301  -0.052  0.00  0.00     0.017 A 
ATOM      5  C4  UNL d   1       0.772  -0.579   0.993  0.00  0.00     0.017 A 
ATOM      6  C5  UNL d   1      -0.430  -0.437   1.694  0.00  0.00     0.034 A 
ATOM      7 Cl   UNL d   1       1.835  -1.857   1.466  0.00  0.00    -0.070 Cl
ATOM      8 Cl1  UNL d   1       2.539   0.191  -0.964  0.00  0.00    -0.070 Cl
ENDROOT
TORSDOF 0
ENDMDL
