MODEL 1
REMARK minimizedAffinity 0.293467671
REMARK minimizedRMSD -1
REMARK  0 active torsions:
REMARK  status: ('A' for Active; 'I' for Inactive)
ROOT
ATOM      1  C   UNL d   1       2.354  -0.988   0.546  0.00  0.00     0.020 A 
ATOM      2  C1  UNL d   1       2.634  -0.294  -0.631  0.00  0.00     0.020 A 
ATOM      3  C2  UNL d   1       1.665   0.536  -1.199  0.00  0.00     0.034 A 
ATOM      4  C3  UNL d   1       0.413   0.676  -0.590  0.00  0.00     0.017 A 
ATOM      5  C4  UNL d   1       0.133  -0.020   0.592  0.00  0.00     0.017 A 
ATOM      6  C5  UNL d   1       1.106  -0.851   1.156  0.00  0.00     0.034 A 
ATOM      7 Cl   UNL d   1      -1.389   0.102   1.401  0.00  0.00    -0.070 Cl
ATOM      8 Cl1  UNL d   1      -0.737   1.721  -1.347  0.00  0.00    -0.070 Cl
ENDROOT
TORSDOF 0
ENDMDL
