MODEL 1
REMARK minimizedAffinity -0.796859443
REMARK minimizedRMSD -1
REMARK  0 active torsions:
REMARK  status: ('A' for Active; 'I' for Inactive)
ROOT
ATOM      1  C   UNL d   1       0.770   0.933   0.005  0.00  0.00     0.020 A 
ATOM      2  C1  UNL d   1      -0.038  -0.026   0.614  0.00  0.00     0.020 A 
ATOM      3  C2  UNL d   1      -1.318  -0.278   0.118  0.00  0.00     0.034 A 
ATOM      4  C3  UNL d   1      -1.795   0.431  -0.991  0.00  0.00     0.017 A 
ATOM      5  C4  UNL d   1      -0.983   1.394  -1.602  0.00  0.00     0.017 A 
ATOM      6  C5  UNL d   1       0.299   1.641  -1.100  0.00  0.00     0.034 A 
ATOM      7 Cl   UNL d   1      -1.502   2.309  -2.973  0.00  0.00    -0.070 Cl
ATOM      8 Cl1  UNL d   1      -3.389   0.069  -1.552  0.00  0.00    -0.070 Cl
ENDROOT
TORSDOF 0
ENDMDL
