MODEL 1
REMARK minimizedAffinity 1.58011925
REMARK minimizedRMSD -1
REMARK  0 active torsions:
REMARK  status: ('A' for Active; 'I' for Inactive)
ROOT
ATOM      1  C   UNL d   1      -2.757   0.659  -1.950  0.00  0.00     0.020 A 
ATOM      2  C1  UNL d   1      -2.180  -0.152  -0.973  0.00  0.00     0.020 A 
ATOM      3  C2  UNL d   1      -0.899   0.132  -0.497  0.00  0.00     0.034 A 
ATOM      4  C3  UNL d   1      -0.189   1.230  -0.997  0.00  0.00     0.017 A 
ATOM      5  C4  UNL d   1      -0.768   2.044  -1.978  0.00  0.00     0.017 A 
ATOM      6  C5  UNL d   1      -2.052   1.755  -2.451  0.00  0.00     0.034 A 
ATOM      7 Cl   UNL d   1       0.045   3.416  -2.643  0.00  0.00    -0.070 Cl
ATOM      8 Cl1  UNL d   1       1.391   1.522  -0.362  0.00  0.00    -0.070 Cl
ENDROOT
TORSDOF 0
ENDMDL
