MODEL 1
REMARK minimizedAffinity -3.39462233
REMARK minimizedRMSD -1
REMARK  0 active torsions:
REMARK  status: ('A' for Active; 'I' for Inactive)
ROOT
ATOM      1  C   UNL d   1       2.063  -1.753   1.089  0.00  0.00     0.020 A 
ATOM      2  C1  UNL d   1       2.482  -1.081  -0.058  0.00  0.00     0.020 A 
ATOM      3  C2  UNL d   1       1.675  -0.090  -0.621  0.00  0.00     0.034 A 
ATOM      4  C3  UNL d   1       0.444   0.231  -0.037  0.00  0.00     0.017 A 
ATOM      5  C4  UNL d   1       0.024  -0.445   1.114  0.00  0.00     0.017 A 
ATOM      6  C5  UNL d   1       0.836  -1.436   1.674  0.00  0.00     0.034 A 
ATOM      7 Cl   UNL d   1      -1.482  -0.104   1.891  0.00  0.00    -0.070 Cl
ATOM      8 Cl1  UNL d   1      -0.503   1.467  -0.786  0.00  0.00    -0.070 Cl
ENDROOT
TORSDOF 0
ENDMDL
