MODEL 1
REMARK minimizedAffinity -1.61366987
REMARK minimizedRMSD -1
REMARK  0 active torsions:
REMARK  status: ('A' for Active; 'I' for Inactive)
ROOT
ATOM      1  C   UNL d   1       0.823   1.126  -0.982  0.00  0.00     0.020 A 
ATOM      2  C1  UNL d   1      -0.551   1.344  -0.886  0.00  0.00     0.020 A 
ATOM      3  C2  UNL d   1      -1.298   0.675   0.085  0.00  0.00     0.034 A 
ATOM      4  C3  UNL d   1      -0.672  -0.217   0.964  0.00  0.00     0.017 A 
ATOM      5  C4  UNL d   1       0.707  -0.436   0.866  0.00  0.00     0.017 A 
ATOM      6  C5  UNL d   1       1.450   0.238  -0.108  0.00  0.00     0.034 A 
ATOM      7 Cl   UNL d   1       1.550  -1.521   1.915  0.00  0.00    -0.070 Cl
ATOM      8 Cl1  UNL d   1      -1.657  -1.011   2.140  0.00  0.00    -0.070 Cl
ENDROOT
TORSDOF 0
ENDMDL
