MODEL 1
REMARK minimizedAffinity 1.13974369
REMARK minimizedRMSD -1
REMARK  0 active torsions:
REMARK  status: ('A' for Active; 'I' for Inactive)
ROOT
ATOM      1  C   UNL d   1       1.410   0.350  -1.056  0.00  0.00     0.020 A 
ATOM      2  C1  UNL d   1       1.695   0.248   0.304  0.00  0.00     0.020 A 
ATOM      3  C2  UNL d   1       0.667   0.003   1.217  0.00  0.00     0.034 A 
ATOM      4  C3  UNL d   1      -0.651  -0.141   0.770  0.00  0.00     0.017 A 
ATOM      5  C4  UNL d   1      -0.937  -0.038  -0.596  0.00  0.00     0.017 A 
ATOM      6  C5  UNL d   1       0.096   0.208  -1.506  0.00  0.00     0.034 A 
ATOM      7 Cl   UNL d   1      -2.539  -0.204  -1.223  0.00  0.00    -0.070 Cl
ATOM      8 Cl1  UNL d   1      -1.873  -0.444   1.954  0.00  0.00    -0.070 Cl
ENDROOT
TORSDOF 0
ENDMDL
