MODEL 1
REMARK minimizedAffinity 2.39145041
REMARK minimizedRMSD -1
REMARK  0 active torsions:
REMARK  status: ('A' for Active; 'I' for Inactive)
ROOT
ATOM      1  C   UNL d   1       1.566  -0.204   0.230  0.00  0.00     0.020 A 
ATOM      2  C1  UNL d   1       1.972   1.021  -0.298  0.00  0.00     0.020 A 
ATOM      3  C2  UNL d   1       1.140   1.710  -1.184  0.00  0.00     0.034 A 
ATOM      4  C3  UNL d   1      -0.102   1.174  -1.544  0.00  0.00     0.017 A 
ATOM      5  C4  UNL d   1      -0.509  -0.055  -1.013  0.00  0.00     0.017 A 
ATOM      6  C5  UNL d   1       0.328  -0.741  -0.126  0.00  0.00     0.034 A 
ATOM      7 Cl   UNL d   1      -2.027  -0.780  -1.410  0.00  0.00    -0.070 Cl
ATOM      8 Cl1  UNL d   1      -1.080   2.080  -2.643  0.00  0.00    -0.070 Cl
ENDROOT
TORSDOF 0
ENDMDL
