MODEL 1
REMARK minimizedAffinity -0.528684855
REMARK minimizedRMSD -1
REMARK  0 active torsions:
REMARK  status: ('A' for Active; 'I' for Inactive)
ROOT
ATOM      1  C   UNL d   1       0.808   0.187  -0.477  0.00  0.00     0.020 A 
ATOM      2  C1  UNL d   1      -0.551   0.467  -0.337  0.00  0.00     0.020 A 
ATOM      3  C2  UNL d   1      -1.239   0.031   0.797  0.00  0.00     0.034 A 
ATOM      4  C3  UNL d   1      -0.570  -0.687   1.795  0.00  0.00     0.017 A 
ATOM      5  C4  UNL d   1       0.794  -0.967   1.653  0.00  0.00     0.017 A 
ATOM      6  C5  UNL d   1       1.479  -0.528   0.515  0.00  0.00     0.034 A 
ATOM      7 Cl   UNL d   1       1.688  -1.848   2.841  0.00  0.00    -0.070 Cl
ATOM      8 Cl1  UNL d   1      -1.484  -1.194   3.171  0.00  0.00    -0.070 Cl
ENDROOT
TORSDOF 0
ENDMDL
