MODEL 1
REMARK minimizedAffinity -1.46171796
REMARK minimizedRMSD -1
REMARK  0 active torsions:
REMARK  status: ('A' for Active; 'I' for Inactive)
ROOT
ATOM      1  C   UNL d   1      -1.836   2.107  -2.319  0.00  0.00     0.020 A 
ATOM      2  C1  UNL d   1      -2.955   1.308  -2.549  0.00  0.00     0.020 A 
ATOM      3  C2  UNL d   1      -3.196   0.195  -1.740  0.00  0.00     0.034 A 
ATOM      4  C3  UNL d   1      -2.317  -0.122  -0.699  0.00  0.00     0.017 A 
ATOM      5  C4  UNL d   1      -1.193   0.680  -0.469  0.00  0.00     0.017 A 
ATOM      6  C5  UNL d   1      -0.957   1.793  -1.281  0.00  0.00     0.034 A 
ATOM      7 Cl   UNL d   1      -0.063   0.352   0.797  0.00  0.00    -0.070 Cl
ATOM      8 Cl1  UNL d   1      -2.677  -1.513   0.262  0.00  0.00    -0.070 Cl
ENDROOT
TORSDOF 0
ENDMDL
