MODEL 1
REMARK minimizedAffinity -4.3029151
REMARK minimizedRMSD -1
REMARK  0 active torsions:
REMARK  status: ('A' for Active; 'I' for Inactive)
ROOT
ATOM      1  C   UNL d   1      -2.304   0.716  -2.271  0.00  0.00     0.020 A 
ATOM      2  C1  UNL d   1      -3.331   0.130  -1.533  0.00  0.00     0.020 A 
ATOM      3  C2  UNL d   1      -3.101  -0.280  -0.219  0.00  0.00     0.034 A 
ATOM      4  C3  UNL d   1      -1.839  -0.105   0.362  0.00  0.00     0.017 A 
ATOM      5  C4  UNL d   1      -0.808   0.483  -0.379  0.00  0.00     0.017 A 
ATOM      6  C5  UNL d   1      -1.045   0.892  -1.695  0.00  0.00     0.034 A 
ATOM      7 Cl   UNL d   1       0.774   0.733   0.269  0.00  0.00    -0.070 Cl
ATOM      8 Cl1  UNL d   1      -1.625  -0.635   1.993  0.00  0.00    -0.070 Cl
ENDROOT
TORSDOF 0
ENDMDL
