MODEL 1
REMARK minimizedAffinity -3.41330814
REMARK minimizedRMSD -1
REMARK  0 active torsions:
REMARK  status: ('A' for Active; 'I' for Inactive)
ROOT
ATOM      1  C   UNL d   1      -1.697  -0.003   1.473  0.00  0.00     0.020 A 
ATOM      2  C1  UNL d   1      -1.656   0.838   0.361  0.00  0.00     0.020 A 
ATOM      3  C2  UNL d   1      -0.497   0.913  -0.414  0.00  0.00     0.034 A 
ATOM      4  C3  UNL d   1       0.625   0.146  -0.079  0.00  0.00     0.017 A 
ATOM      5  C4  UNL d   1       0.583  -0.697   1.037  0.00  0.00     0.017 A 
ATOM      6  C5  UNL d   1      -0.580  -0.768   1.810  0.00  0.00     0.034 A 
ATOM      7 Cl   UNL d   1       1.927  -1.673   1.513  0.00  0.00    -0.070 Cl
ATOM      8 Cl1  UNL d   1       2.024   0.288  -1.083  0.00  0.00    -0.070 Cl
ENDROOT
TORSDOF 0
ENDMDL
