MODEL 1
REMARK minimizedAffinity -4.90309906
REMARK minimizedRMSD -1
REMARK  0 active torsions:
REMARK  status: ('A' for Active; 'I' for Inactive)
ROOT
ATOM      1  C   UNL d   1       0.117   0.562  -0.218  0.00  0.00     0.020 A 
ATOM      2  C1  UNL d   1      -1.121   0.506   0.421  0.00  0.00     0.020 A 
ATOM      3  C2  UNL d   1      -1.326  -0.396   1.467  0.00  0.00     0.034 A 
ATOM      4  C3  UNL d   1      -0.293  -1.245   1.877  0.00  0.00     0.017 A 
ATOM      5  C4  UNL d   1       0.950  -1.189   1.235  0.00  0.00     0.017 A 
ATOM      6  C5  UNL d   1       1.150  -0.284   0.188  0.00  0.00     0.034 A 
ATOM      7 Cl   UNL d   1       2.273  -2.205   1.685  0.00  0.00    -0.070 Cl
ATOM      8 Cl1  UNL d   1      -0.617  -2.336   3.178  0.00  0.00    -0.070 Cl
ENDROOT
TORSDOF 0
ENDMDL
