MODEL 1
REMARK minimizedAffinity -2.1765976
REMARK minimizedRMSD -1
REMARK  0 active torsions:
REMARK  status: ('A' for Active; 'I' for Inactive)
ROOT
ATOM      1  C   UNL d   1       0.339  -0.012   4.158  0.00  0.00    -0.002 A 
ATOM      2  C1  UNL d   1       1.510  -0.460   3.564  0.00  0.00     0.010 A 
ATOM      3  C2  UNL d   1       1.621  -0.525   2.174  0.00  0.00     0.041 A 
ATOM      4  C3  UNL d   1       0.526  -0.127   1.383  0.00  0.00    -0.075 A 
ATOM      5  S   UNL d   1       0.434  -0.121  -0.338  0.00  0.00     0.015 SA
ATOM      6  C4  UNL d   1      -1.162   0.477  -0.326  0.00  0.00     0.022 A 
ATOM      7  C5  UNL d   1      -1.629   0.673   0.952  0.00  0.00     0.026 A 
ATOM      8  C6  UNL d   1      -0.664   0.329   1.958  0.00  0.00    -0.082 A 
ATOM      9  C7  UNL d   1      -0.746   0.382   3.371  0.00  0.00     0.045 A 
ENDROOT
TORSDOF 0
ENDMDL
