MODEL 1
REMARK minimizedAffinity -0.814759493
REMARK minimizedRMSD -1
REMARK  0 active torsions:
REMARK  status: ('A' for Active; 'I' for Inactive)
ROOT
ATOM      1  C   UNL d   1      -2.132   0.673   2.257  0.00  0.00    -0.002 A 
ATOM      2  C1  UNL d   1      -0.971   1.122   2.870  0.00  0.00     0.010 A 
ATOM      3  C2  UNL d   1       0.220   1.225   2.148  0.00  0.00     0.041 A 
ATOM      4  C3  UNL d   1       0.223   0.867   0.785  0.00  0.00    -0.075 A 
ATOM      5  S   UNL d   1       1.564   0.913  -0.298  0.00  0.00     0.015 SA
ATOM      6  C4  UNL d   1       0.627   0.339  -1.601  0.00  0.00     0.022 A 
ATOM      7  C5  UNL d   1      -0.679   0.112  -1.236  0.00  0.00     0.026 A 
ATOM      8  C6  UNL d   1      -0.933   0.414   0.145  0.00  0.00    -0.082 A 
ATOM      9  C7  UNL d   1      -2.124   0.319   0.905  0.00  0.00     0.045 A 
ENDROOT
TORSDOF 0
ENDMDL
