MODEL 1
REMARK minimizedAffinity -3.3296566
REMARK minimizedRMSD -1
REMARK  0 active torsions:
REMARK  status: ('A' for Active; 'I' for Inactive)
ROOT
ATOM      1  C   UNL d   1       1.012   1.150   3.215  0.00  0.00    -0.002 A 
ATOM      2  C1  UNL d   1       2.019   0.215   3.028  0.00  0.00     0.010 A 
ATOM      3  C2  UNL d   1       2.094  -0.521   1.844  0.00  0.00     0.041 A 
ATOM      4  C3  UNL d   1       1.131  -0.297   0.840  0.00  0.00    -0.075 A 
ATOM      5  S   UNL d   1       1.025  -1.079  -0.692  0.00  0.00     0.015 SA
ATOM      6  C4  UNL d   1      -0.359  -0.189  -1.135  0.00  0.00     0.022 A 
ATOM      7  C5  UNL d   1      -0.745   0.688  -0.149  0.00  0.00     0.026 A 
ATOM      8  C6  UNL d   1       0.108   0.641   1.005  0.00  0.00    -0.082 A 
ATOM      9  C7  UNL d   1       0.058   1.370   2.218  0.00  0.00     0.045 A 
ENDROOT
TORSDOF 0
ENDMDL
