MODEL 1
REMARK minimizedAffinity 1.76238227
REMARK minimizedRMSD -1
REMARK  0 active torsions:
REMARK  status: ('A' for Active; 'I' for Inactive)
ROOT
ATOM      1  C   UNL d   1      -2.247   0.900   1.778  0.00  0.00    -0.002 A 
ATOM      2  C1  UNL d   1      -1.302   0.326   2.617  0.00  0.00     0.010 A 
ATOM      3  C2  UNL d   1      -0.144  -0.251   2.094  0.00  0.00     0.041 A 
ATOM      4  C3  UNL d   1       0.052  -0.240   0.699  0.00  0.00    -0.075 A 
ATOM      5  S   UNL d   1       1.395  -0.887  -0.167  0.00  0.00     0.015 SA
ATOM      6  C4  UNL d   1       0.747  -0.417  -1.672  0.00  0.00     0.022 A 
ATOM      7  C5  UNL d   1      -0.464   0.219  -1.536  0.00  0.00     0.026 A 
ATOM      8  C6  UNL d   1      -0.884   0.332  -0.167  0.00  0.00    -0.082 A 
ATOM      9  C7  UNL d   1      -2.049   0.909   0.395  0.00  0.00     0.045 A 
ENDROOT
TORSDOF 0
ENDMDL
