MODEL 1
REMARK minimizedAffinity 4.88814163
REMARK minimizedRMSD -1
REMARK  0 active torsions:
REMARK  status: ('A' for Active; 'I' for Inactive)
ROOT
ATOM      1  C   UNL d   1       2.500  -2.532   3.719  0.00  0.00     0.020 A 
ATOM      2  C1  UNL d   1       3.772  -2.050   3.414  0.00  0.00     0.020 A 
ATOM      3  C2  UNL d   1       3.918  -0.968   2.543  0.00  0.00     0.034 A 
ATOM      4  C3  UNL d   1       2.790  -0.366   1.974  0.00  0.00     0.017 A 
ATOM      5  C4  UNL d   1       1.514  -0.851   2.280  0.00  0.00     0.017 A 
ATOM      6  C5  UNL d   1       1.373  -1.934   3.153  0.00  0.00     0.034 A 
ATOM      7 Cl   UNL d   1       0.076  -0.159   1.617  0.00  0.00    -0.070 Cl
ATOM      8 Cl1  UNL d   1       3.045   0.968   0.905  0.00  0.00    -0.070 Cl
ENDROOT
TORSDOF 0
ENDMDL
