MODEL 1
REMARK minimizedAffinity 2.38251305
REMARK minimizedRMSD -1
REMARK  0 active torsions:
REMARK  status: ('A' for Active; 'I' for Inactive)
ROOT
ATOM      1  C   UNL d   1       2.448   0.763   1.325  0.00  0.00     0.020 A 
ATOM      2  C1  UNL d   1       1.317   0.021   1.665  0.00  0.00     0.020 A 
ATOM      3  C2  UNL d   1       0.044   0.562   1.474  0.00  0.00     0.034 A 
ATOM      4  C3  UNL d   1      -0.102   1.849   0.942  0.00  0.00     0.017 A 
ATOM      5  C4  UNL d   1       1.034   2.592   0.601  0.00  0.00     0.017 A 
ATOM      6  C5  UNL d   1       2.306   2.045   0.794  0.00  0.00     0.034 A 
ATOM      7 Cl   UNL d   1       0.934   4.186  -0.060  0.00  0.00    -0.070 Cl
ATOM      8 Cl1  UNL d   1      -1.706   2.455   0.733  0.00  0.00    -0.070 Cl
ENDROOT
TORSDOF 0
ENDMDL
