MODEL 1
REMARK minimizedAffinity 5.32658482
REMARK minimizedRMSD -1
REMARK  0 active torsions:
REMARK  status: ('A' for Active; 'I' for Inactive)
ROOT
ATOM      1  C   UNL d   1       2.045  -2.026   2.351  0.00  0.00     0.020 A 
ATOM      2  C1  UNL d   1       1.688  -1.928   3.696  0.00  0.00     0.020 A 
ATOM      3  C2  UNL d   1       1.699  -0.685   4.332  0.00  0.00     0.034 A 
ATOM      4  C3  UNL d   1       2.069   0.465   3.625  0.00  0.00     0.017 A 
ATOM      5  C4  UNL d   1       2.427   0.365   2.276  0.00  0.00     0.017 A 
ATOM      6  C5  UNL d   1       2.413  -0.881   1.643  0.00  0.00     0.034 A 
ATOM      7 Cl   UNL d   1       2.894   1.740   1.338  0.00  0.00    -0.070 Cl
ATOM      8 Cl1  UNL d   1       2.060   1.968   4.476  0.00  0.00    -0.070 Cl
ENDROOT
TORSDOF 0
ENDMDL
