MODEL 1
REMARK minimizedAffinity 8.36635017
REMARK minimizedRMSD -1
REMARK  0 active torsions:
REMARK  status: ('A' for Active; 'I' for Inactive)
ROOT
ATOM      1  C   UNL d   1       2.104  -1.328   2.239  0.00  0.00     0.020 A 
ATOM      2  C1  UNL d   1       2.030  -1.163   3.622  0.00  0.00     0.020 A 
ATOM      3  C2  UNL d   1       2.090   0.117   4.176  0.00  0.00     0.034 A 
ATOM      4  C3  UNL d   1       2.224   1.237   3.348  0.00  0.00     0.017 A 
ATOM      5  C4  UNL d   1       2.297   1.071   1.960  0.00  0.00     0.017 A 
ATOM      6  C5  UNL d   1       2.237  -0.214   1.411  0.00  0.00     0.034 A 
ATOM      7 Cl   UNL d   1       2.463   2.405   0.874  0.00  0.00    -0.070 Cl
ATOM      8 Cl1  UNL d   1       2.291   2.791   4.102  0.00  0.00    -0.070 Cl
ENDROOT
TORSDOF 0
ENDMDL
