MODEL 1
REMARK minimizedAffinity 2.62961698
REMARK minimizedRMSD -1
REMARK  0 active torsions:
REMARK  status: ('A' for Active; 'I' for Inactive)
ROOT
ATOM      1  C   UNL d   1       1.746  -1.363   1.620  0.00  0.00     0.020 A 
ATOM      2  C1  UNL d   1       2.094  -1.232   2.963  0.00  0.00     0.020 A 
ATOM      3  C2  UNL d   1       2.605  -0.021   3.437  0.00  0.00     0.034 A 
ATOM      4  C3  UNL d   1       2.769   1.062   2.567  0.00  0.00     0.017 A 
ATOM      5  C4  UNL d   1       2.420   0.929   1.218  0.00  0.00     0.017 A 
ATOM      6  C5  UNL d   1       1.909  -0.285   0.749  0.00  0.00     0.034 A 
ATOM      7 Cl   UNL d   1       2.594   2.221   0.083  0.00  0.00    -0.070 Cl
ATOM      8 Cl1  UNL d   1       3.406   2.529   3.221  0.00  0.00    -0.070 Cl
ENDROOT
TORSDOF 0
ENDMDL
