MODEL 1
REMARK minimizedAffinity 10.2635536
REMARK minimizedRMSD -1
REMARK  0 active torsions:
REMARK  status: ('A' for Active; 'I' for Inactive)
ROOT
ATOM      1  C   UNL d   1       2.837  -1.157   3.387  0.00  0.00     0.020 A 
ATOM      2  C1  UNL d   1       2.424   0.032   3.987  0.00  0.00     0.020 A 
ATOM      3  C2  UNL d   1       2.250   1.181   3.214  0.00  0.00     0.034 A 
ATOM      4  C3  UNL d   1       2.491   1.145   1.835  0.00  0.00     0.017 A 
ATOM      5  C4  UNL d   1       2.906  -0.048   1.234  0.00  0.00     0.017 A 
ATOM      6  C5  UNL d   1       3.078  -1.197   2.013  0.00  0.00     0.034 A 
ATOM      7 Cl   UNL d   1       3.222  -0.171  -0.461  0.00  0.00    -0.070 Cl
ATOM      8 Cl1  UNL d   1       2.256   2.604   0.940  0.00  0.00    -0.070 Cl
ENDROOT
TORSDOF 0
ENDMDL
