MODEL 1
REMARK minimizedAffinity 3.80986977
REMARK minimizedRMSD -1
REMARK  0 active torsions:
REMARK  status: ('A' for Active; 'I' for Inactive)
ROOT
ATOM      1  C   UNL d   1       2.985   0.066   1.140  0.00  0.00     0.020 A 
ATOM      2  C1  UNL d   1       1.900  -0.646   1.650  0.00  0.00     0.020 A 
ATOM      3  C2  UNL d   1       0.640  -0.048   1.715  0.00  0.00     0.034 A 
ATOM      4  C3  UNL d   1       0.461   1.267   1.268  0.00  0.00     0.017 A 
ATOM      5  C4  UNL d   1       1.550   1.981   0.756  0.00  0.00     0.017 A 
ATOM      6  C5  UNL d   1       2.810   1.377   0.694  0.00  0.00     0.034 A 
ATOM      7 Cl   UNL d   1       1.408   3.606   0.186  0.00  0.00    -0.070 Cl
ATOM      8 Cl1  UNL d   1      -1.125   1.943   1.377  0.00  0.00    -0.070 Cl
ENDROOT
TORSDOF 0
ENDMDL
