MODEL 1
REMARK minimizedAffinity 5.33668995
REMARK minimizedRMSD -1
REMARK  0 active torsions:
REMARK  status: ('A' for Active; 'I' for Inactive)
ROOT
ATOM      1  C   UNL d   1      -4.180   2.020  -3.819  0.00  0.00     0.020 A 
ATOM      2  C1  UNL d   1      -5.458   2.579  -3.826  0.00  0.00     0.020 A 
ATOM      3  C2  UNL d   1      -5.998   3.098  -2.648  0.00  0.00     0.034 A 
ATOM      4  C3  UNL d   1      -5.262   3.060  -1.458  0.00  0.00     0.017 A 
ATOM      5  C4  UNL d   1      -3.980   2.498  -1.453  0.00  0.00     0.017 A 
ATOM      6  C5  UNL d   1      -3.443   1.980  -2.635  0.00  0.00     0.034 A 
ATOM      7 Cl   UNL d   1      -3.011   2.415  -0.024  0.00  0.00    -0.070 Cl
ATOM      8 Cl1  UNL d   1      -5.993   3.720  -0.039  0.00  0.00    -0.070 Cl
ENDROOT
TORSDOF 0
ENDMDL
