MODEL 1
REMARK minimizedAffinity 7.7112608
REMARK minimizedRMSD -1
REMARK  0 active torsions:
REMARK  status: ('A' for Active; 'I' for Inactive)
ROOT
ATOM      1  C   UNL d   1      -1.256  -3.592  -0.459  0.00  0.00     0.020 A 
ATOM      2  C1  UNL d   1      -0.487  -2.735  -1.245  0.00  0.00     0.020 A 
ATOM      3  C2  UNL d   1      -1.081  -2.026  -2.291  0.00  0.00     0.034 A 
ATOM      4  C3  UNL d   1      -2.448  -2.172  -2.554  0.00  0.00     0.017 A 
ATOM      5  C4  UNL d   1      -3.219  -3.032  -1.764  0.00  0.00     0.017 A 
ATOM      6  C5  UNL d   1      -2.619  -3.740  -0.718  0.00  0.00     0.034 A 
ATOM      7 Cl   UNL d   1      -4.911  -3.265  -2.028  0.00  0.00    -0.070 Cl
ATOM      8 Cl1  UNL d   1      -3.116  -1.263  -3.863  0.00  0.00    -0.070 Cl
ENDROOT
TORSDOF 0
ENDMDL
