MODEL 1
REMARK minimizedAffinity 7.89355135
REMARK minimizedRMSD -1
REMARK  0 active torsions:
REMARK  status: ('A' for Active; 'I' for Inactive)
ROOT
ATOM      1  C   UNL d   1       2.739   0.412   1.125  0.00  0.00     0.020 A 
ATOM      2  C1  UNL d   1       1.590  -0.040   1.773  0.00  0.00     0.020 A 
ATOM      3  C2  UNL d   1       1.669  -1.108   2.669  0.00  0.00     0.034 A 
ATOM      4  C3  UNL d   1       2.899  -1.728   2.919  0.00  0.00     0.017 A 
ATOM      5  C4  UNL d   1       4.051  -1.273   2.267  0.00  0.00     0.017 A 
ATOM      6  C5  UNL d   1       3.966  -0.203   1.371  0.00  0.00     0.034 A 
ATOM      7 Cl   UNL d   1       5.604  -1.987   2.525  0.00  0.00    -0.070 Cl
ATOM      8 Cl1  UNL d   1       2.923  -3.043   4.039  0.00  0.00    -0.070 Cl
ENDROOT
TORSDOF 0
ENDMDL
