MODEL 1
REMARK minimizedAffinity -3.78476119
REMARK minimizedRMSD -1
REMARK  1 active torsions:
REMARK  status: ('A' for Active; 'I' for Inactive)
REMARK    1  A    between atoms: N_2  and  C1_3 
ROOT
ATOM      1  C1  UNL d   1      -0.418  -0.321   0.472  0.00  0.00     0.143 A 
ATOM      2  C2  UNL d   1      -1.171  -0.510   1.636  0.00  0.00    -0.057 A 
ATOM      3  C3  UNL d   1      -1.969   0.514   2.159  0.00  0.00     0.033 A 
ATOM      4  C4  UNL d   1      -2.005   1.760   1.541  0.00  0.00    -0.042 A 
ATOM      5  C5  UNL d   1      -1.246   1.978   0.397  0.00  0.00     0.033 A 
ATOM      6  C6  UNL d   1      -0.456   0.949  -0.124  0.00  0.00    -0.057 A 
ENDROOT
BRANCH   1   7
ATOM      7  N   UNL d   1       0.471  -1.269  -0.042  0.00  0.00    -0.732 N 
ATOM      8  C   UNL d   1       0.227  -1.888  -1.327  0.00  0.00     0.284 C 
ATOM      9  H3  UNL d   1       1.444  -1.017   0.120  0.00  0.00     0.395 HD
ENDBRANCH   1   7
TORSDOF 1
ENDMDL
