MODEL 1
REMARK minimizedAffinity -4.4943037
REMARK minimizedRMSD -1
REMARK  1 active torsions:
REMARK  status: ('A' for Active; 'I' for Inactive)
REMARK    1  A    between atoms: N_2  and  C1_3 
ROOT
ATOM      1  C1  UNL d   1      -0.458  -0.139   0.361  0.00  0.00     0.143 A 
ATOM      2  C2  UNL d   1      -1.014   0.814  -0.500  0.00  0.00    -0.057 A 
ATOM      3  C3  UNL d   1      -1.469   2.048  -0.020  0.00  0.00     0.033 A 
ATOM      4  C4  UNL d   1      -1.402   2.341   1.338  0.00  0.00    -0.042 A 
ATOM      5  C5  UNL d   1      -0.877   1.399   2.215  0.00  0.00     0.033 A 
ATOM      6  C6  UNL d   1      -0.418   0.171   1.729  0.00  0.00    -0.057 A 
ENDROOT
BRANCH   1   7
ATOM      7  N   UNL d   1      -0.078  -1.422  -0.041  0.00  0.00    -0.732 N 
ATOM      8  C   UNL d   1       0.437  -1.656  -1.373  0.00  0.00     0.284 C 
ATOM      9  H3  UNL d   1       0.417  -1.927   0.691  0.00  0.00     0.395 HD
ENDBRANCH   1   7
TORSDOF 1
ENDMDL
