MODEL 1
REMARK minimizedAffinity -3.63448358
REMARK minimizedRMSD -1
REMARK  1 active torsions:
REMARK  status: ('A' for Active; 'I' for Inactive)
REMARK    1  A    between atoms: N_2  and  C1_3 
ROOT
ATOM      1  C1  UNL d   1      -0.683   0.677   0.938  0.00  0.00     0.143 A 
ATOM      2  C2  UNL d   1      -1.666   0.783   1.928  0.00  0.00    -0.057 A 
ATOM      3  C3  UNL d   1      -2.424   1.950   2.078  0.00  0.00     0.033 A 
ATOM      4  C4  UNL d   1      -2.191   3.048   1.255  0.00  0.00    -0.042 A 
ATOM      5  C5  UNL d   1      -1.202   2.975   0.281  0.00  0.00     0.033 A 
ATOM      6  C6  UNL d   1      -0.453   1.803   0.132  0.00  0.00    -0.057 A 
ENDROOT
BRANCH   1   7
ATOM      7  N   UNL d   1       0.170  -0.421   0.804  0.00  0.00    -0.732 N 
ATOM      8  C   UNL d   1       0.697  -0.790  -0.493  0.00  0.00     0.284 C 
ATOM      9  H3  UNL d   1       0.848  -0.481   1.560  0.00  0.00     0.395 HD
ENDBRANCH   1   7
TORSDOF 1
ENDMDL
