MODEL 1
REMARK minimizedAffinity -4.28370857
REMARK minimizedRMSD -1
REMARK  1 active torsions:
REMARK  status: ('A' for Active; 'I' for Inactive)
REMARK    1  A    between atoms: N_2  and  C1_3 
ROOT
ATOM      1  C1  UNL d   1      -0.465   0.972   0.745  0.00  0.00     0.143 A 
ATOM      2  C2  UNL d   1      -1.197   1.559   1.783  0.00  0.00    -0.057 A 
ATOM      3  C3  UNL d   1      -1.400   2.943   1.835  0.00  0.00     0.033 A 
ATOM      4  C4  UNL d   1      -0.848   3.771   0.862  0.00  0.00    -0.042 A 
ATOM      5  C5  UNL d   1      -0.095   3.211  -0.164  0.00  0.00     0.033 A 
ATOM      6  C6  UNL d   1       0.098   1.828  -0.215  0.00  0.00    -0.057 A 
ENDROOT
BRANCH   1   7
ATOM      7  N   UNL d   1      -0.145  -0.387   0.691  0.00  0.00    -0.732 N 
ATOM      8  C   UNL d   1       0.784  -0.887  -0.300  0.00  0.00     0.284 C 
ATOM      9  H3  UNL d   1      -0.026  -0.795   1.615  0.00  0.00     0.395 HD
ENDBRANCH   1   7
TORSDOF 1
ENDMDL
