MODEL 1
REMARK minimizedAffinity -4.17960262
REMARK minimizedRMSD -1
REMARK  1 active torsions:
REMARK  status: ('A' for Active; 'I' for Inactive)
REMARK    1  A    between atoms: N_2  and  C1_3 
ROOT
ATOM      1  C1  UNL d   1      -0.986   2.226   0.356  0.00  0.00     0.143 A 
ATOM      2  C2  UNL d   1      -0.059   1.246  -0.017  0.00  0.00    -0.057 A 
ATOM      3  C3  UNL d   1      -0.108  -0.044   0.524  0.00  0.00     0.033 A 
ATOM      4  C4  UNL d   1      -1.071  -0.370   1.474  0.00  0.00    -0.042 A 
ATOM      5  C5  UNL d   1      -1.987   0.595   1.878  0.00  0.00     0.033 A 
ATOM      6  C6  UNL d   1      -1.937   1.880   1.329  0.00  0.00    -0.057 A 
ENDROOT
BRANCH   1   7
ATOM      7  N   UNL d   1      -0.929   3.554  -0.073  0.00  0.00    -0.732 N 
ATOM      8  C   UNL d   1      -0.016   3.951  -1.124  0.00  0.00     0.284 C 
ATOM      9  H3  UNL d   1      -1.850   3.981  -0.139  0.00  0.00     0.395 HD
ENDBRANCH   1   7
TORSDOF 1
ENDMDL
