MODEL 1
REMARK minimizedAffinity -4.66317749
REMARK minimizedRMSD -1
REMARK  1 active torsions:
REMARK  status: ('A' for Active; 'I' for Inactive)
REMARK    1  A    between atoms: N_2  and  C1_3 
ROOT
ATOM      1  C1  UNL d   1      -0.183  -0.542  -0.682  0.00  0.00     0.143 A 
ATOM      2  C2  UNL d   1       0.961  -1.298  -0.404  0.00  0.00    -0.057 A 
ATOM      3  C3  UNL d   1       1.262  -2.454  -1.133  0.00  0.00     0.033 A 
ATOM      4  C4  UNL d   1       0.406  -2.893  -2.138  0.00  0.00    -0.042 A 
ATOM      5  C5  UNL d   1      -0.749  -2.172  -2.415  0.00  0.00     0.033 A 
ATOM      6  C6  UNL d   1      -1.042  -1.014  -1.688  0.00  0.00    -0.057 A 
ENDROOT
BRANCH   1   7
ATOM      7  N   UNL d   1      -0.589   0.561   0.072  0.00  0.00    -0.732 N 
ATOM      8  C   UNL d   1      -1.014   0.399   1.446  0.00  0.00     0.284 C 
ATOM      9  H3  UNL d   1      -0.004   1.378  -0.088  0.00  0.00     0.395 HD
ENDBRANCH   1   7
TORSDOF 1
ENDMDL
