MODEL 1
REMARK minimizedAffinity -4.93637276
REMARK minimizedRMSD -1
REMARK  1 active torsions:
REMARK  status: ('A' for Active; 'I' for Inactive)
REMARK    1  A    between atoms: N_2  and  C1_3 
ROOT
ATOM      1  C1  UNL d   1      -0.398   1.177  -0.200  0.00  0.00     0.143 A 
ATOM      2  C2  UNL d   1      -1.336   0.947   0.812  0.00  0.00    -0.057 A 
ATOM      3  C3  UNL d   1      -1.985   2.008   1.456  0.00  0.00     0.033 A 
ATOM      4  C4  UNL d   1      -1.685   3.323   1.116  0.00  0.00    -0.042 A 
ATOM      5  C5  UNL d   1      -0.738   3.576   0.130  0.00  0.00     0.033 A 
ATOM      6  C6  UNL d   1      -0.098   2.512  -0.513  0.00  0.00    -0.057 A 
ENDROOT
BRANCH   1   7
ATOM      7  N   UNL d   1       0.353   0.169  -0.809  0.00  0.00    -0.732 N 
ATOM      8  C   UNL d   1       0.966  -0.875  -0.015  0.00  0.00     0.284 C 
ATOM      9  H3  UNL d   1      -0.068  -0.161  -1.674  0.00  0.00     0.395 HD
ENDBRANCH   1   7
TORSDOF 1
ENDMDL
