MODEL 1
REMARK minimizedAffinity -2.37990284
REMARK minimizedRMSD -1
REMARK  1 active torsions:
REMARK  status: ('A' for Active; 'I' for Inactive)
REMARK    1  A    between atoms: N_2  and  C1_3 
ROOT
ATOM      1  C1  UNL d   1       0.927  -0.858  -0.558  0.00  0.00     0.143 A 
ATOM      2  C2  UNL d   1       0.141   0.272  -0.808  0.00  0.00    -0.057 A 
ATOM      3  C3  UNL d   1      -0.585   0.893   0.216  0.00  0.00     0.033 A 
ATOM      4  C4  UNL d   1      -0.560   0.375   1.506  0.00  0.00    -0.042 A 
ATOM      5  C5  UNL d   1       0.194  -0.763   1.773  0.00  0.00     0.033 A 
ATOM      6  C6  UNL d   1       0.922  -1.374   0.747  0.00  0.00    -0.057 A 
ENDROOT
BRANCH   1   7
ATOM      7  N   UNL d   1       1.592  -1.578  -1.553  0.00  0.00    -0.732 N 
ATOM      8  C   UNL d   1       1.408  -3.008  -1.677  0.00  0.00     0.284 C 
ATOM      9  H3  UNL d   1       1.614  -1.084  -2.442  0.00  0.00     0.395 HD
ENDBRANCH   1   7
TORSDOF 1
ENDMDL
