MODEL 1
REMARK minimizedAffinity -4.78460073
REMARK minimizedRMSD -1
REMARK  1 active torsions:
REMARK  status: ('A' for Active; 'I' for Inactive)
REMARK    1  A    between atoms: N_2  and  C1_3 
ROOT
ATOM      1  C1  UNL d   1      -0.148   0.404   0.245  0.00  0.00     0.143 A 
ATOM      2  C2  UNL d   1      -0.273   0.324   1.636  0.00  0.00    -0.057 A 
ATOM      3  C3  UNL d   1      -1.049   1.246   2.349  0.00  0.00     0.033 A 
ATOM      4  C4  UNL d   1      -1.691   2.285   1.684  0.00  0.00    -0.042 A 
ATOM      5  C5  UNL d   1      -1.560   2.399   0.305  0.00  0.00     0.033 A 
ATOM      6  C6  UNL d   1      -0.789   1.471  -0.403  0.00  0.00    -0.057 A 
ENDROOT
BRANCH   1   7
ATOM      7  N   UNL d   1       0.688  -0.424  -0.510  0.00  0.00    -0.732 N 
ATOM      8  C   UNL d   1       0.348  -1.814  -0.727  0.00  0.00     0.284 C 
ATOM      9  H3  UNL d   1       1.061   0.046  -1.331  0.00  0.00     0.395 HD
ENDBRANCH   1   7
TORSDOF 1
ENDMDL
