MODEL 1
REMARK minimizedAffinity -5.20334435
REMARK minimizedRMSD -1
REMARK  1 active torsions:
REMARK  status: ('A' for Active; 'I' for Inactive)
REMARK    1  A    between atoms: N_2  and  C1_3 
ROOT
ATOM      1  C1  UNL d   1      -0.727   1.198   0.346  0.00  0.00     0.143 A 
ATOM      2  C2  UNL d   1      -1.628   1.749   1.263  0.00  0.00    -0.057 A 
ATOM      3  C3  UNL d   1      -1.862   3.129   1.312  0.00  0.00     0.033 A 
ATOM      4  C4  UNL d   1      -1.175   3.987   0.461  0.00  0.00    -0.042 A 
ATOM      5  C5  UNL d   1      -0.255   3.465  -0.442  0.00  0.00     0.033 A 
ATOM      6  C6  UNL d   1      -0.031   2.085  -0.490  0.00  0.00    -0.057 A 
ENDROOT
BRANCH   1   7
ATOM      7  N   UNL d   1      -0.377  -0.154   0.315  0.00  0.00    -0.732 N 
ATOM      8  C   UNL d   1       0.909  -0.572  -0.199  0.00  0.00     0.284 C 
ATOM      9  H3  UNL d   1      -0.672  -0.651   1.153  0.00  0.00     0.395 HD
ENDBRANCH   1   7
TORSDOF 1
ENDMDL
