MODEL 1
REMARK minimizedAffinity -5.33769941
REMARK minimizedRMSD -1
REMARK  1 active torsions:
REMARK  status: ('A' for Active; 'I' for Inactive)
REMARK    1  A    between atoms: N_2  and  C1_3 
ROOT
ATOM      1  C1  UNL d   1      -1.036   1.188   1.034  0.00  0.00     0.143 A 
ATOM      2  C2  UNL d   1      -1.570   2.296   1.700  0.00  0.00    -0.057 A 
ATOM      3  C3  UNL d   1      -1.452   3.587   1.173  0.00  0.00     0.033 A 
ATOM      4  C4  UNL d   1      -0.769   3.798  -0.020  0.00  0.00    -0.042 A 
ATOM      5  C5  UNL d   1      -0.207   2.715  -0.687  0.00  0.00     0.033 A 
ATOM      6  C6  UNL d   1      -0.335   1.427  -0.159  0.00  0.00    -0.057 A 
ENDROOT
BRANCH   1   7
ATOM      7  N   UNL d   1      -1.035  -0.108   1.555  0.00  0.00    -0.732 N 
ATOM      8  C   UNL d   1       0.101  -0.982   1.355  0.00  0.00     0.284 C 
ATOM      9  H3  UNL d   1      -1.432  -0.150   2.491  0.00  0.00     0.395 HD
ENDBRANCH   1   7
TORSDOF 1
ENDMDL
