MODEL 1
REMARK minimizedAffinity 9.72141361
REMARK minimizedRMSD -1
REMARK  0 active torsions:
REMARK  status: ('A' for Active; 'I' for Inactive)
ROOT
ATOM      1  C   UNL d   1      -4.801   5.075   1.510  0.00  0.00    -0.002 A 
ATOM      2  C1  UNL d   1      -5.955   4.855   2.249  0.00  0.00     0.010 A 
ATOM      3  C2  UNL d   1      -5.946   4.997   3.638  0.00  0.00     0.041 A 
ATOM      4  C3  UNL d   1      -4.747   5.368   4.278  0.00  0.00    -0.075 A 
ATOM      5  S   UNL d   1      -4.500   5.601   5.968  0.00  0.00     0.015 SA
ATOM      6  C4  UNL d   1      -2.857   6.000   5.749  0.00  0.00     0.022 A 
ATOM      7  C5  UNL d   1      -2.489   5.960   4.425  0.00  0.00     0.026 A 
ATOM      8  C6  UNL d   1      -3.573   5.596   3.555  0.00  0.00    -0.082 A 
ATOM      9  C7  UNL d   1      -3.614   5.444   2.148  0.00  0.00     0.045 A 
ENDROOT
TORSDOF 0
ENDMDL
