MODEL 1
REMARK minimizedAffinity 5.12632322
REMARK minimizedRMSD -1
REMARK  0 active torsions:
REMARK  status: ('A' for Active; 'I' for Inactive)
ROOT
ATOM      1  C   UNL d   1      -5.049   5.995   1.647  0.00  0.00    -0.002 A 
ATOM      2  C1  UNL d   1      -3.728   5.996   1.224  0.00  0.00     0.010 A 
ATOM      3  C2  UNL d   1      -2.685   5.999   2.153  0.00  0.00     0.041 A 
ATOM      4  C3  UNL d   1      -2.997   5.998   3.527  0.00  0.00    -0.075 A 
ATOM      5  S   UNL d   1      -1.885   6.000   4.845  0.00  0.00     0.015 SA
ATOM      6  C4  UNL d   1      -3.139   5.998   6.000  0.00  0.00     0.022 A 
ATOM      7  C5  UNL d   1      -4.381   5.996   5.412  0.00  0.00     0.026 A 
ATOM      8  C6  UNL d   1      -4.320   5.996   3.977  0.00  0.00    -0.082 A 
ATOM      9  C7  UNL d   1      -5.354   5.994   3.011  0.00  0.00     0.045 A 
ENDROOT
TORSDOF 0
ENDMDL
