MODEL 1
REMARK minimizedAffinity 3.91752076
REMARK minimizedRMSD -1
REMARK  0 active torsions:
REMARK  status: ('A' for Active; 'I' for Inactive)
ROOT
ATOM      1  C   UNL d   1      -3.612   5.998   1.137  0.00  0.00    -0.002 A 
ATOM      2  C1  UNL d   1      -2.275   5.997   1.510  0.00  0.00     0.010 A 
ATOM      3  C2  UNL d   1      -1.914   5.999   2.859  0.00  0.00     0.041 A 
ATOM      4  C3  UNL d   1      -2.929   5.998   3.836  0.00  0.00    -0.075 A 
ATOM      5  S   UNL d   1      -2.724   5.999   5.548  0.00  0.00     0.015 SA
ATOM      6  C4  UNL d   1      -4.406   5.999   5.824  0.00  0.00     0.022 A 
ATOM      7  C5  UNL d   1      -5.121   5.999   4.650  0.00  0.00     0.026 A 
ATOM      8  C6  UNL d   1      -4.282   5.998   3.485  0.00  0.00    -0.082 A 
ATOM      9  C7  UNL d   1      -4.616   5.998   2.109  0.00  0.00     0.045 A 
ENDROOT
TORSDOF 0
ENDMDL
