MODEL 1
REMARK minimizedAffinity 5.78422976
REMARK minimizedRMSD -1
REMARK  0 active torsions:
REMARK  status: ('A' for Active; 'I' for Inactive)
ROOT
ATOM      1  C   UNL d   1      -3.936   6.000   5.731  0.00  0.00    -0.002 A 
ATOM      2  C1  UNL d   1      -2.615   6.000   5.306  0.00  0.00     0.010 A 
ATOM      3  C2  UNL d   1      -2.307   5.996   3.944  0.00  0.00     0.041 A 
ATOM      4  C3  UNL d   1      -3.359   5.996   3.007  0.00  0.00    -0.075 A 
ATOM      5  S   UNL d   1      -3.221   5.993   1.289  0.00  0.00     0.015 SA
ATOM      6  C4  UNL d   1      -4.912   5.993   1.078  0.00  0.00     0.022 A 
ATOM      7  C5  UNL d   1      -5.581   5.995   2.279  0.00  0.00     0.026 A 
ATOM      8  C6  UNL d   1      -4.698   5.997   3.410  0.00  0.00    -0.082 A 
ATOM      9  C7  UNL d   1      -4.977   5.999   4.798  0.00  0.00     0.045 A 
ENDROOT
TORSDOF 0
ENDMDL
