MODEL 1
REMARK minimizedAffinity 5.49866104
REMARK minimizedRMSD -1
REMARK  0 active torsions:
REMARK  status: ('A' for Active; 'I' for Inactive)
ROOT
ATOM      1  C   UNL d   1      -4.105   5.930   1.471  0.00  0.00    -0.002 A 
ATOM      2  C1  UNL d   1      -5.345   5.945   2.092  0.00  0.00     0.010 A 
ATOM      3  C2  UNL d   1      -5.442   5.966   3.485  0.00  0.00     0.041 A 
ATOM      4  C3  UNL d   1      -4.259   5.974   4.250  0.00  0.00    -0.075 A 
ATOM      5  S   UNL d   1      -4.134   6.000   5.969  0.00  0.00     0.015 SA
ATOM      6  C4  UNL d   1      -2.430   5.993   5.919  0.00  0.00     0.022 A 
ATOM      7  C5  UNL d   1      -1.952   5.972   4.631  0.00  0.00     0.026 A 
ATOM      8  C6  UNL d   1      -2.998   5.961   3.647  0.00  0.00    -0.082 A 
ATOM      9  C7  UNL d   1      -2.934   5.939   2.233  0.00  0.00     0.045 A 
ENDROOT
TORSDOF 0
ENDMDL
