MODEL 1
REMARK minimizedAffinity 4.11445236
REMARK minimizedRMSD -1
REMARK  0 active torsions:
REMARK  status: ('A' for Active; 'I' for Inactive)
ROOT
ATOM      1  C   UNL d   1      -4.298   5.730   1.500  0.00  0.00    -0.002 A 
ATOM      2  C1  UNL d   1      -5.557   5.770   2.082  0.00  0.00     0.010 A 
ATOM      3  C2  UNL d   1      -5.696   5.852   3.469  0.00  0.00     0.041 A 
ATOM      4  C3  UNL d   1      -4.538   5.897   4.269  0.00  0.00    -0.075 A 
ATOM      5  S   UNL d   1      -4.465   6.000   5.988  0.00  0.00     0.015 SA
ATOM      6  C4  UNL d   1      -2.760   5.995   5.991  0.00  0.00     0.022 A 
ATOM      7  C5  UNL d   1      -2.243   5.917   4.720  0.00  0.00     0.026 A 
ATOM      8  C6  UNL d   1      -3.259   5.860   3.706  0.00  0.00    -0.082 A 
ATOM      9  C7  UNL d   1      -3.151   5.775   2.297  0.00  0.00     0.045 A 
ENDROOT
TORSDOF 0
ENDMDL
