MODEL 1
REMARK minimizedAffinity 3.3130374
REMARK minimizedRMSD -1
REMARK  0 active torsions:
REMARK  status: ('A' for Active; 'I' for Inactive)
ROOT
ATOM      1  C   UNL d   1      -3.081   5.942   1.400  0.00  0.00    -0.002 A 
ATOM      2  C1  UNL d   1      -1.787   5.977   1.898  0.00  0.00     0.010 A 
ATOM      3  C2  UNL d   1      -1.556   5.998   3.274  0.00  0.00     0.041 A 
ATOM      4  C3  UNL d   1      -2.658   5.981   4.151  0.00  0.00    -0.075 A 
ATOM      5  S   UNL d   1      -2.617   6.000   5.874  0.00  0.00     0.015 SA
ATOM      6  C4  UNL d   1      -4.317   5.961   5.990  0.00  0.00     0.022 A 
ATOM      7  C5  UNL d   1      -4.917   5.935   4.754  0.00  0.00     0.026 A 
ATOM      8  C6  UNL d   1      -3.971   5.945   3.673  0.00  0.00    -0.082 A 
ATOM      9  C7  UNL d   1      -4.173   5.926   2.272  0.00  0.00     0.045 A 
ENDROOT
TORSDOF 0
ENDMDL
