MODEL 1
REMARK minimizedAffinity 3.55854702
REMARK minimizedRMSD -1
REMARK  0 active torsions:
REMARK  status: ('A' for Active; 'I' for Inactive)
ROOT
ATOM      1  C   UNL d   1      -2.594   5.998   5.621  0.00  0.00    -0.002 A 
ATOM      2  C1  UNL d   1      -3.982   5.998   5.645  0.00  0.00     0.010 A 
ATOM      3  C2  UNL d   1      -4.713   6.000   4.455  0.00  0.00     0.041 A 
ATOM      4  C3  UNL d   1      -4.019   5.999   3.229  0.00  0.00    -0.075 A 
ATOM      5  S   UNL d   1      -4.705   6.000   1.647  0.00  0.00     0.015 SA
ATOM      6  C4  UNL d   1      -3.172   5.999   0.902  0.00  0.00     0.022 A 
ATOM      7  C5  UNL d   1      -2.151   5.998   1.823  0.00  0.00     0.026 A 
ATOM      8  C6  UNL d   1      -2.622   5.998   3.179  0.00  0.00    -0.082 A 
ATOM      9  C7  UNL d   1      -1.910   5.997   4.402  0.00  0.00     0.045 A 
ENDROOT
TORSDOF 0
ENDMDL
