MODEL 1
REMARK minimizedAffinity 9.77447891
REMARK minimizedRMSD -1
REMARK  0 active torsions:
REMARK  status: ('A' for Active; 'I' for Inactive)
ROOT
ATOM      1  C   UNL d   1      -3.115   5.979   5.993  0.00  0.00    -0.002 A 
ATOM      2  C1  UNL d   1      -1.992   5.980   5.177  0.00  0.00     0.010 A 
ATOM      3  C2  UNL d   1      -2.123   5.985   3.787  0.00  0.00     0.041 A 
ATOM      4  C3  UNL d   1      -3.415   5.990   3.225  0.00  0.00    -0.075 A 
ATOM      5  S   UNL d   1      -3.819   5.997   1.549  0.00  0.00     0.015 SA
ATOM      6  C4  UNL d   1      -5.491   5.999   1.875  0.00  0.00     0.022 A 
ATOM      7  C5  UNL d   1      -5.753   5.994   3.225  0.00  0.00     0.026 A 
ATOM      8  C6  UNL d   1      -4.561   5.989   4.025  0.00  0.00    -0.082 A 
ATOM      9  C7  UNL d   1      -4.395   5.983   5.431  0.00  0.00     0.045 A 
ENDROOT
TORSDOF 0
ENDMDL
