MODEL 1
REMARK minimizedAffinity 10.7592525
REMARK minimizedRMSD -1
REMARK  0 active torsions:
REMARK  status: ('A' for Active; 'I' for Inactive)
ROOT
ATOM      1  C   UNL d   1      -3.232   5.999   5.939  0.00  0.00    -0.002 A 
ATOM      2  C1  UNL d   1      -2.025   6.000   5.254  0.00  0.00     0.010 A 
ATOM      3  C2  UNL d   1      -2.000   5.999   3.858  0.00  0.00     0.041 A 
ATOM      4  C3  UNL d   1      -3.221   5.999   3.155  0.00  0.00    -0.075 A 
ATOM      5  S   UNL d   1      -3.435   5.999   1.444  0.00  0.00     0.015 SA
ATOM      6  C4  UNL d   1      -5.134   5.999   1.582  0.00  0.00     0.022 A 
ATOM      7  C5  UNL d   1      -5.545   5.999   2.894  0.00  0.00     0.026 A 
ATOM      8  C6  UNL d   1      -4.449   6.000   3.822  0.00  0.00    -0.082 A 
ATOM      9  C7  UNL d   1      -4.441   6.000   5.238  0.00  0.00     0.045 A 
ENDROOT
TORSDOF 0
ENDMDL
