MODEL 1
REMARK minimizedAffinity 7.29432106
REMARK minimizedRMSD -1
REMARK  0 active torsions:
REMARK  status: ('A' for Active; 'I' for Inactive)
ROOT
ATOM      1  C   UNL d   1      -2.602   1.964   2.381  0.00  0.00    -0.002 A 
ATOM      2  C1  UNL d   1      -3.384   2.477   1.357  0.00  0.00     0.010 A 
ATOM      3  C2  UNL d   1      -4.007   3.719   1.493  0.00  0.00     0.041 A 
ATOM      4  C3  UNL d   1      -3.828   4.444   2.688  0.00  0.00    -0.075 A 
ATOM      5  S   UNL d   1      -4.493   5.986   3.077  0.00  0.00     0.015 SA
ATOM      6  C4  UNL d   1      -3.754   6.000   4.613  0.00  0.00     0.022 A 
ATOM      7  C5  UNL d   1      -3.014   4.864   4.839  0.00  0.00     0.026 A 
ATOM      8  C6  UNL d   1      -3.044   3.948   3.733  0.00  0.00    -0.082 A 
ATOM      9  C7  UNL d   1      -2.426   2.686   3.565  0.00  0.00     0.045 A 
ENDROOT
TORSDOF 0
ENDMDL
