MODEL 1
REMARK minimizedAffinity 0.440214485
REMARK minimizedRMSD -1
REMARK  0 active torsions:
REMARK  status: ('A' for Active; 'I' for Inactive)
ROOT
ATOM      1  C   UNL d   1      -1.354  -1.128   1.828  0.00  0.00     0.124 A 
ATOM      2  C1  UNL d   1      -0.204  -1.720   1.324  0.00  0.00     0.062 A 
ATOM      3  C2  UNL d   1       0.587  -1.040   0.402  0.00  0.00     0.162 A 
ATOM      4  C3  UNL d   1       0.231   0.240  -0.022  0.00  0.00    -0.034 A 
ATOM      5  C4  UNL d   1      -0.928   0.828   0.488  0.00  0.00     0.162 A 
ATOM      6  C5  UNL d   1      -1.715   0.145   1.409  0.00  0.00     0.062 A 
ATOM      7  F   UNL d   1      -2.826   0.719   1.894  0.00  0.00    -0.097 F 
ATOM      8  F1  UNL d   1      -1.299   2.058   0.102  0.00  0.00    -0.096 F 
ATOM      9  I   UNL d   1       1.411   1.259  -1.400  0.00  0.00    -0.060 I 
ATOM     10  F2  UNL d   1       1.693  -1.637  -0.067  0.00  0.00    -0.096 F 
ATOM     11  F3  UNL d   1       0.146  -2.950   1.726  0.00  0.00    -0.097 F 
ATOM     12  F4  UNL d   1      -2.114  -1.784   2.714  0.00  0.00    -0.092 F 
ENDROOT
TORSDOF 0
ENDMDL
