MODEL 1
REMARK minimizedAffinity 1.15987051
REMARK minimizedRMSD -1
REMARK  0 active torsions:
REMARK  status: ('A' for Active; 'I' for Inactive)
ROOT
ATOM      1  C   UNL d   1      -0.844  -1.136   1.652  0.00  0.00     0.124 A 
ATOM      2  C1  UNL d   1      -1.193   0.192   1.449  0.00  0.00     0.062 A 
ATOM      3  C2  UNL d   1      -0.551   0.942   0.468  0.00  0.00     0.162 A 
ATOM      4  C3  UNL d   1       0.446   0.366  -0.319  0.00  0.00    -0.034 A 
ATOM      5  C4  UNL d   1       0.792  -0.969  -0.108  0.00  0.00     0.162 A 
ATOM      6  C5  UNL d   1       0.148  -1.715   0.873  0.00  0.00     0.062 A 
ATOM      7  F   UNL d   1       0.487  -2.998   1.068  0.00  0.00    -0.097 F 
ATOM      8  F1  UNL d   1       1.747  -1.555  -0.847  0.00  0.00    -0.096 F 
ATOM      9  I   UNL d   1       1.407   1.485  -1.787  0.00  0.00    -0.060 I 
ATOM     10  F2  UNL d   1      -0.909   2.223   0.294  0.00  0.00    -0.096 F 
ATOM     11  F3  UNL d   1      -2.150   0.754   2.201  0.00  0.00    -0.097 F 
ATOM     12  F4  UNL d   1      -1.462  -1.856   2.598  0.00  0.00    -0.092 F 
ENDROOT
TORSDOF 0
ENDMDL
