MODEL 1
REMARK minimizedAffinity -0.34455353
REMARK minimizedRMSD -1
REMARK  0 active torsions:
REMARK  status: ('A' for Active; 'I' for Inactive)
ROOT
ATOM      1  C   UNL d   1       0.622  -1.331   0.341  0.00  0.00     0.124 A 
ATOM      2  C1  UNL d   1      -0.196  -2.074   1.181  0.00  0.00     0.062 A 
ATOM      3  C2  UNL d   1      -1.326  -1.494   1.750  0.00  0.00     0.162 A 
ATOM      4  C3  UNL d   1      -1.646  -0.164   1.480  0.00  0.00    -0.034 A 
ATOM      5  C4  UNL d   1      -0.819   0.577   0.635  0.00  0.00     0.162 A 
ATOM      6  C5  UNL d   1       0.310  -0.007   0.069  0.00  0.00     0.062 A 
ATOM      7  F   UNL d   1       1.099   0.712  -0.743  0.00  0.00    -0.097 F 
ATOM      8  F1  UNL d   1      -1.097   1.859   0.354  0.00  0.00    -0.096 F 
ATOM      9  I   UNL d   1      -3.335   0.707   2.329  0.00  0.00    -0.060 I 
ATOM     10  F2  UNL d   1      -2.098  -2.236   2.558  0.00  0.00    -0.096 F 
ATOM     11  F3  UNL d   1       0.104  -3.354   1.447  0.00  0.00    -0.097 F 
ATOM     12  F4  UNL d   1       1.709  -1.891  -0.204  0.00  0.00    -0.092 F 
ENDROOT
TORSDOF 0
ENDMDL
