MODEL 1
REMARK minimizedAffinity -0.599868953
REMARK minimizedRMSD -1
REMARK  0 active torsions:
REMARK  status: ('A' for Active; 'I' for Inactive)
ROOT
ATOM      1  C   UNL d   1      -1.533  -1.163   2.000  0.00  0.00     0.124 A 
ATOM      2  C1  UNL d   1      -1.727   0.211   2.037  0.00  0.00     0.062 A 
ATOM      3  C2  UNL d   1      -0.985   1.045   1.205  0.00  0.00     0.162 A 
ATOM      4  C3  UNL d   1      -0.043   0.507   0.329  0.00  0.00    -0.034 A 
ATOM      5  C4  UNL d   1       0.148  -0.875   0.298  0.00  0.00     0.162 A 
ATOM      6  C5  UNL d   1      -0.596  -1.705   1.131  0.00  0.00     0.062 A 
ATOM      7  F   UNL d   1      -0.407  -3.032   1.095  0.00  0.00    -0.097 F 
ATOM      8  F1  UNL d   1       1.045  -1.425  -0.533  0.00  0.00    -0.096 F 
ATOM      9  I   UNL d   1       1.068   1.751  -0.917  0.00  0.00    -0.060 I 
ATOM     10  F2  UNL d   1      -1.194   2.369   1.262  0.00  0.00    -0.096 F 
ATOM     11  F3  UNL d   1      -2.630   0.737   2.876  0.00  0.00    -0.097 F 
ATOM     12  F4  UNL d   1      -2.247  -1.963   2.802  0.00  0.00    -0.092 F 
ENDROOT
TORSDOF 0
ENDMDL
