MODEL 1
REMARK minimizedAffinity -2.45055723
REMARK minimizedRMSD -1
REMARK  0 active torsions:
REMARK  status: ('A' for Active; 'I' for Inactive)
ROOT
ATOM      1  C   UNL d   1       0.887  -1.173  -0.015  0.00  0.00     0.124 A 
ATOM      2  C1  UNL d   1       0.046  -2.102   0.582  0.00  0.00     0.062 A 
ATOM      3  C2  UNL d   1      -1.045  -1.677   1.335  0.00  0.00     0.162 A 
ATOM      4  C3  UNL d   1      -1.302  -0.315   1.495  0.00  0.00    -0.034 A 
ATOM      5  C4  UNL d   1      -0.451   0.613   0.893  0.00  0.00     0.162 A 
ATOM      6  C5  UNL d   1       0.638   0.184   0.141  0.00  0.00     0.062 A 
ATOM      7  F   UNL d   1       1.449   1.083  -0.435  0.00  0.00    -0.097 F 
ATOM      8  F1  UNL d   1      -0.669   1.930   1.026  0.00  0.00    -0.096 F 
ATOM      9  I   UNL d   1      -2.932   0.324   2.620  0.00  0.00    -0.060 I 
ATOM     10  F2  UNL d   1      -1.841  -2.597   1.900  0.00  0.00    -0.096 F 
ATOM     11  F3  UNL d   1       0.285  -3.413   0.434  0.00  0.00    -0.097 F 
ATOM     12  F4  UNL d   1       1.936  -1.584  -0.738  0.00  0.00    -0.092 F 
ENDROOT
TORSDOF 0
ENDMDL
