MODEL 1
REMARK minimizedAffinity -3.49971223
REMARK minimizedRMSD -1
REMARK  0 active torsions:
REMARK  status: ('A' for Active; 'I' for Inactive)
ROOT
ATOM      1  C   UNL d   1      -1.517  -1.396   1.809  0.00  0.00     0.124 A 
ATOM      2  C1  UNL d   1      -0.485  -1.916   1.041  0.00  0.00     0.062 A 
ATOM      3  C2  UNL d   1       0.268  -1.080   0.221  0.00  0.00     0.162 A 
ATOM      4  C3  UNL d   1      -0.008   0.286   0.167  0.00  0.00    -0.034 A 
ATOM      5  C4  UNL d   1      -1.048   0.802   0.942  0.00  0.00     0.162 A 
ATOM      6  C5  UNL d   1      -1.798  -0.038   1.759  0.00  0.00     0.062 A 
ATOM      7  F   UNL d   1      -2.795   0.467   2.501  0.00  0.00    -0.097 F 
ATOM      8  F1  UNL d   1      -1.340   2.111   0.913  0.00  0.00    -0.096 F 
ATOM      9  I   UNL d   1       1.115   1.540  -1.057  0.00  0.00    -0.060 I 
ATOM     10  F2  UNL d   1       1.259  -1.610  -0.510  0.00  0.00    -0.096 F 
ATOM     11  F3  UNL d   1      -0.213  -3.228   1.086  0.00  0.00    -0.097 F 
ATOM     12  F4  UNL d   1      -2.241  -2.203   2.596  0.00  0.00    -0.092 F 
ENDROOT
TORSDOF 0
ENDMDL
