MODEL 1
REMARK minimizedAffinity -3.02498722
REMARK minimizedRMSD -1
REMARK  0 active torsions:
REMARK  status: ('A' for Active; 'I' for Inactive)
ROOT
ATOM      1  C   UNL d   1      -0.797  -1.353   1.744  0.00  0.00     0.124 A 
ATOM      2  C1  UNL d   1      -1.114  -0.002   1.714  0.00  0.00     0.062 A 
ATOM      3  C2  UNL d   1      -0.557   0.827   0.744  0.00  0.00     0.162 A 
ATOM      4  C3  UNL d   1       0.323   0.306  -0.205  0.00  0.00    -0.034 A 
ATOM      5  C4  UNL d   1       0.638  -1.053  -0.168  0.00  0.00     0.162 A 
ATOM      6  C5  UNL d   1       0.078  -1.877   0.804  0.00  0.00     0.062 A 
ATOM      7  F   UNL d   1       0.386  -3.182   0.831  0.00  0.00    -0.097 F 
ATOM      8  F1  UNL d   1       1.481  -1.587  -1.065  0.00  0.00    -0.096 F 
ATOM      9  I   UNL d   1       1.159   1.541  -1.657  0.00  0.00    -0.060 I 
ATOM     10  F2  UNL d   1      -0.881   2.128   0.738  0.00  0.00    -0.096 F 
ATOM     11  F3  UNL d   1      -1.960   0.508   2.621  0.00  0.00    -0.097 F 
ATOM     12  F4  UNL d   1      -1.334  -2.147   2.679  0.00  0.00    -0.092 F 
ENDROOT
TORSDOF 0
ENDMDL
