MODEL 1
REMARK minimizedAffinity -0.407125354
REMARK minimizedRMSD -1
REMARK  0 active torsions:
REMARK  status: ('A' for Active; 'I' for Inactive)
ROOT
ATOM      1  C   UNL d   1      -1.466  -1.240   1.822  0.00  0.00     0.124 A 
ATOM      2  C1  UNL d   1      -0.442  -1.848   1.109  0.00  0.00     0.062 A 
ATOM      3  C2  UNL d   1       0.314  -1.109   0.204  0.00  0.00     0.162 A 
ATOM      4  C3  UNL d   1       0.051   0.247   0.008  0.00  0.00    -0.034 A 
ATOM      5  C4  UNL d   1      -0.981   0.851   0.729  0.00  0.00     0.162 A 
ATOM      6  C5  UNL d   1      -1.735   0.108   1.632  0.00  0.00     0.062 A 
ATOM      7  F   UNL d   1      -2.724   0.696   2.321  0.00  0.00    -0.097 F 
ATOM      8  F1  UNL d   1      -1.262   2.152   0.565  0.00  0.00    -0.096 F 
ATOM      9  I   UNL d   1       1.180   1.356  -1.343  0.00  0.00    -0.060 I 
ATOM     10  F2  UNL d   1       1.297  -1.721  -0.472  0.00  0.00    -0.096 F 
ATOM     11  F3  UNL d   1      -0.182  -3.150   1.290  0.00  0.00    -0.097 F 
ATOM     12  F4  UNL d   1      -2.193  -1.954   2.692  0.00  0.00    -0.092 F 
ENDROOT
TORSDOF 0
ENDMDL
