MODEL 1
REMARK minimizedAffinity -0.838150024
REMARK minimizedRMSD -1
REMARK  0 active torsions:
REMARK  status: ('A' for Active; 'I' for Inactive)
ROOT
ATOM      1  C   UNL d   1      -1.266  -1.189   1.878  0.00  0.00     0.124 A 
ATOM      2  C1  UNL d   1      -0.140  -1.732   1.275  0.00  0.00     0.062 A 
ATOM      3  C2  UNL d   1       0.652  -0.951   0.438  0.00  0.00     0.162 A 
ATOM      4  C3  UNL d   1       0.322   0.383   0.200  0.00  0.00    -0.034 A 
ATOM      5  C4  UNL d   1      -0.812   0.922   0.809  0.00  0.00     0.162 A 
ATOM      6  C5  UNL d   1      -1.601   0.138   1.644  0.00  0.00     0.062 A 
ATOM      7  F   UNL d   1      -2.688   0.665   2.226  0.00  0.00    -0.097 F 
ATOM      8  F1  UNL d   1      -1.159   2.201   0.602  0.00  0.00    -0.096 F 
ATOM      9  I   UNL d   1       1.504   1.554  -1.050  0.00  0.00    -0.060 I 
ATOM     10  F2  UNL d   1       1.734  -1.503  -0.131  0.00  0.00    -0.096 F 
ATOM     11  F3  UNL d   1       0.185  -3.014   1.498  0.00  0.00    -0.097 F 
ATOM     12  F4  UNL d   1      -2.027  -1.943   2.681  0.00  0.00    -0.092 F 
ENDROOT
TORSDOF 0
ENDMDL
