MODEL 1
REMARK minimizedAffinity 11.1373119
REMARK minimizedRMSD -1
REMARK  0 active torsions:
REMARK  status: ('A' for Active; 'I' for Inactive)
ROOT
ATOM      1  C   UNL d   1       4.363   3.954   1.051  0.00  0.00     0.124 A 
ATOM      2  C1  UNL d   1       4.681   4.775  -0.022  0.00  0.00     0.062 A 
ATOM      3  C2  UNL d   1       4.481   4.331  -1.326  0.00  0.00     0.162 A 
ATOM      4  C3  UNL d   1       3.960   3.060  -1.565  0.00  0.00    -0.034 A 
ATOM      5  C4  UNL d   1       3.644   2.239  -0.481  0.00  0.00     0.162 A 
ATOM      6  C5  UNL d   1       3.845   2.688   0.821  0.00  0.00     0.062 A 
ATOM      7  F   UNL d   1       3.537   1.893   1.856  0.00  0.00    -0.097 F 
ATOM      8  F1  UNL d   1       3.141   1.011  -0.674  0.00  0.00    -0.096 F 
ATOM      9  I   UNL d   1       3.660   2.392  -3.513  0.00  0.00    -0.060 I 
ATOM     10  F2  UNL d   1       4.797   5.146  -2.344  0.00  0.00    -0.096 F 
ATOM     11  F3  UNL d   1       5.182   5.999   0.197  0.00  0.00    -0.097 F 
ATOM     12  F4  UNL d   1       4.557   4.384   2.304  0.00  0.00    -0.092 F 
ENDROOT
TORSDOF 0
ENDMDL
