MODEL 1
REMARK minimizedAffinity 1.90742266
REMARK minimizedRMSD -1
REMARK  0 active torsions:
REMARK  status: ('A' for Active; 'I' for Inactive)
ROOT
ATOM      1  C   UNL d   1      -0.926  -1.326   1.489  0.00  0.00     0.124 A 
ATOM      2  C1  UNL d   1      -1.405  -0.039   1.288  0.00  0.00     0.062 A 
ATOM      3  C2  UNL d   1      -0.798   0.796   0.355  0.00  0.00     0.162 A 
ATOM      4  C3  UNL d   1       0.294   0.346  -0.387  0.00  0.00    -0.034 A 
ATOM      5  C4  UNL d   1       0.771  -0.949  -0.179  0.00  0.00     0.162 A 
ATOM      6  C5  UNL d   1       0.161  -1.780   0.756  0.00  0.00     0.062 A 
ATOM      7  F   UNL d   1       0.625  -3.023   0.948  0.00  0.00    -0.097 F 
ATOM      8  F1  UNL d   1       1.819  -1.414  -0.875  0.00  0.00    -0.096 F 
ATOM      9  I   UNL d   1       1.204   1.592  -1.784  0.00  0.00    -0.060 I 
ATOM     10  F2  UNL d   1      -1.282   2.035   0.181  0.00  0.00    -0.096 F 
ATOM     11  F3  UNL d   1      -2.455   0.403   1.996  0.00  0.00    -0.097 F 
ATOM     12  F4  UNL d   1      -1.511  -2.127   2.389  0.00  0.00    -0.092 F 
ENDROOT
TORSDOF 0
ENDMDL
