MODEL 1
REMARK minimizedAffinity -1.93983841
REMARK minimizedRMSD -1
REMARK  0 active torsions:
REMARK  status: ('A' for Active; 'I' for Inactive)
ROOT
ATOM      1  C   UNL d   1      -2.446   0.049   1.817  0.00  0.00     0.124 A 
ATOM      2  C1  UNL d   1      -1.836   0.981   0.990  0.00  0.00     0.062 A 
ATOM      3  C2  UNL d   1      -0.615   0.690   0.388  0.00  0.00     0.162 A 
ATOM      4  C3  UNL d   1       0.003  -0.541   0.610  0.00  0.00    -0.034 A 
ATOM      5  C4  UNL d   1      -0.617  -1.473   1.444  0.00  0.00     0.162 A 
ATOM      6  C5  UNL d   1      -1.837  -1.177   2.043  0.00  0.00     0.062 A 
ATOM      7  F   UNL d   1      -2.425  -2.079   2.843  0.00  0.00    -0.097 F 
ATOM      8  F1  UNL d   1      -0.050  -2.666   1.679  0.00  0.00    -0.096 F 
ATOM      9  I   UNL d   1       1.828  -0.981  -0.289  0.00  0.00    -0.060 I 
ATOM     10  F2  UNL d   1      -0.048   1.609  -0.407  0.00  0.00    -0.096 F 
ATOM     11  F3  UNL d   1      -2.422   2.167   0.770  0.00  0.00    -0.097 F 
ATOM     12  F4  UNL d   1      -3.620   0.333   2.396  0.00  0.00    -0.092 F 
ENDROOT
TORSDOF 0
ENDMDL
