MODEL 1
REMARK minimizedAffinity -1.20343983
REMARK minimizedRMSD -1
REMARK  0 active torsions:
REMARK  status: ('A' for Active; 'I' for Inactive)
ROOT
ATOM      1  C   UNL d   1      -1.161  -1.305   1.900  0.00  0.00     0.124 A 
ATOM      2  C1  UNL d   1      -0.082  -1.678   1.110  0.00  0.00     0.062 A 
ATOM      3  C2  UNL d   1       0.499  -0.760   0.240  0.00  0.00     0.162 A 
ATOM      4  C3  UNL d   1       0.003   0.541   0.156  0.00  0.00    -0.034 A 
ATOM      5  C4  UNL d   1      -1.083   0.908   0.953  0.00  0.00     0.162 A 
ATOM      6  C5  UNL d   1      -1.661  -0.013   1.820  0.00  0.00     0.062 A 
ATOM      7  F   UNL d   1      -2.703   0.349   2.583  0.00  0.00    -0.097 F 
ATOM      8  F1  UNL d   1      -1.586   2.151   0.897  0.00  0.00    -0.096 F 
ATOM      9  I   UNL d   1       0.869   1.917  -1.143  0.00  0.00    -0.060 I 
ATOM     10  F2  UNL d   1       1.541  -1.147  -0.511  0.00  0.00    -0.096 F 
ATOM     11  F3  UNL d   1       0.402  -2.926   1.184  0.00  0.00    -0.097 F 
ATOM     12  F4  UNL d   1      -1.719  -2.191   2.735  0.00  0.00    -0.092 F 
ENDROOT
TORSDOF 0
ENDMDL
