MODEL 1
REMARK minimizedAffinity 7.2051053
REMARK minimizedRMSD -1
REMARK  0 active torsions:
REMARK  status: ('A' for Active; 'I' for Inactive)
ROOT
ATOM      1  C   UNL d   1       0.744  -0.917   0.724  0.00  0.00     0.124 A 
ATOM      2  C1  UNL d   1       0.302   0.281   0.179  0.00  0.00     0.062 A 
ATOM      3  C2  UNL d   1      -0.912   0.828   0.583  0.00  0.00     0.162 A 
ATOM      4  C3  UNL d   1      -1.694   0.179   1.538  0.00  0.00    -0.034 A 
ATOM      5  C4  UNL d   1      -1.244  -1.025   2.082  0.00  0.00     0.162 A 
ATOM      6  C5  UNL d   1      -0.029  -1.568   1.675  0.00  0.00     0.062 A 
ATOM      7  F   UNL d   1       0.396  -2.725   2.203  0.00  0.00    -0.097 F 
ATOM      8  F1  UNL d   1      -1.970  -1.676   3.003  0.00  0.00    -0.096 F 
ATOM      9  I   UNL d   1      -3.510   0.994   2.144  0.00  0.00    -0.060 I 
ATOM     10  F2  UNL d   1      -1.314   1.987   0.039  0.00  0.00    -0.096 F 
ATOM     11  F3  UNL d   1       1.047   0.912  -0.740  0.00  0.00    -0.097 F 
ATOM     12  F4  UNL d   1       1.912  -1.441   0.334  0.00  0.00    -0.092 F 
ENDROOT
TORSDOF 0
ENDMDL
