MODEL 1
REMARK minimizedAffinity 0.398586303
REMARK minimizedRMSD -1
REMARK  0 active torsions:
REMARK  status: ('A' for Active; 'I' for Inactive)
ROOT
ATOM      1  C   UNL d   1      -1.028  -1.088   1.564  0.00  0.00     0.124 A 
ATOM      2  C1  UNL d   1      -1.286   0.272   1.456  0.00  0.00     0.062 A 
ATOM      3  C2  UNL d   1      -0.500   1.070   0.629  0.00  0.00     0.162 A 
ATOM      4  C3  UNL d   1       0.551   0.510  -0.097  0.00  0.00    -0.034 A 
ATOM      5  C4  UNL d   1       0.805  -0.858   0.017  0.00  0.00     0.162 A 
ATOM      6  C5  UNL d   1       0.017  -1.651   0.845  0.00  0.00     0.062 A 
ATOM      7  F   UNL d   1       0.267  -2.965   0.948  0.00  0.00    -0.097 F 
ATOM      8  F1  UNL d   1       1.807  -1.429  -0.667  0.00  0.00    -0.096 F 
ATOM      9  I   UNL d   1       1.728   1.700  -1.334  0.00  0.00    -0.060 I 
ATOM     10  F2  UNL d   1      -0.772   2.380   0.544  0.00  0.00    -0.096 F 
ATOM     11  F3  UNL d   1      -2.294   0.819   2.150  0.00  0.00    -0.097 F 
ATOM     12  F4  UNL d   1      -1.785  -1.853   2.361  0.00  0.00    -0.092 F 
ENDROOT
TORSDOF 0
ENDMDL
