MODEL 1
REMARK minimizedAffinity 2.29883718
REMARK minimizedRMSD -1
REMARK  0 active torsions:
REMARK  status: ('A' for Active; 'I' for Inactive)
ROOT
ATOM      1  C   UNL d   1       0.505   1.808   0.389  0.00  0.00     0.124 A 
ATOM      2  C1  UNL d   1      -0.726   1.823   1.031  0.00  0.00     0.062 A 
ATOM      3  C2  UNL d   1      -1.302   0.634   1.468  0.00  0.00     0.162 A 
ATOM      4  C3  UNL d   1      -0.647  -0.581   1.267  0.00  0.00    -0.034 A 
ATOM      5  C4  UNL d   1       0.589  -0.589   0.619  0.00  0.00     0.162 A 
ATOM      6  C5  UNL d   1       1.161   0.602   0.184  0.00  0.00     0.062 A 
ATOM      7  F   UNL d   1       2.350   0.585  -0.436  0.00  0.00    -0.097 F 
ATOM      8  F1  UNL d   1       1.246  -1.739   0.409  0.00  0.00    -0.096 F 
ATOM      9  I   UNL d   1      -1.506  -2.361   1.920  0.00  0.00    -0.060 I 
ATOM     10  F2  UNL d   1      -2.492   0.679   2.086  0.00  0.00    -0.096 F 
ATOM     11  F3  UNL d   1      -1.362   2.987   1.229  0.00  0.00    -0.097 F 
ATOM     12  F4  UNL d   1       1.057   2.953  -0.032  0.00  0.00    -0.092 F 
ENDROOT
TORSDOF 0
ENDMDL
