MODEL 1
REMARK minimizedAffinity 8.73291969
REMARK minimizedRMSD -1
REMARK  1 active torsions:
REMARK  status: ('A' for Active; 'I' for Inactive)
REMARK    1  A    between atoms: N_2  and  C1_3 
ROOT
ATOM      1  C1  UNL d   1       1.554   1.175   0.660  0.00  0.00     0.143 A 
ATOM      2  C2  UNL d   1       2.009   2.258  -0.100  0.00  0.00    -0.057 A 
ATOM      3  C3  UNL d   1       2.373   2.101  -1.443  0.00  0.00     0.033 A 
ATOM      4  C4  UNL d   1       2.314   0.848  -2.044  0.00  0.00    -0.042 A 
ATOM      5  C5  UNL d   1       1.889  -0.247  -1.301  0.00  0.00     0.033 A 
ATOM      6  C6  UNL d   1       1.521  -0.083   0.038  0.00  0.00    -0.057 A 
ENDROOT
BRANCH   1   7
ATOM      7  N   UNL d   1       1.271   1.247   2.026  0.00  0.00    -0.732 N 
ATOM      8  C   UNL d   1      -0.002   1.754   2.490  0.00  0.00     0.284 C 
ATOM      9  H3  UNL d   1       1.604   0.431   2.535  0.00  0.00     0.395 HD
ENDBRANCH   1   7
TORSDOF 1
ENDMDL
