MODEL 1
REMARK minimizedAffinity 6.31123018
REMARK minimizedRMSD -1
REMARK  1 active torsions:
REMARK  status: ('A' for Active; 'I' for Inactive)
REMARK    1  A    between atoms: N_2  and  C1_3 
ROOT
ATOM      1  C1  UNL d   1       4.171   0.485  -0.963  0.00  0.00     0.143 A 
ATOM      2  C2  UNL d   1       2.979  -0.103  -1.400  0.00  0.00    -0.057 A 
ATOM      3  C3  UNL d   1       2.714  -1.459  -1.173  0.00  0.00     0.033 A 
ATOM      4  C4  UNL d   1       3.651  -2.260  -0.529  0.00  0.00    -0.042 A 
ATOM      5  C5  UNL d   1       4.853  -1.702  -0.109  0.00  0.00     0.033 A 
ATOM      6  C6  UNL d   1       5.110  -0.345  -0.332  0.00  0.00    -0.057 A 
ENDROOT
BRANCH   1   7
ATOM      7  N   UNL d   1       4.536   1.804  -1.246  0.00  0.00    -0.732 N 
ATOM      8  C   UNL d   1       5.929   2.194  -1.269  0.00  0.00     0.284 C 
ATOM      9  H3  UNL d   1       3.978   2.210  -1.993  0.00  0.00     0.395 HD
ENDBRANCH   1   7
TORSDOF 1
ENDMDL
