MODEL 1
REMARK minimizedAffinity 18.8423557
REMARK minimizedRMSD -1
REMARK  1 active torsions:
REMARK  status: ('A' for Active; 'I' for Inactive)
REMARK    1  A    between atoms: N_2  and  C1_3 
ROOT
ATOM      1  C1  UNL d   1      -3.901   2.405   3.779  0.00  0.00     0.143 A 
ATOM      2  C2  UNL d   1      -4.416   1.183   3.333  0.00  0.00    -0.057 A 
ATOM      3  C3  UNL d   1      -3.683   0.356   2.473  0.00  0.00     0.033 A 
ATOM      4  C4  UNL d   1      -2.429   0.752   2.019  0.00  0.00    -0.042 A 
ATOM      5  C5  UNL d   1      -1.908   1.975   2.429  0.00  0.00     0.033 A 
ATOM      6  C6  UNL d   1      -2.643   2.793   3.293  0.00  0.00    -0.057 A 
ENDROOT
BRANCH   1   7
ATOM      7  N   UNL d   1      -4.622   3.316   4.555  0.00  0.00    -0.732 N 
ATOM      8  C   UNL d   1      -4.519   3.299   5.998  0.00  0.00     0.284 C 
ATOM      9  H3  UNL d   1      -4.631   4.250   4.150  0.00  0.00     0.395 HD
ENDBRANCH   1   7
TORSDOF 1
ENDMDL
