MODEL 1
REMARK minimizedAffinity 17.9416523
REMARK minimizedRMSD -1
REMARK  1 active torsions:
REMARK  status: ('A' for Active; 'I' for Inactive)
REMARK    1  A    between atoms: N_2  and  C1_3 
ROOT
ATOM      1  C1  UNL d   1      -3.995   1.637   3.715  0.00  0.00     0.143 A 
ATOM      2  C2  UNL d   1      -5.033   2.575   3.747  0.00  0.00    -0.057 A 
ATOM      3  C3  UNL d   1      -5.249   3.380   4.872  0.00  0.00     0.033 A 
ATOM      4  C4  UNL d   1      -4.448   3.240   6.000  0.00  0.00    -0.042 A 
ATOM      5  C5  UNL d   1      -3.426   2.297   6.000  0.00  0.00     0.033 A 
ATOM      6  C6  UNL d   1      -3.211   1.500   4.871  0.00  0.00    -0.057 A 
ENDROOT
BRANCH   1   7
ATOM      7  N   UNL d   1      -3.791   0.739   2.665  0.00  0.00    -0.732 N 
ATOM      8  C   UNL d   1      -4.499  -0.522   2.625  0.00  0.00     0.284 C 
ATOM      9  H3  UNL d   1      -3.720   1.205   1.763  0.00  0.00     0.395 HD
ENDBRANCH   1   7
TORSDOF 1
ENDMDL
