MODEL 1
REMARK minimizedAffinity 13.7525234
REMARK minimizedRMSD -1
REMARK  1 active torsions:
REMARK  status: ('A' for Active; 'I' for Inactive)
REMARK    1  A    between atoms: N_2  and  C1_3 
ROOT
ATOM      1  C1  UNL d   1       0.923   3.938   1.277  0.00  0.00     0.143 A 
ATOM      2  C2  UNL d   1       2.176   3.352   1.488  0.00  0.00    -0.057 A 
ATOM      3  C3  UNL d   1       2.310   2.169   2.225  0.00  0.00     0.033 A 
ATOM      4  C4  UNL d   1       1.192   1.564   2.790  0.00  0.00    -0.042 A 
ATOM      5  C5  UNL d   1      -0.060   2.142   2.615  0.00  0.00     0.033 A 
ATOM      6  C6  UNL d   1      -0.188   3.320   1.872  0.00  0.00    -0.057 A 
ENDROOT
BRANCH   1   7
ATOM      7  N   UNL d   1       0.735   5.165   0.638  0.00  0.00    -0.732 N 
ATOM      8  C   UNL d   1       1.653   5.609  -0.389  0.00  0.00     0.284 C 
ATOM      9  H3  UNL d   1      -0.243   5.349   0.428  0.00  0.00     0.395 HD
ENDBRANCH   1   7
TORSDOF 1
ENDMDL
