MODEL 1
REMARK minimizedAffinity 8.49479675
REMARK minimizedRMSD -1
REMARK  1 active torsions:
REMARK  status: ('A' for Active; 'I' for Inactive)
REMARK    1  A    between atoms: N_2  and  C1_3 
ROOT
ATOM      1  C1  UNL d   1       2.918   1.259   0.128  0.00  0.00     0.143 A 
ATOM      2  C2  UNL d   1       3.070   2.122   1.218  0.00  0.00    -0.057 A 
ATOM      3  C3  UNL d   1       4.168   2.987   1.312  0.00  0.00     0.033 A 
ATOM      4  C4  UNL d   1       5.151   2.982   0.328  0.00  0.00    -0.042 A 
ATOM      5  C5  UNL d   1       5.033   2.114  -0.752  0.00  0.00     0.033 A 
ATOM      6  C6  UNL d   1       3.931   1.258  -0.844  0.00  0.00    -0.057 A 
ENDROOT
BRANCH   1   7
ATOM      7  N   UNL d   1       1.901   0.306   0.026  0.00  0.00    -0.732 N 
ATOM      8  C   UNL d   1       1.657  -0.380  -1.224  0.00  0.00     0.284 C 
ATOM      9  H3  UNL d   1       1.846  -0.292   0.847  0.00  0.00     0.395 HD
ENDBRANCH   1   7
TORSDOF 1
ENDMDL
