MODEL 1
REMARK minimizedAffinity 5.18539858
REMARK minimizedRMSD -1
REMARK  1 active torsions:
REMARK  status: ('A' for Active; 'I' for Inactive)
REMARK    1  A    between atoms: N_2  and  C1_3 
ROOT
ATOM      1  C1  UNL d   1       2.760  -3.045  -0.538  0.00  0.00     0.143 A 
ATOM      2  C2  UNL d   1       2.444  -1.743  -0.136  0.00  0.00    -0.057 A 
ATOM      3  C3  UNL d   1       1.763  -0.865  -0.988  0.00  0.00     0.033 A 
ATOM      4  C4  UNL d   1       1.411  -1.266  -2.273  0.00  0.00    -0.042 A 
ATOM      5  C5  UNL d   1       1.737  -2.548  -2.703  0.00  0.00     0.033 A 
ATOM      6  C6  UNL d   1       2.411  -3.422  -1.845  0.00  0.00    -0.057 A 
ENDROOT
BRANCH   1   7
ATOM      7  N   UNL d   1       3.522  -3.932   0.226  0.00  0.00    -0.732 N 
ATOM      8  C   UNL d   1       4.448  -4.845  -0.409  0.00  0.00     0.284 C 
ATOM      9  H3  UNL d   1       3.879  -3.503   1.077  0.00  0.00     0.395 HD
ENDBRANCH   1   7
TORSDOF 1
ENDMDL
