MODEL 1
REMARK minimizedAffinity 7.38618231
REMARK minimizedRMSD -1
REMARK  1 active torsions:
REMARK  status: ('A' for Active; 'I' for Inactive)
REMARK    1  A    between atoms: N_2  and  C1_3 
ROOT
ATOM      1  C1  UNL d   1      -2.785  -4.612  -5.069  0.00  0.00     0.143 A 
ATOM      2  C2  UNL d   1      -2.986  -3.234  -5.202  0.00  0.00    -0.057 A 
ATOM      3  C3  UNL d   1      -2.609  -2.344  -4.189  0.00  0.00     0.033 A 
ATOM      4  C4  UNL d   1      -2.049  -2.822  -3.009  0.00  0.00    -0.042 A 
ATOM      5  C5  UNL d   1      -1.862  -4.190  -2.845  0.00  0.00     0.033 A 
ATOM      6  C6  UNL d   1      -2.235  -5.072  -3.863  0.00  0.00    -0.057 A 
ENDROOT
BRANCH   1   7
ATOM      7  N   UNL d   1      -3.228  -5.556  -5.999  0.00  0.00    -0.732 N 
ATOM      8  C   UNL d   1      -4.606  -5.999  -6.000  0.00  0.00     0.284 C 
ATOM      9  H3  UNL d   1      -2.842  -5.398  -6.927  0.00  0.00     0.395 HD
ENDBRANCH   1   7
TORSDOF 1
ENDMDL
