MODEL 1
REMARK minimizedAffinity 14.7882738
REMARK minimizedRMSD -1
REMARK  1 active torsions:
REMARK  status: ('A' for Active; 'I' for Inactive)
REMARK    1  A    between atoms: N_2  and  C1_3 
ROOT
ATOM      1  C1  UNL d   1      -2.747  -4.115  -4.197  0.00  0.00     0.143 A 
ATOM      2  C2  UNL d   1      -3.580  -2.991  -4.232  0.00  0.00    -0.057 A 
ATOM      3  C3  UNL d   1      -4.665  -2.919  -5.114  0.00  0.00     0.033 A 
ATOM      4  C4  UNL d   1      -4.920  -3.961  -6.000  0.00  0.00    -0.042 A 
ATOM      5  C5  UNL d   1      -4.090  -5.077  -6.000  0.00  0.00     0.033 A 
ATOM      6  C6  UNL d   1      -3.012  -5.146  -5.112  0.00  0.00    -0.057 A 
ENDROOT
BRANCH   1   7
ATOM      7  N   UNL d   1      -1.595  -4.205  -3.412  0.00  0.00    -0.732 N 
ATOM      8  C   UNL d   1      -1.511  -5.165  -2.333  0.00  0.00     0.284 C 
ATOM      9  H3  UNL d   1      -0.743  -4.122  -3.963  0.00  0.00     0.395 HD
ENDBRANCH   1   7
TORSDOF 1
ENDMDL
