MODEL 1
REMARK minimizedAffinity 0.442216188
REMARK minimizedRMSD -1
REMARK  1 active torsions:
REMARK  status: ('A' for Active; 'I' for Inactive)
REMARK    1  A    between atoms: N_2  and  C1_3 
ROOT
ATOM      1  C1  UNL d   1      -2.618   3.728  -5.263  0.00  0.00     0.143 A 
ATOM      2  C2  UNL d   1      -2.450   5.069  -4.899  0.00  0.00    -0.057 A 
ATOM      3  C3  UNL d   1      -3.484   5.999  -5.056  0.00  0.00     0.033 A 
ATOM      4  C4  UNL d   1      -4.700   5.609  -5.608  0.00  0.00    -0.042 A 
ATOM      5  C5  UNL d   1      -4.881   4.288  -6.000  0.00  0.00     0.033 A 
ATOM      6  C6  UNL d   1      -3.846   3.362  -5.834  0.00  0.00    -0.057 A 
ENDROOT
BRANCH   1   7
ATOM      7  N   UNL d   1      -1.595   2.778  -5.223  0.00  0.00    -0.732 N 
ATOM      8  C   UNL d   1      -0.310   3.052  -5.829  0.00  0.00     0.284 C 
ATOM      9  H3  UNL d   1      -1.538   2.306  -4.323  0.00  0.00     0.395 HD
ENDBRANCH   1   7
TORSDOF 1
ENDMDL
