MODEL 1
REMARK minimizedAffinity 18.0405579
REMARK minimizedRMSD -1
REMARK  1 active torsions:
REMARK  status: ('A' for Active; 'I' for Inactive)
REMARK    1  A    between atoms: C1_2  and  C2_3 
ROOT
ATOM      1  C2  UNL d   1      -1.353   2.896  -1.457  0.00  0.00    -0.073 A 
ATOM      2  C3  UNL d   1      -0.825   1.679  -1.011  0.00  0.00    -0.002 A 
ATOM      3  C4  UNL d   1       0.354   1.653  -0.265  0.00  0.00     0.004 A 
ATOM      4  C5  UNL d   1       1.013   2.842   0.048  0.00  0.00    -0.004 A 
ATOM      5  C6  UNL d   1       0.495   4.069  -0.379  0.00  0.00    -0.075 A 
ATOM      6  C7  UNL d   1       1.193   5.357  -0.053  0.00  0.00     0.076 C 
ATOM      7  C8  UNL d   1      -0.688   4.087  -1.130  0.00  0.00     0.001 A 
ENDROOT
BRANCH   1   8
ATOM      8  C1  UNL d   1      -2.629   2.929  -2.257  0.00  0.00     0.053 C 
ATOM      9  C   UNL d   1      -3.860   2.976  -1.366  0.00  0.00     0.018 C 
ENDBRANCH   1   8
TORSDOF 1
ENDMDL
