MODEL 1
REMARK minimizedAffinity 19.5508022
REMARK minimizedRMSD -1
REMARK  1 active torsions:
REMARK  status: ('A' for Active; 'I' for Inactive)
REMARK    1  A    between atoms: C1_2  and  C2_3 
ROOT
ATOM      1  C2  UNL d   1      -0.692   2.796  -1.358  0.00  0.00    -0.073 A 
ATOM      2  C3  UNL d   1      -0.544   2.561  -2.730  0.00  0.00    -0.002 A 
ATOM      3  C4  UNL d   1      -1.617   2.765  -3.599  0.00  0.00     0.004 A 
ATOM      4  C5  UNL d   1      -2.843   3.212  -3.108  0.00  0.00    -0.004 A 
ATOM      5  C6  UNL d   1      -3.007   3.463  -1.742  0.00  0.00    -0.075 A 
ATOM      6  C7  UNL d   1      -4.321   3.941  -1.198  0.00  0.00     0.076 C 
ATOM      7  C8  UNL d   1      -1.927   3.253  -0.875  0.00  0.00     0.001 A 
ENDROOT
BRANCH   1   8
ATOM      8  C1  UNL d   1       0.464   2.583  -0.416  0.00  0.00     0.053 C 
ATOM      9  C   UNL d   1       0.811   3.846   0.356  0.00  0.00     0.018 C 
ENDBRANCH   1   8
TORSDOF 1
ENDMDL
