MODEL 1
REMARK minimizedAffinity 15.7609835
REMARK minimizedRMSD -1
REMARK  1 active torsions:
REMARK  status: ('A' for Active; 'I' for Inactive)
REMARK    1  A    between atoms: C1_2  and  C2_3 
ROOT
ATOM      1  C2  UNL d   1       2.880  -0.096   2.297  0.00  0.00    -0.073 A 
ATOM      2  C3  UNL d   1       2.643  -1.120   1.373  0.00  0.00    -0.002 A 
ATOM      3  C4  UNL d   1       1.424  -1.799   1.370  0.00  0.00     0.004 A 
ATOM      4  C5  UNL d   1       0.428  -1.457   2.285  0.00  0.00    -0.004 A 
ATOM      5  C6  UNL d   1       0.641  -0.428   3.208  0.00  0.00    -0.075 A 
ATOM      6  C7  UNL d   1      -0.420  -0.049   4.199  0.00  0.00     0.076 C 
ATOM      7  C8  UNL d   1       1.869   0.247   3.207  0.00  0.00     0.001 A 
ENDROOT
BRANCH   1   8
ATOM      8  C1  UNL d   1       4.193   0.644   2.300  0.00  0.00     0.053 C 
ATOM      9  C   UNL d   1       4.226   1.749   1.257  0.00  0.00     0.018 C 
ENDBRANCH   1   8
TORSDOF 1
ENDMDL
