MODEL 1
REMARK minimizedAffinity 15.9970684
REMARK minimizedRMSD -1
REMARK  1 active torsions:
REMARK  status: ('A' for Active; 'I' for Inactive)
REMARK    1  A    between atoms: C1_2  and  C2_3 
ROOT
ATOM      1  C2  UNL d   1      -0.702   3.069  -1.426  0.00  0.00    -0.073 A 
ATOM      2  C3  UNL d   1      -0.838   2.279  -2.573  0.00  0.00    -0.002 A 
ATOM      3  C4  UNL d   1      -2.028   2.294  -3.302  0.00  0.00     0.004 A 
ATOM      4  C5  UNL d   1      -3.089   3.103  -2.896  0.00  0.00    -0.004 A 
ATOM      5  C6  UNL d   1      -2.968   3.909  -1.759  0.00  0.00    -0.075 A 
ATOM      6  C7  UNL d   1      -4.101   4.783  -1.309  0.00  0.00     0.076 C 
ATOM      7  C8  UNL d   1      -1.771   3.886  -1.031  0.00  0.00     0.001 A 
ENDROOT
BRANCH   1   8
ATOM      8  C1  UNL d   1       0.583   3.060  -0.639  0.00  0.00     0.053 C 
ATOM      9  C   UNL d   1       0.494   3.925   0.608  0.00  0.00     0.018 C 
ENDBRANCH   1   8
TORSDOF 1
ENDMDL
