MODEL 1
REMARK minimizedAffinity 12.759881
REMARK minimizedRMSD -1
REMARK  1 active torsions:
REMARK  status: ('A' for Active; 'I' for Inactive)
REMARK    1  A    between atoms: C1_2  and  C2_3 
ROOT
ATOM      1  C2  UNL d   1      -0.298  -1.133   3.977  0.00  0.00    -0.073 A 
ATOM      2  C3  UNL d   1       0.752  -1.044   3.056  0.00  0.00    -0.002 A 
ATOM      3  C4  UNL d   1       0.721  -1.792   1.878  0.00  0.00     0.004 A 
ATOM      4  C5  UNL d   1      -0.360  -2.629   1.605  0.00  0.00    -0.004 A 
ATOM      5  C6  UNL d   1      -1.425  -2.722   2.507  0.00  0.00    -0.075 A 
ATOM      6  C7  UNL d   1      -2.595  -3.620   2.230  0.00  0.00     0.076 C 
ATOM      7  C8  UNL d   1      -1.386  -1.971   3.690  0.00  0.00     0.001 A 
ENDROOT
BRANCH   1   8
ATOM      8  C1  UNL d   1      -0.273  -0.323   5.247  0.00  0.00     0.053 C 
ATOM      9  C   UNL d   1      -1.591  -0.402   6.000  0.00  0.00     0.018 C 
ENDBRANCH   1   8
TORSDOF 1
ENDMDL
