MODEL 1
REMARK minimizedAffinity 14.9218674
REMARK minimizedRMSD -1
REMARK  1 active torsions:
REMARK  status: ('A' for Active; 'I' for Inactive)
REMARK    1  A    between atoms: C1_2  and  C2_3 
ROOT
ATOM      1  C2  UNL d   1       1.341  -0.504   2.498  0.00  0.00    -0.073 A 
ATOM      2  C3  UNL d   1       2.451   0.346   2.552  0.00  0.00    -0.002 A 
ATOM      3  C4  UNL d   1       3.621   0.021   1.864  0.00  0.00     0.004 A 
ATOM      4  C5  UNL d   1       3.691  -1.152   1.112  0.00  0.00    -0.004 A 
ATOM      5  C6  UNL d   1       2.587  -2.008   1.036  0.00  0.00    -0.075 A 
ATOM      6  C7  UNL d   1       2.647  -3.274   0.233  0.00  0.00     0.076 C 
ATOM      7  C8  UNL d   1       1.417  -1.676   1.732  0.00  0.00     0.001 A 
ENDROOT
BRANCH   1   8
ATOM      8  C1  UNL d   1       0.073  -0.154   3.234  0.00  0.00     0.053 C 
ATOM      9  C   UNL d   1       0.319   0.074   4.716  0.00  0.00     0.018 C 
ENDBRANCH   1   8
TORSDOF 1
ENDMDL
