MODEL 1
REMARK minimizedAffinity 4.8440299
REMARK minimizedRMSD -1
REMARK  1 active torsions:
REMARK  status: ('A' for Active; 'I' for Inactive)
REMARK    1  A    between atoms: C1_2  and  C2_3 
ROOT
ATOM      1  C2  UNL d   1      -4.218  -4.617   0.470  0.00  0.00    -0.073 A 
ATOM      2  C3  UNL d   1      -2.981  -4.701   1.119  0.00  0.00    -0.002 A 
ATOM      3  C4  UNL d   1      -2.721  -3.917   2.244  0.00  0.00     0.004 A 
ATOM      4  C5  UNL d   1      -3.696  -3.048   2.735  0.00  0.00    -0.004 A 
ATOM      5  C6  UNL d   1      -4.942  -2.959   2.107  0.00  0.00    -0.075 A 
ATOM      6  C7  UNL d   1      -6.000  -2.027   2.621  0.00  0.00     0.076 C 
ATOM      7  C8  UNL d   1      -5.195  -3.747   0.976  0.00  0.00     0.001 A 
ENDROOT
BRANCH   1   8
ATOM      8  C1  UNL d   1      -4.506  -5.466  -0.741  0.00  0.00     0.053 C 
ATOM      9  C   UNL d   1      -5.997  -5.698  -0.933  0.00  0.00     0.018 C 
ENDBRANCH   1   8
TORSDOF 1
ENDMDL
