MODEL 1
REMARK minimizedAffinity 23.9160995
REMARK minimizedRMSD -1
REMARK  1 active torsions:
REMARK  status: ('A' for Active; 'I' for Inactive)
REMARK    1  A    between atoms: C1_2  and  C2_3 
ROOT
ATOM      1  C2  UNL d   1      -4.229  -4.314   0.124  0.00  0.00    -0.073 A 
ATOM      2  C3  UNL d   1      -5.381  -3.673   0.592  0.00  0.00    -0.002 A 
ATOM      3  C4  UNL d   1      -5.315  -2.821   1.696  0.00  0.00     0.004 A 
ATOM      4  C5  UNL d   1      -4.096  -2.597   2.337  0.00  0.00    -0.004 A 
ATOM      5  C6  UNL d   1      -2.932  -3.220   1.876  0.00  0.00    -0.075 A 
ATOM      6  C7  UNL d   1      -1.614  -2.992   2.556  0.00  0.00     0.076 C 
ATOM      7  C8  UNL d   1      -3.007  -4.076   0.769  0.00  0.00     0.001 A 
ENDROOT
BRANCH   1   8
ATOM      8  C1  UNL d   1      -4.295  -5.230  -1.072  0.00  0.00     0.053 C 
ATOM      9  C   UNL d   1      -5.608  -5.994  -1.132  0.00  0.00     0.018 C 
ENDBRANCH   1   8
TORSDOF 1
ENDMDL
