MODEL 1
REMARK minimizedAffinity 3.70186591
REMARK minimizedRMSD -1
REMARK  1 active torsions:
REMARK  status: ('A' for Active; 'I' for Inactive)
REMARK    1  A    between atoms: C1_2  and  C2_3 
ROOT
ATOM      1  C2  UNL d   1      -1.651  -2.439   2.900  0.00  0.00    -0.073 A 
ATOM      2  C3  UNL d   1      -0.577  -2.089   2.074  0.00  0.00    -0.002 A 
ATOM      3  C4  UNL d   1       0.382  -1.176   2.515  0.00  0.00     0.004 A 
ATOM      4  C5  UNL d   1       0.281  -0.610   3.786  0.00  0.00    -0.004 A 
ATOM      5  C6  UNL d   1      -0.779  -0.956   4.630  0.00  0.00    -0.075 A 
ATOM      6  C7  UNL d   1      -0.903  -0.354   5.999  0.00  0.00     0.076 C 
ATOM      7  C8  UNL d   1      -1.739  -1.872   4.179  0.00  0.00     0.001 A 
ENDROOT
BRANCH   1   8
ATOM      8  C1  UNL d   1      -2.685  -3.430   2.431  0.00  0.00     0.053 C 
ATOM      9  C   UNL d   1      -4.051  -2.786   2.251  0.00  0.00     0.018 C 
ENDBRANCH   1   8
TORSDOF 1
ENDMDL
