MODEL 1
REMARK minimizedAffinity 12.2110748
REMARK minimizedRMSD -1
REMARK  1 active torsions:
REMARK  status: ('A' for Active; 'I' for Inactive)
REMARK    1  A    between atoms: C1_2  and  C2_3 
ROOT
ATOM      1  C2  UNL d   1       2.132  -0.732   2.342  0.00  0.00    -0.073 A 
ATOM      2  C3  UNL d   1       0.740  -0.677   2.215  0.00  0.00    -0.002 A 
ATOM      3  C4  UNL d   1      -0.052  -0.293   3.298  0.00  0.00     0.004 A 
ATOM      4  C5  UNL d   1       0.539   0.047   4.514  0.00  0.00    -0.004 A 
ATOM      5  C6  UNL d   1       1.930   0.009   4.658  0.00  0.00    -0.075 A 
ATOM      6  C7  UNL d   1       2.582   0.369   5.960  0.00  0.00     0.076 C 
ATOM      7  C8  UNL d   1       2.718  -0.380   3.566  0.00  0.00     0.001 A 
ENDROOT
BRANCH   1   8
ATOM      8  C1  UNL d   1       2.992  -1.141   1.174  0.00  0.00     0.053 C 
ATOM      9  C   UNL d   1       2.712  -2.568   0.731  0.00  0.00     0.018 C 
ENDBRANCH   1   8
TORSDOF 1
ENDMDL
