MODEL 1
REMARK minimizedAffinity 12.6610422
REMARK minimizedRMSD -1
REMARK  1 active torsions:
REMARK  status: ('A' for Active; 'I' for Inactive)
REMARK    1  A    between atoms: C1_2  and  C2_3 
ROOT
ATOM      1  C2  UNL d   1      -1.829   3.796  -3.484  0.00  0.00    -0.073 A 
ATOM      2  C3  UNL d   1      -3.030   3.078  -3.465  0.00  0.00    -0.002 A 
ATOM      3  C4  UNL d   1      -3.285   2.157  -2.449  0.00  0.00     0.004 A 
ATOM      4  C5  UNL d   1      -2.347   1.948  -1.439  0.00  0.00    -0.004 A 
ATOM      5  C6  UNL d   1      -1.145   2.664  -1.433  0.00  0.00    -0.075 A 
ATOM      6  C7  UNL d   1      -0.124   2.450  -0.355  0.00  0.00     0.076 C 
ATOM      7  C8  UNL d   1      -0.895   3.586  -2.459  0.00  0.00     0.001 A 
ENDROOT
BRANCH   1   8
ATOM      8  C1  UNL d   1      -1.552   4.797  -4.576  0.00  0.00     0.053 C 
ATOM      9  C   UNL d   1      -1.887   4.245  -5.953  0.00  0.00     0.018 C 
ENDBRANCH   1   8
TORSDOF 1
ENDMDL
