MODEL 1
REMARK minimizedAffinity 7.9742732
REMARK minimizedRMSD -1
REMARK  1 active torsions:
REMARK  status: ('A' for Active; 'I' for Inactive)
REMARK    1  A    between atoms: C1_2  and  C2_3 
ROOT
ATOM      1  C2  UNL d   1      -2.407   3.374  -2.111  0.00  0.00    -0.073 A 
ATOM      2  C3  UNL d   1      -1.886   4.499  -2.759  0.00  0.00    -0.002 A 
ATOM      3  C4  UNL d   1      -2.493   5.746  -2.603  0.00  0.00     0.004 A 
ATOM      4  C5  UNL d   1      -3.621   5.882  -1.794  0.00  0.00    -0.004 A 
ATOM      5  C6  UNL d   1      -4.150   4.771  -1.129  0.00  0.00    -0.075 A 
ATOM      6  C7  UNL d   1      -5.364   4.899  -0.257  0.00  0.00     0.076 C 
ATOM      7  C8  UNL d   1      -3.536   3.522  -1.292  0.00  0.00     0.001 A 
ENDROOT
BRANCH   1   8
ATOM      8  C1  UNL d   1      -1.751   2.027  -2.271  0.00  0.00     0.053 C 
ATOM      9  C   UNL d   1      -0.682   1.785  -1.217  0.00  0.00     0.018 C 
ENDBRANCH   1   8
TORSDOF 1
ENDMDL
