MODEL 1
REMARK minimizedAffinity 11.7541294
REMARK minimizedRMSD -1
REMARK  1 active torsions:
REMARK  status: ('A' for Active; 'I' for Inactive)
REMARK    1  A    between atoms: C1_2  and  C2_3 
ROOT
ATOM      1  C2  UNL d   1      -0.755   2.541  -1.418  0.00  0.00    -0.073 A 
ATOM      2  C3  UNL d   1      -0.487   3.274  -2.580  0.00  0.00    -0.002 A 
ATOM      3  C4  UNL d   1      -1.490   3.486  -3.527  0.00  0.00     0.004 A 
ATOM      4  C5  UNL d   1      -2.771   2.974  -3.319  0.00  0.00    -0.004 A 
ATOM      5  C6  UNL d   1      -3.061   2.249  -2.159  0.00  0.00    -0.075 A 
ATOM      6  C7  UNL d   1      -4.433   1.689  -1.922  0.00  0.00     0.076 C 
ATOM      7  C8  UNL d   1      -2.048   2.038  -1.215  0.00  0.00     0.001 A 
ENDROOT
BRANCH   1   8
ATOM      8  C1  UNL d   1       0.323   2.315  -0.390  0.00  0.00     0.053 C 
ATOM      9  C   UNL d   1       1.052   3.601  -0.036  0.00  0.00     0.018 C 
ENDBRANCH   1   8
TORSDOF 1
ENDMDL
