MODEL 1
REMARK minimizedAffinity 2.20066381
REMARK minimizedRMSD -1
REMARK  1 active torsions:
REMARK  status: ('A' for Active; 'I' for Inactive)
REMARK    1  A    between atoms: C3_4  and  O_7 
ROOT
ATOM      1  C   UNL d   1       4.478   1.104   0.403  0.00  0.00    -0.033 A 
ATOM      2  C1  UNL d   1       5.223   1.641  -0.649  0.00  0.00     0.039 A 
ATOM      3  C2  UNL d   1       4.934   1.280  -1.966  0.00  0.00    -0.080 A 
ATOM      4  C3  UNL d   1       3.899   0.384  -2.218  0.00  0.00     0.150 A 
ATOM      5  C4  UNL d   1       3.150  -0.152  -1.175  0.00  0.00    -0.007 A 
ATOM      6  C5  UNL d   1       3.441   0.209   0.140  0.00  0.00     0.039 A 
ENDROOT
BRANCH   4   7
ATOM      7  O   UNL d   1       3.583  -0.001  -3.487  0.00  0.00    -0.526 OA
ATOM      8  H5  UNL d   1       4.202   0.427  -4.102  0.00  0.00     0.418 HD
ENDBRANCH   4   7
TORSDOF 1
ENDMDL
