MODEL 1
REMARK minimizedAffinity 1.58381355
REMARK minimizedRMSD -1
REMARK  1 active torsions:
REMARK  status: ('A' for Active; 'I' for Inactive)
REMARK    1  A    between atoms: C3_4  and  O_7 
ROOT
ATOM      1  C   UNL d   1       3.926  -0.187  -0.400  0.00  0.00    -0.033 A 
ATOM      2  C1  UNL d   1       4.680   0.832   0.187  0.00  0.00     0.039 A 
ATOM      3  C2  UNL d   1       5.273   1.812  -0.610  0.00  0.00    -0.080 A 
ATOM      4  C3  UNL d   1       5.105   1.763  -1.991  0.00  0.00     0.150 A 
ATOM      5  C4  UNL d   1       4.353   0.753  -2.583  0.00  0.00    -0.007 A 
ATOM      6  C5  UNL d   1       3.762  -0.225  -1.784  0.00  0.00     0.039 A 
ENDROOT
BRANCH   4   7
ATOM      7  O   UNL d   1       5.669   2.694  -2.811  0.00  0.00    -0.526 OA
ATOM      8  H5  UNL d   1       6.184   3.313  -2.266  0.00  0.00     0.418 HD
ENDBRANCH   4   7
TORSDOF 1
ENDMDL
