MODEL 1
REMARK minimizedAffinity 4.09131241
REMARK minimizedRMSD -1
REMARK  1 active torsions:
REMARK  status: ('A' for Active; 'I' for Inactive)
REMARK    1  A    between atoms: C3_4  and  O_7 
ROOT
ATOM      1  C   UNL d   1       4.482   5.322   6.000  0.00  0.00    -0.033 A 
ATOM      2  C1  UNL d   1       5.584   5.765   5.267  0.00  0.00     0.039 A 
ATOM      3  C2  UNL d   1       5.771   5.333   3.953  0.00  0.00    -0.080 A 
ATOM      4  C3  UNL d   1       4.849   4.459   3.383  0.00  0.00     0.150 A 
ATOM      5  C4  UNL d   1       3.746   4.016   4.106  0.00  0.00    -0.007 A 
ATOM      6  C5  UNL d   1       3.562   4.448   5.418  0.00  0.00     0.039 A 
ENDROOT
BRANCH   4   7
ATOM      7  O   UNL d   1       4.992   4.006   2.105  0.00  0.00    -0.526 OA
ATOM      8  H5  UNL d   1       5.814   4.373   1.739  0.00  0.00     0.418 HD
ENDBRANCH   4   7
TORSDOF 1
ENDMDL
