MODEL 1
REMARK minimizedAffinity 5.69915342
REMARK minimizedRMSD -1
REMARK  1 active torsions:
REMARK  status: ('A' for Active; 'I' for Inactive)
REMARK    1  A    between atoms: C3_4  and  O_7 
ROOT
ATOM      1  C   UNL d   1       4.538   4.326   2.049  0.00  0.00    -0.033 A 
ATOM      2  C1  UNL d   1       5.087   3.456   2.994  0.00  0.00     0.039 A 
ATOM      3  C2  UNL d   1       5.191   3.850   4.330  0.00  0.00    -0.080 A 
ATOM      4  C3  UNL d   1       4.744   5.113   4.707  0.00  0.00     0.150 A 
ATOM      5  C4  UNL d   1       4.193   5.983   3.772  0.00  0.00    -0.007 A 
ATOM      6  C5  UNL d   1       4.090   5.588   2.438  0.00  0.00     0.039 A 
ENDROOT
BRANCH   4   7
ATOM      7  O   UNL d   1       4.829   5.543   5.998  0.00  0.00    -0.526 OA
ATOM      8  H5  UNL d   1       5.257   4.848   6.526  0.00  0.00     0.418 HD
ENDBRANCH   4   7
TORSDOF 1
ENDMDL
