MODEL 1
REMARK minimizedAffinity -1.65770328
REMARK minimizedRMSD -1
REMARK  1 active torsions:
REMARK  status: ('A' for Active; 'I' for Inactive)
REMARK    1  A    between atoms: C3_4  and  O_7 
ROOT
ATOM      1  C   UNL d   1      -1.431   3.239   1.010  0.00  0.00    -0.033 A 
ATOM      2  C1  UNL d   1      -1.763   2.483  -0.115  0.00  0.00     0.039 A 
ATOM      3  C2  UNL d   1      -2.970   1.782  -0.157  0.00  0.00    -0.080 A 
ATOM      4  C3  UNL d   1      -3.835   1.847   0.932  0.00  0.00     0.150 A 
ATOM      5  C4  UNL d   1      -3.513   2.601   2.055  0.00  0.00    -0.007 A 
ATOM      6  C5  UNL d   1      -2.307   3.300   2.095  0.00  0.00     0.039 A 
ENDROOT
BRANCH   4   7
ATOM      7  O   UNL d   1      -5.022   1.176   0.939  0.00  0.00    -0.526 OA
ATOM      8  H5  UNL d   1      -5.098   0.675   0.110  0.00  0.00     0.418 HD
ENDBRANCH   4   7
TORSDOF 1
ENDMDL
