MODEL 1
REMARK minimizedAffinity 7.27559423
REMARK minimizedRMSD -1
REMARK  1 active torsions:
REMARK  status: ('A' for Active; 'I' for Inactive)
REMARK    1  A    between atoms: C3_4  and  O_7 
ROOT
ATOM      1  C   UNL d   1       4.162   1.124  -0.765  0.00  0.00    -0.033 A 
ATOM      2  C1  UNL d   1       5.063   1.478  -1.771  0.00  0.00     0.039 A 
ATOM      3  C2  UNL d   1       5.078   0.773  -2.977  0.00  0.00    -0.080 A 
ATOM      4  C3  UNL d   1       4.187  -0.280  -3.164  0.00  0.00     0.150 A 
ATOM      5  C4  UNL d   1       3.284  -0.635  -2.167  0.00  0.00    -0.007 A 
ATOM      6  C5  UNL d   1       3.271   0.068  -0.964  0.00  0.00     0.039 A 
ENDROOT
BRANCH   4   7
ATOM      7  O   UNL d   1       4.168  -1.000  -4.321  0.00  0.00    -0.526 OA
ATOM      8  H5  UNL d   1       4.865  -0.660  -4.907  0.00  0.00     0.418 HD
ENDBRANCH   4   7
TORSDOF 1
ENDMDL
