MODEL 1
REMARK minimizedAffinity 0.206954122
REMARK minimizedRMSD -1
REMARK  1 active torsions:
REMARK  status: ('A' for Active; 'I' for Inactive)
REMARK    1  A    between atoms: C3_4  and  O_7 
ROOT
ATOM      1  C   UNL d   1       4.866   4.503   4.258  0.00  0.00    -0.033 A 
ATOM      2  C1  UNL d   1       4.490   4.487   5.602  0.00  0.00     0.039 A 
ATOM      3  C2  UNL d   1       3.338   3.806   5.999  0.00  0.00    -0.080 A 
ATOM      4  C3  UNL d   1       2.572   3.145   5.043  0.00  0.00     0.150 A 
ATOM      5  C4  UNL d   1       2.943   3.153   3.703  0.00  0.00    -0.007 A 
ATOM      6  C5  UNL d   1       4.093   3.834   3.308  0.00  0.00     0.039 A 
ENDROOT
BRANCH   4   7
ATOM      7  O   UNL d   1       1.437   2.470   5.382  0.00  0.00    -0.526 OA
ATOM      8  H5  UNL d   1       1.290   2.575   6.337  0.00  0.00     0.418 HD
ENDBRANCH   4   7
TORSDOF 1
ENDMDL
