MODEL 1
REMARK minimizedAffinity 1.51873219
REMARK minimizedRMSD -1
REMARK  1 active torsions:
REMARK  status: ('A' for Active; 'I' for Inactive)
REMARK    1  A    between atoms: C3_4  and  O_7 
ROOT
ATOM      1  C   UNL d   1       0.472  -2.625  -1.547  0.00  0.00    -0.033 A 
ATOM      2  C1  UNL d   1       1.662  -2.125  -1.014  0.00  0.00     0.039 A 
ATOM      3  C2  UNL d   1       1.742  -0.790  -0.612  0.00  0.00    -0.080 A 
ATOM      4  C3  UNL d   1       0.628   0.033  -0.747  0.00  0.00     0.150 A 
ATOM      5  C4  UNL d   1      -0.562  -0.460  -1.274  0.00  0.00    -0.007 A 
ATOM      6  C5  UNL d   1      -0.641  -1.792  -1.676  0.00  0.00     0.039 A 
ENDROOT
BRANCH   4   7
ATOM      7  O   UNL d   1       0.660   1.343  -0.373  0.00  0.00    -0.526 OA
ATOM      8  H5  UNL d   1       1.554   1.550  -0.054  0.00  0.00     0.418 HD
ENDBRANCH   4   7
TORSDOF 1
ENDMDL
