MODEL 1
REMARK minimizedAffinity -0.000930798764
REMARK minimizedRMSD -1
REMARK  0 active torsions:
REMARK  status: ('A' for Active; 'I' for Inactive)
ROOT
ATOM      1  C   UNL d   1       1.528   1.429  -1.241  0.00  0.00     0.172 C 
ATOM      2  N   UNL d   1       1.251   0.015  -1.144  0.00  0.00    -0.070 N 
ATOM      3  C1  UNL d   1       0.562  -0.729  -2.065  0.00  0.00    -0.004 A 
ATOM      4  C2  UNL d   1       0.513  -2.028  -1.607  0.00  0.00    -0.047 A 
ATOM      5  C3  UNL d   1       1.195  -2.066  -0.368  0.00  0.00    -0.047 A 
ATOM      6  C4  UNL d   1       1.641  -0.788  -0.105  0.00  0.00    -0.004 A 
ENDROOT
TORSDOF 0
ENDMDL
