MODEL 1
REMARK minimizedAffinity 3.65465045
REMARK minimizedRMSD -1
REMARK  0 active torsions:
REMARK  status: ('A' for Active; 'I' for Inactive)
ROOT
ATOM      1  C   UNL d   1       1.636   0.835  -0.253  0.00  0.00     0.172 C 
ATOM      2  N   UNL d   1       1.069   0.033  -1.311  0.00  0.00    -0.070 N 
ATOM      3  C1  UNL d   1       0.528   0.512  -2.474  0.00  0.00    -0.004 A 
ATOM      4  C2  UNL d   1       0.099  -0.567  -3.216  0.00  0.00    -0.047 A 
ATOM      5  C3  UNL d   1       0.393  -1.735  -2.473  0.00  0.00    -0.047 A 
ATOM      6  C4  UNL d   1       0.993  -1.335  -1.298  0.00  0.00    -0.004 A 
ENDROOT
TORSDOF 0
ENDMDL
