MODEL 1
REMARK minimizedAffinity 5.5107913
REMARK minimizedRMSD -1
REMARK  0 active torsions:
REMARK  status: ('A' for Active; 'I' for Inactive)
ROOT
ATOM      1  C   UNL d   1       3.553   0.083  -0.362  0.00  0.00     0.172 C 
ATOM      2  N   UNL d   1       2.463  -0.830  -0.612  0.00  0.00    -0.070 N 
ATOM      3  C1  UNL d   1       1.133  -0.556  -0.429  0.00  0.00    -0.004 A 
ATOM      4  C2  UNL d   1       0.419  -1.681  -0.779  0.00  0.00    -0.047 A 
ATOM      5  C3  UNL d   1       1.350  -2.666  -1.185  0.00  0.00    -0.047 A 
ATOM      6  C4  UNL d   1       2.608  -2.112  -1.072  0.00  0.00    -0.004 A 
ENDROOT
TORSDOF 0
ENDMDL
