MODEL 1
REMARK minimizedAffinity 2.87166858
REMARK minimizedRMSD -1
REMARK  0 active torsions:
REMARK  status: ('A' for Active; 'I' for Inactive)
ROOT
ATOM      1  C   UNL d   1       1.498   2.836   1.073  0.00  0.00     0.172 C 
ATOM      2  N   UNL d   1       1.174   1.498   0.637  0.00  0.00    -0.070 N 
ATOM      3  C1  UNL d   1       1.747   0.842  -0.420  0.00  0.00    -0.004 A 
ATOM      4  C2  UNL d   1       1.167  -0.405  -0.507  0.00  0.00    -0.047 A 
ATOM      5  C3  UNL d   1       0.213  -0.502   0.534  0.00  0.00    -0.047 A 
ATOM      6  C4  UNL d   1       0.238   0.690   1.226  0.00  0.00    -0.004 A 
ENDROOT
TORSDOF 0
ENDMDL
