MODEL 1
REMARK minimizedAffinity 1.61253297
REMARK minimizedRMSD -1
REMARK  0 active torsions:
REMARK  status: ('A' for Active; 'I' for Inactive)
ROOT
ATOM      1  C   UNL d   1       1.503   5.995  -1.642  0.00  0.00     0.172 C 
ATOM      2  N   UNL d   1       1.273   4.838  -0.809  0.00  0.00    -0.070 N 
ATOM      3  C1  UNL d   1       1.108   4.853   0.551  0.00  0.00    -0.004 A 
ATOM      4  C2  UNL d   1       0.912   3.554   0.967  0.00  0.00    -0.047 A 
ATOM      5  C3  UNL d   1       0.962   2.730  -0.182  0.00  0.00    -0.047 A 
ATOM      6  C4  UNL d   1       1.187   3.550  -1.267  0.00  0.00    -0.004 A 
ENDROOT
TORSDOF 0
ENDMDL
