MODEL 1
REMARK minimizedAffinity -1.05908
REMARK minimizedRMSD -1
REMARK  0 active torsions:
REMARK  status: ('A' for Active; 'I' for Inactive)
ROOT
ATOM      1  C   UNL d   1      -2.653  -5.719  -5.999  0.00  0.00     0.172 C 
ATOM      2  N   UNL d   1      -3.844  -4.903  -5.986  0.00  0.00    -0.070 N 
ATOM      3  C1  UNL d   1      -5.132  -5.370  -6.000  0.00  0.00    -0.004 A 
ATOM      4  C2  UNL d   1      -5.976  -4.280  -5.979  0.00  0.00    -0.047 A 
ATOM      5  C3  UNL d   1      -5.168  -3.119  -5.953  0.00  0.00    -0.047 A 
ATOM      6  C4  UNL d   1      -3.853  -3.533  -5.958  0.00  0.00    -0.004 A 
ENDROOT
TORSDOF 0
ENDMDL
