MODEL 1
REMARK minimizedAffinity -0.947207689
REMARK minimizedRMSD -1
REMARK  0 active torsions:
REMARK  status: ('A' for Active; 'I' for Inactive)
ROOT
ATOM      1  C   UNL d   1       2.134   2.029  -0.793  0.00  0.00     0.172 C 
ATOM      2  N   UNL d   1       1.379   0.927  -0.245  0.00  0.00    -0.070 N 
ATOM      3  C1  UNL d   1       0.631   0.963   0.901  0.00  0.00    -0.004 A 
ATOM      4  C2  UNL d   1       0.070  -0.283   1.079  0.00  0.00    -0.047 A 
ATOM      5  C3  UNL d   1       0.496  -1.097   0.003  0.00  0.00    -0.047 A 
ATOM      6  C4  UNL d   1       1.305  -0.323  -0.802  0.00  0.00    -0.004 A 
ENDROOT
TORSDOF 0
ENDMDL
