MODEL 1
REMARK minimizedAffinity 7.15982866
REMARK minimizedRMSD -1
REMARK  0 active torsions:
REMARK  status: ('A' for Active; 'I' for Inactive)
ROOT
ATOM      1  C   UNL d   1       2.568  -4.998  -1.919  0.00  0.00     0.172 C 
ATOM      2  N   UNL d   1       1.301  -4.794  -2.581  0.00  0.00    -0.070 N 
ATOM      3  C1  UNL d   1       0.827  -5.522  -3.641  0.00  0.00    -0.004 A 
ATOM      4  C2  UNL d   1      -0.410  -5.018  -3.979  0.00  0.00    -0.047 A 
ATOM      5  C3  UNL d   1      -0.690  -3.951  -3.093  0.00  0.00    -0.047 A 
ATOM      6  C4  UNL d   1       0.386  -3.834  -2.238  0.00  0.00    -0.004 A 
ENDROOT
TORSDOF 0
ENDMDL
