MODEL 1
REMARK minimizedAffinity -0.790262222
REMARK minimizedRMSD -1
REMARK  0 active torsions:
REMARK  status: ('A' for Active; 'I' for Inactive)
ROOT
ATOM      1  C   UNL d   1      -4.998  -4.532  -5.999  0.00  0.00     0.172 C 
ATOM      2  N   UNL d   1      -5.247  -3.237  -5.410  0.00  0.00    -0.070 N 
ATOM      3  C1  UNL d   1      -4.794  -2.816  -4.189  0.00  0.00    -0.004 A 
ATOM      4  C2  UNL d   1      -5.243  -1.528  -3.993  0.00  0.00    -0.047 A 
ATOM      5  C3  UNL d   1      -5.993  -1.163  -5.136  0.00  0.00    -0.047 A 
ATOM      6  C4  UNL d   1      -5.980  -2.240  -5.997  0.00  0.00    -0.004 A 
ENDROOT
TORSDOF 0
ENDMDL
