MODEL 1
REMARK minimizedAffinity 4.9595809
REMARK minimizedRMSD -1
REMARK  0 active torsions:
REMARK  status: ('A' for Active; 'I' for Inactive)
ROOT
ATOM      1  C   UNL d   1       1.821   1.144  -0.945  0.00  0.00     0.172 C 
ATOM      2  N   UNL d   1       1.299  -0.188  -1.140  0.00  0.00    -0.070 N 
ATOM      3  C1  UNL d   1       1.590  -1.281  -0.369  0.00  0.00    -0.004 A 
ATOM      4  C2  UNL d   1       0.895  -2.356  -0.879  0.00  0.00    -0.047 A 
ATOM      5  C3  UNL d   1       0.161  -1.893  -1.997  0.00  0.00    -0.047 A 
ATOM      6  C4  UNL d   1       0.430  -0.547  -2.136  0.00  0.00    -0.004 A 
ENDROOT
TORSDOF 0
ENDMDL
