MODEL 1
REMARK minimizedAffinity 3.79519081
REMARK minimizedRMSD -1
REMARK  0 active torsions:
REMARK  status: ('A' for Active; 'I' for Inactive)
ROOT
ATOM      1  C   UNL d   1      -0.408   0.013  -3.246  0.00  0.00     0.172 C 
ATOM      2  N   UNL d   1       0.350  -0.892  -2.415  0.00  0.00    -0.070 N 
ATOM      3  C1  UNL d   1       1.087  -0.539  -1.316  0.00  0.00    -0.004 A 
ATOM      4  C2  UNL d   1       1.655  -1.685  -0.803  0.00  0.00    -0.047 A 
ATOM      5  C3  UNL d   1       1.247  -2.764  -1.622  0.00  0.00    -0.047 A 
ATOM      6  C4  UNL d   1       0.440  -2.245  -2.613  0.00  0.00    -0.004 A 
ENDROOT
TORSDOF 0
ENDMDL
