MODEL 1
REMARK minimizedAffinity 1.12780154
REMARK minimizedRMSD -1
REMARK  0 active torsions:
REMARK  status: ('A' for Active; 'I' for Inactive)
ROOT
ATOM      1  C   UNL d   1      -5.430   1.844   2.855  0.00  0.00     0.172 C 
ATOM      2  N   UNL d   1      -4.176   2.437   2.455  0.00  0.00    -0.070 N 
ATOM      3  C1  UNL d   1      -3.062   2.556   3.241  0.00  0.00    -0.004 A 
ATOM      4  C2  UNL d   1      -2.082   3.174   2.495  0.00  0.00    -0.047 A 
ATOM      5  C3  UNL d   1      -2.626   3.436   1.215  0.00  0.00    -0.047 A 
ATOM      6  C4  UNL d   1      -3.924   2.969   1.218  0.00  0.00    -0.004 A 
ENDROOT
TORSDOF 0
ENDMDL
