MODEL 1
REMARK minimizedAffinity 9.10834789
REMARK minimizedRMSD -1
REMARK  0 active torsions:
REMARK  status: ('A' for Active; 'I' for Inactive)
ROOT
ATOM      1  C   UNL d   1      -3.077   1.876  -5.990  0.00  0.00     0.172 C 
ATOM      2  N   UNL d   1      -3.220   0.567  -5.396  0.00  0.00    -0.070 N 
ATOM      3  C1  UNL d   1      -3.785  -0.525  -5.998  0.00  0.00    -0.004 A 
ATOM      4  C2  UNL d   1      -3.730  -1.574  -5.106  0.00  0.00    -0.047 A 
ATOM      5  C3  UNL d   1      -3.112  -1.095  -3.927  0.00  0.00    -0.047 A 
ATOM      6  C4  UNL d   1      -2.807   0.233  -4.134  0.00  0.00    -0.004 A 
ENDROOT
TORSDOF 0
ENDMDL
