MODEL 1
REMARK minimizedAffinity -2.48976469
REMARK minimizedRMSD -1
REMARK  0 active torsions:
REMARK  status: ('A' for Active; 'I' for Inactive)
ROOT
ATOM      1  C   UNL d   1      -0.023  -0.163   0.639  0.00  0.00     0.172 C 
ATOM      2  N   UNL d   1       0.277  -0.094  -0.772  0.00  0.00    -0.070 N 
ATOM      3  C1  UNL d   1       0.922   0.937  -1.401  0.00  0.00    -0.004 A 
ATOM      4  C2  UNL d   1       1.013   0.623  -2.740  0.00  0.00    -0.047 A 
ATOM      5  C3  UNL d   1       0.400  -0.640  -2.922  0.00  0.00    -0.047 A 
ATOM      6  C4  UNL d   1      -0.047  -1.061  -1.687  0.00  0.00    -0.004 A 
ENDROOT
TORSDOF 0
ENDMDL
