MODEL 1
REMARK minimizedAffinity 6.75568056
REMARK minimizedRMSD -1
REMARK  0 active torsions:
REMARK  status: ('A' for Active; 'I' for Inactive)
ROOT
ATOM      1  C   UNL d   1       1.452  -3.710  -1.101  0.00  0.00     0.172 C 
ATOM      2  N   UNL d   1       1.164  -2.298  -1.185  0.00  0.00    -0.070 N 
ATOM      3  C1  UNL d   1       0.507  -1.677  -2.213  0.00  0.00    -0.004 A 
ATOM      4  C2  UNL d   1       0.434  -0.333  -1.917  0.00  0.00    -0.047 A 
ATOM      5  C3  UNL d   1       1.071  -0.139  -0.668  0.00  0.00    -0.047 A 
ATOM      6  C4  UNL d   1       1.514  -1.372  -0.237  0.00  0.00    -0.004 A 
ENDROOT
TORSDOF 0
ENDMDL
