MODEL 1
REMARK minimizedAffinity -0.34384045
REMARK minimizedRMSD -1
REMARK  0 active torsions:
REMARK  status: ('A' for Active; 'I' for Inactive)
ROOT
ATOM      1  C   UNL d   1       1.362  -1.664  -0.410  0.00  0.00     0.172 C 
ATOM      2  N   UNL d   1       1.337  -0.527  -1.300  0.00  0.00    -0.070 N 
ATOM      3  C1  UNL d   1       0.812  -0.515  -2.565  0.00  0.00    -0.004 A 
ATOM      4  C2  UNL d   1       0.983   0.752  -3.080  0.00  0.00    -0.047 A 
ATOM      5  C3  UNL d   1       1.634   1.527  -2.092  0.00  0.00    -0.047 A 
ATOM      6  C4  UNL d   1       1.841   0.711  -1.000  0.00  0.00    -0.004 A 
ENDROOT
TORSDOF 0
ENDMDL
