MODEL 1
REMARK minimizedAffinity 0.280659974
REMARK minimizedRMSD -1
REMARK  0 active torsions:
REMARK  status: ('A' for Active; 'I' for Inactive)
ROOT
ATOM      1  C   UNL d   1      -5.333   1.796  -6.000  0.00  0.00     0.172 C 
ATOM      2  N   UNL d   1      -4.303   1.520  -5.026  0.00  0.00    -0.070 N 
ATOM      3  C1  UNL d   1      -3.820   0.280  -4.704  0.00  0.00    -0.004 A 
ATOM      4  C2  UNL d   1      -2.851   0.442  -3.738  0.00  0.00    -0.047 A 
ATOM      5  C3  UNL d   1      -2.748   1.827  -3.470  0.00  0.00    -0.047 A 
ATOM      6  C4  UNL d   1      -3.658   2.472  -4.281  0.00  0.00    -0.004 A 
ENDROOT
TORSDOF 0
ENDMDL
