MODEL 1
REMARK minimizedAffinity -4.05757999
REMARK minimizedRMSD -1
REMARK  1 active torsions:
REMARK  status: ('A' for Active; 'I' for Inactive)
REMARK    1  A    between atoms: C1_2  and  C2_3 
ROOT
ATOM      1  C2  UNL d   1      -0.288   0.784   0.950  0.00  0.00    -0.081 A 
ATOM      2  C3  UNL d   1       0.284   1.044  -0.302  0.00  0.00     0.006 A 
ATOM      3  C4  UNL d   1       0.786  -0.000  -1.082  0.00  0.00     0.002 A 
ATOM      4  C5  UNL d   1       0.718  -1.321  -0.627  0.00  0.00    -0.080 A 
ATOM      5  C6  UNL d   1       1.226  -2.455  -1.468  0.00  0.00     0.076 C 
ATOM      6  C7  UNL d   1       0.163  -1.579   0.631  0.00  0.00     0.002 A 
ATOM      7  C8  UNL d   1      -0.339  -0.536   1.411  0.00  0.00     0.006 A 
ENDROOT
BRANCH   1   8
ATOM      8  C1  UNL d   1      -0.889   1.901   1.765  0.00  0.00     0.054 C 
ATOM      9  C   UNL d   1      -2.298   1.555   2.223  0.00  0.00     0.018 C 
ENDBRANCH   1   8
TORSDOF 1
ENDMDL
