MODEL 1
REMARK minimizedAffinity -4.23241329
REMARK minimizedRMSD -1
REMARK  1 active torsions:
REMARK  status: ('A' for Active; 'I' for Inactive)
REMARK    1  A    between atoms: C1_2  and  C2_3 
ROOT
ATOM      1  C2  UNL d   1       0.275  -0.515  -0.296  0.00  0.00    -0.081 A 
ATOM      2  C3  UNL d   1      -0.017  -0.695   1.061  0.00  0.00     0.006 A 
ATOM      3  C4  UNL d   1      -0.817   0.226   1.742  0.00  0.00     0.002 A 
ATOM      4  C5  UNL d   1      -1.344   1.338   1.076  0.00  0.00    -0.080 A 
ATOM      5  C6  UNL d   1      -2.228   2.318   1.788  0.00  0.00     0.076 C 
ATOM      6  C7  UNL d   1      -1.038   1.527  -0.276  0.00  0.00     0.002 A 
ATOM      7  C8  UNL d   1      -0.238   0.607  -0.957  0.00  0.00     0.006 A 
ENDROOT
BRANCH   1   8
ATOM      8  C1  UNL d   1       1.083  -1.540  -1.049  0.00  0.00     0.054 C 
ATOM      9  C   UNL d   1       0.225  -2.285  -2.063  0.00  0.00     0.018 C 
ENDBRANCH   1   8
TORSDOF 1
ENDMDL
