MODEL 1
REMARK minimizedAffinity -3.96795583
REMARK minimizedRMSD -1
REMARK  1 active torsions:
REMARK  status: ('A' for Active; 'I' for Inactive)
REMARK    1  A    between atoms: C1_2  and  C2_3 
ROOT
ATOM      1  C2  UNL d   1       0.128  -1.190  -1.440  0.00  0.00    -0.081 A 
ATOM      2  C3  UNL d   1       1.144  -0.849  -0.539  0.00  0.00     0.006 A 
ATOM      3  C4  UNL d   1       0.856  -0.093   0.600  0.00  0.00     0.002 A 
ATOM      4  C5  UNL d   1      -0.453   0.328   0.860  0.00  0.00    -0.080 A 
ATOM      5  C6  UNL d   1      -0.780   1.115   2.094  0.00  0.00     0.076 C 
ATOM      6  C7  UNL d   1      -1.465   0.002  -0.049  0.00  0.00     0.002 A 
ATOM      7  C8  UNL d   1      -1.178  -0.753  -1.188  0.00  0.00     0.006 A 
ENDROOT
BRANCH   1   8
ATOM      8  C1  UNL d   1       0.423  -2.061  -2.635  0.00  0.00     0.054 C 
ATOM      9  C   UNL d   1       0.709  -3.496  -2.216  0.00  0.00     0.018 C 
ENDBRANCH   1   8
TORSDOF 1
ENDMDL
