MODEL 1
REMARK minimizedAffinity -5.01174259
REMARK minimizedRMSD -1
REMARK  1 active torsions:
REMARK  status: ('A' for Active; 'I' for Inactive)
REMARK    1  A    between atoms: C1_2  and  C2_3 
ROOT
ATOM      1  C2  UNL d   1       0.053  -0.017  -0.555  0.00  0.00    -0.081 A 
ATOM      2  C3  UNL d   1      -1.092   0.357   0.161  0.00  0.00     0.006 A 
ATOM      3  C4  UNL d   1      -1.560   1.672   0.111  0.00  0.00     0.002 A 
ATOM      4  C5  UNL d   1      -0.898   2.633  -0.660  0.00  0.00    -0.080 A 
ATOM      5  C6  UNL d   1      -1.408   4.041  -0.745  0.00  0.00     0.076 C 
ATOM      6  C7  UNL d   1       0.255   2.264  -1.361  0.00  0.00     0.002 A 
ATOM      7  C8  UNL d   1       0.725   0.950  -1.311  0.00  0.00     0.006 A 
ENDROOT
BRANCH   1   8
ATOM      8  C1  UNL d   1       0.523  -1.449  -0.555  0.00  0.00     0.054 C 
ATOM      9  C   UNL d   1       0.034  -2.191  -1.791  0.00  0.00     0.018 C 
ENDBRANCH   1   8
TORSDOF 1
ENDMDL
