MODEL 1
REMARK minimizedAffinity -3.38204002
REMARK minimizedRMSD -1
REMARK  1 active torsions:
REMARK  status: ('A' for Active; 'I' for Inactive)
REMARK    1  A    between atoms: C1_2  and  C2_3 
ROOT
ATOM      1  C2  UNL d   1       0.356  -0.637  -0.784  0.00  0.00    -0.081 A 
ATOM      2  C3  UNL d   1      -0.034  -0.997   0.512  0.00  0.00     0.006 A 
ATOM      3  C4  UNL d   1      -0.845  -0.149   1.269  0.00  0.00     0.002 A 
ATOM      4  C5  UNL d   1      -1.286   1.069   0.741  0.00  0.00    -0.080 A 
ATOM      5  C6  UNL d   1      -2.182   1.975   1.532  0.00  0.00     0.076 C 
ATOM      6  C7  UNL d   1      -0.882   1.438  -0.546  0.00  0.00     0.002 A 
ATOM      7  C8  UNL d   1      -0.070   0.590  -1.304  0.00  0.00     0.006 A 
ENDROOT
BRANCH   1   8
ATOM      8  C1  UNL d   1       1.178  -1.578  -1.627  0.00  0.00     0.054 C 
ATOM      9  C   UNL d   1       0.445  -1.958  -2.906  0.00  0.00     0.018 C 
ENDBRANCH   1   8
TORSDOF 1
ENDMDL
