MODEL 1
REMARK minimizedAffinity -4.53667831
REMARK minimizedRMSD -1
REMARK  1 active torsions:
REMARK  status: ('A' for Active; 'I' for Inactive)
REMARK    1  A    between atoms: C1_2  and  C2_3 
ROOT
ATOM      1  C2  UNL d   1       0.363  -0.901   0.146  0.00  0.00    -0.081 A 
ATOM      2  C3  UNL d   1      -0.296  -0.825   1.379  0.00  0.00     0.006 A 
ATOM      3  C4  UNL d   1      -1.022   0.318   1.725  0.00  0.00     0.002 A 
ATOM      4  C5  UNL d   1      -1.106   1.399   0.841  0.00  0.00    -0.080 A 
ATOM      5  C6  UNL d   1      -1.907   2.619   1.188  0.00  0.00     0.076 C 
ATOM      6  C7  UNL d   1      -0.433   1.330  -0.383  0.00  0.00     0.002 A 
ATOM      7  C8  UNL d   1       0.293   0.189  -0.730  0.00  0.00     0.006 A 
ENDROOT
BRANCH   1   8
ATOM      8  C1  UNL d   1       1.092  -2.157  -0.257  0.00  0.00     0.054 C 
ATOM      9  C   UNL d   1       0.355  -2.892  -1.368  0.00  0.00     0.018 C 
ENDBRANCH   1   8
TORSDOF 1
ENDMDL
