MODEL 1
REMARK minimizedAffinity 11.3086472
REMARK minimizedRMSD -1
REMARK  1 active torsions:
REMARK  status: ('A' for Active; 'I' for Inactive)
REMARK    1  A    between atoms: C1_2  and  C2_3 
ROOT
ATOM      1  C2  UNL d   1       2.145  -5.142  -2.105  0.00  0.00    -0.076 A 
ATOM      2  C3  UNL d   1       1.880  -4.875  -0.750  0.00  0.00     0.004 A 
ATOM      3  C4  UNL d   1       0.806  -4.070  -0.375  0.00  0.00    -0.003 A 
ATOM      4  C5  UNL d   1      -0.021  -3.520  -1.348  0.00  0.00     0.000 A 
ATOM      5  C6  UNL d   1       0.216  -3.789  -2.695  0.00  0.00     0.000 A 
ATOM      6  C7  UNL d   1       1.285  -4.612  -3.090  0.00  0.00    -0.073 A 
ATOM      7  C8  UNL d   1       1.499  -4.863  -4.558  0.00  0.00     0.078 C 
ENDROOT
BRANCH   1   8
ATOM      8  C1  UNL d   1       3.341  -6.000  -2.453  0.00  0.00     0.053 C 
ATOM      9  C   UNL d   1       4.397  -5.999  -1.359  0.00  0.00     0.018 C 
ENDBRANCH   1   8
TORSDOF 1
ENDMDL
