MODEL 1
REMARK minimizedAffinity 5.74084806
REMARK minimizedRMSD -1
REMARK  1 active torsions:
REMARK  status: ('A' for Active; 'I' for Inactive)
REMARK    1  A    between atoms: C1_2  and  C2_3 
ROOT
ATOM      1  C2  UNL d   1       1.767  -4.356  -2.226  0.00  0.00    -0.076 A 
ATOM      2  C3  UNL d   1       3.091  -4.828  -2.243  0.00  0.00     0.004 A 
ATOM      3  C4  UNL d   1       3.868  -4.826  -1.086  0.00  0.00    -0.003 A 
ATOM      4  C5  UNL d   1       3.334  -4.352   0.107  0.00  0.00     0.000 A 
ATOM      5  C6  UNL d   1       2.016  -3.896   0.146  0.00  0.00     0.000 A 
ATOM      6  C7  UNL d   1       1.214  -3.907  -1.008  0.00  0.00    -0.073 A 
ATOM      7  C8  UNL d   1      -0.198  -3.398  -0.910  0.00  0.00     0.078 C 
ENDROOT
BRANCH   1   8
ATOM      8  C1  UNL d   1       0.982  -4.357  -3.518  0.00  0.00     0.053 C 
ATOM      9  C   UNL d   1       1.805  -3.873  -4.702  0.00  0.00     0.018 C 
ENDBRANCH   1   8
TORSDOF 1
ENDMDL
