MODEL 1
REMARK minimizedAffinity 20.8604908
REMARK minimizedRMSD -1
REMARK  1 active torsions:
REMARK  status: ('A' for Active; 'I' for Inactive)
REMARK    1  A    between atoms: C1_2  and  C2_3 
ROOT
ATOM      1  C2  UNL d   1      -4.070   2.375  -4.609  0.00  0.00    -0.076 A 
ATOM      2  C3  UNL d   1      -3.208   3.309  -5.209  0.00  0.00     0.004 A 
ATOM      3  C4  UNL d   1      -2.693   4.381  -4.481  0.00  0.00    -0.003 A 
ATOM      4  C5  UNL d   1      -3.032   4.536  -3.141  0.00  0.00     0.000 A 
ATOM      5  C6  UNL d   1      -3.872   3.608  -2.526  0.00  0.00     0.000 A 
ATOM      6  C7  UNL d   1      -4.387   2.513  -3.241  0.00  0.00    -0.073 A 
ATOM      7  C8  UNL d   1      -5.293   1.547  -2.528  0.00  0.00     0.078 C 
ENDROOT
BRANCH   1   8
ATOM      8  C1  UNL d   1      -4.619   1.248  -5.455  0.00  0.00     0.053 C 
ATOM      9  C   UNL d   1      -3.641   0.091  -5.589  0.00  0.00     0.018 C 
ENDBRANCH   1   8
TORSDOF 1
ENDMDL
