MODEL 1
REMARK minimizedAffinity 14.6984539
REMARK minimizedRMSD -1
REMARK  1 active torsions:
REMARK  status: ('A' for Active; 'I' for Inactive)
REMARK    1  A    between atoms: C1_2  and  C2_3 
ROOT
ATOM      1  C2  UNL d   1       0.020   2.553  -0.054  0.00  0.00    -0.076 A 
ATOM      2  C3  UNL d   1      -1.296   2.968  -0.321  0.00  0.00     0.004 A 
ATOM      3  C4  UNL d   1      -2.347   2.608   0.521  0.00  0.00    -0.003 A 
ATOM      4  C5  UNL d   1      -2.098   1.827   1.644  0.00  0.00     0.000 A 
ATOM      5  C6  UNL d   1      -0.796   1.420   1.934  0.00  0.00     0.000 A 
ATOM      6  C7  UNL d   1       0.277   1.789   1.105  0.00  0.00    -0.073 A 
ATOM      7  C8  UNL d   1       1.660   1.318   1.462  0.00  0.00     0.078 C 
ENDROOT
BRANCH   1   8
ATOM      8  C1  UNL d   1       1.115   2.952  -1.017  0.00  0.00     0.053 C 
ATOM      9  C   UNL d   1       0.575   3.642  -2.260  0.00  0.00     0.018 C 
ENDBRANCH   1   8
TORSDOF 1
ENDMDL
