MODEL 1
REMARK minimizedAffinity -0.247409374
REMARK minimizedRMSD -1
REMARK  1 active torsions:
REMARK  status: ('A' for Active; 'I' for Inactive)
REMARK    1  A    between atoms: C1_2  and  C2_3 
ROOT
ATOM      1  C2  UNL d   1      -1.798   0.434   0.063  0.00  0.00    -0.077 A 
ATOM      2  C3  UNL d   1      -1.641   1.139   1.265  0.00  0.00     0.002 A 
ATOM      3  C4  UNL d   1      -2.739   1.376   2.093  0.00  0.00     0.002 A 
ATOM      4  C5  UNL d   1      -4.001   0.909   1.731  0.00  0.00    -0.004 A 
ATOM      5  C6  UNL d   1      -4.168   0.209   0.537  0.00  0.00     0.002 A 
ATOM      6  C7  UNL d   1      -3.072  -0.028  -0.293  0.00  0.00     0.002 A 
ENDROOT
BRANCH   1   7
ATOM      7  C1  UNL d   1      -0.606   0.134  -0.808  0.00  0.00     0.055 C 
ATOM      8  C   UNL d   1      -0.381  -1.365  -0.940  0.00  0.00     0.019 C 
ENDBRANCH   1   7
TORSDOF 1
ENDMDL
