MODEL 1
REMARK minimizedAffinity 0.576352239
REMARK minimizedRMSD -1
REMARK  1 active torsions:
REMARK  status: ('A' for Active; 'I' for Inactive)
REMARK    1  A    between atoms: C1_2  and  C2_3 
ROOT
ATOM      1  C2  UNL d   1       2.022   0.487   0.835  0.00  0.00    -0.077 A 
ATOM      2  C3  UNL d   1       2.881  -0.378   1.527  0.00  0.00     0.002 A 
ATOM      3  C4  UNL d   1       3.013  -1.710   1.130  0.00  0.00     0.002 A 
ATOM      4  C5  UNL d   1       2.291  -2.187   0.038  0.00  0.00    -0.004 A 
ATOM      5  C6  UNL d   1       1.432  -1.336  -0.656  0.00  0.00     0.002 A 
ATOM      6  C7  UNL d   1       1.299  -0.004  -0.259  0.00  0.00     0.002 A 
ENDROOT
BRANCH   1   7
ATOM      7  C1  UNL d   1       1.916   1.937   1.232  0.00  0.00     0.055 C 
ATOM      8  C   UNL d   1       0.938   2.685   0.337  0.00  0.00     0.019 C 
ENDBRANCH   1   7
TORSDOF 1
ENDMDL
