MODEL 1
REMARK minimizedAffinity 2.4974668
REMARK minimizedRMSD -1
REMARK  1 active torsions:
REMARK  status: ('A' for Active; 'I' for Inactive)
REMARK    1  A    between atoms: C1_2  and  C2_3 
ROOT
ATOM      1  C2  UNL d   1      -0.228   1.730   1.588  0.00  0.00    -0.077 A 
ATOM      2  C3  UNL d   1       0.320   0.833   0.660  0.00  0.00     0.002 A 
ATOM      3  C4  UNL d   1       1.292   1.260  -0.247  0.00  0.00     0.002 A 
ATOM      4  C5  UNL d   1       1.728   2.583  -0.232  0.00  0.00    -0.004 A 
ATOM      5  C6  UNL d   1       1.188   3.484   0.686  0.00  0.00     0.002 A 
ATOM      6  C7  UNL d   1       0.215   3.059   1.592  0.00  0.00     0.002 A 
ENDROOT
BRANCH   1   7
ATOM      7  C1  UNL d   1      -1.241   1.260   2.599  0.00  0.00     0.055 C 
ATOM      8  C   UNL d   1      -0.753   1.494   4.021  0.00  0.00     0.019 C 
ENDBRANCH   1   7
TORSDOF 1
ENDMDL
