MODEL 1
REMARK minimizedAffinity -1.56041348
REMARK minimizedRMSD -1
REMARK  1 active torsions:
REMARK  status: ('A' for Active; 'I' for Inactive)
REMARK    1  A    between atoms: C1_2  and  C2_3 
ROOT
ATOM      1  C2  UNL d   1       0.968   0.511  -0.114  0.00  0.00    -0.077 A 
ATOM      2  C3  UNL d   1       0.136  -0.617  -0.112  0.00  0.00     0.002 A 
ATOM      3  C4  UNL d   1       0.655  -1.877  -0.420  0.00  0.00     0.002 A 
ATOM      4  C5  UNL d   1       2.006  -2.020  -0.727  0.00  0.00    -0.004 A 
ATOM      5  C6  UNL d   1       2.841  -0.903  -0.733  0.00  0.00     0.002 A 
ATOM      6  C7  UNL d   1       2.324   0.357  -0.428  0.00  0.00     0.002 A 
ENDROOT
BRANCH   1   7
ATOM      7  C1  UNL d   1       0.421   1.863   0.265  0.00  0.00     0.055 C 
ATOM      8  C   UNL d   1       0.679   2.172   1.732  0.00  0.00     0.019 C 
ENDBRANCH   1   7
TORSDOF 1
ENDMDL
