MODEL 1
REMARK minimizedAffinity -4.36645555
REMARK minimizedRMSD -1
REMARK  1 active torsions:
REMARK  status: ('A' for Active; 'I' for Inactive)
REMARK    1  A    between atoms: C1_2  and  C2_3 
ROOT
ATOM      1  C2  UNL d   1       3.497  -0.565  -1.474  0.00  0.00    -0.077 A 
ATOM      2  C3  UNL d   1       2.663  -1.021  -0.443  0.00  0.00     0.002 A 
ATOM      3  C4  UNL d   1       1.847  -2.137  -0.635  0.00  0.00     0.002 A 
ATOM      4  C5  UNL d   1       1.861  -2.810  -1.855  0.00  0.00    -0.004 A 
ATOM      5  C6  UNL d   1       2.686  -2.364  -2.887  0.00  0.00     0.002 A 
ATOM      6  C7  UNL d   1       3.500  -1.247  -2.697  0.00  0.00     0.002 A 
ENDROOT
BRANCH   1   7
ATOM      7  C1  UNL d   1       4.413   0.610  -1.251  0.00  0.00     0.055 C 
ATOM      8  C   UNL d   1       3.812   1.602  -0.266  0.00  0.00     0.019 C 
ENDBRANCH   1   7
TORSDOF 1
ENDMDL
