MODEL 1
REMARK minimizedAffinity 9.42523766
REMARK minimizedRMSD -1
REMARK  1 active torsions:
REMARK  status: ('A' for Active; 'I' for Inactive)
REMARK    1  A    between atoms: C1_2  and  C2_3 
ROOT
ATOM      1  C2  UNL d   1      -0.244  -2.315  -1.744  0.00  0.00    -0.077 A 
ATOM      2  C3  UNL d   1      -0.756  -1.039  -1.466  0.00  0.00     0.002 A 
ATOM      3  C4  UNL d   1      -0.048  -0.156  -0.649  0.00  0.00     0.002 A 
ATOM      4  C5  UNL d   1       1.178  -0.537  -0.107  0.00  0.00    -0.004 A 
ATOM      5  C6  UNL d   1       1.695  -1.804  -0.376  0.00  0.00     0.002 A 
ATOM      6  C7  UNL d   1       0.987  -2.689  -1.191  0.00  0.00     0.002 A 
ENDROOT
BRANCH   1   7
ATOM      7  C1  UNL d   1      -0.984  -3.251  -2.664  0.00  0.00     0.055 C 
ATOM      8  C   UNL d   1      -0.878  -2.799  -4.113  0.00  0.00     0.019 C 
ENDBRANCH   1   7
TORSDOF 1
ENDMDL
