MODEL 1
REMARK minimizedAffinity 19.8851013
REMARK minimizedRMSD -1
REMARK  0 active torsions:
REMARK  status: ('A' for Active; 'I' for Inactive)
ROOT
ATOM      1  C   UNL d   1       1.413   2.165   6.000  0.00  0.00    -0.002 A 
ATOM      2  C1  UNL d   1       0.404   3.117   5.999  0.00  0.00     0.010 A 
ATOM      3  C2  UNL d   1      -0.577   3.112   5.005  0.00  0.00     0.041 A 
ATOM      4  C3  UNL d   1      -0.526   2.123   4.003  0.00  0.00    -0.075 A 
ATOM      5  S   UNL d   1      -1.620   1.921   2.687  0.00  0.00     0.015 SA
ATOM      6  C4  UNL d   1      -0.774   0.565   2.094  0.00  0.00     0.022 A 
ATOM      7  C5  UNL d   1       0.319   0.261   2.870  0.00  0.00     0.026 A 
ATOM      8  C6  UNL d   1       0.480   1.153   3.983  0.00  0.00    -0.082 A 
ATOM      9  C7  UNL d   1       1.460   1.186   5.004  0.00  0.00     0.045 A 
ENDROOT
TORSDOF 0
ENDMDL
