MODEL 1
REMARK minimizedAffinity 12.8725033
REMARK minimizedRMSD -1
REMARK  0 active torsions:
REMARK  status: ('A' for Active; 'I' for Inactive)
ROOT
ATOM      1  C   UNL d   1      -6.000  -2.474   2.250  0.00  0.00    -0.002 A 
ATOM      2  C1  UNL d   1      -5.345  -3.006   3.352  0.00  0.00     0.010 A 
ATOM      3  C2  UNL d   1      -4.302  -2.307   3.964  0.00  0.00     0.041 A 
ATOM      4  C3  UNL d   1      -3.927  -1.052   3.446  0.00  0.00    -0.075 A 
ATOM      5  S   UNL d   1      -2.679  -0.017   4.033  0.00  0.00     0.015 SA
ATOM      6  C4  UNL d   1      -2.987   1.157   2.836  0.00  0.00     0.022 A 
ATOM      7  C5  UNL d   1      -4.013   0.784   2.000  0.00  0.00     0.026 A 
ATOM      8  C6  UNL d   1      -4.572  -0.495   2.339  0.00  0.00    -0.082 A 
ATOM      9  C7  UNL d   1      -5.624  -1.228   1.740  0.00  0.00     0.045 A 
ENDROOT
TORSDOF 0
ENDMDL
