MODEL 1
REMARK minimizedAffinity 15.3219604
REMARK minimizedRMSD -1
REMARK  0 active torsions:
REMARK  status: ('A' for Active; 'I' for Inactive)
ROOT
ATOM      1  C   UNL d   1      -2.653  -4.218  -3.256  0.00  0.00    -0.002 A 
ATOM      2  C1  UNL d   1      -1.354  -4.565  -2.912  0.00  0.00     0.010 A 
ATOM      3  C2  UNL d   1      -0.375  -3.583  -2.752  0.00  0.00     0.041 A 
ATOM      4  C3  UNL d   1      -0.727  -2.232  -2.944  0.00  0.00    -0.075 A 
ATOM      5  S   UNL d   1       0.305  -0.859  -2.802  0.00  0.00     0.015 SA
ATOM      6  C4  UNL d   1      -0.954   0.221  -3.194  0.00  0.00     0.022 A 
ATOM      7  C5  UNL d   1      -2.140  -0.433  -3.431  0.00  0.00     0.026 A 
ATOM      8  C6  UNL d   1      -2.029  -1.858  -3.290  0.00  0.00    -0.082 A 
ATOM      9  C7  UNL d   1      -2.998  -2.878  -3.446  0.00  0.00     0.045 A 
ENDROOT
TORSDOF 0
ENDMDL
