MODEL 1
REMARK minimizedAffinity 13.7982807
REMARK minimizedRMSD -1
REMARK  0 active torsions:
REMARK  status: ('A' for Active; 'I' for Inactive)
ROOT
ATOM      1  C   UNL d   1      -1.931  -3.352  -3.517  0.00  0.00    -0.002 A 
ATOM      2  C1  UNL d   1      -1.993  -4.640  -3.005  0.00  0.00     0.010 A 
ATOM      3  C2  UNL d   1      -2.992  -5.522  -3.420  0.00  0.00     0.041 A 
ATOM      4  C3  UNL d   1      -3.937  -5.084  -4.369  0.00  0.00    -0.075 A 
ATOM      5  S   UNL d   1      -5.249  -5.991  -5.024  0.00  0.00     0.015 SA
ATOM      6  C4  UNL d   1      -5.758  -4.689  -6.000  0.00  0.00     0.022 A 
ATOM      7  C5  UNL d   1      -4.959  -3.582  -5.842  0.00  0.00     0.026 A 
ATOM      8  C6  UNL d   1      -3.895  -3.792  -4.899  0.00  0.00    -0.082 A 
ATOM      9  C7  UNL d   1      -2.870  -2.921  -4.458  0.00  0.00     0.045 A 
ENDROOT
TORSDOF 0
ENDMDL
