MODEL 1
REMARK minimizedAffinity 17.1275139
REMARK minimizedRMSD -1
REMARK  0 active torsions:
REMARK  status: ('A' for Active; 'I' for Inactive)
ROOT
ATOM      1  C   UNL d   1      -3.516   6.000  -6.000  0.00  0.00    -0.002 A 
ATOM      2  C1  UNL d   1      -4.434   4.959  -6.000  0.00  0.00     0.010 A 
ATOM      3  C2  UNL d   1      -4.105   3.722  -5.443  0.00  0.00     0.041 A 
ATOM      4  C3  UNL d   1      -2.826   3.546  -4.880  0.00  0.00    -0.075 A 
ATOM      5  S   UNL d   1      -2.202   2.119  -4.141  0.00  0.00     0.015 SA
ATOM      6  C4  UNL d   1      -0.703   2.857  -3.807  0.00  0.00     0.022 A 
ATOM      7  C5  UNL d   1      -0.661   4.160  -4.242  0.00  0.00     0.026 A 
ATOM      8  C6  UNL d   1      -1.884   4.579  -4.867  0.00  0.00    -0.082 A 
ATOM      9  C7  UNL d   1      -2.248   5.822  -5.440  0.00  0.00     0.045 A 
ENDROOT
TORSDOF 0
ENDMDL
