MODEL 1
REMARK minimizedAffinity 24.0974712
REMARK minimizedRMSD -1
REMARK  0 active torsions:
REMARK  status: ('A' for Active; 'I' for Inactive)
ROOT
ATOM      1  C   UNL d   1       2.233  -1.130  -5.997  0.00  0.00    -0.002 A 
ATOM      2  C1  UNL d   1       2.706  -0.276  -5.011  0.00  0.00     0.010 A 
ATOM      3  C2  UNL d   1       2.085  -0.220  -3.761  0.00  0.00     0.041 A 
ATOM      4  C3  UNL d   1       0.971  -1.047  -3.517  0.00  0.00    -0.075 A 
ATOM      5  S   UNL d   1       0.052  -1.148  -2.061  0.00  0.00     0.015 SA
ATOM      6  C4  UNL d   1      -0.990  -2.328  -2.714  0.00  0.00     0.022 A 
ATOM      7  C5  UNL d   1      -0.660  -2.648  -4.009  0.00  0.00     0.026 A 
ATOM      8  C6  UNL d   1       0.476  -1.915  -4.493  0.00  0.00    -0.082 A 
ATOM      9  C7  UNL d   1       1.127  -1.948  -5.750  0.00  0.00     0.045 A 
ENDROOT
TORSDOF 0
ENDMDL
