MODEL 1
REMARK minimizedAffinity 9.57826328
REMARK minimizedRMSD -1
REMARK  0 active torsions:
REMARK  status: ('A' for Active; 'I' for Inactive)
ROOT
ATOM      1  C   UNL d   1       1.953   2.613  -0.127  0.00  0.00    -0.002 A 
ATOM      2  C1  UNL d   1       2.525   2.719  -1.387  0.00  0.00     0.010 A 
ATOM      3  C2  UNL d   1       2.713   1.584  -2.179  0.00  0.00     0.041 A 
ATOM      4  C3  UNL d   1       2.311   0.330  -1.679  0.00  0.00    -0.075 A 
ATOM      5  S   UNL d   1       2.442  -1.195  -2.472  0.00  0.00     0.015 SA
ATOM      6  C4  UNL d   1       1.741  -2.023  -1.158  0.00  0.00     0.022 A 
ATOM      7  C5  UNL d   1       1.409  -1.172  -0.130  0.00  0.00     0.026 A 
ATOM      8  C6  UNL d   1       1.732   0.198  -0.414  0.00  0.00    -0.082 A 
ATOM      9  C7  UNL d   1       1.555   1.367   0.365  0.00  0.00     0.045 A 
ENDROOT
TORSDOF 0
ENDMDL
