MODEL 1
REMARK minimizedAffinity 18.0348301
REMARK minimizedRMSD -1
REMARK  0 active torsions:
REMARK  status: ('A' for Active; 'I' for Inactive)
ROOT
ATOM      1  C   UNL d   1       2.155   1.685  -4.026  0.00  0.00    -0.002 A 
ATOM      2  C1  UNL d   1       2.082   0.299  -4.047  0.00  0.00     0.010 A 
ATOM      3  C2  UNL d   1       2.583  -0.455  -2.984  0.00  0.00     0.041 A 
ATOM      4  C3  UNL d   1       3.162   0.213  -1.888  0.00  0.00    -0.075 A 
ATOM      5  S   UNL d   1       3.840  -0.503  -0.474  0.00  0.00     0.015 SA
ATOM      6  C4  UNL d   1       4.242   1.013   0.192  0.00  0.00     0.022 A 
ATOM      7  C5  UNL d   1       3.876   2.052  -0.631  0.00  0.00     0.026 A 
ATOM      8  C6  UNL d   1       3.247   1.608  -1.843  0.00  0.00    -0.082 A 
ATOM      9  C7  UNL d   1       2.730   2.344  -2.937  0.00  0.00     0.045 A 
ENDROOT
TORSDOF 0
ENDMDL
