MODEL 1
REMARK minimizedAffinity 9.38369656
REMARK minimizedRMSD -1
REMARK  0 active torsions:
REMARK  status: ('A' for Active; 'I' for Inactive)
ROOT
ATOM      1  C   UNL d   1       2.267  -1.606  -1.485  0.00  0.00    -0.002 A 
ATOM      2  C1  UNL d   1       1.632  -2.162  -2.586  0.00  0.00     0.010 A 
ATOM      3  C2  UNL d   1       1.802  -3.513  -2.896  0.00  0.00     0.041 A 
ATOM      4  C3  UNL d   1       2.626  -4.303  -2.071  0.00  0.00    -0.075 A 
ATOM      5  S   UNL d   1       2.979  -5.981  -2.256  0.00  0.00     0.015 SA
ATOM      6  C4  UNL d   1       3.980  -5.999  -0.877  0.00  0.00     0.022 A 
ATOM      7  C5  UNL d   1       4.054  -4.764  -0.278  0.00  0.00     0.026 A 
ATOM      8  C6  UNL d   1       3.275  -3.766  -0.956  0.00  0.00    -0.082 A 
ATOM      9  C7  UNL d   1       3.084  -2.393  -0.669  0.00  0.00     0.045 A 
ENDROOT
TORSDOF 0
ENDMDL
