MODEL 1
REMARK minimizedAffinity 26.4832287
REMARK minimizedRMSD -1
REMARK  0 active torsions:
REMARK  status: ('A' for Active; 'I' for Inactive)
ROOT
ATOM      1  C   UNL d   1      -1.252  -4.822  -1.880  0.00  0.00    -0.002 A 
ATOM      2  C1  UNL d   1      -0.434  -3.928  -2.555  0.00  0.00     0.010 A 
ATOM      3  C2  UNL d   1      -0.915  -3.216  -3.655  0.00  0.00     0.041 A 
ATOM      4  C3  UNL d   1      -2.247  -3.418  -4.068  0.00  0.00    -0.075 A 
ATOM      5  S   UNL d   1      -3.053  -2.656  -5.388  0.00  0.00     0.015 SA
ATOM      6  C4  UNL d   1      -4.503  -3.498  -5.086  0.00  0.00     0.022 A 
ATOM      7  C5  UNL d   1      -4.393  -4.345  -4.009  0.00  0.00     0.026 A 
ATOM      8  C6  UNL d   1      -3.091  -4.312  -3.404  0.00  0.00    -0.082 A 
ATOM      9  C7  UNL d   1      -2.573  -5.020  -2.293  0.00  0.00     0.045 A 
ENDROOT
TORSDOF 0
ENDMDL
