MODEL 1
REMARK minimizedAffinity 27.7476139
REMARK minimizedRMSD -1
REMARK  0 active torsions:
REMARK  status: ('A' for Active; 'I' for Inactive)
ROOT
ATOM      1  C   UNL d   1       1.720   5.542  -1.558  0.00  0.00    -0.002 A 
ATOM      2  C1  UNL d   1       1.572   5.672  -0.184  0.00  0.00     0.010 A 
ATOM      3  C2  UNL d   1       1.953   4.638   0.673  0.00  0.00     0.041 A 
ATOM      4  C3  UNL d   1       2.491   3.459   0.121  0.00  0.00    -0.075 A 
ATOM      5  S   UNL d   1       3.027   2.061   0.976  0.00  0.00     0.015 SA
ATOM      6  C4  UNL d   1       3.466   1.258  -0.462  0.00  0.00     0.022 A 
ATOM      7  C5  UNL d   1       3.217   2.023  -1.576  0.00  0.00     0.026 A 
ATOM      8  C6  UNL d   1       2.651   3.304  -1.259  0.00  0.00    -0.082 A 
ATOM      9  C7  UNL d   1       2.255   4.371  -2.102  0.00  0.00     0.045 A 
ENDROOT
TORSDOF 0
ENDMDL
