MODEL 1
REMARK minimizedAffinity 19.1518364
REMARK minimizedRMSD -1
REMARK  0 active torsions:
REMARK  status: ('A' for Active; 'I' for Inactive)
ROOT
ATOM      1  C   UNL d   1      -4.065   2.023   5.209  0.00  0.00    -0.002 A 
ATOM      2  C1  UNL d   1      -3.982   1.874   3.832  0.00  0.00     0.010 A 
ATOM      3  C2  UNL d   1      -2.753   1.627   3.217  0.00  0.00     0.041 A 
ATOM      4  C3  UNL d   1      -1.598   1.530   4.017  0.00  0.00    -0.075 A 
ATOM      5  S   UNL d   1       0.014   1.231   3.484  0.00  0.00     0.015 SA
ATOM      6  C4  UNL d   1       0.630   1.294   5.072  0.00  0.00     0.022 A 
ATOM      7  C5  UNL d   1      -0.356   1.536   5.999  0.00  0.00     0.026 A 
ATOM      8  C6  UNL d   1      -1.657   1.675   5.406  0.00  0.00    -0.082 A 
ATOM      9  C7  UNL d   1      -2.917   1.926   6.000  0.00  0.00     0.045 A 
ENDROOT
TORSDOF 0
ENDMDL
