MODEL 1
REMARK minimizedAffinity 25.3798351
REMARK minimizedRMSD -1
REMARK  0 active torsions:
REMARK  status: ('A' for Active; 'I' for Inactive)
ROOT
ATOM      1  C   UNL d   1      -1.273   0.135   2.430  0.00  0.00    -0.002 A 
ATOM      2  C1  UNL d   1      -0.586  -1.038   2.704  0.00  0.00     0.010 A 
ATOM      3  C2  UNL d   1      -1.235  -2.273   2.639  0.00  0.00     0.041 A 
ATOM      4  C3  UNL d   1      -2.598  -2.309   2.287  0.00  0.00    -0.075 A 
ATOM      5  S   UNL d   1      -3.598  -3.706   2.143  0.00  0.00     0.015 SA
ATOM      6  C4  UNL d   1      -4.961  -2.778   1.713  0.00  0.00     0.022 A 
ATOM      7  C5  UNL d   1      -4.678  -1.433   1.676  0.00  0.00     0.026 A 
ATOM      8  C6  UNL d   1      -3.312  -1.140   2.006  0.00  0.00    -0.082 A 
ATOM      9  C7  UNL d   1      -2.626   0.096   2.082  0.00  0.00     0.045 A 
ENDROOT
TORSDOF 0
ENDMDL
