MODEL 1
REMARK minimizedAffinity 3.83411145
REMARK minimizedRMSD -1
REMARK  0 active torsions:
REMARK  status: ('A' for Active; 'I' for Inactive)
ROOT
ATOM      1  C   UNL d   1      -1.964  -5.994  -2.352  0.00  0.00    -0.002 A 
ATOM      2  C1  UNL d   1      -0.885  -5.262  -2.826  0.00  0.00     0.010 A 
ATOM      3  C2  UNL d   1      -1.019  -4.450  -3.954  0.00  0.00     0.041 A 
ATOM      4  C3  UNL d   1      -2.268  -4.384  -4.602  0.00  0.00    -0.075 A 
ATOM      5  S   UNL d   1      -2.666  -3.456  -6.000  0.00  0.00     0.015 SA
ATOM      6  C4  UNL d   1      -4.278  -4.009  -6.000  0.00  0.00     0.022 A 
ATOM      7  C5  UNL d   1      -4.524  -4.881  -4.966  0.00  0.00     0.026 A 
ATOM      8  C6  UNL d   1      -3.369  -5.111  -4.143  0.00  0.00    -0.082 A 
ATOM      9  C7  UNL d   1      -3.202  -5.926  -2.998  0.00  0.00     0.045 A 
ENDROOT
TORSDOF 0
ENDMDL
