MODEL 1
REMARK minimizedAffinity 11.4539242
REMARK minimizedRMSD -1
REMARK  0 active torsions:
REMARK  status: ('A' for Active; 'I' for Inactive)
ROOT
ATOM      1  C   UNL d   1      -4.128   2.262   1.991  0.00  0.00    -0.002 A 
ATOM      2  C1  UNL d   1      -5.155   1.479   2.500  0.00  0.00     0.010 A 
ATOM      3  C2  UNL d   1      -5.016   0.838   3.732  0.00  0.00     0.041 A 
ATOM      4  C3  UNL d   1      -3.816   1.000   4.453  0.00  0.00    -0.075 A 
ATOM      5  S   UNL d   1      -3.422   0.311   5.983  0.00  0.00     0.015 SA
ATOM      6  C4  UNL d   1      -1.882   1.040   5.999  0.00  0.00     0.022 A 
ATOM      7  C5  UNL d   1      -1.657   1.794   4.871  0.00  0.00     0.026 A 
ATOM      8  C6  UNL d   1      -2.768   1.784   3.962  0.00  0.00    -0.082 A 
ATOM      9  C7  UNL d   1      -2.940   2.420   2.709  0.00  0.00     0.045 A 
ENDROOT
TORSDOF 0
ENDMDL
