MODEL 1
REMARK minimizedAffinity 24.9984207
REMARK minimizedRMSD -1
REMARK  0 active torsions:
REMARK  status: ('A' for Active; 'I' for Inactive)
ROOT
ATOM      1  N1  IND d   1      -0.303   3.606  -3.769  0.00  0.00    -0.196 N 
ATOM      2  C2  IND d   1      -1.582   3.401  -4.207  0.00  0.00     0.054 A 
ATOM      3  C3  IND d   1      -2.314   2.788  -3.249  0.00  0.00    -0.031 A 
ATOM      4  C4  IND d   1      -1.646   2.124  -0.853  0.00  0.00     0.051 A 
ATOM      5  C5  IND d   1      -0.573   2.077  -0.008  0.00  0.00    -0.031 A 
ATOM      6  C6  IND d   1       0.669   2.549  -0.380  0.00  0.00     0.015 A 
ATOM      7  C7  IND d   1       0.883   3.099  -1.613  0.00  0.00    -0.016 A 
ATOM      8  C8  IND d   1      -0.203   3.142  -2.476  0.00  0.00    -0.047 A 
ATOM      9  C9  IND d   1      -1.455   2.626  -2.119  0.00  0.00    -0.096 A 
ATOM     10  HN1 IND d   1       0.331   3.965  -4.224  0.00  0.00     0.298 HD
ENDROOT
TORSDOF 0
ENDMDL
