MODEL 1
REMARK minimizedAffinity 22.79706
REMARK minimizedRMSD -1
REMARK  0 active torsions:
REMARK  status: ('A' for Active; 'I' for Inactive)
ROOT
ATOM      1  N1  IND d   1      -3.144   5.231  -1.672  0.00  0.00    -0.196 N 
ATOM      2  C2  IND d   1      -4.065   5.309  -2.678  0.00  0.00     0.054 A 
ATOM      3  C3  IND d   1      -5.293   5.568  -2.173  0.00  0.00    -0.031 A 
ATOM      4  C4  IND d   1      -6.000   5.999   0.264  0.00  0.00     0.051 A 
ATOM      5  C5  IND d   1      -5.516   5.998   1.543  0.00  0.00    -0.031 A 
ATOM      6  C6  IND d   1      -4.190   5.738   1.820  0.00  0.00     0.015 A 
ATOM      7  C7  IND d   1      -3.291   5.480   0.824  0.00  0.00    -0.016 A 
ATOM      8  C8  IND d   1      -3.780   5.474  -0.475  0.00  0.00    -0.047 A 
ATOM      9  C9  IND d   1      -5.134   5.695  -0.759  0.00  0.00    -0.096 A 
ATOM     10  HN1 IND d   1      -2.307   5.058  -1.770  0.00  0.00     0.298 HD
ENDROOT
TORSDOF 0
ENDMDL
