MODEL 1
REMARK minimizedAffinity 10.0973444
REMARK minimizedRMSD -1
REMARK  0 active torsions:
REMARK  status: ('A' for Active; 'I' for Inactive)
ROOT
ATOM      1  N1  IND d   1      -5.975  -3.089   0.537  0.00  0.00    -0.196 N 
ATOM      2  C2  IND d   1      -5.990  -4.032  -0.453  0.00  0.00     0.054 A 
ATOM      3  C3  IND d   1      -5.939  -5.273   0.079  0.00  0.00    -0.031 A 
ATOM      4  C4  IND d   1      -5.929  -5.995   2.551  0.00  0.00     0.051 A 
ATOM      5  C5  IND d   1      -5.870  -5.490   3.820  0.00  0.00    -0.031 A 
ATOM      6  C6  IND d   1      -5.846  -4.133   4.064  0.00  0.00     0.015 A 
ATOM      7  C7  IND d   1      -5.891  -3.224   3.045  0.00  0.00    -0.016 A 
ATOM      8  C8  IND d   1      -5.943  -3.732   1.755  0.00  0.00    -0.047 A 
ATOM      9  C9  IND d   1      -5.925  -5.109   1.499  0.00  0.00    -0.096 A 
ATOM     10  HN1 IND d   1      -5.984  -2.237   0.419  0.00  0.00     0.298 HD
ENDROOT
TORSDOF 0
ENDMDL
