MODEL 1
REMARK minimizedAffinity 24.3838463
REMARK minimizedRMSD -1
REMARK  0 active torsions:
REMARK  status: ('A' for Active; 'I' for Inactive)
ROOT
ATOM      1  N1  IND d   1      -5.526   4.731   1.528  0.00  0.00    -0.196 N 
ATOM      2  C2  IND d   1      -5.235   5.996   1.098  0.00  0.00     0.054 A 
ATOM      3  C3  IND d   1      -4.079   6.000   0.397  0.00  0.00    -0.031 A 
ATOM      4  C4  IND d   1      -2.555   4.030  -0.254  0.00  0.00     0.051 A 
ATOM      5  C5  IND d   1      -2.388   2.687  -0.061  0.00  0.00    -0.031 A 
ATOM      6  C6  IND d   1      -3.278   1.942   0.685  0.00  0.00     0.015 A 
ATOM      7  C7  IND d   1      -4.379   2.512   1.258  0.00  0.00    -0.016 A 
ATOM      8  C8  IND d   1      -4.548   3.876   1.070  0.00  0.00    -0.047 A 
ATOM      9  C9  IND d   1      -3.625   4.646   0.350  0.00  0.00    -0.096 A 
ATOM     10  HN1 IND d   1      -6.206   4.508   2.004  0.00  0.00     0.298 HD
ENDROOT
TORSDOF 0
ENDMDL
