MODEL 1
REMARK minimizedAffinity 17.0078735
REMARK minimizedRMSD -1
REMARK  0 active torsions:
REMARK  status: ('A' for Active; 'I' for Inactive)
ROOT
ATOM      1  N1  IND d   1      -4.834  -4.689   3.426  0.00  0.00    -0.196 N 
ATOM      2  C2  IND d   1      -5.999  -4.439   4.095  0.00  0.00     0.054 A 
ATOM      3  C3  IND d   1      -5.762  -3.673   5.183  0.00  0.00    -0.031 A 
ATOM      4  C4  IND d   1      -3.554  -2.630   5.999  0.00  0.00     0.051 A 
ATOM      5  C5  IND d   1      -2.213  -2.605   5.737  0.00  0.00    -0.031 A 
ATOM      6  C6  IND d   1      -1.666  -3.285   4.668  0.00  0.00     0.015 A 
ATOM      7  C7  IND d   1      -2.446  -4.009   3.811  0.00  0.00    -0.016 A 
ATOM      8  C8  IND d   1      -3.807  -4.043   4.078  0.00  0.00    -0.047 A 
ATOM      9  C9  IND d   1      -4.362  -3.390   5.186  0.00  0.00    -0.096 A 
ATOM     10  HN1 IND d   1      -4.755  -5.169   2.717  0.00  0.00     0.298 HD
ENDROOT
TORSDOF 0
ENDMDL
