MODEL 1
REMARK minimizedAffinity 18.0303497
REMARK minimizedRMSD -1
REMARK  0 active torsions:
REMARK  status: ('A' for Active; 'I' for Inactive)
ROOT
ATOM      1  N1  IND d   1      -5.998   5.970   3.526  0.00  0.00    -0.196 N 
ATOM      2  C2  IND d   1      -5.004   5.948   4.464  0.00  0.00     0.054 A 
ATOM      3  C3  IND d   1      -3.792   5.917   3.865  0.00  0.00    -0.031 A 
ATOM      4  C4  IND d   1      -3.203   6.000   1.361  0.00  0.00     0.051 A 
ATOM      5  C5  IND d   1      -3.774   5.988   0.119  0.00  0.00    -0.031 A 
ATOM      6  C6  IND d   1      -5.143   5.972  -0.054  0.00  0.00     0.015 A 
ATOM      7  C7  IND d   1      -5.996   5.979   1.013  0.00  0.00    -0.016 A 
ATOM      8  C8  IND d   1      -5.420   5.983   2.276  0.00  0.00    -0.047 A 
ATOM      9  C9  IND d   1      -4.031   5.956   2.458  0.00  0.00    -0.096 A 
ATOM     10  HN1 IND d   1      -6.842   5.974   3.690  0.00  0.00     0.298 HD
ENDROOT
TORSDOF 0
ENDMDL
