MODEL 1
REMARK minimizedAffinity 13.9241676
REMARK minimizedRMSD -1
REMARK  0 active torsions:
REMARK  status: ('A' for Active; 'I' for Inactive)
ROOT
ATOM      1  N1  IND d   1       1.453  -4.520  -5.778  0.00  0.00    -0.196 N 
ATOM      2  C2  IND d   1       1.850  -3.231  -5.999  0.00  0.00     0.054 A 
ATOM      3  C3  IND d   1       2.325  -2.683  -4.858  0.00  0.00    -0.031 A 
ATOM      4  C4  IND d   1       2.638  -3.751  -2.537  0.00  0.00     0.051 A 
ATOM      5  C5  IND d   1       2.387  -4.896  -1.836  0.00  0.00    -0.031 A 
ATOM      6  C6  IND d   1       1.802  -5.999  -2.425  0.00  0.00     0.015 A 
ATOM      7  C7  IND d   1       1.456  -6.000  -3.747  0.00  0.00    -0.016 A 
ATOM      8  C8  IND d   1       1.703  -4.836  -4.460  0.00  0.00    -0.047 A 
ATOM      9  C9  IND d   1       2.257  -3.699  -3.857  0.00  0.00    -0.096 A 
ATOM     10  HN1 IND d   1       1.106  -5.046  -6.363  0.00  0.00     0.298 HD
ENDROOT
TORSDOF 0
ENDMDL
