MODEL 1
REMARK minimizedAffinity 19.4797955
REMARK minimizedRMSD -1
REMARK  0 active torsions:
REMARK  status: ('A' for Active; 'I' for Inactive)
ROOT
ATOM      1  N1  IND d   1       0.532   4.421  -0.381  0.00  0.00    -0.196 N 
ATOM      2  C2  IND d   1       0.247   3.204   0.171  0.00  0.00     0.054 A 
ATOM      3  C3  IND d   1      -0.699   2.567  -0.556  0.00  0.00    -0.031 A 
ATOM      4  C4  IND d   1      -1.844   3.295  -2.744  0.00  0.00     0.051 A 
ATOM      5  C5  IND d   1      -1.937   4.345  -3.614  0.00  0.00    -0.031 A 
ATOM      6  C6  IND d   1      -1.195   5.497  -3.448  0.00  0.00     0.015 A 
ATOM      7  C7  IND d   1      -0.320   5.637  -2.408  0.00  0.00    -0.016 A 
ATOM      8  C8  IND d   1      -0.228   4.575  -1.520  0.00  0.00    -0.047 A 
ATOM      9  C9  IND d   1      -1.009   3.421  -1.659  0.00  0.00    -0.096 A 
ATOM     10  HN1 IND d   1       1.092   4.995  -0.069  0.00  0.00     0.298 HD
ENDROOT
TORSDOF 0
ENDMDL
