MODEL 1
REMARK minimizedAffinity 6.24659252
REMARK minimizedRMSD -1
REMARK  0 active torsions:
REMARK  status: ('A' for Active; 'I' for Inactive)
ROOT
ATOM      1  N1  IND d   1      -0.506   1.271   0.023  0.00  0.00    -0.196 N 
ATOM      2  C2  IND d   1      -0.626   1.372   1.381  0.00  0.00     0.054 A 
ATOM      3  C3  IND d   1      -0.541   2.665   1.766  0.00  0.00    -0.031 A 
ATOM      4  C4  IND d   1      -0.306   4.787   0.328  0.00  0.00     0.051 A 
ATOM      5  C5  IND d   1      -0.120   5.200  -0.962  0.00  0.00    -0.031 A 
ATOM      6  C6  IND d   1      -0.056   4.305  -2.011  0.00  0.00     0.015 A 
ATOM      7  C7  IND d   1      -0.186   2.960  -1.810  0.00  0.00    -0.016 A 
ATOM      8  C8  IND d   1      -0.367   2.538  -0.500  0.00  0.00    -0.047 A 
ATOM      9  C9  IND d   1      -0.391   3.437   0.573  0.00  0.00    -0.096 A 
ATOM     10  HN1 IND d   1      -0.515   0.539  -0.429  0.00  0.00     0.298 HD
ENDROOT
TORSDOF 0
ENDMDL
