MODEL 1
REMARK minimizedAffinity -1.34121108
REMARK minimizedRMSD -1
REMARK  0 active torsions:
REMARK  status: ('A' for Active; 'I' for Inactive)
ROOT
ATOM      1  N1  IND d   1       0.473   2.235   1.110  0.00  0.00    -0.196 N 
ATOM      2  C2  IND d   1      -0.109   3.036   0.168  0.00  0.00     0.054 A 
ATOM      3  C3  IND d   1      -1.455   2.998   0.285  0.00  0.00    -0.031 A 
ATOM      4  C4  IND d   1      -2.913   1.771   2.015  0.00  0.00     0.051 A 
ATOM      5  C5  IND d   1      -2.837   0.884   3.053  0.00  0.00    -0.031 A 
ATOM      6  C6  IND d   1      -1.629   0.395   3.507  0.00  0.00     0.015 A 
ATOM      7  C7  IND d   1      -0.446   0.785   2.945  0.00  0.00    -0.016 A 
ATOM      8  C8  IND d   1      -0.520   1.679   1.887  0.00  0.00    -0.047 A 
ATOM      9  C9  IND d   1      -1.745   2.146   1.394  0.00  0.00    -0.096 A 
ATOM     10  HN1 IND d   1       1.317   2.100   1.203  0.00  0.00     0.298 HD
ENDROOT
TORSDOF 0
ENDMDL
