MODEL 1
REMARK minimizedAffinity 10.519928
REMARK minimizedRMSD -1
REMARK  0 active torsions:
REMARK  status: ('A' for Active; 'I' for Inactive)
ROOT
ATOM      1  N1  IND d   1       0.306   2.182  -0.012  0.00  0.00    -0.196 N 
ATOM      2  C2  IND d   1      -0.549   1.648   0.911  0.00  0.00     0.054 A 
ATOM      3  C3  IND d   1      -1.412   2.590   1.352  0.00  0.00    -0.031 A 
ATOM      4  C4  IND d   1      -1.668   5.045   0.621  0.00  0.00     0.051 A 
ATOM      5  C5  IND d   1      -1.091   6.000  -0.168  0.00  0.00    -0.031 A 
ATOM      6  C6  IND d   1       0.001   5.724  -0.965  0.00  0.00     0.015 A 
ATOM      7  C7  IND d   1       0.553   4.475  -1.009  0.00  0.00    -0.016 A 
ATOM      8  C8  IND d   1      -0.026   3.505  -0.203  0.00  0.00    -0.047 A 
ATOM      9  C9  IND d   1      -1.108   3.790   0.639  0.00  0.00    -0.096 A 
ATOM     10  HN1 IND d   1       0.944   1.762  -0.407  0.00  0.00     0.298 HD
ENDROOT
TORSDOF 0
ENDMDL
