MODEL 1
REMARK minimizedAffinity 6.40981293
REMARK minimizedRMSD -1
REMARK  0 active torsions:
REMARK  status: ('A' for Active; 'I' for Inactive)
ROOT
ATOM      1  N1  IND d   1      -1.251   2.200  -0.779  0.00  0.00    -0.196 N 
ATOM      2  C2  IND d   1      -1.098   1.897   0.545  0.00  0.00     0.054 A 
ATOM      3  C3  IND d   1      -0.373   2.854   1.166  0.00  0.00    -0.031 A 
ATOM      4  C4  IND d   1       0.576   5.055   0.227  0.00  0.00     0.051 A 
ATOM      5  C5  IND d   1       0.723   5.754  -0.939  0.00  0.00    -0.031 A 
ATOM      6  C6  IND d   1       0.208   5.296  -2.134  0.00  0.00     0.015 A 
ATOM      7  C7  IND d   1      -0.488   4.123  -2.207  0.00  0.00    -0.016 A 
ATOM      8  C8  IND d   1      -0.634   3.407  -1.027  0.00  0.00    -0.047 A 
ATOM      9  C9  IND d   1      -0.076   3.845   0.181  0.00  0.00    -0.096 A 
ATOM     10  HN1 IND d   1      -1.663   1.719  -1.360  0.00  0.00     0.298 HD
ENDROOT
TORSDOF 0
ENDMDL
