MODEL 1
REMARK minimizedAffinity 6.4493289
REMARK minimizedRMSD -1
REMARK  0 active torsions:
REMARK  status: ('A' for Active; 'I' for Inactive)
ROOT
ATOM      1  N1  IND d   1      -1.124   3.009  -2.503  0.00  0.00    -0.196 N 
ATOM      2  C2  IND d   1      -1.390   4.018  -3.386  0.00  0.00     0.054 A 
ATOM      3  C3  IND d   1      -0.919   5.193  -2.913  0.00  0.00    -0.031 A 
ATOM      4  C4  IND d   1       0.410   5.676  -0.762  0.00  0.00     0.051 A 
ATOM      5  C5  IND d   1       0.865   5.079   0.380  0.00  0.00    -0.031 A 
ATOM      6  C6  IND d   1       0.678   3.733   0.623  0.00  0.00     0.015 A 
ATOM      7  C7  IND d   1       0.038   2.929  -0.276  0.00  0.00    -0.016 A 
ATOM      8  C8  IND d   1      -0.432   3.533  -1.434  0.00  0.00    -0.047 A 
ATOM      9  C9  IND d   1      -0.283   4.907  -1.667  0.00  0.00    -0.096 A 
ATOM     10  HN1 IND d   1      -1.350   2.185  -2.599  0.00  0.00     0.298 HD
ENDROOT
TORSDOF 0
ENDMDL
