MODEL 1
REMARK minimizedAffinity 11.1194744
REMARK minimizedRMSD -1
REMARK  0 active torsions:
REMARK  status: ('A' for Active; 'I' for Inactive)
ROOT
ATOM      1  N1  IND d   1      -4.766  -5.848   4.425  0.00  0.00    -0.196 N 
ATOM      2  C2  IND d   1      -5.861  -5.923   5.239  0.00  0.00     0.054 A 
ATOM      3  C3  IND d   1      -5.959  -4.809   6.000  0.00  0.00    -0.031 A 
ATOM      4  C4  IND d   1      -4.490  -2.695   6.000  0.00  0.00     0.051 A 
ATOM      5  C5  IND d   1      -3.350  -2.176   5.454  0.00  0.00    -0.031 A 
ATOM      6  C6  IND d   1      -2.610  -2.867   4.516  0.00  0.00     0.015 A 
ATOM      7  C7  IND d   1      -2.991  -4.104   4.079  0.00  0.00    -0.016 A 
ATOM      8  C8  IND d   1      -4.144  -4.637   4.636  0.00  0.00    -0.047 A 
ATOM      9  C9  IND d   1      -4.876  -3.959   5.620  0.00  0.00    -0.096 A 
ATOM     10  HN1 IND d   1      -4.509  -6.455   3.873  0.00  0.00     0.298 HD
ENDROOT
TORSDOF 0
ENDMDL
