MODEL 1
REMARK minimizedAffinity 11.7966976
REMARK minimizedRMSD -1
REMARK  0 active torsions:
REMARK  status: ('A' for Active; 'I' for Inactive)
ROOT
ATOM      1  N1  IND d   1       0.636   3.074   0.794  0.00  0.00    -0.196 N 
ATOM      2  C2  IND d   1       0.029   1.849   0.768  0.00  0.00     0.054 A 
ATOM      3  C3  IND d   1      -0.783   1.749  -0.309  0.00  0.00    -0.031 A 
ATOM      4  C4  IND d   1      -1.188   3.433  -2.214  0.00  0.00     0.051 A 
ATOM      5  C5  IND d   1      -0.885   4.705  -2.609  0.00  0.00    -0.031 A 
ATOM      6  C6  IND d   1      -0.040   5.515  -1.877  0.00  0.00     0.015 A 
ATOM      7  C7  IND d   1       0.544   5.075  -0.723  0.00  0.00    -0.016 A 
ATOM      8  C8  IND d   1       0.233   3.786  -0.315  0.00  0.00    -0.047 A 
ATOM      9  C9  IND d   1      -0.656   2.975  -1.031  0.00  0.00    -0.096 A 
ATOM     10  HN1 IND d   1       1.178   3.353   1.400  0.00  0.00     0.298 HD
ENDROOT
TORSDOF 0
ENDMDL
