MODEL 1
REMARK minimizedAffinity -0.396587521
REMARK minimizedRMSD -1
REMARK  0 active torsions:
REMARK  status: ('A' for Active; 'I' for Inactive)
ROOT
ATOM      1  N1  IND d   1      -1.680  -2.132  -4.883  0.00  0.00    -0.196 N 
ATOM      2  C2  IND d   1      -1.984  -0.983  -5.558  0.00  0.00     0.054 A 
ATOM      3  C3  IND d   1      -0.951  -0.112  -5.494  0.00  0.00    -0.031 A 
ATOM      4  C4  IND d   1       1.371  -0.405  -4.422  0.00  0.00     0.051 A 
ATOM      5  C5  IND d   1       2.103  -1.270  -3.658  0.00  0.00    -0.031 A 
ATOM      6  C6  IND d   1       1.603  -2.492  -3.258  0.00  0.00     0.015 A 
ATOM      7  C7  IND d   1       0.350  -2.901  -3.617  0.00  0.00    -0.016 A 
ATOM      8  C8  IND d   1      -0.399  -2.023  -4.387  0.00  0.00    -0.047 A 
ATOM      9  C9  IND d   1       0.087  -0.764  -4.761  0.00  0.00    -0.096 A 
ATOM     10  HN1 IND d   1      -2.201  -2.809  -4.784  0.00  0.00     0.298 HD
ENDROOT
TORSDOF 0
ENDMDL
