MODEL 1
REMARK minimizedAffinity -2.48216391
REMARK minimizedRMSD -1
REMARK  0 active torsions:
REMARK  status: ('A' for Active; 'I' for Inactive)
ROOT
ATOM      1  N1  IND d   1       0.982   0.847  -0.089  0.00  0.00    -0.196 N 
ATOM      2  C2  IND d   1       1.600   0.092   0.869  0.00  0.00     0.054 A 
ATOM      3  C3  IND d   1       2.730   0.701   1.292  0.00  0.00    -0.031 A 
ATOM      4  C4  IND d   1       3.703   2.989   0.624  0.00  0.00     0.051 A 
ATOM      5  C5  IND d   1       3.512   4.030  -0.241  0.00  0.00    -0.031 A 
ATOM      6  C6  IND d   1       2.445   4.065  -1.115  0.00  0.00     0.015 A 
ATOM      7  C7  IND d   1       1.519   3.061  -1.149  0.00  0.00    -0.016 A 
ATOM      8  C8  IND d   1       1.713   2.000  -0.277  0.00  0.00    -0.047 A 
ATOM      9  C9  IND d   1       2.817   1.938   0.583  0.00  0.00    -0.096 A 
ATOM     10  HN1 IND d   1       0.259   0.638  -0.504  0.00  0.00     0.298 HD
ENDROOT
TORSDOF 0
ENDMDL
