MODEL 1
REMARK minimizedAffinity -0.815848172
REMARK minimizedRMSD -1
REMARK  0 active torsions:
REMARK  status: ('A' for Active; 'I' for Inactive)
ROOT
ATOM      1  N1  IND d   1      -2.280   0.700  -1.565  0.00  0.00    -0.196 N 
ATOM      2  C2  IND d   1      -3.478   0.269  -1.067  0.00  0.00     0.054 A 
ATOM      3  C3  IND d   1      -3.287  -0.440   0.068  0.00  0.00    -0.031 A 
ATOM      4  C4  IND d   1      -1.105  -0.931   1.343  0.00  0.00     0.051 A 
ATOM      5  C5  IND d   1       0.251  -0.777   1.258  0.00  0.00    -0.031 A 
ATOM      6  C6  IND d   1       0.844  -0.106   0.208  0.00  0.00     0.015 A 
ATOM      7  C7  IND d   1       0.099   0.447  -0.795  0.00  0.00    -0.016 A 
ATOM      8  C8  IND d   1      -1.277   0.286  -0.716  0.00  0.00    -0.047 A 
ATOM      9  C9  IND d   1      -1.881  -0.430   0.325  0.00  0.00    -0.096 A 
ATOM     10  HN1 IND d   1      -2.171   1.153  -2.288  0.00  0.00     0.298 HD
ENDROOT
TORSDOF 0
ENDMDL
