MODEL 1
REMARK minimizedAffinity -3.06532741
REMARK minimizedRMSD -1
REMARK  0 active torsions:
REMARK  status: ('A' for Active; 'I' for Inactive)
ROOT
ATOM      1  N1  IND d   1      -1.362  -0.655   2.298  0.00  0.00    -0.196 N 
ATOM      2  C2  IND d   1      -0.746  -0.414   3.494  0.00  0.00     0.054 A 
ATOM      3  C3  IND d   1       0.525   0.002   3.294  0.00  0.00    -0.031 A 
ATOM      4  C4  IND d   1       1.768   0.456   1.085  0.00  0.00     0.051 A 
ATOM      5  C5  IND d   1       1.631   0.346  -0.270  0.00  0.00    -0.031 A 
ATOM      6  C6  IND d   1       0.465  -0.110  -0.850  0.00  0.00     0.015 A 
ATOM      7  C7  IND d   1      -0.616  -0.464  -0.094  0.00  0.00    -0.016 A 
ATOM      8  C8  IND d   1      -0.478  -0.360   1.283  0.00  0.00    -0.047 A 
ATOM      9  C9  IND d   1       0.717   0.062   1.879  0.00  0.00    -0.096 A 
ATOM     10  HN1 IND d   1      -2.165  -0.942   2.197  0.00  0.00     0.298 HD
ENDROOT
TORSDOF 0
ENDMDL
