MODEL 1
REMARK minimizedAffinity -1.78233695
REMARK minimizedRMSD -1
REMARK  0 active torsions:
REMARK  status: ('A' for Active; 'I' for Inactive)
ROOT
ATOM      1  N1  IND d   1       0.597   1.054  -0.485  0.00  0.00    -0.196 N 
ATOM      2  C2  IND d   1       0.962   0.204   0.521  0.00  0.00     0.054 A 
ATOM      3  C3  IND d   1       2.057   0.674   1.160  0.00  0.00    -0.031 A 
ATOM      4  C4  IND d   1       3.353   2.867   0.787  0.00  0.00     0.051 A 
ATOM      5  C5  IND d   1       3.419   3.951  -0.042  0.00  0.00    -0.031 A 
ATOM      6  C6  IND d   1       2.528   4.131  -1.080  0.00  0.00     0.015 A 
ATOM      7  C7  IND d   1       1.526   3.234  -1.322  0.00  0.00    -0.016 A 
ATOM      8  C8  IND d   1       1.461   2.127  -0.487  0.00  0.00    -0.047 A 
ATOM      9  C9  IND d   1       2.388   1.918   0.542  0.00  0.00    -0.096 A 
ATOM     10  HN1 IND d   1      -0.061   0.938  -1.026  0.00  0.00     0.298 HD
ENDROOT
TORSDOF 0
ENDMDL
