MODEL 1
REMARK minimizedAffinity 10.6753407
REMARK minimizedRMSD -1
REMARK  0 active torsions:
REMARK  status: ('A' for Active; 'I' for Inactive)
ROOT
ATOM      1  N1  IND d   1       0.989  -2.976  -5.999  0.00  0.00    -0.196 N 
ATOM      2  C2  IND d   1       1.857  -2.145  -5.348  0.00  0.00     0.054 A 
ATOM      3  C3  IND d   1       1.192  -1.374  -4.458  0.00  0.00    -0.031 A 
ATOM      4  C4  IND d   1      -1.306  -1.380  -3.834  0.00  0.00     0.051 A 
ATOM      5  C5  IND d   1      -2.502  -1.940  -4.185  0.00  0.00    -0.031 A 
ATOM      6  C6  IND d   1      -2.598  -2.895  -5.177  0.00  0.00     0.015 A 
ATOM      7  C7  IND d   1      -1.494  -3.336  -5.850  0.00  0.00    -0.016 A 
ATOM      8  C8  IND d   1      -0.278  -2.765  -5.501  0.00  0.00    -0.047 A 
ATOM      9  C9  IND d   1      -0.181  -1.765  -4.525  0.00  0.00    -0.096 A 
ATOM     10  HN1 IND d   1       1.199  -3.537  -6.617  0.00  0.00     0.298 HD
ENDROOT
TORSDOF 0
ENDMDL
