MODEL 1
REMARK minimizedAffinity 1.142156
REMARK minimizedRMSD -1
REMARK  0 active torsions:
REMARK  status: ('A' for Active; 'I' for Inactive)
ROOT
ATOM      1  N1  IND d   1       2.084  -3.745  -3.577  0.00  0.00    -0.196 N 
ATOM      2  C2  IND d   1       0.728  -3.676  -3.419  0.00  0.00     0.054 A 
ATOM      3  C3  IND d   1       0.380  -2.499  -2.851  0.00  0.00    -0.031 A 
ATOM      4  C4  IND d   1       1.862  -0.499  -2.193  0.00  0.00     0.051 A 
ATOM      5  C5  IND d   1       3.168  -0.107  -2.112  0.00  0.00    -0.031 A 
ATOM      6  C6  IND d   1       4.201  -0.923  -2.526  0.00  0.00     0.015 A 
ATOM      7  C7  IND d   1       3.964  -2.162  -3.050  0.00  0.00    -0.016 A 
ATOM      8  C8  IND d   1       2.639  -2.567  -3.127  0.00  0.00    -0.047 A 
ATOM      9  C9  IND d   1       1.589  -1.760  -2.668  0.00  0.00    -0.096 A 
ATOM     10  HN1 IND d   1       2.518  -4.412  -3.903  0.00  0.00     0.298 HD
ENDROOT
TORSDOF 0
ENDMDL
