MODEL 1
REMARK minimizedAffinity 1.736817
REMARK minimizedRMSD -1
REMARK  0 active torsions:
REMARK  status: ('A' for Active; 'I' for Inactive)
ROOT
ATOM      1  N1  IND d   1       3.301  -1.516  -4.532  0.00  0.00    -0.196 N 
ATOM      2  C2  IND d   1       3.685  -0.300  -4.040  0.00  0.00     0.054 A 
ATOM      3  C3  IND d   1       2.626   0.345  -3.502  0.00  0.00    -0.031 A 
ATOM      4  C4  IND d   1       0.193  -0.451  -3.227  0.00  0.00     0.051 A 
ATOM      5  C5  IND d   1      -0.648  -1.479  -3.554  0.00  0.00    -0.031 A 
ATOM      6  C6  IND d   1      -0.205  -2.594  -4.234  0.00  0.00     0.015 A 
ATOM      7  C7  IND d   1       1.103  -2.730  -4.605  0.00  0.00    -0.016 A 
ATOM      8  C8  IND d   1       1.957  -1.686  -4.282  0.00  0.00    -0.047 A 
ATOM      9  C9  IND d   1       1.505  -0.532  -3.629  0.00  0.00    -0.096 A 
ATOM     10  HN1 IND d   1       3.814  -2.080  -4.931  0.00  0.00     0.298 HD
ENDROOT
TORSDOF 0
ENDMDL
