MODEL 1
REMARK minimizedAffinity -0.482181191
REMARK minimizedRMSD -1
REMARK  0 active torsions:
REMARK  status: ('A' for Active; 'I' for Inactive)
ROOT
ATOM      1  N1  IND d   1      -2.444   2.111   2.733  0.00  0.00    -0.196 N 
ATOM      2  C2  IND d   1      -1.644   1.641   3.736  0.00  0.00     0.054 A 
ATOM      3  C3  IND d   1      -2.351   1.514   4.882  0.00  0.00    -0.031 A 
ATOM      4  C4  IND d   1      -4.856   1.924   5.311  0.00  0.00     0.051 A 
ATOM      5  C5  IND d   1      -5.989   2.394   4.710  0.00  0.00    -0.031 A 
ATOM      6  C6  IND d   1      -6.000   2.800   3.391  0.00  0.00     0.015 A 
ATOM      7  C7  IND d   1      -4.875   2.739   2.618  0.00  0.00    -0.016 A 
ATOM      8  C8  IND d   1      -3.720   2.269   3.228  0.00  0.00    -0.047 A 
ATOM      9  C9  IND d   1      -3.693   1.896   4.578  0.00  0.00    -0.096 A 
ATOM     10  HN1 IND d   1      -2.193   2.279   1.928  0.00  0.00     0.298 HD
ENDROOT
TORSDOF 0
ENDMDL
