MODEL 1
REMARK minimizedAffinity 2.2862761
REMARK minimizedRMSD -1
REMARK  0 active torsions:
REMARK  status: ('A' for Active; 'I' for Inactive)
ROOT
ATOM      1  N1  IND d   1       1.249  -0.577  -2.567  0.00  0.00    -0.196 N 
ATOM      2  C2  IND d   1       2.332  -1.011  -1.854  0.00  0.00     0.054 A 
ATOM      3  C3  IND d   1       2.497  -2.344  -2.014  0.00  0.00    -0.031 A 
ATOM      4  C4  IND d   1       1.169  -3.992  -3.480  0.00  0.00     0.051 A 
ATOM      5  C5  IND d   1       0.068  -4.070  -4.286  0.00  0.00    -0.031 A 
ATOM      6  C6  IND d   1      -0.709  -2.966  -4.569  0.00  0.00     0.015 A 
ATOM      7  C7  IND d   1      -0.406  -1.733  -4.062  0.00  0.00    -0.016 A 
ATOM      8  C8  IND d   1       0.706  -1.651  -3.237  0.00  0.00    -0.047 A 
ATOM      9  C9  IND d   1       1.474  -2.777  -2.913  0.00  0.00    -0.096 A 
ATOM     10  HN1 IND d   1       0.957   0.231  -2.592  0.00  0.00     0.298 HD
ENDROOT
TORSDOF 0
ENDMDL
