MODEL 1
REMARK minimizedAffinity 2.00556803
REMARK minimizedRMSD -1
REMARK  0 active torsions:
REMARK  status: ('A' for Active; 'I' for Inactive)
ROOT
ATOM      1  N1  IND d   1       1.085   1.012  -1.063  0.00  0.00    -0.196 N 
ATOM      2  C2  IND d   1       1.862   2.134  -1.129  0.00  0.00     0.054 A 
ATOM      3  C3  IND d   1       3.027   1.864  -1.760  0.00  0.00    -0.031 A 
ATOM      4  C4  IND d   1       3.824  -0.325  -2.856  0.00  0.00     0.051 A 
ATOM      5  C5  IND d   1       3.475  -1.636  -3.021  0.00  0.00    -0.031 A 
ATOM      6  C6  IND d   1       2.286  -2.141  -2.535  0.00  0.00     0.015 A 
ATOM      7  C7  IND d   1       1.393  -1.347  -1.872  0.00  0.00    -0.016 A 
ATOM      8  C8  IND d   1       1.747  -0.017  -1.696  0.00  0.00    -0.047 A 
ATOM      9  C9  IND d   1       2.971   0.491  -2.150  0.00  0.00    -0.096 A 
ATOM     10  HN1 IND d   1       0.313   0.957  -0.690  0.00  0.00     0.298 HD
ENDROOT
TORSDOF 0
ENDMDL
