MODEL 1
REMARK minimizedAffinity 13.150713
REMARK minimizedRMSD -1
REMARK  0 active torsions:
REMARK  status: ('A' for Active; 'I' for Inactive)
ROOT
ATOM      1  N1  IND d   1       0.793  -2.718  -4.143  0.00  0.00    -0.196 N 
ATOM      2  C2  IND d   1      -0.221  -3.134  -4.960  0.00  0.00     0.054 A 
ATOM      3  C3  IND d   1      -1.384  -2.545  -4.605  0.00  0.00    -0.031 A 
ATOM      4  C4  IND d   1      -1.836  -0.788  -2.778  0.00  0.00     0.051 A 
ATOM      5  C5  IND d   1      -1.230  -0.124  -1.749  0.00  0.00    -0.031 A 
ATOM      6  C6  IND d   1       0.109  -0.291  -1.461  0.00  0.00     0.015 A 
ATOM      7  C7  IND d   1       0.898  -1.125  -2.203  0.00  0.00    -0.016 A 
ATOM      8  C8  IND d   1       0.284  -1.807  -3.244  0.00  0.00    -0.047 A 
ATOM      9  C9  IND d   1      -1.084  -1.673  -3.514  0.00  0.00    -0.096 A 
ATOM     10  HN1 IND d   1       1.610  -2.982  -4.183  0.00  0.00     0.298 HD
ENDROOT
TORSDOF 0
ENDMDL
