MODEL 1
REMARK minimizedAffinity 5.17970181
REMARK minimizedRMSD -1
REMARK  0 active torsions:
REMARK  status: ('A' for Active; 'I' for Inactive)
ROOT
ATOM      1  N1  IND d   1      -1.066   0.571   1.698  0.00  0.00    -0.196 N 
ATOM      2  C2  IND d   1      -0.056  -0.011   0.984  0.00  0.00     0.054 A 
ATOM      3  C3  IND d   1       1.146   0.389   1.458  0.00  0.00    -0.031 A 
ATOM      4  C4  IND d   1       1.689   1.913   3.461  0.00  0.00     0.051 A 
ATOM      5  C5  IND d   1       1.097   2.711   4.398  0.00  0.00    -0.031 A 
ATOM      6  C6  IND d   1      -0.274   2.838   4.488  0.00  0.00     0.015 A 
ATOM      7  C7  IND d   1      -1.108   2.158   3.646  0.00  0.00    -0.016 A 
ATOM      8  C8  IND d   1      -0.510   1.352   2.687  0.00  0.00    -0.047 A 
ATOM      9  C9  IND d   1       0.881   1.253   2.565  0.00  0.00    -0.096 A 
ATOM     10  HN1 IND d   1      -1.907   0.467   1.553  0.00  0.00     0.298 HD
ENDROOT
TORSDOF 0
ENDMDL
