MODEL 1
REMARK minimizedAffinity 3.97609973
REMARK minimizedRMSD -1
REMARK  0 active torsions:
REMARK  status: ('A' for Active; 'I' for Inactive)
ROOT
ATOM      1  N1  IND d   1      -1.325  -5.999   2.128  0.00  0.00    -0.196 N 
ATOM      2  C2  IND d   1      -0.395  -5.016   2.319  0.00  0.00     0.054 A 
ATOM      3  C3  IND d   1      -0.894  -3.817   1.942  0.00  0.00    -0.031 A 
ATOM      4  C4  IND d   1      -3.246  -3.223   1.080  0.00  0.00     0.051 A 
ATOM      5  C5  IND d   1      -4.431  -3.790   0.704  0.00  0.00    -0.031 A 
ATOM      6  C6  IND d   1      -4.646  -5.151   0.788  0.00  0.00     0.015 A 
ATOM      7  C7  IND d   1      -3.685  -5.996   1.264  0.00  0.00    -0.016 A 
ATOM      8  C8  IND d   1      -2.478  -5.424   1.640  0.00  0.00    -0.047 A 
ATOM      9  C9  IND d   1      -2.238  -4.049   1.517  0.00  0.00    -0.096 A 
ATOM     10  HN1 IND d   1      -1.210  -6.837   2.287  0.00  0.00     0.298 HD
ENDROOT
TORSDOF 0
ENDMDL
