MODEL 1
REMARK minimizedAffinity -1.4408164
REMARK minimizedRMSD -1
REMARK  0 active torsions:
REMARK  status: ('A' for Active; 'I' for Inactive)
ROOT
ATOM      1  N1  IND d   1      -4.632  -5.927   0.862  0.00  0.00    -0.196 N 
ATOM      2  C2  IND d   1      -5.416  -4.925   0.362  0.00  0.00     0.054 A 
ATOM      3  C3  IND d   1      -4.743  -3.752   0.372  0.00  0.00    -0.031 A 
ATOM      4  C4  IND d   1      -2.313  -3.267   1.068  0.00  0.00     0.051 A 
ATOM      5  C5  IND d   1      -1.213  -3.857   1.624  0.00  0.00    -0.031 A 
ATOM      6  C6  IND d   1      -1.195  -5.196   1.959  0.00  0.00     0.015 A 
ATOM      7  C7  IND d   1      -2.278  -6.000   1.738  0.00  0.00    -0.016 A 
ATOM      8  C8  IND d   1      -3.399  -5.402   1.180  0.00  0.00    -0.047 A 
ATOM      9  C9  IND d   1      -3.437  -4.034   0.877  0.00  0.00    -0.096 A 
ATOM     10  HN1 IND d   1      -4.869  -6.748   0.960  0.00  0.00     0.298 HD
ENDROOT
TORSDOF 0
ENDMDL
