MODEL 1
REMARK minimizedAffinity 8.29745197
REMARK minimizedRMSD -1
REMARK  0 active torsions:
REMARK  status: ('A' for Active; 'I' for Inactive)
ROOT
ATOM      1  N1  IND d   1      -1.351   1.870   3.094  0.00  0.00    -0.196 N 
ATOM      2  C2  IND d   1      -0.335   1.872   4.009  0.00  0.00     0.054 A 
ATOM      3  C3  IND d   1      -0.819   1.645   5.250  0.00  0.00    -0.031 A 
ATOM      4  C4  IND d   1      -3.230   1.142   6.000  0.00  0.00     0.051 A 
ATOM      5  C5  IND d   1      -4.511   1.070   5.530  0.00  0.00    -0.031 A 
ATOM      6  C6  IND d   1      -4.810   1.262   4.196  0.00  0.00     0.015 A 
ATOM      7  C7  IND d   1      -3.834   1.523   3.277  0.00  0.00    -0.016 A 
ATOM      8  C8  IND d   1      -2.532   1.604   3.752  0.00  0.00    -0.047 A 
ATOM      9  C9  IND d   1      -2.227   1.452   5.111  0.00  0.00    -0.096 A 
ATOM     10  HN1 IND d   1      -1.267   2.011   2.250  0.00  0.00     0.298 HD
ENDROOT
TORSDOF 0
ENDMDL
