MODEL 1
REMARK minimizedAffinity 2.91850448
REMARK minimizedRMSD -1
REMARK  0 active torsions:
REMARK  status: ('A' for Active; 'I' for Inactive)
ROOT
ATOM      1  N1  IND d   1       0.704  -5.999   1.415  0.00  0.00    -0.196 N 
ATOM      2  C2  IND d   1      -0.514  -5.496   1.777  0.00  0.00     0.054 A 
ATOM      3  C3  IND d   1      -0.433  -4.892   2.984  0.00  0.00    -0.031 A 
ATOM      4  C4  IND d   1       1.618  -4.524   4.495  0.00  0.00     0.051 A 
ATOM      5  C5  IND d   1       2.944  -4.836   4.606  0.00  0.00    -0.031 A 
ATOM      6  C6  IND d   1       3.606  -5.564   3.638  0.00  0.00     0.015 A 
ATOM      7  C7  IND d   1       2.965  -5.999   2.512  0.00  0.00    -0.016 A 
ATOM      8  C8  IND d   1       1.617  -5.691   2.400  0.00  0.00    -0.047 A 
ATOM      9  C9  IND d   1       0.930  -4.989   3.399  0.00  0.00    -0.096 A 
ATOM     10  HN1 IND d   1       0.872  -6.435   0.693  0.00  0.00     0.298 HD
ENDROOT
TORSDOF 0
ENDMDL
