MODEL 1
REMARK minimizedAffinity 7.47534466
REMARK minimizedRMSD -1
REMARK  0 active torsions:
REMARK  status: ('A' for Active; 'I' for Inactive)
ROOT
ATOM      1  C   UNL d   1       2.147   0.553  -2.485  0.00  0.00     0.020 A 
ATOM      2  C1  UNL d   1       1.992  -0.700  -1.893  0.00  0.00     0.020 A 
ATOM      3  C2  UNL d   1       2.110  -0.838  -0.508  0.00  0.00     0.034 A 
ATOM      4  C3  UNL d   1       2.383   0.280   0.289  0.00  0.00     0.017 A 
ATOM      5  C4  UNL d   1       2.538   1.537  -0.305  0.00  0.00     0.017 A 
ATOM      6  C5  UNL d   1       2.419   1.669  -1.692  0.00  0.00     0.034 A 
ATOM      7 Cl   UNL d   1       2.876   2.961   0.613  0.00  0.00    -0.070 Cl
ATOM      8 Cl1  UNL d   1       2.514   0.036   1.995  0.00  0.00    -0.070 Cl
ENDROOT
TORSDOF 0
ENDMDL
