MODEL 1
REMARK minimizedAffinity 6.97951794
REMARK minimizedRMSD -1
REMARK  0 active torsions:
REMARK  status: ('A' for Active; 'I' for Inactive)
ROOT
ATOM      1  C   UNL d   1      -0.088  -1.022   3.282  0.00  0.00     0.020 A 
ATOM      2  C1  UNL d   1       1.301  -1.033   3.154  0.00  0.00     0.020 A 
ATOM      3  C2  UNL d   1       1.885  -1.066   1.886  0.00  0.00     0.034 A 
ATOM      4  C3  UNL d   1       1.080  -1.087   0.741  0.00  0.00     0.017 A 
ATOM      5  C4  UNL d   1      -0.313  -1.076   0.870  0.00  0.00     0.017 A 
ATOM      6  C5  UNL d   1      -0.893  -1.043   2.142  0.00  0.00     0.034 A 
ATOM      7 Cl   UNL d   1      -1.371  -1.100  -0.496  0.00  0.00    -0.070 Cl
ATOM      8 Cl1  UNL d   1       1.870  -1.126  -0.796  0.00  0.00    -0.070 Cl
ENDROOT
TORSDOF 0
ENDMDL
