MODEL 1
REMARK minimizedAffinity 1.2487793
REMARK minimizedRMSD -1
REMARK  0 active torsions:
REMARK  status: ('A' for Active; 'I' for Inactive)
ROOT
ATOM      1  C   UNL d   1       2.533  -1.116  -1.117  0.00  0.00     0.020 A 
ATOM      2  C1  UNL d   1       1.374  -0.883  -1.855  0.00  0.00     0.020 A 
ATOM      3  C2  UNL d   1       0.122  -1.016  -1.250  0.00  0.00     0.034 A 
ATOM      4  C3  UNL d   1       0.027  -1.384   0.097  0.00  0.00     0.017 A 
ATOM      5  C4  UNL d   1       1.192  -1.618   0.837  0.00  0.00     0.017 A 
ATOM      6  C5  UNL d   1       2.443  -1.483   0.227  0.00  0.00     0.034 A 
ATOM      7 Cl   UNL d   1       1.155  -2.076   2.504  0.00  0.00    -0.070 Cl
ATOM      8 Cl1  UNL d   1      -1.553  -1.531   0.781  0.00  0.00    -0.070 Cl
ENDROOT
TORSDOF 0
ENDMDL
