MODEL 1
REMARK minimizedAffinity 1.36548722
REMARK minimizedRMSD -1
REMARK  0 active torsions:
REMARK  status: ('A' for Active; 'I' for Inactive)
ROOT
ATOM      1  C   UNL d   1       2.394  -1.464   1.026  0.00  0.00     0.020 A 
ATOM      2  C1  UNL d   1       2.350  -2.844   1.218  0.00  0.00     0.020 A 
ATOM      3  C2  UNL d   1       1.363  -3.406   2.029  0.00  0.00     0.034 A 
ATOM      4  C3  UNL d   1       0.414  -2.587   2.653  0.00  0.00     0.017 A 
ATOM      5  C4  UNL d   1       0.459  -1.201   2.460  0.00  0.00     0.017 A 
ATOM      6  C5  UNL d   1       1.450  -0.644   1.646  0.00  0.00     0.034 A 
ATOM      7 Cl   UNL d   1      -0.677  -0.126   3.195  0.00  0.00    -0.070 Cl
ATOM      8 Cl1  UNL d   1      -0.779  -3.349   3.643  0.00  0.00    -0.070 Cl
ENDROOT
TORSDOF 0
ENDMDL
