MODEL 1
REMARK minimizedAffinity 6.94954586
REMARK minimizedRMSD -1
REMARK  0 active torsions:
REMARK  status: ('A' for Active; 'I' for Inactive)
ROOT
ATOM      1  C   UNL d   1       2.174  -1.214   2.562  0.00  0.00     0.020 A 
ATOM      2  C1  UNL d   1       1.854  -0.408   3.653  0.00  0.00     0.020 A 
ATOM      3  C2  UNL d   1       0.583   0.163   3.751  0.00  0.00     0.034 A 
ATOM      4  C3  UNL d   1      -0.372  -0.071   2.756  0.00  0.00     0.017 A 
ATOM      5  C4  UNL d   1      -0.050  -0.882   1.661  0.00  0.00     0.017 A 
ATOM      6  C5  UNL d   1       1.223  -1.451   1.568  0.00  0.00     0.034 A 
ATOM      7 Cl   UNL d   1      -1.176  -1.217   0.393  0.00  0.00    -0.070 Cl
ATOM      8 Cl1  UNL d   1      -1.924   0.666   2.941  0.00  0.00    -0.070 Cl
ENDROOT
TORSDOF 0
ENDMDL
