MODEL 1
REMARK minimizedAffinity 8.57998753
REMARK minimizedRMSD -1
REMARK  0 active torsions:
REMARK  status: ('A' for Active; 'I' for Inactive)
ROOT
ATOM      1  C   UNL d   1      -0.442  -0.051   3.948  0.00  0.00     0.020 A 
ATOM      2  C1  UNL d   1      -1.586   0.324   3.244  0.00  0.00     0.020 A 
ATOM      3  C2  UNL d   1      -1.767  -0.106   1.928  0.00  0.00     0.034 A 
ATOM      4  C3  UNL d   1      -0.804  -0.914   1.312  0.00  0.00     0.017 A 
ATOM      5  C4  UNL d   1       0.343  -1.289   2.020  0.00  0.00     0.017 A 
ATOM      6  C5  UNL d   1       0.520  -0.856   3.337  0.00  0.00     0.034 A 
ATOM      7 Cl   UNL d   1       1.576  -2.284   1.327  0.00  0.00    -0.070 Cl
ATOM      8 Cl1  UNL d   1      -1.094  -1.409  -0.318  0.00  0.00    -0.070 Cl
ENDROOT
TORSDOF 0
ENDMDL
