MODEL 1
REMARK minimizedAffinity 1.39165235
REMARK minimizedRMSD -1
REMARK  0 active torsions:
REMARK  status: ('A' for Active; 'I' for Inactive)
ROOT
ATOM      1  C   UNL d   1       1.687  -1.973   3.242  0.00  0.00     0.020 A 
ATOM      2  C1  UNL d   1       0.543  -1.220   2.978  0.00  0.00     0.020 A 
ATOM      3  C2  UNL d   1       0.281  -0.780   1.679  0.00  0.00     0.034 A 
ATOM      4  C3  UNL d   1       1.165  -1.093   0.639  0.00  0.00     0.017 A 
ATOM      5  C4  UNL d   1       2.312  -1.848   0.905  0.00  0.00     0.017 A 
ATOM      6  C5  UNL d   1       2.569  -2.286   2.208  0.00  0.00     0.034 A 
ATOM      7 Cl   UNL d   1       3.448  -2.273  -0.326  0.00  0.00    -0.070 Cl
ATOM      8 Cl1  UNL d   1       0.778  -0.516  -0.943  0.00  0.00    -0.070 Cl
ENDROOT
TORSDOF 0
ENDMDL
