MODEL 1
REMARK minimizedAffinity 2.63136721
REMARK minimizedRMSD -1
REMARK  0 active torsions:
REMARK  status: ('A' for Active; 'I' for Inactive)
ROOT
ATOM      1  C   UNL d   1       3.687  -2.936   0.597  0.00  0.00     0.020 A 
ATOM      2  C1  UNL d   1       3.306  -2.999   1.937  0.00  0.00     0.020 A 
ATOM      3  C2  UNL d   1       2.232  -2.233   2.395  0.00  0.00     0.034 A 
ATOM      4  C3  UNL d   1       1.535  -1.400   1.512  0.00  0.00     0.017 A 
ATOM      5  C4  UNL d   1       1.918  -1.337   0.167  0.00  0.00     0.017 A 
ATOM      6  C5  UNL d   1       2.994  -2.106  -0.285  0.00  0.00     0.034 A 
ATOM      7 Cl   UNL d   1       1.107  -0.332  -0.981  0.00  0.00    -0.070 Cl
ATOM      8 Cl1  UNL d   1       0.217  -0.481   2.146  0.00  0.00    -0.070 Cl
ENDROOT
TORSDOF 0
ENDMDL
