MODEL 1
REMARK minimizedAffinity 5.66904163
REMARK minimizedRMSD -1
REMARK  0 active torsions:
REMARK  status: ('A' for Active; 'I' for Inactive)
ROOT
ATOM      1  C   UNL d   1       1.278  -1.021   3.361  0.00  0.00     0.020 A 
ATOM      2  C1  UNL d   1       0.020  -0.504   3.056  0.00  0.00     0.020 A 
ATOM      3  C2  UNL d   1      -0.369  -0.354   1.724  0.00  0.00     0.034 A 
ATOM      4  C3  UNL d   1       0.500  -0.723   0.691  0.00  0.00     0.017 A 
ATOM      5  C4  UNL d   1       1.763  -1.242   0.998  0.00  0.00     0.017 A 
ATOM      6  C5  UNL d   1       2.148  -1.390   2.334  0.00  0.00     0.034 A 
ATOM      7 Cl   UNL d   1       2.891  -1.719  -0.222  0.00  0.00    -0.070 Cl
ATOM      8 Cl1  UNL d   1      -0.047  -0.510  -0.934  0.00  0.00    -0.070 Cl
ENDROOT
TORSDOF 0
ENDMDL
