MODEL 1
REMARK minimizedAffinity 5.51733208
REMARK minimizedRMSD -1
REMARK  0 active torsions:
REMARK  status: ('A' for Active; 'I' for Inactive)
ROOT
ATOM      1  C   UNL d   1       1.875  -1.557   3.217  0.00  0.00     0.020 A 
ATOM      2  C1  UNL d   1       1.425  -0.722   4.239  0.00  0.00     0.020 A 
ATOM      3  C2  UNL d   1       0.230  -0.015   4.088  0.00  0.00     0.034 A 
ATOM      4  C3  UNL d   1      -0.519  -0.142   2.913  0.00  0.00     0.017 A 
ATOM      5  C4  UNL d   1      -0.066  -0.981   1.888  0.00  0.00     0.017 A 
ATOM      6  C5  UNL d   1       1.131  -1.686   2.044  0.00  0.00     0.034 A 
ATOM      7 Cl   UNL d   1      -0.936  -1.189   0.409  0.00  0.00    -0.070 Cl
ATOM      8 Cl1  UNL d   1      -1.987   0.761   2.794  0.00  0.00    -0.070 Cl
ENDROOT
TORSDOF 0
ENDMDL
