MODEL 1
REMARK minimizedAffinity -3.24270821
REMARK minimizedRMSD -1
REMARK  1 active torsions:
REMARK  status: ('A' for Active; 'I' for Inactive)
REMARK    1  A    between atoms: C3_4  and  O_7 
ROOT
ATOM      1  C   UNL d   1      -5.991  -4.106  -5.983  0.00  0.00    -0.033 A 
ATOM      2  C1  UNL d   1      -5.613  -3.239  -4.956  0.00  0.00     0.039 A 
ATOM      3  C2  UNL d   1      -5.247  -3.750  -3.709  0.00  0.00    -0.080 A 
ATOM      4  C3  UNL d   1      -5.262  -5.126  -3.503  0.00  0.00     0.150 A 
ATOM      5  C4  UNL d   1      -5.633  -5.996  -4.523  0.00  0.00    -0.007 A 
ATOM      6  C5  UNL d   1      -5.999  -5.485  -5.767  0.00  0.00     0.039 A 
ENDROOT
BRANCH   4   7
ATOM      7  O   UNL d   1      -4.917  -5.671  -2.301  0.00  0.00    -0.526 OA
ATOM      8  H5  UNL d   1      -4.711  -4.949  -1.684  0.00  0.00     0.418 HD
ENDBRANCH   4   7
TORSDOF 1
ENDMDL
