MODEL 1
REMARK minimizedAffinity -2.34819722
REMARK minimizedRMSD -1
REMARK  1 active torsions:
REMARK  status: ('A' for Active; 'I' for Inactive)
REMARK    1  A    between atoms: C3_4  and  O_7 
ROOT
ATOM      1  C   UNL d   1      -5.653  -4.283  -5.739  0.00  0.00    -0.033 A 
ATOM      2  C1  UNL d   1      -6.000  -3.433  -4.687  0.00  0.00     0.039 A 
ATOM      3  C2  UNL d   1      -5.872  -3.866  -3.366  0.00  0.00    -0.080 A 
ATOM      4  C3  UNL d   1      -5.396  -5.149  -3.110  0.00  0.00     0.150 A 
ATOM      5  C4  UNL d   1      -5.045  -6.000  -4.153  0.00  0.00    -0.007 A 
ATOM      6  C5  UNL d   1      -5.174  -5.566  -5.472  0.00  0.00     0.039 A 
ENDROOT
BRANCH   4   7
ATOM      7  O   UNL d   1      -5.259  -5.618  -1.838  0.00  0.00    -0.526 OA
ATOM      8  H5  UNL d   1      -5.567  -4.932  -1.222  0.00  0.00     0.418 HD
ENDBRANCH   4   7
TORSDOF 1
ENDMDL
