MODEL 1
REMARK minimizedAffinity 4.75619698
REMARK minimizedRMSD -1
REMARK  1 active torsions:
REMARK  status: ('A' for Active; 'I' for Inactive)
REMARK    1  A    between atoms: C3_4  and  O_7 
ROOT
ATOM      1  C   UNL d   1      -6.000  -1.133   3.505  0.00  0.00    -0.033 A 
ATOM      2  C1  UNL d   1      -5.645  -1.646   2.256  0.00  0.00     0.039 A 
ATOM      3  C2  UNL d   1      -4.506  -1.171   1.602  0.00  0.00    -0.080 A 
ATOM      4  C3  UNL d   1      -3.732  -0.185   2.207  0.00  0.00     0.150 A 
ATOM      5  C4  UNL d   1      -4.078   0.329   3.453  0.00  0.00    -0.007 A 
ATOM      6  C5  UNL d   1      -5.216  -0.146   4.104  0.00  0.00     0.039 A 
ENDROOT
BRANCH   4   7
ATOM      7  O   UNL d   1      -2.615   0.314   1.605  0.00  0.00    -0.526 OA
ATOM      8  H5  UNL d   1      -2.516  -0.113   0.738  0.00  0.00     0.418 HD
ENDBRANCH   4   7
TORSDOF 1
ENDMDL
