MODEL 1
REMARK minimizedAffinity -2.13582063
REMARK minimizedRMSD -1
REMARK  1 active torsions:
REMARK  status: ('A' for Active; 'I' for Inactive)
REMARK    1  A    between atoms: C3_4  and  O_7 
ROOT
ATOM      1  C   UNL d   1      -6.000  -4.162  -5.366  0.00  0.00    -0.033 A 
ATOM      2  C1  UNL d   1      -5.990  -3.320  -4.253  0.00  0.00     0.039 A 
ATOM      3  C2  UNL d   1      -5.617  -3.817  -3.002  0.00  0.00    -0.080 A 
ATOM      4  C3  UNL d   1      -5.256  -5.156  -2.879  0.00  0.00     0.150 A 
ATOM      5  C4  UNL d   1      -5.260  -6.000  -3.985  0.00  0.00    -0.007 A 
ATOM      6  C5  UNL d   1      -5.634  -5.502  -5.233  0.00  0.00     0.039 A 
ENDROOT
BRANCH   4   7
ATOM      7  O   UNL d   1      -4.890  -5.688  -1.679  0.00  0.00    -0.526 OA
ATOM      8  H5  UNL d   1      -4.962  -4.996  -1.001  0.00  0.00     0.418 HD
ENDBRANCH   4   7
TORSDOF 1
ENDMDL
