MODEL 1
REMARK minimizedAffinity 6.04684687
REMARK minimizedRMSD -1
REMARK  1 active torsions:
REMARK  status: ('A' for Active; 'I' for Inactive)
REMARK    1  A    between atoms: C3_4  and  O_7 
ROOT
ATOM      1  C   UNL d   1      -4.700  -5.993  -3.010  0.00  0.00    -0.033 A 
ATOM      2  C1  UNL d   1      -5.521  -5.992  -4.139  0.00  0.00     0.039 A 
ATOM      3  C2  UNL d   1      -5.967  -4.783  -4.678  0.00  0.00    -0.080 A 
ATOM      4  C3  UNL d   1      -5.585  -3.586  -4.080  0.00  0.00     0.150 A 
ATOM      5  C4  UNL d   1      -4.763  -3.580  -2.958  0.00  0.00    -0.007 A 
ATOM      6  C5  UNL d   1      -4.320  -4.787  -2.420  0.00  0.00     0.039 A 
ENDROOT
BRANCH   4   7
ATOM      7  O   UNL d   1      -5.999  -2.382  -4.568  0.00  0.00    -0.526 OA
ATOM      8  H5  UNL d   1      -6.583  -2.542  -5.327  0.00  0.00     0.418 HD
ENDBRANCH   4   7
TORSDOF 1
ENDMDL
