MODEL 1
REMARK minimizedAffinity 0.414041966
REMARK minimizedRMSD -1
REMARK  1 active torsions:
REMARK  status: ('A' for Active; 'I' for Inactive)
REMARK    1  A    between atoms: C3_4  and  O_7 
ROOT
ATOM      1  C   UNL d   1      -4.023   0.096   3.894  0.00  0.00    -0.033 A 
ATOM      2  C1  UNL d   1      -3.352  -0.371   2.762  0.00  0.00     0.039 A 
ATOM      3  C2  UNL d   1      -4.003  -1.214   1.860  0.00  0.00    -0.080 A 
ATOM      4  C3  UNL d   1      -5.324  -1.583   2.101  0.00  0.00     0.150 A 
ATOM      5  C4  UNL d   1      -6.000  -1.120   3.224  0.00  0.00    -0.007 A 
ATOM      6  C5  UNL d   1      -5.348  -0.278   4.124  0.00  0.00     0.039 A 
ENDROOT
BRANCH   4   7
ATOM      7  O   UNL d   1      -5.999  -2.409   1.251  0.00  0.00    -0.526 OA
ATOM      8  H5  UNL d   1      -5.398  -2.673   0.535  0.00  0.00     0.418 HD
ENDBRANCH   4   7
TORSDOF 1
ENDMDL
