MODEL 1
REMARK minimizedAffinity 6.32748508
REMARK minimizedRMSD -1
REMARK  1 active torsions:
REMARK  status: ('A' for Active; 'I' for Inactive)
REMARK    1  A    between atoms: C3_4  and  O_7 
ROOT
ATOM      1  C   UNL d   1      -5.999  -1.856   3.177  0.00  0.00    -0.033 A 
ATOM      2  C1  UNL d   1      -5.042  -1.460   4.113  0.00  0.00     0.039 A 
ATOM      3  C2  UNL d   1      -3.937  -0.709   3.708  0.00  0.00    -0.080 A 
ATOM      4  C3  UNL d   1      -3.801  -0.360   2.367  0.00  0.00     0.150 A 
ATOM      5  C4  UNL d   1      -4.753  -0.747   1.430  0.00  0.00    -0.007 A 
ATOM      6  C5  UNL d   1      -5.856  -1.498   1.836  0.00  0.00     0.039 A 
ENDROOT
BRANCH   4   7
ATOM      7  O   UNL d   1      -2.737   0.368   1.925  0.00  0.00    -0.526 OA
ATOM      8  H5  UNL d   1      -2.147   0.540   2.677  0.00  0.00     0.418 HD
ENDBRANCH   4   7
TORSDOF 1
ENDMDL
