MODEL 1
REMARK minimizedAffinity -2.39462304
REMARK minimizedRMSD -1
REMARK  1 active torsions:
REMARK  status: ('A' for Active; 'I' for Inactive)
REMARK    1  A    between atoms: C3_4  and  O_7 
ROOT
ATOM      1  C   UNL d   1      -5.978  -4.448  -5.970  0.00  0.00    -0.033 A 
ATOM      2  C1  UNL d   1      -5.398  -3.408  -5.240  0.00  0.00     0.039 A 
ATOM      3  C2  UNL d   1      -4.843  -3.659  -3.984  0.00  0.00    -0.080 A 
ATOM      4  C3  UNL d   1      -4.872  -4.952  -3.471  0.00  0.00     0.150 A 
ATOM      5  C4  UNL d   1      -5.444  -5.994  -4.194  0.00  0.00    -0.007 A 
ATOM      6  C5  UNL d   1      -5.999  -5.741  -5.447  0.00  0.00     0.039 A 
ENDROOT
BRANCH   4   7
ATOM      7  O   UNL d   1      -4.347  -5.245  -2.247  0.00  0.00    -0.526 OA
ATOM      8  H5  UNL d   1      -4.013  -4.423  -1.851  0.00  0.00     0.418 HD
ENDBRANCH   4   7
TORSDOF 1
ENDMDL
