MODEL 1
REMARK minimizedAffinity -0.769063473
REMARK minimizedRMSD -1
REMARK  1 active torsions:
REMARK  status: ('A' for Active; 'I' for Inactive)
REMARK    1  A    between atoms: C3_4  and  O_7 
ROOT
ATOM      1  C   UNL d   1      -5.997  -3.863  -6.000  0.00  0.00    -0.033 A 
ATOM      2  C1  UNL d   1      -6.000  -5.260  -5.998  0.00  0.00     0.039 A 
ATOM      3  C2  UNL d   1      -5.541  -5.959  -4.879  0.00  0.00    -0.080 A 
ATOM      4  C3  UNL d   1      -5.085  -5.251  -3.771  0.00  0.00     0.150 A 
ATOM      5  C4  UNL d   1      -5.083  -3.860  -3.765  0.00  0.00    -0.007 A 
ATOM      6  C5  UNL d   1      -5.540  -3.163  -4.883  0.00  0.00     0.039 A 
ENDROOT
BRANCH   4   7
ATOM      7  O   UNL d   1      -4.623  -5.889  -2.658  0.00  0.00    -0.526 OA
ATOM      8  H5  UNL d   1      -4.657  -6.847  -2.817  0.00  0.00     0.418 HD
ENDBRANCH   4   7
TORSDOF 1
ENDMDL
