MODEL 1
REMARK minimizedAffinity 3.66030836
REMARK minimizedRMSD -1
REMARK  1 active torsions:
REMARK  status: ('A' for Active; 'I' for Inactive)
REMARK    1  A    between atoms: C3_4  and  O_7 
ROOT
ATOM      1  C   UNL d   1       2.702  -1.368  -1.374  0.00  0.00    -0.033 A 
ATOM      2  C1  UNL d   1       2.624  -2.678  -0.896  0.00  0.00     0.039 A 
ATOM      3  C2  UNL d   1       1.913  -3.643  -1.612  0.00  0.00    -0.080 A 
ATOM      4  C3  UNL d   1       1.286  -3.286  -2.803  0.00  0.00     0.150 A 
ATOM      5  C4  UNL d   1       1.363  -1.984  -3.286  0.00  0.00    -0.007 A 
ATOM      6  C5  UNL d   1       2.072  -1.021  -2.569  0.00  0.00     0.039 A 
ENDROOT
BRANCH   4   7
ATOM      7  O   UNL d   1       0.577  -4.192  -3.534  0.00  0.00    -0.526 OA
ATOM      8  H5  UNL d   1       0.586  -5.042  -3.063  0.00  0.00     0.418 HD
ENDBRANCH   4   7
TORSDOF 1
ENDMDL
