MODEL 1
REMARK minimizedAffinity -2.31460667
REMARK minimizedRMSD -1
REMARK  1 active torsions:
REMARK  status: ('A' for Active; 'I' for Inactive)
REMARK    1  A    between atoms: C3_4  and  O_7 
ROOT
ATOM      1  C   UNL d   1      -5.996  -4.001  -5.698  0.00  0.00    -0.033 A 
ATOM      2  C1  UNL d   1      -5.999  -5.392  -5.583  0.00  0.00     0.039 A 
ATOM      3  C2  UNL d   1      -5.505  -6.000  -4.427  0.00  0.00    -0.080 A 
ATOM      4  C3  UNL d   1      -5.012  -5.206  -3.395  0.00  0.00     0.150 A 
ATOM      5  C4  UNL d   1      -5.010  -3.819  -3.502  0.00  0.00    -0.007 A 
ATOM      6  C5  UNL d   1      -5.503  -3.214  -4.657  0.00  0.00     0.039 A 
ENDROOT
BRANCH   4   7
ATOM      7  O   UNL d   1      -4.515  -5.753  -2.250  0.00  0.00    -0.526 OA
ATOM      8  H5  UNL d   1      -4.555  -6.721  -2.329  0.00  0.00     0.418 HD
ENDBRANCH   4   7
TORSDOF 1
ENDMDL
