MODEL 1
REMARK minimizedAffinity -1.3865037
REMARK minimizedRMSD -1
REMARK  1 active torsions:
REMARK  status: ('A' for Active; 'I' for Inactive)
REMARK    1  A    between atoms: C3_4  and  O_7 
ROOT
ATOM      1  C   UNL d   1      -5.156  -5.978  -4.769  0.00  0.00    -0.033 A 
ATOM      2  C1  UNL d   1      -5.710  -4.918  -5.488  0.00  0.00     0.039 A 
ATOM      3  C2  UNL d   1      -6.000  -3.712  -4.846  0.00  0.00    -0.080 A 
ATOM      4  C3  UNL d   1      -5.729  -3.580  -3.487  0.00  0.00     0.150 A 
ATOM      5  C4  UNL d   1      -5.173  -4.632  -2.765  0.00  0.00    -0.007 A 
ATOM      6  C5  UNL d   1      -4.886  -5.835  -3.408  0.00  0.00     0.039 A 
ENDROOT
BRANCH   4   7
ATOM      7  O   UNL d   1      -5.999  -2.425  -2.815  0.00  0.00    -0.526 OA
ATOM      8  H5  UNL d   1      -6.407  -1.797  -3.435  0.00  0.00     0.418 HD
ENDBRANCH   4   7
TORSDOF 1
ENDMDL
