MODEL 1
REMARK minimizedAffinity 0.0976383984
REMARK minimizedRMSD -1
REMARK  1 active torsions:
REMARK  status: ('A' for Active; 'I' for Inactive)
REMARK    1  A    between atoms: C3_4  and  O_7 
ROOT
ATOM      1  C   UNL d   1      -6.000  -4.393  -6.000  0.00  0.00    -0.033 A 
ATOM      2  C1  UNL d   1      -5.617  -3.350  -5.154  0.00  0.00     0.039 A 
ATOM      3  C2  UNL d   1      -5.069  -3.630  -3.901  0.00  0.00    -0.080 A 
ATOM      4  C3  UNL d   1      -4.909  -4.956  -3.506  0.00  0.00     0.150 A 
ATOM      5  C4  UNL d   1      -5.284  -6.000  -4.345  0.00  0.00    -0.007 A 
ATOM      6  C5  UNL d   1      -5.832  -5.718  -5.596  0.00  0.00     0.039 A 
ENDROOT
BRANCH   4   7
ATOM      7  O   UNL d   1      -4.383  -5.279  -2.291  0.00  0.00    -0.526 OA
ATOM      8  H5  UNL d   1      -4.197  -4.456  -1.808  0.00  0.00     0.418 HD
ENDBRANCH   4   7
TORSDOF 1
ENDMDL
