MODEL 1
REMARK minimizedAffinity 1.70086586
REMARK minimizedRMSD -1
REMARK  1 active torsions:
REMARK  status: ('A' for Active; 'I' for Inactive)
REMARK    1  A    between atoms: C3_4  and  O_7 
ROOT
ATOM      1  C   UNL d   1      -6.000  -4.143  -5.568  0.00  0.00    -0.033 A 
ATOM      2  C1  UNL d   1      -5.691  -3.259  -4.532  0.00  0.00     0.039 A 
ATOM      3  C2  UNL d   1      -5.180  -3.745  -3.327  0.00  0.00    -0.080 A 
ATOM      4  C3  UNL d   1      -4.982  -5.114  -3.171  0.00  0.00     0.150 A 
ATOM      5  C4  UNL d   1      -5.284  -6.000  -4.200  0.00  0.00    -0.007 A 
ATOM      6  C5  UNL d   1      -5.795  -5.513  -5.403  0.00  0.00     0.039 A 
ENDROOT
BRANCH   4   7
ATOM      7  O   UNL d   1      -4.490  -5.636  -2.012  0.00  0.00    -0.526 OA
ATOM      8  H5  UNL d   1      -4.354  -4.909  -1.381  0.00  0.00     0.418 HD
ENDBRANCH   4   7
TORSDOF 1
ENDMDL
