MODEL 1
REMARK minimizedAffinity -0.873562515
REMARK minimizedRMSD -1
REMARK  1 active torsions:
REMARK  status: ('A' for Active; 'I' for Inactive)
REMARK    1  A    between atoms: C3_4  and  O_7 
ROOT
ATOM      1  C   UNL d   1      -5.899  -5.621  -2.869  0.00  0.00    -0.033 A 
ATOM      2  C1  UNL d   1      -4.659  -5.998  -2.348  0.00  0.00     0.039 A 
ATOM      3  C2  UNL d   1      -3.517  -5.253  -2.651  0.00  0.00    -0.080 A 
ATOM      4  C3  UNL d   1      -3.629  -4.135  -3.473  0.00  0.00     0.150 A 
ATOM      5  C4  UNL d   1      -4.861  -3.752  -3.992  0.00  0.00    -0.007 A 
ATOM      6  C5  UNL d   1      -6.000  -4.497  -3.689  0.00  0.00     0.039 A 
ENDROOT
BRANCH   4   7
ATOM      7  O   UNL d   1      -2.542  -3.381  -3.801  0.00  0.00    -0.526 OA
ATOM      8  H5  UNL d   1      -1.755  -3.781  -3.394  0.00  0.00     0.418 HD
ENDBRANCH   4   7
TORSDOF 1
ENDMDL
