MODEL 1
REMARK minimizedAffinity -2.34019351
REMARK minimizedRMSD -1
REMARK  0 active torsions:
REMARK  status: ('A' for Active; 'I' for Inactive)
ROOT
ATOM      1  C4' PXY d   1      -0.591   5.591  -5.531  0.00  0.00     0.077 C 
ATOM      2  C1' PXY d   1      -5.715   5.981  -2.883  0.00  0.00     0.077 C 
ATOM      3  C1  PXY d   1      -4.365   5.885  -3.567  0.00  0.00    -0.082 A 
ATOM      4  C2  PXY d   1      -4.307   5.775  -4.885  0.00  0.00     0.003 A 
ATOM      5  C3  PXY d   1      -3.096   5.655  -5.517  0.00  0.00     0.003 A 
ATOM      6  C4  PXY d   1      -1.931   5.700  -4.799  0.00  0.00    -0.082 A 
ATOM      7  C5  PXY d   1      -1.983   5.823  -3.455  0.00  0.00     0.003 A 
ATOM      8  C6  PXY d   1      -3.223   5.902  -2.829  0.00  0.00     0.003 A 
ENDROOT
TORSDOF 0
ENDMDL
