MODEL 1
REMARK minimizedAffinity 7.81434965
REMARK minimizedRMSD -1
REMARK  0 active torsions:
REMARK  status: ('A' for Active; 'I' for Inactive)
ROOT
ATOM      1  C4' PXY d   1       6.000   4.717  -4.121  0.00  0.00     0.077 C 
ATOM      2  C1' PXY d   1       0.869   5.333  -1.532  0.00  0.00     0.077 C 
ATOM      3  C1  PXY d   1       2.212   5.159  -2.213  0.00  0.00    -0.082 A 
ATOM      4  C2  PXY d   1       3.197   6.000  -1.942  0.00  0.00     0.003 A 
ATOM      5  C3  PXY d   1       4.408   5.876  -2.572  0.00  0.00     0.003 A 
ATOM      6  C4  PXY d   1       4.630   4.849  -3.450  0.00  0.00    -0.082 A 
ATOM      7  C5  PXY d   1       3.634   3.980  -3.724  0.00  0.00     0.003 A 
ATOM      8  C6  PXY d   1       2.399   4.148  -3.104  0.00  0.00     0.003 A 
ENDROOT
TORSDOF 0
ENDMDL
