MODEL 1
REMARK minimizedAffinity 5.54580116
REMARK minimizedRMSD -1
REMARK  0 active torsions:
REMARK  status: ('A' for Active; 'I' for Inactive)
ROOT
ATOM      1  C4' PXY d   1       1.377  -3.019   1.242  0.00  0.00     0.077 C 
ATOM      2  C1' PXY d   1      -3.507  -0.128   2.338  0.00  0.00     0.077 C 
ATOM      3  C1  PXY d   1      -2.233  -0.897   2.050  0.00  0.00    -0.082 A 
ATOM      4  C2  PXY d   1      -1.063  -0.370   2.375  0.00  0.00     0.003 A 
ATOM      5  C3  PXY d   1       0.100  -1.038   2.093  0.00  0.00     0.003 A 
ATOM      6  C4  PXY d   1       0.064  -2.282   1.522  0.00  0.00    -0.082 A 
ATOM      7  C5  PXY d   1      -1.125  -2.831   1.198  0.00  0.00     0.003 A 
ATOM      8  C6  PXY d   1      -2.293  -2.119   1.454  0.00  0.00     0.003 A 
ENDROOT
TORSDOF 0
ENDMDL
