MODEL 1
REMARK minimizedAffinity 10.4753742
REMARK minimizedRMSD -1
REMARK  0 active torsions:
REMARK  status: ('A' for Active; 'I' for Inactive)
ROOT
ATOM      1  C4' PXY d   1       2.267  -0.244   1.507  0.00  0.00     0.077 C 
ATOM      2  C1' PXY d   1       6.000   4.127   0.893  0.00  0.00     0.077 C 
ATOM      3  C1  PXY d   1       5.018   2.982   1.042  0.00  0.00    -0.082 A 
ATOM      4  C2  PXY d   1       4.527   2.691   2.236  0.00  0.00     0.003 A 
ATOM      5  C3  PXY d   1       3.663   1.639   2.393  0.00  0.00     0.003 A 
ATOM      6  C4  PXY d   1       3.254   0.909   1.308  0.00  0.00    -0.082 A 
ATOM      7  C5  PXY d   1       3.742   1.206   0.085  0.00  0.00     0.003 A 
ATOM      8  C6  PXY d   1       4.651   2.253  -0.047  0.00  0.00     0.003 A 
ENDROOT
TORSDOF 0
ENDMDL
