MODEL 1
REMARK minimizedAffinity 5.78709555
REMARK minimizedRMSD -1
REMARK  0 active torsions:
REMARK  status: ('A' for Active; 'I' for Inactive)
ROOT
ATOM      1  C4' PXY d   1      -5.937  -4.715   6.000  0.00  0.00     0.077 C 
ATOM      2  C1' PXY d   1      -5.977  -4.861   0.221  0.00  0.00     0.077 C 
ATOM      3  C1  PXY d   1      -5.971  -4.835   1.737  0.00  0.00    -0.082 A 
ATOM      4  C2  PXY d   1      -5.997  -3.674   2.371  0.00  0.00     0.003 A 
ATOM      5  C3  PXY d   1      -5.960  -3.631   3.741  0.00  0.00     0.003 A 
ATOM      6  C4  PXY d   1      -5.951  -4.790   4.471  0.00  0.00    -0.082 A 
ATOM      7  C5  PXY d   1      -5.935  -5.978   3.831  0.00  0.00     0.003 A 
ATOM      8  C6  PXY d   1      -5.931  -5.999   2.439  0.00  0.00     0.003 A 
ENDROOT
TORSDOF 0
ENDMDL
