MODEL 1
REMARK minimizedAffinity 7.29585791
REMARK minimizedRMSD -1
REMARK  0 active torsions:
REMARK  status: ('A' for Active; 'I' for Inactive)
ROOT
ATOM      1  C4' PXY d   1      -4.808   0.833   0.354  0.00  0.00     0.077 C 
ATOM      2  C1' PXY d   1       0.388  -1.054   2.044  0.00  0.00     0.077 C 
ATOM      3  C1  PXY d   1      -0.974  -0.550   1.610  0.00  0.00    -0.082 A 
ATOM      4  C2  PXY d   1      -1.807  -1.369   0.988  0.00  0.00     0.003 A 
ATOM      5  C3  PXY d   1      -3.030  -0.920   0.560  0.00  0.00     0.003 A 
ATOM      6  C4  PXY d   1      -3.426   0.364   0.819  0.00  0.00    -0.082 A 
ATOM      7  C5  PXY d   1      -2.587   1.203   1.463  0.00  0.00     0.003 A 
ATOM      8  C6  PXY d   1      -1.333   0.740   1.853  0.00  0.00     0.003 A 
ENDROOT
TORSDOF 0
ENDMDL
