MODEL 1
REMARK minimizedAffinity 8.40151024
REMARK minimizedRMSD -1
REMARK  0 active torsions:
REMARK  status: ('A' for Active; 'I' for Inactive)
ROOT
ATOM      1  C4' PXY d   1      -4.445   0.801   0.389  0.00  0.00     0.077 C 
ATOM      2  C1' PXY d   1       0.123  -1.927   2.649  0.00  0.00     0.077 C 
ATOM      3  C1  PXY d   1      -1.076  -1.204   2.067  0.00  0.00    -0.082 A 
ATOM      4  C2  PXY d   1      -1.838  -1.815   1.175  0.00  0.00     0.003 A 
ATOM      5  C3  PXY d   1      -2.907  -1.165   0.615  0.00  0.00     0.003 A 
ATOM      6  C4  PXY d   1      -3.230   0.106   1.011  0.00  0.00    -0.082 A 
ATOM      7  C5  PXY d   1      -2.463   0.732   1.928  0.00  0.00     0.003 A 
ATOM      8  C6  PXY d   1      -1.358   0.069   2.454  0.00  0.00     0.003 A 
ENDROOT
TORSDOF 0
ENDMDL
