MODEL 1
REMARK minimizedAffinity 12.5653906
REMARK minimizedRMSD -1
REMARK  0 active torsions:
REMARK  status: ('A' for Active; 'I' for Inactive)
ROOT
ATOM      1  C4' PXY d   1      -3.990  -5.887  -5.999  0.00  0.00     0.077 C 
ATOM      2  C1' PXY d   1       1.049  -4.180  -3.740  0.00  0.00     0.077 C 
ATOM      3  C1  PXY d   1      -0.279  -4.623  -4.322  0.00  0.00    -0.082 A 
ATOM      4  C2  PXY d   1      -0.308  -5.595  -5.219  0.00  0.00     0.003 A 
ATOM      5  C3  PXY d   1      -1.496  -5.987  -5.779  0.00  0.00     0.003 A 
ATOM      6  C4  PXY d   1      -2.673  -5.414  -5.378  0.00  0.00    -0.082 A 
ATOM      7  C5  PXY d   1      -2.653  -4.429  -4.455  0.00  0.00     0.003 A 
ATOM      8  C6  PXY d   1      -1.432  -4.017  -3.929  0.00  0.00     0.003 A 
ENDROOT
TORSDOF 0
ENDMDL
