MODEL 1
REMARK minimizedAffinity 5.69364166
REMARK minimizedRMSD -1
REMARK  0 active torsions:
REMARK  status: ('A' for Active; 'I' for Inactive)
ROOT
ATOM      1  C4' PXY d   1      -0.567   5.878  -6.000  0.00  0.00     0.077 C 
ATOM      2  C1' PXY d   1      -4.670   5.999  -1.931  0.00  0.00     0.077 C 
ATOM      3  C1  PXY d   1      -3.603   5.962  -3.006  0.00  0.00    -0.082 A 
ATOM      4  C2  PXY d   1      -2.326   5.935  -2.660  0.00  0.00     0.003 A 
ATOM      5  C3  PXY d   1      -1.347   5.934  -3.620  0.00  0.00     0.003 A 
ATOM      6  C4  PXY d   1      -1.679   5.906  -4.948  0.00  0.00    -0.082 A 
ATOM      7  C5  PXY d   1      -2.979   5.923  -5.309  0.00  0.00     0.003 A 
ATOM      8  C6  PXY d   1      -3.957   5.966  -4.320  0.00  0.00     0.003 A 
ENDROOT
TORSDOF 0
ENDMDL
