MODEL 1
REMARK minimizedAffinity 10.2850647
REMARK minimizedRMSD -1
REMARK  0 active torsions:
REMARK  status: ('A' for Active; 'I' for Inactive)
ROOT
ATOM      1  C4' PXY d   1       4.134   2.482  -5.999  0.00  0.00     0.077 C 
ATOM      2  C1' PXY d   1       4.676   6.000  -1.445  0.00  0.00     0.077 C 
ATOM      3  C1  PXY d   1       4.527   5.069  -2.632  0.00  0.00    -0.082 A 
ATOM      4  C2  PXY d   1       5.432   5.088  -3.596  0.00  0.00     0.003 A 
ATOM      5  C3  PXY d   1       5.296   4.276  -4.693  0.00  0.00     0.003 A 
ATOM      6  C4  PXY d   1       4.250   3.397  -4.777  0.00  0.00    -0.082 A 
ATOM      7  C5  PXY d   1       3.327   3.364  -3.793  0.00  0.00     0.003 A 
ATOM      8  C6  PXY d   1       3.462   4.226  -2.708  0.00  0.00     0.003 A 
ENDROOT
TORSDOF 0
ENDMDL
