MODEL 1
REMARK minimizedAffinity 7.52643013
REMARK minimizedRMSD -1
REMARK  0 active torsions:
REMARK  status: ('A' for Active; 'I' for Inactive)
ROOT
ATOM      1  C4' PXY d   1      -4.737   0.579   0.617  0.00  0.00     0.077 C 
ATOM      2  C1' PXY d   1       0.384  -1.421   2.403  0.00  0.00     0.077 C 
ATOM      3  C1  PXY d   1      -0.961  -0.892   1.946  0.00  0.00    -0.082 A 
ATOM      4  C2  PXY d   1      -1.568  -1.453   0.913  0.00  0.00     0.003 A 
ATOM      5  C3  PXY d   1      -2.770  -0.966   0.467  0.00  0.00     0.003 A 
ATOM      6  C4  PXY d   1      -3.382   0.071   1.118  0.00  0.00    -0.082 A 
ATOM      7  C5  PXY d   1      -2.774   0.642   2.180  0.00  0.00     0.003 A 
ATOM      8  C6  PXY d   1      -1.534   0.160   2.591  0.00  0.00     0.003 A 
ENDROOT
TORSDOF 0
ENDMDL
