MODEL 1
REMARK minimizedAffinity 11.0891008
REMARK minimizedRMSD -1
REMARK  0 active torsions:
REMARK  status: ('A' for Active; 'I' for Inactive)
ROOT
ATOM      1  C4' PXY d   1       5.334   5.928  -1.425  0.00  0.00     0.077 C 
ATOM      2  C1' PXY d   1       4.087   2.620  -5.998  0.00  0.00     0.077 C 
ATOM      3  C1  PXY d   1       4.401   3.490  -4.797  0.00  0.00    -0.082 A 
ATOM      4  C2  PXY d   1       5.607   4.021  -4.672  0.00  0.00     0.003 A 
ATOM      5  C3  PXY d   1       5.918   4.784  -3.576  0.00  0.00     0.003 A 
ATOM      6  C4  PXY d   1       4.969   5.051  -2.626  0.00  0.00    -0.082 A 
ATOM      7  C5  PXY d   1       3.734   4.522  -2.752  0.00  0.00     0.003 A 
ATOM      8  C6  PXY d   1       3.450   3.716  -3.851  0.00  0.00     0.003 A 
ENDROOT
TORSDOF 0
ENDMDL
