MODEL 1
REMARK minimizedAffinity 12.4261856
REMARK minimizedRMSD -1
REMARK  0 active torsions:
REMARK  status: ('A' for Active; 'I' for Inactive)
ROOT
ATOM      1  C4' PXY d   1      -1.540   5.810  -6.000  0.00  0.00     0.077 C 
ATOM      2  C1' PXY d   1      -5.458   5.794  -1.750  0.00  0.00     0.077 C 
ATOM      3  C1  PXY d   1      -4.440   5.795  -2.873  0.00  0.00    -0.082 A 
ATOM      4  C2  PXY d   1      -3.160   5.604  -2.596  0.00  0.00     0.003 A 
ATOM      5  C3  PXY d   1      -2.222   5.634  -3.596  0.00  0.00     0.003 A 
ATOM      6  C4  PXY d   1      -2.604   5.808  -4.899  0.00  0.00    -0.082 A 
ATOM      7  C5  PXY d   1      -3.909   5.992  -5.191  0.00  0.00     0.003 A 
ATOM      8  C6  PXY d   1      -4.841   6.000  -4.157  0.00  0.00     0.003 A 
ENDROOT
TORSDOF 0
ENDMDL
