MODEL 1
REMARK minimizedAffinity 1.93638825
REMARK minimizedRMSD -1
REMARK  0 active torsions:
REMARK  status: ('A' for Active; 'I' for Inactive)
ROOT
ATOM      1  C4' PXY d   1      -0.035  -1.944   3.583  0.00  0.00     0.077 C 
ATOM      2  C1' PXY d   1      -4.048   0.790   0.445  0.00  0.00     0.077 C 
ATOM      3  C1  PXY d   1      -2.997   0.082   1.278  0.00  0.00    -0.082 A 
ATOM      4  C2  PXY d   1      -2.100  -0.687   0.682  0.00  0.00     0.003 A 
ATOM      5  C3  PXY d   1      -1.162  -1.360   1.422  0.00  0.00     0.003 A 
ATOM      6  C4  PXY d   1      -1.109  -1.202   2.781  0.00  0.00    -0.082 A 
ATOM      7  C5  PXY d   1      -2.014  -0.411   3.395  0.00  0.00     0.003 A 
ATOM      8  C6  PXY d   1      -2.983   0.231   2.630  0.00  0.00     0.003 A 
ENDROOT
TORSDOF 0
ENDMDL
