MODEL 1
REMARK minimizedAffinity 11.2103977
REMARK minimizedRMSD -1
REMARK  0 active torsions:
REMARK  status: ('A' for Active; 'I' for Inactive)
ROOT
ATOM      1  C4' PXY d   1      -5.365   1.614   0.652  0.00  0.00     0.077 C 
ATOM      2  C1' PXY d   1      -0.554  -0.996   2.511  0.00  0.00     0.077 C 
ATOM      3  C1  PXY d   1      -1.816  -0.305   2.035  0.00  0.00    -0.082 A 
ATOM      4  C2  PXY d   1      -2.547  -0.861   1.082  0.00  0.00     0.003 A 
ATOM      5  C3  PXY d   1      -3.674  -0.235   0.617  0.00  0.00     0.003 A 
ATOM      6  C4  PXY d   1      -4.088   0.948   1.170  0.00  0.00    -0.082 A 
ATOM      7  C5  PXY d   1      -3.354   1.516   2.150  0.00  0.00     0.003 A 
ATOM      8  C6  PXY d   1      -2.190   0.884   2.579  0.00  0.00     0.003 A 
ENDROOT
TORSDOF 0
ENDMDL
