MODEL 1
REMARK minimizedAffinity 9.97786427
REMARK minimizedRMSD -1
REMARK  0 active torsions:
REMARK  status: ('A' for Active; 'I' for Inactive)
ROOT
ATOM      1  C4' PXY d   1       6.000   5.985  -5.239  0.00  0.00     0.077 C 
ATOM      2  C1' PXY d   1       2.262   2.247  -2.900  0.00  0.00     0.077 C 
ATOM      3  C1  PXY d   1       3.245   3.218  -3.523  0.00  0.00    -0.082 A 
ATOM      4  C2  PXY d   1       3.792   4.164  -2.776  0.00  0.00     0.003 A 
ATOM      5  C3  PXY d   1       4.659   5.071  -3.330  0.00  0.00     0.003 A 
ATOM      6  C4  PXY d   1       5.010   4.976  -4.650  0.00  0.00    -0.082 A 
ATOM      7  C5  PXY d   1       4.464   4.008  -5.416  0.00  0.00     0.003 A 
ATOM      8  C6  PXY d   1       3.555   3.122  -4.844  0.00  0.00     0.003 A 
ENDROOT
TORSDOF 0
ENDMDL
