MODEL 1
REMARK minimizedAffinity 6.62102365
REMARK minimizedRMSD -1
REMARK  0 active torsions:
REMARK  status: ('A' for Active; 'I' for Inactive)
ROOT
ATOM      1  C4' PXY d   1       2.284   1.808  -1.590  0.00  0.00     0.077 C 
ATOM      2  C1' PXY d   1       5.947   3.799   2.414  0.00  0.00     0.077 C 
ATOM      3  C1  PXY d   1       4.978   3.273   1.373  0.00  0.00    -0.082 A 
ATOM      4  C2  PXY d   1       5.422   2.958   0.167  0.00  0.00     0.003 A 
ATOM      5  C3  PXY d   1       4.554   2.511  -0.796  0.00  0.00     0.003 A 
ATOM      6  C4  PXY d   1       3.228   2.334  -0.505  0.00  0.00    -0.082 A 
ATOM      7  C5  PXY d   1       2.769   2.643   0.726  0.00  0.00     0.003 A 
ATOM      8  C6  PXY d   1       3.659   3.134   1.677  0.00  0.00     0.003 A 
ENDROOT
TORSDOF 0
ENDMDL
