MODEL 1
REMARK minimizedAffinity 7.70822191
REMARK minimizedRMSD -1
REMARK  0 active torsions:
REMARK  status: ('A' for Active; 'I' for Inactive)
ROOT
ATOM      1  C4' PXY d   1      -4.987   0.909   2.009  0.00  0.00     0.077 C 
ATOM      2  C1' PXY d   1      -0.010  -2.008   2.379  0.00  0.00     0.077 C 
ATOM      3  C1  PXY d   1      -1.313  -1.238   2.294  0.00  0.00    -0.082 A 
ATOM      4  C2  PXY d   1      -2.281  -1.674   1.503  0.00  0.00     0.003 A 
ATOM      5  C3  PXY d   1      -3.453  -0.973   1.390  0.00  0.00     0.003 A 
ATOM      6  C4  PXY d   1      -3.659   0.158   2.134  0.00  0.00    -0.082 A 
ATOM      7  C5  PXY d   1      -2.681   0.604   2.951  0.00  0.00     0.003 A 
ATOM      8  C6  PXY d   1      -1.482  -0.100   3.020  0.00  0.00     0.003 A 
ENDROOT
TORSDOF 0
ENDMDL
