MODEL 1
REMARK minimizedAffinity 5.45469999
REMARK minimizedRMSD -1
REMARK  0 active torsions:
REMARK  status: ('A' for Active; 'I' for Inactive)
ROOT
ATOM      1  C4' PXY d   1       3.813   0.323  -1.175  0.00  0.00     0.077 C 
ATOM      2  C1' PXY d   1       0.849   5.193  -2.130  0.00  0.00     0.077 C 
ATOM      3  C1  PXY d   1       1.624   3.916  -1.867  0.00  0.00    -0.082 A 
ATOM      4  C2  PXY d   1       2.581   3.548  -2.703  0.00  0.00     0.003 A 
ATOM      5  C3  PXY d   1       3.269   2.380  -2.497  0.00  0.00     0.003 A 
ATOM      6  C4  PXY d   1       3.012   1.609  -1.396  0.00  0.00    -0.082 A 
ATOM      7  C5  PXY d   1       2.044   1.983  -0.533  0.00  0.00     0.003 A 
ATOM      8  C6  PXY d   1       1.328   3.151  -0.782  0.00  0.00     0.003 A 
ENDROOT
TORSDOF 0
ENDMDL
