MODEL 1
REMARK minimizedAffinity -3.34141159
REMARK minimizedRMSD -1
REMARK  0 active torsions:
REMARK  status: ('A' for Active; 'I' for Inactive)
ROOT
ATOM      1  C4' PXY d   1       2.989   1.948  -1.211  0.00  0.00     0.077 C 
ATOM      2  C1' PXY d   1      -1.167   5.862  -0.304  0.00  0.00     0.077 C 
ATOM      3  C1  PXY d   1      -0.070   4.841  -0.532  0.00  0.00    -0.082 A 
ATOM      4  C2  PXY d   1       0.066   4.282  -1.724  0.00  0.00     0.003 A 
ATOM      5  C3  PXY d   1       1.032   3.333  -1.938  0.00  0.00     0.003 A 
ATOM      6  C4  PXY d   1       1.902   2.991  -0.938  0.00  0.00    -0.082 A 
ATOM      7  C5  PXY d   1       1.776   3.564   0.278  0.00  0.00     0.003 A 
ATOM      8  C6  PXY d   1       0.762   4.495   0.487  0.00  0.00     0.003 A 
ENDROOT
TORSDOF 0
ENDMDL
