MODEL 1
REMARK minimizedAffinity 1.40355504
REMARK minimizedRMSD -1
REMARK  0 active torsions:
REMARK  status: ('A' for Active; 'I' for Inactive)
ROOT
ATOM      1  C   UNL d   1       0.576   2.127  -0.007  0.00  0.00     0.124 A 
ATOM      2  C1  UNL d   1      -0.583   1.433   0.313  0.00  0.00     0.062 A 
ATOM      3  C2  UNL d   1      -0.508   0.228   1.005  0.00  0.00     0.162 A 
ATOM      4  C3  UNL d   1       0.730  -0.291   1.384  0.00  0.00    -0.034 A 
ATOM      5  C4  UNL d   1       1.891   0.412   1.058  0.00  0.00     0.162 A 
ATOM      6  C5  UNL d   1       1.812   1.616   0.365  0.00  0.00     0.062 A 
ATOM      7  F   UNL d   1       2.932   2.284   0.057  0.00  0.00    -0.097 F 
ATOM      8  F1  UNL d   1       3.098  -0.059   1.406  0.00  0.00    -0.096 F 
ATOM      9  I   UNL d   1       0.845  -2.093   2.419  0.00  0.00    -0.060 I 
ATOM     10  F2  UNL d   1      -1.645  -0.421   1.301  0.00  0.00    -0.096 F 
ATOM     11  F3  UNL d   1      -1.777   1.924  -0.047  0.00  0.00    -0.097 F 
ATOM     12  F4  UNL d   1       0.502   3.285  -0.674  0.00  0.00    -0.092 F 
ENDROOT
TORSDOF 0
ENDMDL
