MODEL 1
REMARK minimizedAffinity 8.71465492
REMARK minimizedRMSD -1
REMARK  0 active torsions:
REMARK  status: ('A' for Active; 'I' for Inactive)
ROOT
ATOM      1  C   UNL d   1       1.384  -0.482   1.555  0.00  0.00     0.124 A 
ATOM      2  C1  UNL d   1       2.760  -0.300   1.584  0.00  0.00     0.062 A 
ATOM      3  C2  UNL d   1       3.556  -1.109   2.389  0.00  0.00     0.162 A 
ATOM      4  C3  UNL d   1       2.979  -2.108   3.173  0.00  0.00    -0.034 A 
ATOM      5  C4  UNL d   1       1.595  -2.285   3.140  0.00  0.00     0.162 A 
ATOM      6  C5  UNL d   1       0.803  -1.474   2.333  0.00  0.00     0.062 A 
ATOM      7  F   UNL d   1      -0.526  -1.651   2.307  0.00  0.00    -0.097 F 
ATOM      8  F1  UNL d   1       1.007  -3.236   3.881  0.00  0.00    -0.096 F 
ATOM      9  I   UNL d   1       4.167  -3.319   4.379  0.00  0.00    -0.060 I 
ATOM     10  F2  UNL d   1       4.883  -0.910   2.397  0.00  0.00    -0.096 F 
ATOM     11  F3  UNL d   1       3.323   0.658   0.834  0.00  0.00    -0.097 F 
ATOM     12  F4  UNL d   1       0.620   0.297   0.780  0.00  0.00    -0.092 F 
ENDROOT
TORSDOF 0
ENDMDL
