MODEL 1
REMARK minimizedAffinity 12.6209049
REMARK minimizedRMSD -1
REMARK  0 active torsions:
REMARK  status: ('A' for Active; 'I' for Inactive)
ROOT
ATOM      1  C   UNL d   1       1.879  -0.806   4.227  0.00  0.00     0.124 A 
ATOM      2  C1  UNL d   1       1.504  -2.052   3.742  0.00  0.00     0.062 A 
ATOM      3  C2  UNL d   1       1.243  -2.226   2.386  0.00  0.00     0.162 A 
ATOM      4  C3  UNL d   1       1.357  -1.152   1.504  0.00  0.00    -0.034 A 
ATOM      5  C4  UNL d   1       1.734   0.098   1.999  0.00  0.00     0.162 A 
ATOM      6  C5  UNL d   1       1.994   0.267   3.355  0.00  0.00     0.062 A 
ATOM      7  F   UNL d   1       2.356   1.471   3.821  0.00  0.00    -0.097 F 
ATOM      8  F1  UNL d   1       1.853   1.153   1.178  0.00  0.00    -0.096 F 
ATOM      9  I   UNL d   1       0.968  -1.408  -0.524  0.00  0.00    -0.060 I 
ATOM     10  F2  UNL d   1       0.883  -3.441   1.946  0.00  0.00    -0.096 F 
ATOM     11  F3  UNL d   1       1.392  -3.091   4.583  0.00  0.00    -0.097 F 
ATOM     12  F4  UNL d   1       2.128  -0.641   5.532  0.00  0.00    -0.092 F 
ENDROOT
TORSDOF 0
ENDMDL
