MODEL 1
REMARK minimizedAffinity 4.47796869
REMARK minimizedRMSD -1
REMARK  0 active torsions:
REMARK  status: ('A' for Active; 'I' for Inactive)
ROOT
ATOM      1  C   UNL d   1       0.983  -2.321   0.857  0.00  0.00     0.124 A 
ATOM      2  C1  UNL d   1       1.294  -3.673   0.872  0.00  0.00     0.062 A 
ATOM      3  C2  UNL d   1       1.739  -4.277   2.044  0.00  0.00     0.162 A 
ATOM      4  C3  UNL d   1       1.875  -3.528   3.213  0.00  0.00    -0.034 A 
ATOM      5  C4  UNL d   1       1.561  -2.168   3.191  0.00  0.00     0.162 A 
ATOM      6  C5  UNL d   1       1.116  -1.570   2.016  0.00  0.00     0.062 A 
ATOM      7  F   UNL d   1       0.816  -0.263   2.004  0.00  0.00    -0.097 F 
ATOM      8  F1  UNL d   1       1.680  -1.419   4.297  0.00  0.00    -0.096 F 
ATOM      9  I   UNL d   1       2.540  -4.426   4.969  0.00  0.00    -0.060 I 
ATOM     10  F2  UNL d   1       2.032  -5.586   2.029  0.00  0.00    -0.096 F 
ATOM     11  F3  UNL d   1       1.166  -4.401  -0.247  0.00  0.00    -0.097 F 
ATOM     12  F4  UNL d   1       0.556  -1.743  -0.273  0.00  0.00    -0.092 F 
ENDROOT
TORSDOF 0
ENDMDL
