MODEL 1
REMARK minimizedAffinity 16.5105896
REMARK minimizedRMSD -1
REMARK  0 active torsions:
REMARK  status: ('A' for Active; 'I' for Inactive)
ROOT
ATOM      1  C   UNL d   1      -4.201   2.248  -2.837  0.00  0.00     0.124 A 
ATOM      2  C1  UNL d   1      -5.112   1.588  -2.025  0.00  0.00     0.062 A 
ATOM      3  C2  UNL d   1      -5.108   1.802  -0.650  0.00  0.00     0.162 A 
ATOM      4  C3  UNL d   1      -4.190   2.682  -0.078  0.00  0.00    -0.034 A 
ATOM      5  C4  UNL d   1      -3.276   3.342  -0.901  0.00  0.00     0.162 A 
ATOM      6  C5  UNL d   1      -3.284   3.125  -2.275  0.00  0.00     0.062 A 
ATOM      7  F   UNL d   1      -2.403   3.764  -3.058  0.00  0.00    -0.097 F 
ATOM      8  F1  UNL d   1      -2.379   4.196  -0.384  0.00  0.00    -0.096 F 
ATOM      9  I   UNL d   1      -4.180   3.006   1.978  0.00  0.00    -0.060 I 
ATOM     10  F2  UNL d   1      -6.000   1.150   0.111  0.00  0.00    -0.096 F 
ATOM     11  F3  UNL d   1      -5.999   0.740  -2.566  0.00  0.00    -0.097 F 
ATOM     12  F4  UNL d   1      -4.207   2.040  -4.160  0.00  0.00    -0.092 F 
ENDROOT
TORSDOF 0
ENDMDL
