MODEL 1
REMARK minimizedAffinity 13.0696106
REMARK minimizedRMSD -1
REMARK  0 active torsions:
REMARK  status: ('A' for Active; 'I' for Inactive)
ROOT
ATOM      1  C   UNL d   1      -5.910   4.481  -0.687  0.00  0.00     0.124 A 
ATOM      2  C1  UNL d   1      -5.817   4.301   0.687  0.00  0.00     0.062 A 
ATOM      3  C2  UNL d   1      -5.725   3.019   1.220  0.00  0.00     0.162 A 
ATOM      4  C3  UNL d   1      -5.725   1.905   0.380  0.00  0.00    -0.034 A 
ATOM      5  C4  UNL d   1      -5.819   2.094  -1.000  0.00  0.00     0.162 A 
ATOM      6  C5  UNL d   1      -5.911   3.378  -1.528  0.00  0.00     0.062 A 
ATOM      7  F   UNL d   1      -6.000   3.549  -2.855  0.00  0.00    -0.097 F 
ATOM      8  F1  UNL d   1      -5.821   1.046  -1.837  0.00  0.00    -0.096 F 
ATOM      9  I   UNL d   1      -5.587  -0.014   1.174  0.00  0.00    -0.060 I 
ATOM     10  F2  UNL d   1      -5.637   2.875   2.551  0.00  0.00    -0.096 F 
ATOM     11  F3  UNL d   1      -5.817   5.365   1.502  0.00  0.00    -0.097 F 
ATOM     12  F4  UNL d   1      -5.999   5.716  -1.197  0.00  0.00    -0.092 F 
ENDROOT
TORSDOF 0
ENDMDL
