MODEL 1
REMARK minimizedAffinity 9.19447327
REMARK minimizedRMSD -1
REMARK  0 active torsions:
REMARK  status: ('A' for Active; 'I' for Inactive)
ROOT
ATOM      1  C2' OXE d   1       3.575  -3.443  -4.776  0.00  0.00     0.078 C 
ATOM      2  C1' OXE d   1       6.000  -2.375  -3.849  0.00  0.00     0.078 C 
ATOM      3  C1  OXE d   1       5.302  -3.392  -2.981  0.00  0.00    -0.078 A 
ATOM      4  C2  OXE d   1       4.093  -3.875  -3.421  0.00  0.00    -0.078 A 
ATOM      5  C3  OXE d   1       3.434  -4.856  -2.685  0.00  0.00     0.003 A 
ATOM      6  C4  OXE d   1       3.915  -5.242  -1.428  0.00  0.00    -0.002 A 
ATOM      7  C5  OXE d   1       5.124  -4.733  -0.943  0.00  0.00    -0.002 A 
ATOM      8  C6  OXE d   1       5.850  -3.841  -1.725  0.00  0.00     0.003 A 
ENDROOT
TORSDOF 0
ENDMDL
