MODEL 1
REMARK minimizedAffinity 2.3227787
REMARK minimizedRMSD -1
REMARK  0 active torsions:
REMARK  status: ('A' for Active; 'I' for Inactive)
ROOT
ATOM      1  C2' OXE d   1      -0.971   1.518  -0.341  0.00  0.00     0.078 C 
ATOM      2  C1' OXE d   1      -2.127  -0.484  -1.934  0.00  0.00     0.078 C 
ATOM      3  C1  OXE d   1      -0.904   0.221  -2.466  0.00  0.00    -0.078 A 
ATOM      4  C2  OXE d   1      -0.373   1.231  -1.701  0.00  0.00    -0.078 A 
ATOM      5  C3  OXE d   1       0.787   1.876  -2.120  0.00  0.00     0.003 A 
ATOM      6  C4  OXE d   1       1.328   1.612  -3.384  0.00  0.00    -0.002 A 
ATOM      7  C5  OXE d   1       0.779   0.614  -4.197  0.00  0.00    -0.002 A 
ATOM      8  C6  OXE d   1      -0.309  -0.118  -3.735  0.00  0.00     0.003 A 
ENDROOT
TORSDOF 0
ENDMDL
