MODEL 1
REMARK minimizedAffinity 4.20687532
REMARK minimizedRMSD -1
REMARK  0 active torsions:
REMARK  status: ('A' for Active; 'I' for Inactive)
ROOT
ATOM      1  C2' OXE d   1       1.774   1.647  -2.238  0.00  0.00     0.078 C 
ATOM      2  C1' OXE d   1      -0.525   2.198  -0.723  0.00  0.00     0.078 C 
ATOM      3  C1  OXE d   1      -0.669   1.283  -1.914  0.00  0.00    -0.078 A 
ATOM      4  C2  OXE d   1       0.451   1.057  -2.677  0.00  0.00    -0.078 A 
ATOM      5  C3  OXE d   1       0.386   0.178  -3.754  0.00  0.00     0.003 A 
ATOM      6  C4  OXE d   1      -0.843  -0.356  -4.159  0.00  0.00    -0.002 A 
ATOM      7  C5  OXE d   1      -2.004  -0.107  -3.420  0.00  0.00    -0.002 A 
ATOM      8  C6  OXE d   1      -1.927   0.675  -2.273  0.00  0.00     0.003 A 
ENDROOT
TORSDOF 0
ENDMDL
