MODEL 1
REMARK minimizedAffinity 9.01796818
REMARK minimizedRMSD -1
REMARK  0 active torsions:
REMARK  status: ('A' for Active; 'I' for Inactive)
ROOT
ATOM      1  C2' OXE d   1      -1.471   4.278   1.519  0.00  0.00     0.078 C 
ATOM      2  C1' OXE d   1      -1.107   1.610   2.313  0.00  0.00     0.078 C 
ATOM      3  C1  OXE d   1      -0.584   2.019   0.958  0.00  0.00    -0.078 A 
ATOM      4  C2  OXE d   1      -0.808   3.315   0.559  0.00  0.00    -0.078 A 
ATOM      5  C3  OXE d   1      -0.298   3.759  -0.658  0.00  0.00     0.003 A 
ATOM      6  C4  OXE d   1       0.305   2.859  -1.544  0.00  0.00    -0.002 A 
ATOM      7  C5  OXE d   1       0.508   1.525  -1.174  0.00  0.00    -0.002 A 
ATOM      8  C6  OXE d   1       0.109   1.101   0.089  0.00  0.00     0.003 A 
ENDROOT
TORSDOF 0
ENDMDL
