MODEL 1
REMARK minimizedAffinity 13.0616426
REMARK minimizedRMSD -1
REMARK  0 active torsions:
REMARK  status: ('A' for Active; 'I' for Inactive)
ROOT
ATOM      1  C2' OXE d   1       2.312  -5.034  -5.969  0.00  0.00     0.078 C 
ATOM      2  C1' OXE d   1       0.369  -3.008  -6.000  0.00  0.00     0.078 C 
ATOM      3  C1  OXE d   1       0.962  -3.394  -4.668  0.00  0.00    -0.078 A 
ATOM      4  C2  OXE d   1       1.878  -4.418  -4.657  0.00  0.00    -0.078 A 
ATOM      5  C3  OXE d   1       2.497  -4.776  -3.462  0.00  0.00     0.003 A 
ATOM      6  C4  OXE d   1       2.083  -4.208  -2.251  0.00  0.00    -0.002 A 
ATOM      7  C5  OXE d   1       1.123  -3.191  -2.236  0.00  0.00    -0.002 A 
ATOM      8  C6  OXE d   1       0.585  -2.743  -3.437  0.00  0.00     0.003 A 
ENDROOT
TORSDOF 0
ENDMDL
