MODEL 1
REMARK minimizedAffinity 8.04291916
REMARK minimizedRMSD -1
REMARK  0 active torsions:
REMARK  status: ('A' for Active; 'I' for Inactive)
ROOT
ATOM      1  C2' OXE d   1      -0.800   3.052   0.320  0.00  0.00     0.078 C 
ATOM      2  C1' OXE d   1      -3.055   2.063   1.667  0.00  0.00     0.078 C 
ATOM      3  C1  OXE d   1      -1.716   1.931   2.348  0.00  0.00    -0.078 A 
ATOM      4  C2  OXE d   1      -0.612   2.375   1.661  0.00  0.00    -0.078 A 
ATOM      5  C3  OXE d   1       0.641   2.327   2.266  0.00  0.00     0.003 A 
ATOM      6  C4  OXE d   1       0.808   1.692   3.502  0.00  0.00    -0.002 A 
ATOM      7  C5  OXE d   1      -0.298   1.197   4.200  0.00  0.00    -0.002 A 
ATOM      8  C6  OXE d   1      -1.570   1.346   3.658  0.00  0.00     0.003 A 
ENDROOT
TORSDOF 0
ENDMDL
