MODEL 1
REMARK minimizedAffinity 5.74904108
REMARK minimizedRMSD -1
REMARK  0 active torsions:
REMARK  status: ('A' for Active; 'I' for Inactive)
ROOT
ATOM      1  C2' OXE d   1      -1.248   3.336  -3.484  0.00  0.00     0.078 C 
ATOM      2  C1' OXE d   1      -2.578   1.168  -2.297  0.00  0.00     0.078 C 
ATOM      3  C1  OXE d   1      -1.536   1.888  -1.478  0.00  0.00    -0.078 A 
ATOM      4  C2  OXE d   1      -0.858   2.918  -2.083  0.00  0.00    -0.078 A 
ATOM      5  C3  OXE d   1       0.074   3.652  -1.355  0.00  0.00     0.003 A 
ATOM      6  C4  OXE d   1       0.437   3.252  -0.062  0.00  0.00    -0.002 A 
ATOM      7  C5  OXE d   1      -0.213   2.181   0.558  0.00  0.00    -0.002 A 
ATOM      8  C6  OXE d   1      -1.230   1.516  -0.119  0.00  0.00     0.003 A 
ENDROOT
TORSDOF 0
ENDMDL
