MODEL 1
REMARK minimizedAffinity 5.32388735
REMARK minimizedRMSD -1
REMARK  0 active torsions:
REMARK  status: ('A' for Active; 'I' for Inactive)
ROOT
ATOM      1  C2' OXE d   1      -1.127   2.600   1.152  0.00  0.00     0.078 C 
ATOM      2  C1' OXE d   1      -2.516   5.038   1.250  0.00  0.00     0.078 C 
ATOM      3  C1  OXE d   1      -1.369   4.921   0.278  0.00  0.00    -0.078 A 
ATOM      4  C2  OXE d   1      -0.665   3.740   0.270  0.00  0.00    -0.078 A 
ATOM      5  C3  OXE d   1       0.367   3.559  -0.646  0.00  0.00     0.003 A 
ATOM      6  C4  OXE d   1       0.795   4.622  -1.451  0.00  0.00    -0.002 A 
ATOM      7  C5  OXE d   1       0.117   5.846  -1.430  0.00  0.00    -0.002 A 
ATOM      8  C6  OXE d   1      -0.991   5.997  -0.604  0.00  0.00     0.003 A 
ENDROOT
TORSDOF 0
ENDMDL
