MODEL 1
REMARK minimizedAffinity 16.5313454
REMARK minimizedRMSD -1
REMARK  0 active torsions:
REMARK  status: ('A' for Active; 'I' for Inactive)
ROOT
ATOM      1  C2' OXE d   1       1.830  -3.090   0.554  0.00  0.00     0.078 C 
ATOM      2  C1' OXE d   1       4.259  -4.496   0.542  0.00  0.00     0.078 C 
ATOM      3  C1  OXE d   1       3.273  -4.787  -0.561  0.00  0.00    -0.078 A 
ATOM      4  C2  OXE d   1       2.067  -4.129  -0.521  0.00  0.00    -0.078 A 
ATOM      5  C3  OXE d   1       1.143  -4.319  -1.545  0.00  0.00     0.003 A 
ATOM      6  C4  OXE d   1       1.367  -5.289  -2.530  0.00  0.00    -0.002 A 
ATOM      7  C5  OXE d   1       2.571  -5.999  -2.566  0.00  0.00    -0.002 A 
ATOM      8  C6  OXE d   1       3.550  -5.730  -1.616  0.00  0.00     0.003 A 
ENDROOT
TORSDOF 0
ENDMDL
