MODEL 1
REMARK minimizedAffinity 6.69924259
REMARK minimizedRMSD -1
REMARK  0 active torsions:
REMARK  status: ('A' for Active; 'I' for Inactive)
ROOT
ATOM      1  C2' OXE d   1      -3.320   4.662   1.352  0.00  0.00     0.078 C 
ATOM      2  C1' OXE d   1      -2.482   2.002   1.669  0.00  0.00     0.078 C 
ATOM      3  C1  OXE d   1      -1.626   2.913   0.826  0.00  0.00    -0.078 A 
ATOM      4  C2  OXE d   1      -2.068   4.201   0.638  0.00  0.00    -0.078 A 
ATOM      5  C3  OXE d   1      -1.288   5.098  -0.086  0.00  0.00     0.003 A 
ATOM      6  C4  OXE d   1      -0.137   4.661  -0.752  0.00  0.00    -0.002 A 
ATOM      7  C5  OXE d   1       0.310   3.343  -0.606  0.00  0.00    -0.002 A 
ATOM      8  C6  OXE d   1      -0.399   2.470   0.212  0.00  0.00     0.003 A 
ENDROOT
TORSDOF 0
ENDMDL
