MODEL 1
REMARK minimizedAffinity 4.54553604
REMARK minimizedRMSD -1
REMARK  0 active torsions:
REMARK  status: ('A' for Active; 'I' for Inactive)
ROOT
ATOM      1  C2' OXE d   1      -0.583   1.862   2.704  0.00  0.00     0.078 C 
ATOM      2  C1' OXE d   1      -2.910   2.959   1.581  0.00  0.00     0.078 C 
ATOM      3  C1  OXE d   1      -1.656   2.961   0.743  0.00  0.00    -0.078 A 
ATOM      4  C2  OXE d   1      -0.511   2.464   1.317  0.00  0.00    -0.078 A 
ATOM      5  C3  OXE d   1       0.660   2.391   0.569  0.00  0.00     0.003 A 
ATOM      6  C4  OXE d   1       0.721   2.960  -0.709  0.00  0.00    -0.002 A 
ATOM      7  C5  OXE d   1      -0.424   3.507  -1.298  0.00  0.00    -0.002 A 
ATOM      8  C6  OXE d   1      -1.628   3.477  -0.603  0.00  0.00     0.003 A 
ENDROOT
TORSDOF 0
ENDMDL
