MODEL 1
REMARK minimizedAffinity 7.99656916
REMARK minimizedRMSD -1
REMARK  0 active torsions:
REMARK  status: ('A' for Active; 'I' for Inactive)
ROOT
ATOM      1  C2' OXE d   1       4.617  -4.857   0.486  0.00  0.00     0.078 C 
ATOM      2  C1' OXE d   1       2.652  -2.851   0.463  0.00  0.00     0.078 C 
ATOM      3  C1  OXE d   1       2.546  -3.952  -0.563  0.00  0.00    -0.078 A 
ATOM      4  C2  OXE d   1       3.538  -4.903  -0.575  0.00  0.00    -0.078 A 
ATOM      5  C3  OXE d   1       3.459  -5.970  -1.465  0.00  0.00     0.003 A 
ATOM      6  C4  OXE d   1       2.464  -6.000  -2.449  0.00  0.00    -0.002 A 
ATOM      7  C5  OXE d   1       1.467  -5.019  -2.481  0.00  0.00    -0.002 A 
ATOM      8  C6  OXE d   1       1.469  -4.014  -1.520  0.00  0.00     0.003 A 
ENDROOT
TORSDOF 0
ENDMDL
