MODEL 1
REMARK minimizedAffinity 14.9817009
REMARK minimizedRMSD -1
REMARK  0 active torsions:
REMARK  status: ('A' for Active; 'I' for Inactive)
ROOT
ATOM      1  C2' OXE d   1      -1.204   2.590  -3.584  0.00  0.00     0.078 C 
ATOM      2  C1' OXE d   1      -2.697   0.892  -1.919  0.00  0.00     0.078 C 
ATOM      3  C1  OXE d   1      -1.527   1.624  -1.311  0.00  0.00    -0.078 A 
ATOM      4  C2  OXE d   1      -0.774   2.416  -2.144  0.00  0.00    -0.078 A 
ATOM      5  C3  OXE d   1       0.283   3.156  -1.622  0.00  0.00     0.003 A 
ATOM      6  C4  OXE d   1       0.681   2.983  -0.290  0.00  0.00    -0.002 A 
ATOM      7  C5  OXE d   1      -0.048   2.150   0.565  0.00  0.00    -0.002 A 
ATOM      8  C6  OXE d   1      -1.177   1.498   0.083  0.00  0.00     0.003 A 
ENDROOT
TORSDOF 0
ENDMDL
