MODEL 1
REMARK minimizedAffinity 14.4518862
REMARK minimizedRMSD -1
REMARK  0 active torsions:
REMARK  status: ('A' for Active; 'I' for Inactive)
ROOT
ATOM      1  C2' OXE d   1       1.299   4.129  -0.246  0.00  0.00     0.078 C 
ATOM      2  C1' OXE d   1      -0.161   1.807   0.352  0.00  0.00     0.078 C 
ATOM      3  C1  OXE d   1      -0.489   2.534  -0.928  0.00  0.00    -0.078 A 
ATOM      4  C2  OXE d   1       0.198   3.694  -1.190  0.00  0.00    -0.078 A 
ATOM      5  C3  OXE d   1      -0.026   4.374  -2.384  0.00  0.00     0.003 A 
ATOM      6  C4  OXE d   1      -1.053   3.972  -3.246  0.00  0.00    -0.002 A 
ATOM      7  C5  OXE d   1      -1.792   2.814  -2.979  0.00  0.00    -0.002 A 
ATOM      8  C6  OXE d   1      -1.494   2.062  -1.848  0.00  0.00     0.003 A 
ENDROOT
TORSDOF 0
ENDMDL
