MODEL 1
REMARK minimizedAffinity -4.64770508
REMARK minimizedRMSD -1
REMARK  0 active torsions:
REMARK  status: ('A' for Active; 'I' for Inactive)
ROOT
ATOM      1  C2' OXE d   1      -0.356   2.883   3.644  0.00  0.00     0.078 C 
ATOM      2  C1' OXE d   1      -1.854   0.870   2.385  0.00  0.00     0.078 C 
ATOM      3  C1  OXE d   1      -1.068   1.814   1.509  0.00  0.00    -0.078 A 
ATOM      4  C2  OXE d   1      -0.376   2.825   2.132  0.00  0.00    -0.078 A 
ATOM      5  C3  OXE d   1       0.409   3.690   1.375  0.00  0.00     0.003 A 
ATOM      6  C4  OXE d   1       0.378   3.636  -0.024  0.00  0.00    -0.002 A 
ATOM      7  C5  OXE d   1      -0.353   2.639  -0.679  0.00  0.00    -0.002 A 
ATOM      8  C6  OXE d   1      -1.045   1.696   0.072  0.00  0.00     0.003 A 
ENDROOT
TORSDOF 0
ENDMDL
