MODEL 1
REMARK minimizedAffinity 9.19204044
REMARK minimizedRMSD -1
REMARK  0 active torsions:
REMARK  status: ('A' for Active; 'I' for Inactive)
ROOT
ATOM      1  C2' OXE d   1       1.354   4.589  -1.861  0.00  0.00     0.078 C 
ATOM      2  C1' OXE d   1      -1.114   3.802  -2.943  0.00  0.00     0.078 C 
ATOM      3  C1  OXE d   1      -0.678   3.164  -1.648  0.00  0.00    -0.078 A 
ATOM      4  C2  OXE d   1       0.552   3.520  -1.150  0.00  0.00    -0.078 A 
ATOM      5  C3  OXE d   1       0.979   3.002   0.070  0.00  0.00     0.003 A 
ATOM      6  C4  OXE d   1       0.236   2.007   0.716  0.00  0.00    -0.002 A 
ATOM      7  C5  OXE d   1      -1.001   1.600   0.205  0.00  0.00    -0.002 A 
ATOM      8  C6  OXE d   1      -1.491   2.198  -0.950  0.00  0.00     0.003 A 
ENDROOT
TORSDOF 0
ENDMDL
