MODEL 1
REMARK minimizedAffinity 19.1912651
REMARK minimizedRMSD -1
REMARK  0 active torsions:
REMARK  status: ('A' for Active; 'I' for Inactive)
ROOT
ATOM      1  C2' OXE d   1      -4.927   5.224   2.325  0.00  0.00     0.078 C 
ATOM      2  C1' OXE d   1      -3.351   3.215   1.158  0.00  0.00     0.078 C 
ATOM      3  C1  OXE d   1      -4.115   4.134   0.237  0.00  0.00    -0.078 A 
ATOM      4  C2  OXE d   1      -4.920   5.084   0.818  0.00  0.00    -0.078 A 
ATOM      5  C3  OXE d   1      -5.603   5.993   0.015  0.00  0.00     0.003 A 
ATOM      6  C4  OXE d   1      -5.599   5.851  -1.378  0.00  0.00    -0.002 A 
ATOM      7  C5  OXE d   1      -4.817   4.865  -1.989  0.00  0.00    -0.002 A 
ATOM      8  C6  OXE d   1      -4.037   4.027  -1.199  0.00  0.00     0.003 A 
ENDROOT
TORSDOF 0
ENDMDL
