MODEL 1
REMARK minimizedAffinity 20.221899
REMARK minimizedRMSD -1
REMARK  0 active torsions:
REMARK  status: ('A' for Active; 'I' for Inactive)
ROOT
ATOM      1  C2' OXE d   1       6.000  -2.000   2.618  0.00  0.00     0.078 C 
ATOM      2  C1' OXE d   1       5.271  -4.599   1.847  0.00  0.00     0.078 C 
ATOM      3  C1  OXE d   1       4.263  -3.496   1.643  0.00  0.00    -0.078 A 
ATOM      4  C2  OXE d   1       4.610  -2.236   2.066  0.00  0.00    -0.078 A 
ATOM      5  C3  OXE d   1       3.738  -1.172   1.852  0.00  0.00     0.003 A 
ATOM      6  C4  OXE d   1       2.451  -1.400   1.351  0.00  0.00    -0.002 A 
ATOM      7  C5  OXE d   1       2.062  -2.683   0.951  0.00  0.00    -0.002 A 
ATOM      8  C6  OXE d   1       2.969  -3.732   1.051  0.00  0.00     0.003 A 
ENDROOT
TORSDOF 0
ENDMDL
