MODEL 1
REMARK minimizedAffinity 4.10275745
REMARK minimizedRMSD -1
REMARK  0 active torsions:
REMARK  status: ('A' for Active; 'I' for Inactive)
ROOT
ATOM      1  C2' OXE d   1       1.328   3.098   2.026  0.00  0.00     0.078 C 
ATOM      2  C1' OXE d   1       0.839   2.283  -0.615  0.00  0.00     0.078 C 
ATOM      3  C1  OXE d   1      -0.280   2.135   0.385  0.00  0.00    -0.078 A 
ATOM      4  C2  OXE d   1      -0.017   2.493   1.686  0.00  0.00    -0.078 A 
ATOM      5  C3  OXE d   1      -1.031   2.427   2.637  0.00  0.00     0.003 A 
ATOM      6  C4  OXE d   1      -2.269   1.857   2.316  0.00  0.00    -0.002 A 
ATOM      7  C5  OXE d   1      -2.544   1.450   1.007  0.00  0.00    -0.002 A 
ATOM      8  C6  OXE d   1      -1.578   1.621   0.022  0.00  0.00     0.003 A 
ENDROOT
TORSDOF 0
ENDMDL
