MODEL 1
REMARK minimizedAffinity 6.84541368
REMARK minimizedRMSD -1
REMARK  0 active torsions:
REMARK  status: ('A' for Active; 'I' for Inactive)
ROOT
ATOM      1  C2' OXE d   1      -2.732   1.245  -1.894  0.00  0.00     0.078 C 
ATOM      2  C1' OXE d   1      -1.426   2.930  -3.721  0.00  0.00     0.078 C 
ATOM      3  C1  OXE d   1      -0.889   2.867  -2.313  0.00  0.00    -0.078 A 
ATOM      4  C2  OXE d   1      -1.562   2.076  -1.414  0.00  0.00    -0.078 A 
ATOM      5  C3  OXE d   1      -1.076   1.940  -0.117  0.00  0.00     0.003 A 
ATOM      6  C4  OXE d   1       0.001   2.720   0.323  0.00  0.00    -0.002 A 
ATOM      7  C5  OXE d   1       0.677   3.562  -0.567  0.00  0.00    -0.002 A 
ATOM      8  C6  OXE d   1       0.272   3.615  -1.896  0.00  0.00     0.003 A 
ENDROOT
TORSDOF 0
ENDMDL
