MODEL 1
REMARK minimizedAffinity 3.71285677
REMARK minimizedRMSD -1
REMARK  0 active torsions:
REMARK  status: ('A' for Active; 'I' for Inactive)
ROOT
ATOM      1  C   UNL d   1       1.104  -0.735   3.371  0.00  0.00     0.020 A 
ATOM      2  C1  UNL d   1       2.199  -0.736   2.508  0.00  0.00     0.020 A 
ATOM      3  C2  UNL d   1       3.014  -1.867   2.416  0.00  0.00     0.034 A 
ATOM      4  C3  UNL d   1       2.735  -3.000   3.188  0.00  0.00     0.017 A 
ATOM      5  C4  UNL d   1       1.635  -2.998   4.054  0.00  0.00     0.017 A 
ATOM      6  C5  UNL d   1       0.822  -1.864   4.142  0.00  0.00     0.034 A 
ATOM      7 Cl   UNL d   1       1.228  -4.359   5.038  0.00  0.00    -0.070 Cl
ATOM      8 Cl1  UNL d   1       3.785  -4.362   3.024  0.00  0.00    -0.070 Cl
ENDROOT
TORSDOF 0
ENDMDL
