MODEL 1
REMARK minimizedAffinity 1.86350632
REMARK minimizedRMSD -1
REMARK  0 active torsions:
REMARK  status: ('A' for Active; 'I' for Inactive)
ROOT
ATOM      1  C   UNL d   1       1.006  -0.983   3.642  0.00  0.00     0.020 A 
ATOM      2  C1  UNL d   1       1.939  -0.692   2.648  0.00  0.00     0.020 A 
ATOM      3  C2  UNL d   1       2.786  -1.694   2.169  0.00  0.00     0.034 A 
ATOM      4  C3  UNL d   1       2.701  -2.992   2.684  0.00  0.00     0.017 A 
ATOM      5  C4  UNL d   1       1.765  -3.284   3.682  0.00  0.00     0.017 A 
ATOM      6  C5  UNL d   1       0.919  -2.277   4.158  0.00  0.00     0.034 A 
ATOM      7 Cl   UNL d   1       1.601  -4.863   4.367  0.00  0.00    -0.070 Cl
ATOM      8 Cl1  UNL d   1       3.779  -4.182   2.045  0.00  0.00    -0.070 Cl
ENDROOT
TORSDOF 0
ENDMDL
