MODEL 1
REMARK minimizedAffinity 1.12388515
REMARK minimizedRMSD -1
REMARK  0 active torsions:
REMARK  status: ('A' for Active; 'I' for Inactive)
ROOT
ATOM      1  C   UNL d   1       1.624  -4.050   3.177  0.00  0.00     0.020 A 
ATOM      2  C1  UNL d   1       2.354  -3.797   2.016  0.00  0.00     0.020 A 
ATOM      3  C2  UNL d   1       2.741  -2.492   1.705  0.00  0.00     0.034 A 
ATOM      4  C3  UNL d   1       2.400  -1.435   2.557  0.00  0.00     0.017 A 
ATOM      5  C4  UNL d   1       1.667  -1.690   3.722  0.00  0.00     0.017 A 
ATOM      6  C5  UNL d   1       1.282  -2.999   4.028  0.00  0.00     0.034 A 
ATOM      7 Cl   UNL d   1       1.209  -0.438   4.821  0.00  0.00    -0.070 Cl
ATOM      8 Cl1  UNL d   1       2.912   0.154   2.111  0.00  0.00    -0.070 Cl
ENDROOT
TORSDOF 0
ENDMDL
