MODEL 1
REMARK minimizedAffinity 4.06807804
REMARK minimizedRMSD -1
REMARK  0 active torsions:
REMARK  status: ('A' for Active; 'I' for Inactive)
ROOT
ATOM      1  C   UNL d   1       2.003  -5.745  -3.780  0.00  0.00     0.020 A 
ATOM      2  C1  UNL d   1       2.067  -5.744  -5.173  0.00  0.00     0.020 A 
ATOM      3  C2  UNL d   1       3.308  -5.733  -5.815  0.00  0.00     0.034 A 
ATOM      4  C3  UNL d   1       4.489  -5.722  -5.064  0.00  0.00     0.017 A 
ATOM      5  C4  UNL d   1       4.423  -5.722  -3.666  0.00  0.00     0.017 A 
ATOM      6  C5  UNL d   1       3.179  -5.734  -3.028  0.00  0.00     0.034 A 
ATOM      7 Cl   UNL d   1       5.837  -5.709  -2.671  0.00  0.00    -0.070 Cl
ATOM      8 Cl1  UNL d   1       5.987  -5.709  -5.923  0.00  0.00    -0.070 Cl
ENDROOT
TORSDOF 0
ENDMDL
