MODEL 1
REMARK minimizedAffinity 6.22462654
REMARK minimizedRMSD -1
REMARK  0 active torsions:
REMARK  status: ('A' for Active; 'I' for Inactive)
ROOT
ATOM      1  C   UNL d   1      -3.362   1.460  -4.173  0.00  0.00     0.020 A 
ATOM      2  C1  UNL d   1      -3.311   1.246  -2.796  0.00  0.00     0.020 A 
ATOM      3  C2  UNL d   1      -3.405  -0.051  -2.287  0.00  0.00     0.034 A 
ATOM      4  C3  UNL d   1      -3.550  -1.139  -3.155  0.00  0.00     0.017 A 
ATOM      5  C4  UNL d   1      -3.601  -0.924  -4.537  0.00  0.00     0.017 A 
ATOM      6  C5  UNL d   1      -3.507   0.377  -5.042  0.00  0.00     0.034 A 
ATOM      7 Cl   UNL d   1      -3.779  -2.216  -5.670  0.00  0.00    -0.070 Cl
ATOM      8 Cl1  UNL d   1      -3.660  -2.715  -2.456  0.00  0.00    -0.070 Cl
ENDROOT
TORSDOF 0
ENDMDL
