MODEL 1
REMARK minimizedAffinity 8.11987305
REMARK minimizedRMSD -1
REMARK  0 active torsions:
REMARK  status: ('A' for Active; 'I' for Inactive)
ROOT
ATOM      1  C   UNL d   1       1.028  -1.634   2.905  0.00  0.00     0.020 A 
ATOM      2  C1  UNL d   1       2.184  -1.384   2.168  0.00  0.00     0.020 A 
ATOM      3  C2  UNL d   1       3.318  -2.177   2.356  0.00  0.00     0.034 A 
ATOM      4  C3  UNL d   1       3.298  -3.225   3.284  0.00  0.00     0.017 A 
ATOM      5  C4  UNL d   1       2.136  -3.475   4.024  0.00  0.00     0.017 A 
ATOM      6  C5  UNL d   1       1.004  -2.678   3.831  0.00  0.00     0.034 A 
ATOM      7 Cl   UNL d   1       2.035  -4.749   5.187  0.00  0.00    -0.070 Cl
ATOM      8 Cl1  UNL d   1       4.735  -4.166   3.466  0.00  0.00    -0.070 Cl
ENDROOT
TORSDOF 0
ENDMDL
