MODEL 1
REMARK minimizedAffinity 8.03610706
REMARK minimizedRMSD -1
REMARK  0 active torsions:
REMARK  status: ('A' for Active; 'I' for Inactive)
ROOT
ATOM      1  C   UNL d   1       2.487  -0.858   1.491  0.00  0.00     0.020 A 
ATOM      2  C1  UNL d   1       1.563  -0.458   2.455  0.00  0.00     0.020 A 
ATOM      3  C2  UNL d   1       0.994  -1.403   3.312  0.00  0.00     0.034 A 
ATOM      4  C3  UNL d   1       1.349  -2.753   3.205  0.00  0.00     0.017 A 
ATOM      5  C4  UNL d   1       2.277  -3.154   2.237  0.00  0.00     0.017 A 
ATOM      6  C5  UNL d   1       2.843  -2.203   1.382  0.00  0.00     0.034 A 
ATOM      7 Cl   UNL d   1       2.764  -4.801   2.046  0.00  0.00    -0.070 Cl
ATOM      8 Cl1  UNL d   1       0.607  -3.867   4.298  0.00  0.00    -0.070 Cl
ENDROOT
TORSDOF 0
ENDMDL
