MODEL 1
REMARK minimizedAffinity 5.64801884
REMARK minimizedRMSD -1
REMARK  0 active torsions:
REMARK  status: ('A' for Active; 'I' for Inactive)
ROOT
ATOM      1  C   UNL d   1       4.329  -5.814  -2.083  0.00  0.00     0.020 A 
ATOM      2  C1  UNL d   1       2.934  -5.816  -2.093  0.00  0.00     0.020 A 
ATOM      3  C2  UNL d   1       2.245  -5.873  -3.306  0.00  0.00     0.034 A 
ATOM      4  C3  UNL d   1       2.950  -5.929  -4.514  0.00  0.00     0.017 A 
ATOM      5  C4  UNL d   1       4.349  -5.928  -4.503  0.00  0.00     0.017 A 
ATOM      6  C5  UNL d   1       5.034  -5.870  -3.286  0.00  0.00     0.034 A 
ATOM      7 Cl   UNL d   1       5.288  -5.995  -5.953  0.00  0.00    -0.070 Cl
ATOM      8 Cl1  UNL d   1       2.032  -5.999  -5.977  0.00  0.00    -0.070 Cl
ENDROOT
TORSDOF 0
ENDMDL
