MODEL 1
REMARK minimizedAffinity 12.175808
REMARK minimizedRMSD -1
REMARK  0 active torsions:
REMARK  status: ('A' for Active; 'I' for Inactive)
ROOT
ATOM      1  C   UNL d   1       2.026  -0.645   2.575  0.00  0.00     0.020 A 
ATOM      2  C1  UNL d   1       3.082  -1.422   2.101  0.00  0.00     0.020 A 
ATOM      3  C2  UNL d   1       3.025  -2.813   2.201  0.00  0.00     0.034 A 
ATOM      4  C3  UNL d   1       1.909  -3.432   2.776  0.00  0.00     0.017 A 
ATOM      5  C4  UNL d   1       0.849  -2.651   3.252  0.00  0.00     0.017 A 
ATOM      6  C5  UNL d   1       0.912  -1.258   3.149  0.00  0.00     0.034 A 
ATOM      7 Cl   UNL d   1      -0.561  -3.343   3.973  0.00  0.00    -0.070 Cl
ATOM      8 Cl1  UNL d   1       1.905  -5.158   2.868  0.00  0.00    -0.070 Cl
ENDROOT
TORSDOF 0
ENDMDL
