MODEL 1
REMARK minimizedAffinity 10.2302446
REMARK minimizedRMSD -1
REMARK  0 active torsions:
REMARK  status: ('A' for Active; 'I' for Inactive)
ROOT
ATOM      1  C   UNL d   1      -2.923   0.568  -2.066  0.00  0.00     0.020 A 
ATOM      2  C1  UNL d   1      -3.108  -0.811  -1.977  0.00  0.00     0.020 A 
ATOM      3  C2  UNL d   1      -3.776  -1.493  -2.996  0.00  0.00     0.034 A 
ATOM      4  C3  UNL d   1      -4.262  -0.796  -4.108  0.00  0.00     0.017 A 
ATOM      5  C4  UNL d   1      -4.076   0.588  -4.196  0.00  0.00     0.017 A 
ATOM      6  C5  UNL d   1      -3.406   1.266  -3.173  0.00  0.00     0.034 A 
ATOM      7 Cl   UNL d   1      -4.647   1.517  -5.538  0.00  0.00    -0.070 Cl
ATOM      8 Cl1  UNL d   1      -5.078  -1.703  -5.331  0.00  0.00    -0.070 Cl
ENDROOT
TORSDOF 0
ENDMDL
