MODEL 1
REMARK minimizedAffinity 0.641919732
REMARK minimizedRMSD -1
REMARK  0 active torsions:
REMARK  status: ('A' for Active; 'I' for Inactive)
ROOT
ATOM      1  C   UNL d   1       2.629  -4.188   2.919  0.00  0.00     0.020 A 
ATOM      2  C1  UNL d   1       2.137  -4.155   4.223  0.00  0.00     0.020 A 
ATOM      3  C2  UNL d   1       1.687  -2.952   4.770  0.00  0.00     0.034 A 
ATOM      4  C3  UNL d   1       1.730  -1.775   4.013  0.00  0.00     0.017 A 
ATOM      5  C4  UNL d   1       2.225  -1.809   2.704  0.00  0.00     0.017 A 
ATOM      6  C5  UNL d   1       2.673  -3.017   2.162  0.00  0.00     0.034 A 
ATOM      7 Cl   UNL d   1       2.308  -0.398   1.709  0.00  0.00    -0.070 Cl
ATOM      8 Cl1  UNL d   1       1.158  -0.322   4.753  0.00  0.00    -0.070 Cl
ENDROOT
TORSDOF 0
ENDMDL
