MODEL 1
REMARK minimizedAffinity 6.77002096
REMARK minimizedRMSD -1
REMARK  0 active torsions:
REMARK  status: ('A' for Active; 'I' for Inactive)
ROOT
ATOM      1  C   UNL d   1      -5.999   4.208  -1.686  0.00  0.00     0.020 A 
ATOM      2  C1  UNL d   1      -5.401   3.397  -0.722  0.00  0.00     0.020 A 
ATOM      3  C2  UNL d   1      -4.476   2.423  -1.105  0.00  0.00     0.034 A 
ATOM      4  C3  UNL d   1      -4.147   2.258  -2.456  0.00  0.00     0.017 A 
ATOM      5  C4  UNL d   1      -4.748   3.073  -3.422  0.00  0.00     0.017 A 
ATOM      6  C5  UNL d   1      -5.673   4.046  -3.033  0.00  0.00     0.034 A 
ATOM      7 Cl   UNL d   1      -4.392   2.928  -5.107  0.00  0.00    -0.070 Cl
ATOM      8 Cl1  UNL d   1      -2.995   1.035  -2.858  0.00  0.00    -0.070 Cl
ENDROOT
TORSDOF 0
ENDMDL
