MODEL 1
REMARK minimizedAffinity 7.24545479
REMARK minimizedRMSD -1
REMARK  0 active torsions:
REMARK  status: ('A' for Active; 'I' for Inactive)
ROOT
ATOM      1  C   UNL d   1       1.390   0.236   2.411  0.00  0.00     0.020 A 
ATOM      2  C1  UNL d   1       2.375  -0.244   1.549  0.00  0.00     0.020 A 
ATOM      3  C2  UNL d   1       2.829  -1.559   1.671  0.00  0.00     0.034 A 
ATOM      4  C3  UNL d   1       2.297  -2.399   2.657  0.00  0.00     0.017 A 
ATOM      5  C4  UNL d   1       1.308  -1.916   3.521  0.00  0.00     0.017 A 
ATOM      6  C5  UNL d   1       0.858  -0.598   3.395  0.00  0.00     0.034 A 
ATOM      7 Cl   UNL d   1       0.605  -2.892   4.762  0.00  0.00    -0.070 Cl
ATOM      8 Cl1  UNL d   1       2.905  -4.014   2.750  0.00  0.00    -0.070 Cl
ENDROOT
TORSDOF 0
ENDMDL
