MODEL 1
REMARK minimizedAffinity -2.14942503
REMARK minimizedRMSD -1
REMARK  1 active torsions:
REMARK  status: ('A' for Active; 'I' for Inactive)
REMARK    1  A    between atoms: C1_2  and  C2_3 
ROOT
ATOM      1  C2  UNL d   1      -0.348  -0.112   0.477  0.00  0.00    -0.077 A 
ATOM      2  C3  UNL d   1      -0.000   0.563  -0.702  0.00  0.00     0.002 A 
ATOM      3  C4  UNL d   1       0.952   0.023  -1.569  0.00  0.00     0.002 A 
ATOM      4  C5  UNL d   1       1.560  -1.194  -1.269  0.00  0.00    -0.004 A 
ATOM      5  C6  UNL d   1       1.222  -1.871  -0.098  0.00  0.00     0.002 A 
ATOM      6  C7  UNL d   1       0.271  -1.333   0.770  0.00  0.00     0.002 A 
ENDROOT
BRANCH   1   7
ATOM      7  C1  UNL d   1      -1.411   0.444   1.389  0.00  0.00     0.055 C 
ATOM      8  C   UNL d   1      -0.819   0.896   2.716  0.00  0.00     0.019 C 
ENDBRANCH   1   7
TORSDOF 1
ENDMDL
