MODEL 1
REMARK minimizedAffinity -4.30735064
REMARK minimizedRMSD -1
REMARK  1 active torsions:
REMARK  status: ('A' for Active; 'I' for Inactive)
REMARK    1  A    between atoms: C1_2  and  C2_3 
ROOT
ATOM      1  C2  UNL d   1       1.188  -0.621  -0.613  0.00  0.00    -0.077 A 
ATOM      2  C3  UNL d   1       1.038   0.760  -0.420  0.00  0.00     0.002 A 
ATOM      3  C4  UNL d   1       1.853   1.661  -1.107  0.00  0.00     0.002 A 
ATOM      4  C5  UNL d   1       2.820   1.193  -1.995  0.00  0.00    -0.004 A 
ATOM      5  C6  UNL d   1       2.978  -0.178  -2.192  0.00  0.00     0.002 A 
ATOM      6  C7  UNL d   1       2.165  -1.081  -1.505  0.00  0.00     0.002 A 
ENDROOT
BRANCH   1   7
ATOM      7  C1  UNL d   1       0.277  -1.593   0.090  0.00  0.00     0.055 C 
ATOM      8  C   UNL d   1      -1.173  -1.393  -0.326  0.00  0.00     0.019 C 
ENDBRANCH   1   7
TORSDOF 1
ENDMDL
