MODEL 1
REMARK minimizedAffinity -4.64746094
REMARK minimizedRMSD -1
REMARK  1 active torsions:
REMARK  status: ('A' for Active; 'I' for Inactive)
REMARK    1  A    between atoms: C1_2  and  C2_3 
ROOT
ATOM      1  C2  UNL d   1       1.112  -0.399  -1.154  0.00  0.00    -0.077 A 
ATOM      2  C3  UNL d   1       0.384  -0.951  -0.090  0.00  0.00     0.002 A 
ATOM      3  C4  UNL d   1      -0.683  -0.250   0.474  0.00  0.00     0.002 A 
ATOM      4  C5  UNL d   1      -1.035   1.004  -0.021  0.00  0.00    -0.004 A 
ATOM      5  C6  UNL d   1      -0.317   1.562  -1.077  0.00  0.00     0.002 A 
ATOM      6  C7  UNL d   1       0.752   0.864  -1.642  0.00  0.00     0.002 A 
ENDROOT
BRANCH   1   7
ATOM      7  C1  UNL d   1       2.233  -1.174  -1.796  0.00  0.00     0.055 C 
ATOM      8  C   UNL d   1       3.238  -0.245  -2.462  0.00  0.00     0.019 C 
ENDBRANCH   1   7
TORSDOF 1
ENDMDL
