MODEL 1
REMARK minimizedAffinity 6.68269825
REMARK minimizedRMSD -1
REMARK  1 active torsions:
REMARK  status: ('A' for Active; 'I' for Inactive)
REMARK    1  A    between atoms: C1_2  and  C2_3 
ROOT
ATOM      1  C2  UNL d   1      -4.542  -2.054   3.460  0.00  0.00    -0.077 A 
ATOM      2  C3  UNL d   1      -3.918  -2.027   4.715  0.00  0.00     0.002 A 
ATOM      3  C4  UNL d   1      -2.759  -1.273   4.911  0.00  0.00     0.002 A 
ATOM      4  C5  UNL d   1      -2.217  -0.538   3.859  0.00  0.00    -0.004 A 
ATOM      5  C6  UNL d   1      -2.829  -0.560   2.607  0.00  0.00     0.002 A 
ATOM      6  C7  UNL d   1      -3.987  -1.313   2.408  0.00  0.00     0.002 A 
ENDROOT
BRANCH   1   7
ATOM      7  C1  UNL d   1      -5.819  -2.827   3.258  0.00  0.00     0.055 C 
ATOM      8  C   UNL d   1      -5.561  -4.326   3.235  0.00  0.00     0.019 C 
ENDBRANCH   1   7
TORSDOF 1
ENDMDL
