MODEL 1
REMARK minimizedAffinity -2.89323783
REMARK minimizedRMSD -1
REMARK  1 active torsions:
REMARK  status: ('A' for Active; 'I' for Inactive)
REMARK    1  A    between atoms: C1_2  and  C2_3 
ROOT
ATOM      1  C2  UNL d   1       0.688  -0.551  -1.314  0.00  0.00    -0.077 A 
ATOM      2  C3  UNL d   1      -0.301  -0.151  -0.404  0.00  0.00     0.002 A 
ATOM      3  C4  UNL d   1      -0.819   1.145  -0.448  0.00  0.00     0.002 A 
ATOM      4  C5  UNL d   1      -0.357   2.049  -1.401  0.00  0.00    -0.004 A 
ATOM      5  C6  UNL d   1       0.628   1.662  -2.309  0.00  0.00     0.002 A 
ATOM      6  C7  UNL d   1       1.147   0.367  -2.266  0.00  0.00     0.002 A 
ENDROOT
BRANCH   1   7
ATOM      7  C1  UNL d   1       1.212  -1.964  -1.300  0.00  0.00     0.055 C 
ATOM      8  C   UNL d   1       1.062  -2.596   0.076  0.00  0.00     0.019 C 
ENDBRANCH   1   7
TORSDOF 1
ENDMDL
