MODEL 1
REMARK minimizedAffinity -2.93451262
REMARK minimizedRMSD -1
REMARK  1 active torsions:
REMARK  status: ('A' for Active; 'I' for Inactive)
REMARK    1  A    between atoms: C1_2  and  C2_3 
ROOT
ATOM      1  C2  UNL d   1       0.774  -0.701  -0.709  0.00  0.00    -0.077 A 
ATOM      2  C3  UNL d   1      -0.147  -1.584  -0.128  0.00  0.00     0.002 A 
ATOM      3  C4  UNL d   1      -1.390  -1.122   0.308  0.00  0.00     0.002 A 
ATOM      4  C5  UNL d   1      -1.725   0.223   0.163  0.00  0.00    -0.004 A 
ATOM      5  C6  UNL d   1      -0.815   1.109  -0.411  0.00  0.00     0.002 A 
ATOM      6  C7  UNL d   1       0.429   0.649  -0.846  0.00  0.00     0.002 A 
ENDROOT
BRANCH   1   7
ATOM      7  C1  UNL d   1       2.096  -1.208  -1.225  0.00  0.00     0.055 C 
ATOM      8  C   UNL d   1       2.693  -0.254  -2.249  0.00  0.00     0.019 C 
ENDBRANCH   1   7
TORSDOF 1
ENDMDL
