MODEL 1
REMARK minimizedAffinity -4.68310022
REMARK minimizedRMSD -1
REMARK  1 active torsions:
REMARK  status: ('A' for Active; 'I' for Inactive)
REMARK    1  A    between atoms: C1_2  and  C2_3 
ROOT
ATOM      1  C2  UNL d   1      -0.327  -0.031  -0.099  0.00  0.00    -0.077 A 
ATOM      2  C3  UNL d   1      -0.238  -1.425   0.022  0.00  0.00     0.002 A 
ATOM      3  C4  UNL d   1       0.921  -2.095  -0.377  0.00  0.00     0.002 A 
ATOM      4  C5  UNL d   1       1.999  -1.380  -0.894  0.00  0.00    -0.004 A 
ATOM      5  C6  UNL d   1       1.919   0.006  -1.020  0.00  0.00     0.002 A 
ATOM      6  C7  UNL d   1       0.761   0.678  -0.623  0.00  0.00     0.002 A 
ENDROOT
BRANCH   1   7
ATOM      7  C1  UNL d   1      -1.556   0.699   0.376  0.00  0.00     0.055 C 
ATOM      8  C   UNL d   1      -1.882   0.352   1.821  0.00  0.00     0.019 C 
ENDBRANCH   1   7
TORSDOF 1
ENDMDL
