MODEL 1
REMARK minimizedAffinity -3.86067057
REMARK minimizedRMSD -1
REMARK  1 active torsions:
REMARK  status: ('A' for Active; 'I' for Inactive)
REMARK    1  A    between atoms: C1_2  and  C2_3 
ROOT
ATOM      1  C2  UNL d   1      -0.426   0.030  -0.270  0.00  0.00    -0.077 A 
ATOM      2  C3  UNL d   1      -0.126   1.108  -1.115  0.00  0.00     0.002 A 
ATOM      3  C4  UNL d   1       0.986   1.056  -1.958  0.00  0.00     0.002 A 
ATOM      4  C5  UNL d   1       1.804  -0.072  -1.967  0.00  0.00    -0.004 A 
ATOM      5  C6  UNL d   1       1.515  -1.148  -1.128  0.00  0.00     0.002 A 
ATOM      6  C7  UNL d   1       0.405  -1.097  -0.284  0.00  0.00     0.002 A 
ENDROOT
BRANCH   1   7
ATOM      7  C1  UNL d   1      -1.652   0.064   0.604  0.00  0.00     0.055 C 
ATOM      8  C   UNL d   1      -1.374   0.772   1.922  0.00  0.00     0.019 C 
ENDBRANCH   1   7
TORSDOF 1
ENDMDL
