MODEL 1
REMARK minimizedAffinity -5.12677813
REMARK minimizedRMSD -1
REMARK  1 active torsions:
REMARK  status: ('A' for Active; 'I' for Inactive)
REMARK    1  A    between atoms: C1_2  and  C2_3 
ROOT
ATOM      1  C2  UNL d   1       1.078  -0.011  -0.559  0.00  0.00    -0.077 A 
ATOM      2  C3  UNL d   1       0.820   1.242  -1.135  0.00  0.00     0.002 A 
ATOM      3  C4  UNL d   1       1.776   1.857  -1.945  0.00  0.00     0.002 A 
ATOM      4  C5  UNL d   1       2.994   1.226  -2.190  0.00  0.00    -0.004 A 
ATOM      5  C6  UNL d   1       3.261  -0.019  -1.621  0.00  0.00     0.002 A 
ATOM      6  C7  UNL d   1       2.306  -0.635  -0.810  0.00  0.00     0.002 A 
ENDROOT
BRANCH   1   7
ATOM      7  C1  UNL d   1       0.028  -0.698   0.275  0.00  0.00     0.055 C 
ATOM      8  C   UNL d   1      -1.282   0.077   0.265  0.00  0.00     0.019 C 
ENDBRANCH   1   7
TORSDOF 1
ENDMDL
