MODEL 1
REMARK minimizedAffinity -4.63386631
REMARK minimizedRMSD -1
REMARK  1 active torsions:
REMARK  status: ('A' for Active; 'I' for Inactive)
REMARK    1  A    between atoms: C1_2  and  C2_3 
ROOT
ATOM      1  C2  UNL d   1       2.115   0.287  -1.968  0.00  0.00    -0.077 A 
ATOM      2  C3  UNL d   1       3.013  -0.712  -2.370  0.00  0.00     0.002 A 
ATOM      3  C4  UNL d   1       3.789  -0.543  -3.518  0.00  0.00     0.002 A 
ATOM      4  C5  UNL d   1       3.678   0.624  -4.271  0.00  0.00    -0.004 A 
ATOM      5  C6  UNL d   1       2.786   1.622  -3.881  0.00  0.00     0.002 A 
ATOM      6  C7  UNL d   1       2.009   1.455  -2.734  0.00  0.00     0.002 A 
ENDROOT
BRANCH   1   7
ATOM      7  C1  UNL d   1       1.313   0.128  -0.703  0.00  0.00     0.055 C 
ATOM      8  C   UNL d   1       0.399   1.323  -0.473  0.00  0.00     0.019 C 
ENDBRANCH   1   7
TORSDOF 1
ENDMDL
