MODEL 1
REMARK minimizedAffinity -2.99240327
REMARK minimizedRMSD -1
REMARK  0 active torsions:
REMARK  status: ('A' for Active; 'I' for Inactive)
ROOT
ATOM      1  C2' OXE d   1      -1.955  -0.158   1.210  0.00  0.00     0.078 C 
ATOM      2  C1' OXE d   1       0.483  -0.972   2.340  0.00  0.00     0.078 C 
ATOM      3  C1  OXE d   1       0.442  -0.735   0.851  0.00  0.00    -0.078 A 
ATOM      4  C2  OXE d   1      -0.767  -0.382   0.300  0.00  0.00    -0.078 A 
ATOM      5  C3  OXE d   1      -0.848  -0.099  -1.061  0.00  0.00     0.003 A 
ATOM      6  C4  OXE d   1       0.253  -0.318  -1.897  0.00  0.00    -0.002 A 
ATOM      7  C5  OXE d   1       1.483  -0.716  -1.362  0.00  0.00    -0.002 A 
ATOM      8  C6  OXE d   1       1.605  -0.887   0.012  0.00  0.00     0.003 A 
ENDROOT
TORSDOF 0
ENDMDL
