MODEL 1
REMARK minimizedAffinity -5.78486204
REMARK minimizedRMSD -1
REMARK  0 active torsions:
REMARK  status: ('A' for Active; 'I' for Inactive)
ROOT
ATOM      1  C2' OXE d   1      -2.270  -0.360   1.140  0.00  0.00     0.078 C 
ATOM      2  C1' OXE d   1      -0.482  -0.094  -1.007  0.00  0.00     0.078 C 
ATOM      3  C1  OXE d   1       0.095  -0.386   0.356  0.00  0.00    -0.078 A 
ATOM      4  C2  OXE d   1      -0.784  -0.468   1.409  0.00  0.00    -0.078 A 
ATOM      5  C3  OXE d   1      -0.311  -0.790   2.678  0.00  0.00     0.003 A 
ATOM      6  C4  OXE d   1       1.065  -0.878   2.920  0.00  0.00    -0.002 A 
ATOM      7  C5  OXE d   1       1.980  -0.758   1.868  0.00  0.00    -0.002 A 
ATOM      8  C6  OXE d   1       1.510  -0.555   0.576  0.00  0.00     0.003 A 
ENDROOT
TORSDOF 0
ENDMDL
