MODEL 1
REMARK minimizedAffinity -5.27077627
REMARK minimizedRMSD -1
REMARK  0 active torsions:
REMARK  status: ('A' for Active; 'I' for Inactive)
ROOT
ATOM      1  C2' OXE d   1      -2.597  -0.415   1.124  0.00  0.00     0.078 C 
ATOM      2  C1' OXE d   1      -0.601   0.194  -0.753  0.00  0.00     0.078 C 
ATOM      3  C1  OXE d   1      -0.166  -0.151   0.650  0.00  0.00    -0.078 A 
ATOM      4  C2  OXE d   1      -1.152  -0.402   1.574  0.00  0.00    -0.078 A 
ATOM      5  C3  OXE d   1      -0.804  -0.778   2.868  0.00  0.00     0.003 A 
ATOM      6  C4  OXE d   1       0.534  -0.754   3.278  0.00  0.00    -0.002 A 
ATOM      7  C5  OXE d   1       1.551  -0.462   2.363  0.00  0.00    -0.002 A 
ATOM      8  C6  OXE d   1       1.222  -0.201   1.038  0.00  0.00     0.003 A 
ENDROOT
TORSDOF 0
ENDMDL
