MODEL 1
REMARK minimizedAffinity -3.18986249
REMARK minimizedRMSD -1
REMARK  0 active torsions:
REMARK  status: ('A' for Active; 'I' for Inactive)
ROOT
ATOM      1  C2' OXE d   1      -1.770   0.035   0.626  0.00  0.00     0.078 C 
ATOM      2  C1' OXE d   1      -0.151   0.009  -1.667  0.00  0.00     0.078 C 
ATOM      3  C1  OXE d   1       0.519  -0.190  -0.330  0.00  0.00    -0.078 A 
ATOM      4  C2  OXE d   1      -0.274  -0.129   0.790  0.00  0.00    -0.078 A 
ATOM      5  C3  OXE d   1       0.284  -0.361   2.044  0.00  0.00     0.003 A 
ATOM      6  C4  OXE d   1       1.670  -0.502   2.187  0.00  0.00    -0.002 A 
ATOM      7  C5  OXE d   1       2.501  -0.528   1.062  0.00  0.00    -0.002 A 
ATOM      8  C6  OXE d   1       1.938  -0.416  -0.204  0.00  0.00     0.003 A 
ENDROOT
TORSDOF 0
ENDMDL
