MODEL 1
REMARK minimizedAffinity -3.21225286
REMARK minimizedRMSD -1
REMARK  0 active torsions:
REMARK  status: ('A' for Active; 'I' for Inactive)
ROOT
ATOM      1  C2' OXE d   1       1.671  -1.365   2.841  0.00  0.00     0.078 C 
ATOM      2  C1' OXE d   1      -1.081  -1.867   3.065  0.00  0.00     0.078 C 
ATOM      3  C1  OXE d   1      -0.585  -1.220   1.796  0.00  0.00    -0.078 A 
ATOM      4  C2  OXE d   1       0.757  -0.935   1.714  0.00  0.00    -0.078 A 
ATOM      5  C3  OXE d   1       1.276  -0.389   0.544  0.00  0.00     0.003 A 
ATOM      6  C4  OXE d   1       0.422   0.015  -0.489  0.00  0.00    -0.002 A 
ATOM      7  C5  OXE d   1      -0.953  -0.229  -0.410  0.00  0.00    -0.002 A 
ATOM      8  C6  OXE d   1      -1.466  -0.883   0.705  0.00  0.00     0.003 A 
ENDROOT
TORSDOF 0
ENDMDL
