MODEL 1
REMARK minimizedAffinity -4.36595345
REMARK minimizedRMSD -1
REMARK  0 active torsions:
REMARK  status: ('A' for Active; 'I' for Inactive)
ROOT
ATOM      1  C2' OXE d   1      -1.177  -0.409  -0.369  0.00  0.00     0.078 C 
ATOM      2  C1' OXE d   1      -2.498  -0.463   2.108  0.00  0.00     0.078 C 
ATOM      3  C1  OXE d   1      -1.254  -1.302   1.956  0.00  0.00    -0.078 A 
ATOM      4  C2  OXE d   1      -0.640  -1.306   0.726  0.00  0.00    -0.078 A 
ATOM      5  C3  OXE d   1       0.541  -2.020   0.548  0.00  0.00     0.003 A 
ATOM      6  C4  OXE d   1       1.025  -2.855   1.562  0.00  0.00    -0.002 A 
ATOM      7  C5  OXE d   1       0.393  -2.896   2.810  0.00  0.00    -0.002 A 
ATOM      8  C6  OXE d   1      -0.721  -2.095   3.036  0.00  0.00     0.003 A 
ENDROOT
TORSDOF 0
ENDMDL
