MODEL 1
REMARK minimizedAffinity -3.3623023
REMARK minimizedRMSD -1
REMARK  0 active torsions:
REMARK  status: ('A' for Active; 'I' for Inactive)
ROOT
ATOM      1  C2' OXE d   1      -2.344  -0.852   1.053  0.00  0.00     0.078 C 
ATOM      2  C1' OXE d   1      -0.600  -0.232  -1.058  0.00  0.00     0.078 C 
ATOM      3  C1  OXE d   1      -0.009  -0.381   0.322  0.00  0.00    -0.078 A 
ATOM      4  C2  OXE d   1      -0.876  -0.638   1.356  0.00  0.00    -0.078 A 
ATOM      5  C3  OXE d   1      -0.378  -0.839   2.640  0.00  0.00     0.003 A 
ATOM      6  C4  OXE d   1       0.979  -0.629   2.915  0.00  0.00    -0.002 A 
ATOM      7  C5  OXE d   1       1.874  -0.327   1.882  0.00  0.00    -0.002 A 
ATOM      8  C6  OXE d   1       1.404  -0.242   0.576  0.00  0.00     0.003 A 
ENDROOT
TORSDOF 0
ENDMDL
