MODEL 1
REMARK minimizedAffinity -5.94543409
REMARK minimizedRMSD -1
REMARK  0 active torsions:
REMARK  status: ('A' for Active; 'I' for Inactive)
ROOT
ATOM      1  C2' OXE d   1      -2.112  -0.050   1.501  0.00  0.00     0.078 C 
ATOM      2  C1' OXE d   1      -0.572   0.350  -0.812  0.00  0.00     0.078 C 
ATOM      3  C1  OXE d   1       0.058  -0.408   0.330  0.00  0.00    -0.078 A 
ATOM      4  C2  OXE d   1      -0.687  -0.558   1.476  0.00  0.00    -0.078 A 
ATOM      5  C3  OXE d   1      -0.174  -1.296   2.539  0.00  0.00     0.003 A 
ATOM      6  C4  OXE d   1       1.149  -1.754   2.511  0.00  0.00    -0.002 A 
ATOM      7  C5  OXE d   1       1.938  -1.577   1.370  0.00  0.00    -0.002 A 
ATOM      8  C6  OXE d   1       1.394  -0.945   0.257  0.00  0.00     0.003 A 
ENDROOT
TORSDOF 0
ENDMDL
