MODEL 1
REMARK minimizedAffinity -1.91994417
REMARK minimizedRMSD -1
REMARK  0 active torsions:
REMARK  status: ('A' for Active; 'I' for Inactive)
ROOT
ATOM      1  C1  DEN d   1       1.064  -0.793   0.255  0.00  0.00     0.130 A 
ATOM      2  C2  DEN d   1      -0.015  -1.484  -0.446  0.00  0.00    -0.031 A 
ATOM      3  C3  DEN d   1      -1.269  -0.745  -0.195  0.00  0.00     0.027 A 
ATOM      4  C4  DEN d   1      -1.641   1.392   1.199  0.00  0.00     0.027 A 
ATOM      5  C5  DEN d   1      -1.028   2.336   1.993  0.00  0.00    -0.003 A 
ATOM      6  C6  DEN d   1       0.309   2.284   2.288  0.00  0.00     0.001 A 
ATOM      7  C7  DEN d   1       1.085   1.293   1.749  0.00  0.00     0.017 A 
ATOM      8  C8  DEN d   1       0.472   0.333   0.954  0.00  0.00    -0.094 A 
ATOM      9  C9  DEN d   1      -0.878   0.409   0.657  0.00  0.00    -0.072 A 
ENDROOT
TORSDOF 0
ENDMDL
