MODEL 1
REMARK minimizedAffinity -4.75913811
REMARK minimizedRMSD -1
REMARK  0 active torsions:
REMARK  status: ('A' for Active; 'I' for Inactive)
ROOT
ATOM      1  C1  DEN d   1      -1.783   1.954   1.115  0.00  0.00     0.130 A 
ATOM      2  C2  DEN d   1      -1.237   2.417   2.388  0.00  0.00    -0.031 A 
ATOM      3  C3  DEN d   1      -0.072   1.572   2.719  0.00  0.00     0.027 A 
ATOM      4  C4  DEN d   1       0.937  -0.393   1.389  0.00  0.00     0.027 A 
ATOM      5  C5  DEN d   1       0.811  -1.163   0.254  0.00  0.00    -0.003 A 
ATOM      6  C6  DEN d   1      -0.201  -0.971  -0.650  0.00  0.00     0.001 A 
ATOM      7  C7  DEN d   1      -1.101   0.044  -0.456  0.00  0.00     0.017 A 
ATOM      8  C8  DEN d   1      -0.984   0.819   0.691  0.00  0.00    -0.094 A 
ATOM      9  C9  DEN d   1       0.053   0.617   1.585  0.00  0.00    -0.072 A 
ENDROOT
TORSDOF 0
ENDMDL
