MODEL 1
REMARK minimizedAffinity 0.275366575
REMARK minimizedRMSD -1
REMARK  0 active torsions:
REMARK  status: ('A' for Active; 'I' for Inactive)
ROOT
ATOM      1  C1  DEN d   1      -0.220  -0.264  -0.367  0.00  0.00     0.130 A 
ATOM      2  C2  DEN d   1      -1.361   0.020  -1.232  0.00  0.00    -0.031 A 
ATOM      3  C3  DEN d   1      -2.180   1.062  -0.581  0.00  0.00     0.027 A 
ATOM      4  C4  DEN d   1      -1.789   2.263   1.668  0.00  0.00     0.027 A 
ATOM      5  C5  DEN d   1      -0.960   2.351   2.764  0.00  0.00    -0.003 A 
ATOM      6  C6  DEN d   1       0.146   1.556   2.908  0.00  0.00     0.001 A 
ATOM      7  C7  DEN d   1       0.479   0.669   1.919  0.00  0.00     0.017 A 
ATOM      8  C8  DEN d   1      -0.356   0.569   0.814  0.00  0.00    -0.094 A 
ATOM      9  C9  DEN d   1      -1.463   1.390   0.681  0.00  0.00    -0.072 A 
ENDROOT
TORSDOF 0
ENDMDL
