MODEL 1
REMARK minimizedAffinity -1.1583637
REMARK minimizedRMSD -1
REMARK  0 active torsions:
REMARK  status: ('A' for Active; 'I' for Inactive)
ROOT
ATOM      1  C1  DEN d   1       1.340  -1.904  -1.341  0.00  0.00     0.130 A 
ATOM      2  C2  DEN d   1       0.839  -2.811  -0.312  0.00  0.00    -0.031 A 
ATOM      3  C3  DEN d   1      -0.141  -2.073   0.510  0.00  0.00     0.027 A 
ATOM      4  C4  DEN d   1      -0.931   0.372   0.287  0.00  0.00     0.027 A 
ATOM      5  C5  DEN d   1      -0.781   1.539  -0.429  0.00  0.00    -0.003 A 
ATOM      6  C6  DEN d   1       0.104   1.650  -1.468  0.00  0.00     0.001 A 
ATOM      7  C7  DEN d   1       0.842   0.560  -1.851  0.00  0.00     0.017 A 
ATOM      8  C8  DEN d   1       0.701  -0.618  -1.130  0.00  0.00    -0.094 A 
ATOM      9  C9  DEN d   1      -0.208  -0.713  -0.090  0.00  0.00    -0.072 A 
ENDROOT
TORSDOF 0
ENDMDL
