MODEL 1
REMARK minimizedAffinity -1.94628358
REMARK minimizedRMSD -1
REMARK  0 active torsions:
REMARK  status: ('A' for Active; 'I' for Inactive)
ROOT
ATOM      1  C1  DEN d   1       1.304  -0.961  -0.396  0.00  0.00     0.130 A 
ATOM      2  C2  DEN d   1       0.373   0.060   0.077  0.00  0.00    -0.031 A 
ATOM      3  C3  DEN d   1      -0.985  -0.520   0.064  0.00  0.00     0.027 A 
ATOM      4  C4  DEN d   1      -1.732  -2.888  -0.632  0.00  0.00     0.027 A 
ATOM      5  C5  DEN d   1      -1.302  -4.104  -1.114  0.00  0.00    -0.003 A 
ATOM      6  C6  DEN d   1       0.011  -4.345  -1.421  0.00  0.00     0.001 A 
ATOM      7  C7  DEN d   1       0.948  -3.370  -1.205  0.00  0.00     0.017 A 
ATOM      8  C8  DEN d   1       0.521  -2.138  -0.726  0.00  0.00    -0.094 A 
ATOM      9  C9  DEN d   1      -0.809  -1.918  -0.411  0.00  0.00    -0.072 A 
ENDROOT
TORSDOF 0
ENDMDL
