MODEL 1
REMARK minimizedAffinity -3.80325651
REMARK minimizedRMSD -1
REMARK  0 active torsions:
REMARK  status: ('A' for Active; 'I' for Inactive)
ROOT
ATOM      1  C1  DEN d   1       0.159  -0.817  -0.529  0.00  0.00     0.130 A 
ATOM      2  C2  DEN d   1       1.367  -1.217   0.188  0.00  0.00    -0.031 A 
ATOM      3  C3  DEN d   1       1.521  -0.325   1.355  0.00  0.00     0.027 A 
ATOM      4  C4  DEN d   1       0.012   1.622   2.120  0.00  0.00     0.027 A 
ATOM      5  C5  DEN d   1      -1.123   2.345   1.826  0.00  0.00    -0.003 A 
ATOM      6  C6  DEN d   1      -1.884   2.090   0.716  0.00  0.00     0.001 A 
ATOM      7  C7  DEN d   1      -1.546   1.056  -0.116  0.00  0.00     0.017 A 
ATOM      8  C8  DEN d   1      -0.399   0.326   0.171  0.00  0.00    -0.094 A 
ATOM      9  C9  DEN d   1       0.350   0.592   1.304  0.00  0.00    -0.072 A 
ENDROOT
TORSDOF 0
ENDMDL
