MODEL 1
REMARK minimizedAffinity -2.02768826
REMARK minimizedRMSD -1
REMARK  0 active torsions:
REMARK  status: ('A' for Active; 'I' for Inactive)
ROOT
ATOM      1  C1  DEN d   1       4.707   1.548   0.213  0.00  0.00     0.130 A 
ATOM      2  C2  DEN d   1       5.826   0.619   0.349  0.00  0.00    -0.031 A 
ATOM      3  C3  DEN d   1       5.517  -0.307   1.456  0.00  0.00     0.027 A 
ATOM      4  C4  DEN d   1       3.425  -0.397   2.962  0.00  0.00     0.027 A 
ATOM      5  C5  DEN d   1       2.211   0.195   3.233  0.00  0.00    -0.003 A 
ATOM      6  C6  DEN d   1       1.763   1.291   2.545  0.00  0.00     0.001 A 
ATOM      7  C7  DEN d   1       2.515   1.803   1.521  0.00  0.00     0.017 A 
ATOM      8  C8  DEN d   1       3.743   1.216   1.246  0.00  0.00    -0.094 A 
ATOM      9  C9  DEN d   1       4.172   0.101   1.945  0.00  0.00    -0.072 A 
ENDROOT
TORSDOF 0
ENDMDL
