MODEL 1
REMARK minimizedAffinity -2.27591634
REMARK minimizedRMSD -1
REMARK  0 active torsions:
REMARK  status: ('A' for Active; 'I' for Inactive)
ROOT
ATOM      1  C1  DEN d   1       4.121   1.588  -3.418  0.00  0.00     0.130 A 
ATOM      2  C2  DEN d   1       2.744   1.713  -3.887  0.00  0.00    -0.031 A 
ATOM      3  C3  DEN d   1       1.849   1.268  -2.800  0.00  0.00     0.027 A 
ATOM      4  C4  DEN d   1       2.459   0.407  -0.446  0.00  0.00     0.027 A 
ATOM      5  C5  DEN d   1       3.500   0.112   0.406  0.00  0.00    -0.003 A 
ATOM      6  C6  DEN d   1       4.811   0.255   0.035  0.00  0.00     0.001 A 
ATOM      7  C7  DEN d   1       5.115   0.748  -1.206  0.00  0.00     0.017 A 
ATOM      8  C8  DEN d   1       4.071   1.040  -2.074  0.00  0.00    -0.094 A 
ATOM      9  C9  DEN d   1       2.752   0.900  -1.676  0.00  0.00    -0.072 A 
ENDROOT
TORSDOF 0
ENDMDL
