MODEL 1
REMARK minimizedAffinity 11.8906965
REMARK minimizedRMSD -1
REMARK  0 active torsions:
REMARK  status: ('A' for Active; 'I' for Inactive)
ROOT
ATOM      1  C1  DEN d   1      -1.817  -4.126  -2.047  0.00  0.00     0.130 A 
ATOM      2  C2  DEN d   1      -2.480  -2.942  -1.506  0.00  0.00    -0.031 A 
ATOM      3  C3  DEN d   1      -2.633  -1.964  -2.602  0.00  0.00     0.027 A 
ATOM      4  C4  DEN d   1      -1.918  -2.168  -5.072  0.00  0.00     0.027 A 
ATOM      5  C5  DEN d   1      -1.308  -2.983  -6.000  0.00  0.00    -0.003 A 
ATOM      6  C6  DEN d   1      -0.799  -4.211  -5.671  0.00  0.00     0.001 A 
ATOM      7  C7  DEN d   1      -0.931  -4.680  -4.391  0.00  0.00     0.017 A 
ATOM      8  C8  DEN d   1      -1.538  -3.861  -3.447  0.00  0.00    -0.094 A 
ATOM      9  C9  DEN d   1      -2.057  -2.628  -3.802  0.00  0.00    -0.072 A 
ENDROOT
TORSDOF 0
ENDMDL
