MODEL 1
REMARK minimizedAffinity 7.82737875
REMARK minimizedRMSD -1
REMARK  0 active torsions:
REMARK  status: ('A' for Active; 'I' for Inactive)
ROOT
ATOM      1  C1  DEN d   1       2.259  -0.674   1.176  0.00  0.00     0.130 A 
ATOM      2  C2  DEN d   1       1.395   0.426   0.755  0.00  0.00    -0.031 A 
ATOM      3  C3  DEN d   1       2.255   1.567   0.386  0.00  0.00     0.027 A 
ATOM      4  C4  DEN d   1       4.829   1.737   0.419  0.00  0.00     0.027 A 
ATOM      5  C5  DEN d   1       5.994   1.064   0.713  0.00  0.00    -0.003 A 
ATOM      6  C6  DEN d   1       5.996  -0.213   1.209  0.00  0.00     0.001 A 
ATOM      7  C7  DEN d   1       4.809  -0.874   1.385  0.00  0.00     0.017 A 
ATOM      8  C8  DEN d   1       3.629  -0.199   1.098  0.00  0.00    -0.094 A 
ATOM      9  C9  DEN d   1       3.649   1.087   0.586  0.00  0.00    -0.072 A 
ENDROOT
TORSDOF 0
ENDMDL
