MODEL 1
REMARK minimizedAffinity 14.3508739
REMARK minimizedRMSD -1
REMARK  0 active torsions:
REMARK  status: ('A' for Active; 'I' for Inactive)
ROOT
ATOM      1  C1  DEN d   1      -2.035  -2.398  -3.192  0.00  0.00     0.130 A 
ATOM      2  C2  DEN d   1      -3.441  -2.792  -3.227  0.00  0.00    -0.031 A 
ATOM      3  C3  DEN d   1      -3.814  -3.273  -1.882  0.00  0.00     0.027 A 
ATOM      4  C4  DEN d   1      -2.361  -3.440   0.243  0.00  0.00     0.027 A 
ATOM      5  C5  DEN d   1      -1.101  -3.234   0.760  0.00  0.00    -0.003 A 
ATOM      6  C6  DEN d   1      -0.064  -2.770  -0.005  0.00  0.00     0.001 A 
ATOM      7  C7  DEN d   1      -0.280  -2.455  -1.321  0.00  0.00     0.017 A 
ATOM      8  C8  DEN d   1      -1.545  -2.667  -1.852  0.00  0.00    -0.094 A 
ATOM      9  C9  DEN d   1      -2.584  -3.125  -1.058  0.00  0.00    -0.072 A 
ENDROOT
TORSDOF 0
ENDMDL
