MODEL 1
REMARK minimizedAffinity 19.5558128
REMARK minimizedRMSD -1
REMARK  0 active torsions:
REMARK  status: ('A' for Active; 'I' for Inactive)
ROOT
ATOM      1  C1  DEN d   1       0.864   1.352   2.416  0.00  0.00     0.130 A 
ATOM      2  C2  DEN d   1       0.451   2.730   2.166  0.00  0.00    -0.031 A 
ATOM      3  C3  DEN d   1       1.343   3.294   1.134  0.00  0.00     0.027 A 
ATOM      4  C4  DEN d   1       3.312   2.172  -0.098  0.00  0.00     0.027 A 
ATOM      5  C5  DEN d   1       4.050   1.015  -0.214  0.00  0.00    -0.003 A 
ATOM      6  C6  DEN d   1       3.802  -0.090   0.555  0.00  0.00     0.001 A 
ATOM      7  C7  DEN d   1       2.760  -0.078   1.445  0.00  0.00     0.017 A 
ATOM      8  C8  DEN d   1       2.016   1.088   1.574  0.00  0.00    -0.094 A 
ATOM      9  C9  DEN d   1       2.276   2.191   0.778  0.00  0.00    -0.072 A 
ENDROOT
TORSDOF 0
ENDMDL
