MODEL 1
REMARK minimizedAffinity 3.00893092
REMARK minimizedRMSD -1
REMARK  0 active torsions:
REMARK  status: ('A' for Active; 'I' for Inactive)
ROOT
ATOM      1  C1  DEN d   1       3.979   0.848  -3.834  0.00  0.00     0.130 A 
ATOM      2  C2  DEN d   1       3.095   1.716  -4.607  0.00  0.00    -0.031 A 
ATOM      3  C3  DEN d   1       1.971   2.116  -3.736  0.00  0.00     0.027 A 
ATOM      4  C4  DEN d   1       1.520   1.484  -1.277  0.00  0.00     0.027 A 
ATOM      5  C5  DEN d   1       1.984   0.760  -0.200  0.00  0.00    -0.003 A 
ATOM      6  C6  DEN d   1       3.117  -0.006  -0.269  0.00  0.00     0.001 A 
ATOM      7  C7  DEN d   1       3.851  -0.030  -1.426  0.00  0.00     0.017 A 
ATOM      8  C8  DEN d   1       3.385   0.691  -2.518  0.00  0.00    -0.094 A 
ATOM      9  C9  DEN d   1       2.244   1.469  -2.424  0.00  0.00    -0.072 A 
ENDROOT
TORSDOF 0
ENDMDL
