MODEL 1
REMARK minimizedAffinity 2.79774904
REMARK minimizedRMSD -1
REMARK  0 active torsions:
REMARK  status: ('A' for Active; 'I' for Inactive)
ROOT
ATOM      1  C1  DEN d   1      -2.695  -2.595  -2.067  0.00  0.00     0.130 A 
ATOM      2  C2  DEN d   1      -3.569  -3.657  -2.556  0.00  0.00    -0.031 A 
ATOM      3  C3  DEN d   1      -3.403  -4.829  -1.673  0.00  0.00     0.027 A 
ATOM      4  C4  DEN d   1      -1.888  -5.098   0.397  0.00  0.00     0.027 A 
ATOM      5  C5  DEN d   1      -0.955  -4.472   1.194  0.00  0.00    -0.003 A 
ATOM      6  C6  DEN d   1      -0.514  -3.200   0.942  0.00  0.00     0.001 A 
ATOM      7  C7  DEN d   1      -1.041  -2.495  -0.108  0.00  0.00     0.017 A 
ATOM      8  C8  DEN d   1      -1.977  -3.121  -0.920  0.00  0.00    -0.094 A 
ATOM      9  C9  DEN d   1      -2.419  -4.404  -0.641  0.00  0.00    -0.072 A 
ENDROOT
TORSDOF 0
ENDMDL
