MODEL 1
REMARK minimizedAffinity 13.5207825
REMARK minimizedRMSD -1
REMARK  0 active torsions:
REMARK  status: ('A' for Active; 'I' for Inactive)
ROOT
ATOM      1  C1  DEN d   1       4.844   1.140  -3.032  0.00  0.00     0.130 A 
ATOM      2  C2  DEN d   1       3.756   1.974  -3.534  0.00  0.00    -0.031 A 
ATOM      3  C3  DEN d   1       2.684   1.986  -2.518  0.00  0.00     0.027 A 
ATOM      4  C4  DEN d   1       2.608   0.804  -0.226  0.00  0.00     0.027 A 
ATOM      5  C5  DEN d   1       3.294  -0.026   0.632  0.00  0.00    -0.003 A 
ATOM      6  C6  DEN d   1       4.521  -0.548   0.318  0.00  0.00     0.001 A 
ATOM      7  C7  DEN d   1       5.119  -0.210  -0.867  0.00  0.00     0.017 A 
ATOM      8  C8  DEN d   1       4.430   0.620  -1.741  0.00  0.00    -0.094 A 
ATOM      9  C9  DEN d   1       3.196   1.148  -1.400  0.00  0.00    -0.072 A 
ENDROOT
TORSDOF 0
ENDMDL
