MODEL 1
REMARK minimizedAffinity 1.03503478
REMARK minimizedRMSD -1
REMARK  0 active torsions:
REMARK  status: ('A' for Active; 'I' for Inactive)
ROOT
ATOM      1  C1  DEN d   1      -2.343  -4.554   0.969  0.00  0.00     0.130 A 
ATOM      2  C2  DEN d   1      -1.532  -3.380   1.284  0.00  0.00    -0.031 A 
ATOM      3  C3  DEN d   1      -1.445  -2.547   0.068  0.00  0.00     0.027 A 
ATOM      4  C4  DEN d   1      -2.483  -2.954  -2.257  0.00  0.00     0.027 A 
ATOM      5  C5  DEN d   1      -3.245  -3.820  -3.011  0.00  0.00    -0.003 A 
ATOM      6  C6  DEN d   1      -3.727  -4.998  -2.504  0.00  0.00     0.001 A 
ATOM      7  C7  DEN d   1      -3.490  -5.321  -1.194  0.00  0.00     0.017 A 
ATOM      8  C8  DEN d   1      -2.717  -4.456  -0.431  0.00  0.00    -0.094 A 
ATOM      9  C9  DEN d   1      -2.249  -3.264  -0.957  0.00  0.00    -0.072 A 
ENDROOT
TORSDOF 0
ENDMDL
