MODEL 1
REMARK minimizedAffinity 4.52485752
REMARK minimizedRMSD -1
REMARK  0 active torsions:
REMARK  status: ('A' for Active; 'I' for Inactive)
ROOT
ATOM      1  C   UNL d   1       2.475   1.314   0.307  0.00  0.00     0.020 A 
ATOM      2  C1  UNL d   1       1.262   0.648   0.475  0.00  0.00     0.020 A 
ATOM      3  C2  UNL d   1       1.154  -0.379   1.416  0.00  0.00     0.034 A 
ATOM      4  C3  UNL d   1       2.261  -0.742   2.191  0.00  0.00     0.017 A 
ATOM      5  C4  UNL d   1       3.478  -0.073   2.021  0.00  0.00     0.017 A 
ATOM      6  C5  UNL d   1       3.581   0.955   1.078  0.00  0.00     0.034 A 
ATOM      7 Cl   UNL d   1       4.888  -0.464   2.942  0.00  0.00    -0.070 Cl
ATOM      8 Cl1  UNL d   1       2.056  -2.020   3.336  0.00  0.00    -0.070 Cl
ENDROOT
TORSDOF 0
ENDMDL
