MODEL 1
REMARK minimizedAffinity 5.27674484
REMARK minimizedRMSD -1
REMARK  0 active torsions:
REMARK  status: ('A' for Active; 'I' for Inactive)
ROOT
ATOM      1  C   UNL d   1      -6.000   4.857   4.128  0.00  0.00     0.020 A 
ATOM      2  C1  UNL d   1      -5.523   4.868   5.438  0.00  0.00     0.020 A 
ATOM      3  C2  UNL d   1      -4.976   3.708   5.991  0.00  0.00     0.034 A 
ATOM      4  C3  UNL d   1      -4.905   2.533   5.233  0.00  0.00     0.017 A 
ATOM      5  C4  UNL d   1      -5.384   2.524   3.919  0.00  0.00     0.017 A 
ATOM      6  C5  UNL d   1      -5.931   3.688   3.370  0.00  0.00     0.034 A 
ATOM      7 Cl   UNL d   1      -5.331   1.112   2.922  0.00  0.00    -0.070 Cl
ATOM      8 Cl1  UNL d   1      -4.216   1.136   5.981  0.00  0.00    -0.070 Cl
ENDROOT
TORSDOF 0
ENDMDL
