MODEL 1
REMARK minimizedAffinity 5.42605591
REMARK minimizedRMSD -1
REMARK  0 active torsions:
REMARK  status: ('A' for Active; 'I' for Inactive)
ROOT
ATOM      1  C   UNL d   1       1.647  -0.005   1.492  0.00  0.00     0.020 A 
ATOM      2  C1  UNL d   1       2.053  -0.775   2.581  0.00  0.00     0.020 A 
ATOM      3  C2  UNL d   1       3.402  -0.820   2.940  0.00  0.00     0.034 A 
ATOM      4  C3  UNL d   1       4.349  -0.094   2.210  0.00  0.00     0.017 A 
ATOM      5  C4  UNL d   1       3.941   0.679   1.117  0.00  0.00     0.017 A 
ATOM      6  C5  UNL d   1       2.589   0.721   0.762  0.00  0.00     0.034 A 
ATOM      7 Cl   UNL d   1       5.052   1.603   0.168  0.00  0.00    -0.070 Cl
ATOM      8 Cl1  UNL d   1       6.000  -0.195   2.711  0.00  0.00    -0.070 Cl
ENDROOT
TORSDOF 0
ENDMDL
