MODEL 1
REMARK minimizedAffinity 6.37101936
REMARK minimizedRMSD -1
REMARK  0 active torsions:
REMARK  status: ('A' for Active; 'I' for Inactive)
ROOT
ATOM      1  C   UNL d   1      -1.860   4.694   5.417  0.00  0.00     0.020 A 
ATOM      2  C1  UNL d   1      -1.699   4.528   4.042  0.00  0.00     0.020 A 
ATOM      3  C2  UNL d   1      -2.791   4.172   3.248  0.00  0.00     0.034 A 
ATOM      4  C3  UNL d   1      -4.050   3.981   3.829  0.00  0.00     0.017 A 
ATOM      5  C4  UNL d   1      -4.211   4.147   5.209  0.00  0.00     0.017 A 
ATOM      6  C5  UNL d   1      -3.114   4.504   5.999  0.00  0.00     0.034 A 
ATOM      7 Cl   UNL d   1      -5.734   3.928   5.997  0.00  0.00    -0.070 Cl
ATOM      8 Cl1  UNL d   1      -5.357   3.542   2.787  0.00  0.00    -0.070 Cl
ENDROOT
TORSDOF 0
ENDMDL
