MODEL 1
REMARK minimizedAffinity 4.92770481
REMARK minimizedRMSD -1
REMARK  0 active torsions:
REMARK  status: ('A' for Active; 'I' for Inactive)
ROOT
ATOM      1  C   UNL d   1       2.371  -1.792  -3.111  0.00  0.00     0.020 A 
ATOM      2  C1  UNL d   1       3.032  -2.116  -1.927  0.00  0.00     0.020 A 
ATOM      3  C2  UNL d   1       4.149  -1.380  -1.526  0.00  0.00     0.034 A 
ATOM      4  C3  UNL d   1       4.609  -0.316  -2.310  0.00  0.00     0.017 A 
ATOM      5  C4  UNL d   1       3.944   0.009  -3.498  0.00  0.00     0.017 A 
ATOM      6  C5  UNL d   1       2.826  -0.731  -3.895  0.00  0.00     0.034 A 
ATOM      7 Cl   UNL d   1       4.452   1.309  -4.518  0.00  0.00    -0.070 Cl
ATOM      8 Cl1  UNL d   1       5.996   0.552  -1.754  0.00  0.00    -0.070 Cl
ENDROOT
TORSDOF 0
ENDMDL
