MODEL 1
REMARK minimizedAffinity 11.3453321
REMARK minimizedRMSD -1
REMARK  0 active torsions:
REMARK  status: ('A' for Active; 'I' for Inactive)
ROOT
ATOM      1  C   UNL d   1       1.400   0.520   1.071  0.00  0.00     0.020 A 
ATOM      2  C1  UNL d   1       0.564  -0.591   1.175  0.00  0.00     0.020 A 
ATOM      3  C2  UNL d   1       0.966  -1.699   1.925  0.00  0.00     0.034 A 
ATOM      4  C3  UNL d   1       2.207  -1.697   2.574  0.00  0.00     0.017 A 
ATOM      5  C4  UNL d   1       3.044  -0.581   2.469  0.00  0.00     0.017 A 
ATOM      6  C5  UNL d   1       2.637   0.526   1.717  0.00  0.00     0.034 A 
ATOM      7 Cl   UNL d   1       4.589  -0.505   3.241  0.00  0.00    -0.070 Cl
ATOM      8 Cl1  UNL d   1       2.639  -3.101   3.484  0.00  0.00    -0.070 Cl
ENDROOT
TORSDOF 0
ENDMDL
