MODEL 1
REMARK minimizedAffinity 9.9404726
REMARK minimizedRMSD -1
REMARK  0 active torsions:
REMARK  status: ('A' for Active; 'I' for Inactive)
ROOT
ATOM      1  C   UNL d   1       2.136  -0.969   2.554  0.00  0.00     0.020 A 
ATOM      2  C1  UNL d   1       1.719  -0.161   1.496  0.00  0.00     0.020 A 
ATOM      3  C2  UNL d   1       2.617   0.726   0.899  0.00  0.00     0.034 A 
ATOM      4  C3  UNL d   1       3.937   0.807   1.359  0.00  0.00     0.017 A 
ATOM      5  C4  UNL d   1       4.354  -0.004   2.421  0.00  0.00     0.017 A 
ATOM      6  C5  UNL d   1       3.451  -0.890   3.015  0.00  0.00     0.034 A 
ATOM      7 Cl   UNL d   1       5.966   0.041   3.043  0.00  0.00    -0.070 Cl
ATOM      8 Cl1  UNL d   1       4.994   1.926   0.574  0.00  0.00    -0.070 Cl
ENDROOT
TORSDOF 0
ENDMDL
