MODEL 1
REMARK minimizedAffinity 10.0167332
REMARK minimizedRMSD -1
REMARK  0 active torsions:
REMARK  status: ('A' for Active; 'I' for Inactive)
ROOT
ATOM      1  C   UNL d   1       2.611   1.563   0.194  0.00  0.00     0.020 A 
ATOM      2  C1  UNL d   1       1.563   0.663   0.006  0.00  0.00     0.020 A 
ATOM      3  C2  UNL d   1       1.486  -0.493   0.787  0.00  0.00     0.034 A 
ATOM      4  C3  UNL d   1       2.458  -0.751   1.759  0.00  0.00     0.017 A 
ATOM      5  C4  UNL d   1       3.510   0.153   1.948  0.00  0.00     0.017 A 
ATOM      6  C5  UNL d   1       3.582   1.309   1.163  0.00  0.00     0.034 A 
ATOM      7 Cl   UNL d   1       4.747  -0.097   3.129  0.00  0.00    -0.070 Cl
ATOM      8 Cl1  UNL d   1       2.300  -2.199   2.689  0.00  0.00    -0.070 Cl
ENDROOT
TORSDOF 0
ENDMDL
