MODEL 1
REMARK minimizedAffinity 3.97513509
REMARK minimizedRMSD -1
REMARK  0 active torsions:
REMARK  status: ('A' for Active; 'I' for Inactive)
ROOT
ATOM      1  C   UNL d   1       1.392   0.463   0.855  0.00  0.00     0.020 A 
ATOM      2  C1  UNL d   1       1.455  -0.402   1.947  0.00  0.00     0.020 A 
ATOM      3  C2  UNL d   1       2.667  -0.598   2.613  0.00  0.00     0.034 A 
ATOM      4  C3  UNL d   1       3.820   0.071   2.188  0.00  0.00     0.017 A 
ATOM      5  C4  UNL d   1       3.756   0.938   1.091  0.00  0.00     0.017 A 
ATOM      6  C5  UNL d   1       2.541   1.131   0.428  0.00  0.00     0.034 A 
ATOM      7 Cl   UNL d   1       5.137   1.799   0.508  0.00  0.00    -0.070 Cl
ATOM      8 Cl1  UNL d   1       5.284  -0.219   3.059  0.00  0.00    -0.070 Cl
ENDROOT
TORSDOF 0
ENDMDL
