MODEL 1
REMARK minimizedAffinity 9.38039017
REMARK minimizedRMSD -1
REMARK  0 active torsions:
REMARK  status: ('A' for Active; 'I' for Inactive)
ROOT
ATOM      1  C   UNL d   1      -6.000   1.795   2.706  0.00  0.00     0.020 A 
ATOM      2  C1  UNL d   1      -5.444   3.019   2.334  0.00  0.00     0.020 A 
ATOM      3  C2  UNL d   1      -4.333   3.054   1.489  0.00  0.00     0.034 A 
ATOM      4  C3  UNL d   1      -3.774   1.862   1.012  0.00  0.00     0.017 A 
ATOM      5  C4  UNL d   1      -4.333   0.635   1.385  0.00  0.00     0.017 A 
ATOM      6  C5  UNL d   1      -5.445   0.606   2.232  0.00  0.00     0.034 A 
ATOM      7 Cl   UNL d   1      -3.699  -0.877   0.837  0.00  0.00    -0.070 Cl
ATOM      8 Cl1  UNL d   1      -2.401   1.980  -0.030  0.00  0.00    -0.070 Cl
ENDROOT
TORSDOF 0
ENDMDL
