MODEL 1
REMARK minimizedAffinity 4.35602188
REMARK minimizedRMSD -1
REMARK  0 active torsions:
REMARK  status: ('A' for Active; 'I' for Inactive)
ROOT
ATOM      1  C   UNL d   1       2.310  -1.491   2.805  0.00  0.00     0.020 A 
ATOM      2  C1  UNL d   1       1.599  -0.741   1.869  0.00  0.00     0.020 A 
ATOM      3  C2  UNL d   1       2.245   0.260   1.141  0.00  0.00     0.034 A 
ATOM      4  C3  UNL d   1       3.606   0.514   1.347  0.00  0.00     0.017 A 
ATOM      5  C4  UNL d   1       4.319  -0.239   2.287  0.00  0.00     0.017 A 
ATOM      6  C5  UNL d   1       3.667  -1.240   3.014  0.00  0.00     0.034 A 
ATOM      7 Cl   UNL d   1       6.000   0.016   2.597  0.00  0.00    -0.070 Cl
ATOM      8 Cl1  UNL d   1       4.341   1.767   0.411  0.00  0.00    -0.070 Cl
ENDROOT
TORSDOF 0
ENDMDL
