MODEL 1
REMARK minimizedAffinity 12.1299829
REMARK minimizedRMSD -1
REMARK  0 active torsions:
REMARK  status: ('A' for Active; 'I' for Inactive)
ROOT
ATOM      1  C   UNL d   1      -5.978   1.906   2.794  0.00  0.00     0.020 A 
ATOM      2  C1  UNL d   1      -5.110   2.488   1.871  0.00  0.00     0.020 A 
ATOM      3  C2  UNL d   1      -4.264   1.683   1.104  0.00  0.00     0.034 A 
ATOM      4  C3  UNL d   1      -4.283   0.293   1.260  0.00  0.00     0.017 A 
ATOM      5  C4  UNL d   1      -5.155  -0.290   2.187  0.00  0.00     0.017 A 
ATOM      6  C5  UNL d   1      -6.000   0.520   2.952  0.00  0.00     0.034 A 
ATOM      7 Cl   UNL d   1      -5.236  -1.999   2.435  0.00  0.00    -0.070 Cl
ATOM      8 Cl1  UNL d   1      -3.210  -0.641   0.280  0.00  0.00    -0.070 Cl
ENDROOT
TORSDOF 0
ENDMDL
