MODEL 1
REMARK minimizedAffinity 2.70360541
REMARK minimizedRMSD -1
REMARK  0 active torsions:
REMARK  status: ('A' for Active; 'I' for Inactive)
ROOT
ATOM      1  C   UNL d   1       2.388  -1.528   2.248  0.00  0.00     0.020 A 
ATOM      2  C1  UNL d   1       1.975  -0.799   1.134  0.00  0.00     0.020 A 
ATOM      3  C2  UNL d   1       2.807   0.184   0.594  0.00  0.00     0.034 A 
ATOM      4  C3  UNL d   1       4.057   0.441   1.169  0.00  0.00     0.017 A 
ATOM      5  C4  UNL d   1       4.471  -0.290   2.287  0.00  0.00     0.017 A 
ATOM      6  C5  UNL d   1       3.634  -1.274   2.824  0.00  0.00     0.034 A 
ATOM      7 Cl   UNL d   1       6.000  -0.030   3.051  0.00  0.00    -0.070 Cl
ATOM      8 Cl1  UNL d   1       5.034   1.671   0.449  0.00  0.00    -0.070 Cl
ENDROOT
TORSDOF 0
ENDMDL
