MODEL 1
REMARK minimizedAffinity 5.52573776
REMARK minimizedRMSD -1
REMARK  0 active torsions:
REMARK  status: ('A' for Active; 'I' for Inactive)
ROOT
ATOM      1  C   UNL d   1      -4.871  -4.541   4.033  0.00  0.00     0.020 A 
ATOM      2  C1  UNL d   1      -4.675  -4.493   5.413  0.00  0.00     0.020 A 
ATOM      3  C2  UNL d   1      -4.116  -3.356   6.000  0.00  0.00     0.034 A 
ATOM      4  C3  UNL d   1      -3.749  -2.263   5.207  0.00  0.00     0.017 A 
ATOM      5  C4  UNL d   1      -3.946  -2.312   3.822  0.00  0.00     0.017 A 
ATOM      6  C5  UNL d   1      -4.506  -3.453   3.240  0.00  0.00     0.034 A 
ATOM      7 Cl   UNL d   1      -3.519  -1.002   2.778  0.00  0.00    -0.070 Cl
ATOM      8 Cl1  UNL d   1      -3.063  -0.889   6.000  0.00  0.00    -0.070 Cl
ENDROOT
TORSDOF 0
ENDMDL
