MODEL 1
REMARK minimizedAffinity 4.46551514
REMARK minimizedRMSD -1
REMARK  0 active torsions:
REMARK  status: ('A' for Active; 'I' for Inactive)
ROOT
ATOM      1  C   UNL d   1      -5.504  -0.662   2.621  0.00  0.00     0.020 A 
ATOM      2  C1  UNL d   1      -5.779   0.300   1.650  0.00  0.00     0.020 A 
ATOM      3  C2  UNL d   1      -5.668   1.657   1.959  0.00  0.00     0.034 A 
ATOM      4  C3  UNL d   1      -5.282   2.057   3.244  0.00  0.00     0.017 A 
ATOM      5  C4  UNL d   1      -5.007   1.091   4.219  0.00  0.00     0.017 A 
ATOM      6  C5  UNL d   1      -5.119  -0.267   3.903  0.00  0.00     0.034 A 
ATOM      7 Cl   UNL d   1      -4.525   1.507   5.825  0.00  0.00    -0.070 Cl
ATOM      8 Cl1  UNL d   1      -5.166   3.752   3.557  0.00  0.00    -0.070 Cl
ENDROOT
TORSDOF 0
ENDMDL
