MODEL 1
REMARK minimizedAffinity 3.08630133
REMARK minimizedRMSD -1
REMARK  0 active torsions:
REMARK  status: ('A' for Active; 'I' for Inactive)
ROOT
ATOM      1  C   UNL d   1      -4.827   1.982   5.998  0.00  0.00     0.020 A 
ATOM      2  C1  UNL d   1      -4.827   3.361   5.793  0.00  0.00     0.020 A 
ATOM      3  C2  UNL d   1      -5.193   3.882   4.549  0.00  0.00     0.034 A 
ATOM      4  C3  UNL d   1      -5.559   3.023   3.507  0.00  0.00     0.017 A 
ATOM      5  C4  UNL d   1      -5.559   1.639   3.714  0.00  0.00     0.017 A 
ATOM      6  C5  UNL d   1      -5.193   1.123   4.961  0.00  0.00     0.034 A 
ATOM      7 Cl   UNL d   1      -6.000   0.517   2.476  0.00  0.00    -0.070 Cl
ATOM      8 Cl1  UNL d   1      -6.000   3.737   1.996  0.00  0.00    -0.070 Cl
ENDROOT
TORSDOF 0
ENDMDL
