MODEL 1
REMARK minimizedAffinity 3.32949686
REMARK minimizedRMSD -1
REMARK  0 active torsions:
REMARK  status: ('A' for Active; 'I' for Inactive)
ROOT
ATOM      1  C   UNL d   1      -3.745  -0.746   5.434  0.00  0.00     0.020 A 
ATOM      2  C1  UNL d   1      -3.888  -2.012   5.999  0.00  0.00     0.020 A 
ATOM      3  C2  UNL d   1      -3.987  -3.137   5.176  0.00  0.00     0.034 A 
ATOM      4  C3  UNL d   1      -3.944  -2.996   3.784  0.00  0.00     0.017 A 
ATOM      5  C4  UNL d   1      -3.801  -1.724   3.218  0.00  0.00     0.017 A 
ATOM      6  C5  UNL d   1      -3.702  -0.602   4.047  0.00  0.00     0.034 A 
ATOM      7 Cl   UNL d   1      -3.740  -1.471   1.510  0.00  0.00    -0.070 Cl
ATOM      8 Cl1  UNL d   1      -4.072  -4.429   2.828  0.00  0.00    -0.070 Cl
ENDROOT
TORSDOF 0
ENDMDL
