MODEL 1
REMARK minimizedAffinity 6.71352673
REMARK minimizedRMSD -1
REMARK  1 active torsions:
REMARK  status: ('A' for Active; 'I' for Inactive)
REMARK    1  A    between atoms: C1_2  and  C2_3 
ROOT
ATOM      1  C2  UNL d   1       1.131   1.017  -1.387  0.00  0.00    -0.076 A 
ATOM      2  C3  UNL d   1       1.683  -0.221  -1.014  0.00  0.00     0.004 A 
ATOM      3  C4  UNL d   1       2.811  -0.727  -1.658  0.00  0.00    -0.003 A 
ATOM      4  C5  UNL d   1       3.407  -0.002  -2.684  0.00  0.00     0.000 A 
ATOM      5  C6  UNL d   1       2.884   1.236  -3.055  0.00  0.00     0.000 A 
ATOM      6  C7  UNL d   1       1.756   1.768  -2.406  0.00  0.00    -0.073 A 
ATOM      7  C8  UNL d   1       1.230   3.105  -2.850  0.00  0.00     0.078 C 
ENDROOT
BRANCH   1   8
ATOM      8  C1  UNL d   1      -0.110   1.501  -0.672  0.00  0.00     0.053 C 
ATOM      9  C   UNL d   1       0.200   2.104   0.690  0.00  0.00     0.018 C 
ENDBRANCH   1   8
TORSDOF 1
ENDMDL
