MODEL 1
REMARK minimizedAffinity 11.4663506
REMARK minimizedRMSD -1
REMARK  1 active torsions:
REMARK  status: ('A' for Active; 'I' for Inactive)
REMARK    1  A    between atoms: C1_2  and  C2_3 
ROOT
ATOM      1  C2  UNL d   1       0.991   0.075  -1.359  0.00  0.00    -0.076 A 
ATOM      2  C3  UNL d   1       2.358  -0.233  -1.251  0.00  0.00     0.004 A 
ATOM      3  C4  UNL d   1       2.780  -1.521  -0.922  0.00  0.00    -0.003 A 
ATOM      4  C5  UNL d   1       1.840  -2.521  -0.696  0.00  0.00     0.000 A 
ATOM      5  C6  UNL d   1       0.480  -2.237  -0.817  0.00  0.00     0.000 A 
ATOM      6  C7  UNL d   1       0.039  -0.949  -1.164  0.00  0.00    -0.073 A 
ATOM      7  C8  UNL d   1      -1.440  -0.697  -1.274  0.00  0.00     0.078 C 
ENDROOT
BRANCH   1   8
ATOM      8  C1  UNL d   1       0.593   1.495  -1.692  0.00  0.00     0.053 C 
ATOM      9  C   UNL d   1       1.464   2.105  -2.779  0.00  0.00     0.018 C 
ENDBRANCH   1   8
TORSDOF 1
ENDMDL
