MODEL 1
REMARK minimizedAffinity 2.21536422
REMARK minimizedRMSD -1
REMARK  1 active torsions:
REMARK  status: ('A' for Active; 'I' for Inactive)
REMARK    1  A    between atoms: C1_2  and  C2_3 
ROOT
ATOM      1  C2  UNL d   1      -4.976   0.594   3.671  0.00  0.00    -0.076 A 
ATOM      2  C3  UNL d   1      -3.997   0.206   2.740  0.00  0.00     0.004 A 
ATOM      3  C4  UNL d   1      -3.016  -0.725   3.076  0.00  0.00    -0.003 A 
ATOM      4  C5  UNL d   1      -2.997  -1.283   4.350  0.00  0.00     0.000 A 
ATOM      5  C6  UNL d   1      -3.971  -0.923   5.281  0.00  0.00     0.000 A 
ATOM      6  C7  UNL d   1      -4.977   0.001   4.953  0.00  0.00    -0.073 A 
ATOM      7  C8  UNL d   1      -5.999   0.358   5.997  0.00  0.00     0.078 C 
ENDROOT
BRANCH   1   8
ATOM      8  C1  UNL d   1      -5.999   1.627   3.259  0.00  0.00     0.053 C 
ATOM      9  C   UNL d   1      -5.644   3.025   3.742  0.00  0.00     0.018 C 
ENDBRANCH   1   8
TORSDOF 1
ENDMDL
