MODEL 1
REMARK minimizedAffinity 6.84093904
REMARK minimizedRMSD -1
REMARK  1 active torsions:
REMARK  status: ('A' for Active; 'I' for Inactive)
REMARK    1  A    between atoms: C1_2  and  C2_3 
ROOT
ATOM      1  C2  UNL d   1       1.946   0.519  -1.896  0.00  0.00    -0.076 A 
ATOM      2  C3  UNL d   1       2.579   0.755  -3.128  0.00  0.00     0.004 A 
ATOM      3  C4  UNL d   1       2.268   1.881  -3.890  0.00  0.00    -0.003 A 
ATOM      4  C5  UNL d   1       1.320   2.788  -3.431  0.00  0.00     0.000 A 
ATOM      5  C6  UNL d   1       0.694   2.578  -2.203  0.00  0.00     0.000 A 
ATOM      6  C7  UNL d   1       1.008   1.457  -1.415  0.00  0.00    -0.073 A 
ATOM      7  C8  UNL d   1       0.299   1.277  -0.101  0.00  0.00     0.078 C 
ENDROOT
BRANCH   1   8
ATOM      8  C1  UNL d   1       2.304  -0.733  -1.126  0.00  0.00     0.053 C 
ATOM      9  C   UNL d   1       1.395  -1.904  -1.464  0.00  0.00     0.018 C 
ENDBRANCH   1   8
TORSDOF 1
ENDMDL
