MODEL 1
REMARK minimizedAffinity 4.55415297
REMARK minimizedRMSD -1
REMARK  1 active torsions:
REMARK  status: ('A' for Active; 'I' for Inactive)
REMARK    1  A    between atoms: C1_2  and  C2_3 
ROOT
ATOM      1  C2  UNL d   1       2.247  -1.051  -1.946  0.00  0.00    -0.076 A 
ATOM      2  C3  UNL d   1       3.153  -0.990  -0.873  0.00  0.00     0.004 A 
ATOM      3  C4  UNL d   1       3.199  -2.002   0.085  0.00  0.00    -0.003 A 
ATOM      4  C5  UNL d   1       2.340  -3.090  -0.015  0.00  0.00     0.000 A 
ATOM      5  C6  UNL d   1       1.446  -3.175  -1.083  0.00  0.00     0.000 A 
ATOM      6  C7  UNL d   1       1.399  -2.172  -2.066  0.00  0.00    -0.073 A 
ATOM      7  C8  UNL d   1       0.412  -2.312  -3.192  0.00  0.00     0.078 C 
ENDROOT
BRANCH   1   8
ATOM      8  C1  UNL d   1       2.224   0.089  -2.940  0.00  0.00     0.053 C 
ATOM      9  C   UNL d   1       1.801   1.405  -2.307  0.00  0.00     0.018 C 
ENDBRANCH   1   8
TORSDOF 1
ENDMDL
