MODEL 1
REMARK minimizedAffinity 3.23393106
REMARK minimizedRMSD -1
REMARK  1 active torsions:
REMARK  status: ('A' for Active; 'I' for Inactive)
REMARK    1  A    between atoms: C1_2  and  C2_3 
ROOT
ATOM      1  C2  UNL d   1       1.735   3.724  -3.544  0.00  0.00    -0.076 A 
ATOM      2  C3  UNL d   1       1.990   2.882  -2.447  0.00  0.00     0.004 A 
ATOM      3  C4  UNL d   1       1.852   1.500  -2.556  0.00  0.00    -0.003 A 
ATOM      4  C5  UNL d   1       1.457   0.936  -3.765  0.00  0.00     0.000 A 
ATOM      5  C6  UNL d   1       1.218   1.754  -4.868  0.00  0.00     0.000 A 
ATOM      6  C7  UNL d   1       1.368   3.148  -4.780  0.00  0.00    -0.073 A 
ATOM      7  C8  UNL d   1       1.090   3.983  -6.000  0.00  0.00     0.078 C 
ENDROOT
BRANCH   1   8
ATOM      8  C1  UNL d   1       1.875   5.218  -3.359  0.00  0.00     0.053 C 
ATOM      9  C   UNL d   1       3.155   5.597  -2.631  0.00  0.00     0.018 C 
ENDBRANCH   1   8
TORSDOF 1
ENDMDL
