MODEL 1
REMARK minimizedAffinity 6.49657631
REMARK minimizedRMSD -1
REMARK  1 active torsions:
REMARK  status: ('A' for Active; 'I' for Inactive)
REMARK    1  A    between atoms: C1_2  and  C2_3 
ROOT
ATOM      1  C2  UNL d   1       1.462  -1.087  -2.729  0.00  0.00    -0.076 A 
ATOM      2  C3  UNL d   1       2.182  -0.797  -1.557  0.00  0.00     0.004 A 
ATOM      3  C4  UNL d   1       2.732   0.466  -1.347  0.00  0.00    -0.003 A 
ATOM      4  C5  UNL d   1       2.570   1.461  -2.305  0.00  0.00     0.000 A 
ATOM      5  C6  UNL d   1       1.844   1.196  -3.465  0.00  0.00     0.000 A 
ATOM      6  C7  UNL d   1       1.269  -0.068  -3.685  0.00  0.00    -0.073 A 
ATOM      7  C8  UNL d   1       0.501  -0.300  -4.958  0.00  0.00     0.078 C 
ENDROOT
BRANCH   1   8
ATOM      8  C1  UNL d   1       0.912  -2.483  -2.914  0.00  0.00     0.053 C 
ATOM      9  C   UNL d   1      -0.425  -2.681  -2.216  0.00  0.00     0.018 C 
ENDBRANCH   1   8
TORSDOF 1
ENDMDL
