MODEL 1
REMARK minimizedAffinity 0.633566916
REMARK minimizedRMSD -1
REMARK  1 active torsions:
REMARK  status: ('A' for Active; 'I' for Inactive)
REMARK    1  A    between atoms: C1_2  and  C2_3 
ROOT
ATOM      1  C2  UNL d   1       1.017   1.883  -2.178  0.00  0.00    -0.076 A 
ATOM      2  C3  UNL d   1      -0.149   2.277  -1.499  0.00  0.00     0.004 A 
ATOM      3  C4  UNL d   1      -0.163   2.406  -0.111  0.00  0.00    -0.003 A 
ATOM      4  C5  UNL d   1       0.989   2.144   0.621  0.00  0.00     0.000 A 
ATOM      5  C6  UNL d   1       2.160   1.769  -0.037  0.00  0.00     0.000 A 
ATOM      6  C7  UNL d   1       2.196   1.650  -1.437  0.00  0.00    -0.073 A 
ATOM      7  C8  UNL d   1       3.484   1.236  -2.094  0.00  0.00     0.078 C 
ENDROOT
BRANCH   1   8
ATOM      8  C1  UNL d   1       0.965   1.733  -3.681  0.00  0.00     0.053 C 
ATOM      9  C   UNL d   1       1.217   3.046  -4.406  0.00  0.00     0.018 C 
ENDBRANCH   1   8
TORSDOF 1
ENDMDL
