MODEL 1
REMARK minimizedAffinity 6.37721252
REMARK minimizedRMSD -1
REMARK  1 active torsions:
REMARK  status: ('A' for Active; 'I' for Inactive)
REMARK    1  A    between atoms: C1_2  and  C2_3 
ROOT
ATOM      1  C2  UNL d   1       1.076   1.581  -0.859  0.00  0.00    -0.076 A 
ATOM      2  C3  UNL d   1      -0.162   1.618  -1.523  0.00  0.00     0.004 A 
ATOM      3  C4  UNL d   1      -1.313   2.061  -0.872  0.00  0.00    -0.003 A 
ATOM      4  C5  UNL d   1      -1.243   2.473   0.454  0.00  0.00     0.000 A 
ATOM      5  C6  UNL d   1      -0.020   2.460   1.123  0.00  0.00     0.000 A 
ATOM      6  C7  UNL d   1       1.152   2.032   0.477  0.00  0.00    -0.073 A 
ATOM      7  C8  UNL d   1       2.443   2.033   1.248  0.00  0.00     0.078 C 
ENDROOT
BRANCH   1   8
ATOM      8  C1  UNL d   1       2.285   1.066  -1.607  0.00  0.00     0.053 C 
ATOM      9  C   UNL d   1       1.983  -0.193  -2.405  0.00  0.00     0.018 C 
ENDBRANCH   1   8
TORSDOF 1
ENDMDL
