MODEL 1
REMARK minimizedAffinity 4.29656553
REMARK minimizedRMSD -1
REMARK  1 active torsions:
REMARK  status: ('A' for Active; 'I' for Inactive)
REMARK    1  A    between atoms: C1_2  and  C2_3 
ROOT
ATOM      1  C2  UNL d   1       1.446   1.868   0.024  0.00  0.00    -0.076 A 
ATOM      2  C3  UNL d   1       2.457   1.367  -0.815  0.00  0.00     0.004 A 
ATOM      3  C4  UNL d   1       2.150   0.823  -2.061  0.00  0.00    -0.003 A 
ATOM      4  C5  UNL d   1       0.828   0.771  -2.488  0.00  0.00     0.000 A 
ATOM      5  C6  UNL d   1      -0.186   1.279  -1.676  0.00  0.00     0.000 A 
ATOM      6  C7  UNL d   1       0.108   1.846  -0.424  0.00  0.00    -0.073 A 
ATOM      7  C8  UNL d   1      -1.025   2.374   0.413  0.00  0.00     0.078 C 
ENDROOT
BRANCH   1   8
ATOM      8  C1  UNL d   1       1.836   2.423   1.376  0.00  0.00     0.053 C 
ATOM      9  C   UNL d   1       2.982   1.652   2.013  0.00  0.00     0.018 C 
ENDBRANCH   1   8
TORSDOF 1
ENDMDL
