MODEL 1
REMARK minimizedAffinity 8.49105644
REMARK minimizedRMSD -1
REMARK  1 active torsions:
REMARK  status: ('A' for Active; 'I' for Inactive)
REMARK    1  A    between atoms: C1_2  and  C2_3 
ROOT
ATOM      1  C2  UNL d   1       1.781  -0.415  -2.721  0.00  0.00    -0.076 A 
ATOM      2  C3  UNL d   1       2.729  -0.007  -1.766  0.00  0.00     0.004 A 
ATOM      3  C4  UNL d   1       3.101  -0.849  -0.719  0.00  0.00    -0.003 A 
ATOM      4  C5  UNL d   1       2.532  -2.114  -0.611  0.00  0.00     0.000 A 
ATOM      5  C6  UNL d   1       1.604  -2.542  -1.560  0.00  0.00     0.000 A 
ATOM      6  C7  UNL d   1       1.230  -1.711  -2.630  0.00  0.00    -0.073 A 
ATOM      7  C8  UNL d   1       0.220  -2.222  -3.621  0.00  0.00     0.078 C 
ENDROOT
BRANCH   1   8
ATOM      8  C1  UNL d   1       1.396   0.551  -3.818  0.00  0.00     0.053 C 
ATOM      9  C   UNL d   1       1.483   2.003  -3.373  0.00  0.00     0.018 C 
ENDBRANCH   1   8
TORSDOF 1
ENDMDL
