MODEL 1
REMARK minimizedAffinity 6.90781355
REMARK minimizedRMSD -1
REMARK  1 active torsions:
REMARK  status: ('A' for Active; 'I' for Inactive)
REMARK    1  A    between atoms: C1_2  and  C2_3 
ROOT
ATOM      1  C2  UNL d   1       1.170  -0.162  -1.683  0.00  0.00    -0.076 A 
ATOM      2  C3  UNL d   1       2.298   0.443  -2.263  0.00  0.00     0.004 A 
ATOM      3  C4  UNL d   1       2.246   1.752  -2.739  0.00  0.00    -0.003 A 
ATOM      4  C5  UNL d   1       1.064   2.478  -2.643  0.00  0.00     0.000 A 
ATOM      5  C6  UNL d   1      -0.060   1.900  -2.055  0.00  0.00     0.000 A 
ATOM      6  C7  UNL d   1      -0.020   0.587  -1.555  0.00  0.00    -0.073 A 
ATOM      7  C8  UNL d   1      -1.264   0.011  -0.936  0.00  0.00     0.078 C 
ENDROOT
BRANCH   1   8
ATOM      8  C1  UNL d   1       1.278  -1.594  -1.209  0.00  0.00     0.053 C 
ATOM      9  C   UNL d   1       2.717  -2.014  -0.949  0.00  0.00     0.018 C 
ENDBRANCH   1   8
TORSDOF 1
ENDMDL
