MODEL 1
REMARK minimizedAffinity 6.61702919
REMARK minimizedRMSD -1
REMARK  1 active torsions:
REMARK  status: ('A' for Active; 'I' for Inactive)
REMARK    1  A    between atoms: C1_2  and  C2_3 
ROOT
ATOM      1  C2  UNL d   1       0.370  -1.921  -1.155  0.00  0.00    -0.076 A 
ATOM      2  C3  UNL d   1       0.750  -0.755  -1.842  0.00  0.00     0.004 A 
ATOM      3  C4  UNL d   1       1.978  -0.144  -1.593  0.00  0.00    -0.003 A 
ATOM      4  C5  UNL d   1       2.846  -0.689  -0.653  0.00  0.00     0.000 A 
ATOM      5  C6  UNL d   1       2.492  -1.855   0.025  0.00  0.00     0.000 A 
ATOM      6  C7  UNL d   1       1.265  -2.493  -0.226  0.00  0.00    -0.073 A 
ATOM      7  C8  UNL d   1       0.933  -3.744   0.540  0.00  0.00     0.078 C 
ENDROOT
BRANCH   1   8
ATOM      8  C1  UNL d   1      -0.985  -2.524  -1.447  0.00  0.00     0.053 C 
ATOM      9  C   UNL d   1      -2.127  -1.562  -1.156  0.00  0.00     0.018 C 
ENDBRANCH   1   8
TORSDOF 1
ENDMDL
