MODEL 1
REMARK minimizedAffinity 4.07259321
REMARK minimizedRMSD -1
REMARK  1 active torsions:
REMARK  status: ('A' for Active; 'I' for Inactive)
REMARK    1  A    between atoms: C1_2  and  C2_3 
ROOT
ATOM      1  C2  UNL d   1       0.414   1.792  -1.145  0.00  0.00    -0.076 A 
ATOM      2  C3  UNL d   1      -0.109   2.998  -1.641  0.00  0.00     0.004 A 
ATOM      3  C4  UNL d   1       0.232   3.460  -2.911  0.00  0.00    -0.003 A 
ATOM      4  C5  UNL d   1       1.102   2.722  -3.706  0.00  0.00     0.000 A 
ATOM      5  C6  UNL d   1       1.617   1.514  -3.237  0.00  0.00     0.000 A 
ATOM      6  C7  UNL d   1       1.270   1.026  -1.966  0.00  0.00    -0.073 A 
ATOM      7  C8  UNL d   1       1.860  -0.280  -1.508  0.00  0.00     0.078 C 
ENDROOT
BRANCH   1   8
ATOM      8  C1  UNL d   1       0.030   1.355   0.251  0.00  0.00     0.053 C 
ATOM      9  C   UNL d   1       0.496   2.334   1.317  0.00  0.00     0.018 C 
ENDBRANCH   1   8
TORSDOF 1
ENDMDL
