MODEL 1
REMARK minimizedAffinity 2.37148428
REMARK minimizedRMSD -1
REMARK  1 active torsions:
REMARK  status: ('A' for Active; 'I' for Inactive)
REMARK    1  A    between atoms: C1_2  and  C2_3 
ROOT
ATOM      1  C2  UNL d   1       2.328   0.081  -1.910  0.00  0.00    -0.076 A 
ATOM      2  C3  UNL d   1       1.091   0.518  -1.406  0.00  0.00     0.004 A 
ATOM      3  C4  UNL d   1       0.603   1.789  -1.705  0.00  0.00    -0.003 A 
ATOM      4  C5  UNL d   1       1.344   2.643  -2.514  0.00  0.00     0.000 A 
ATOM      5  C6  UNL d   1       2.565   2.220  -3.037  0.00  0.00     0.000 A 
ATOM      6  C7  UNL d   1       3.064   0.935  -2.759  0.00  0.00    -0.073 A 
ATOM      7  C8  UNL d   1       4.389   0.533  -3.345  0.00  0.00     0.078 C 
ENDROOT
BRANCH   1   8
ATOM      8  C1  UNL d   1       2.819  -1.298  -1.530  0.00  0.00     0.053 C 
ATOM      9  C   UNL d   1       1.684  -2.235  -1.144  0.00  0.00     0.018 C 
ENDBRANCH   1   8
TORSDOF 1
ENDMDL
