MODEL 1
REMARK minimizedAffinity 6.94153166
REMARK minimizedRMSD -1
REMARK  0 active torsions:
REMARK  status: ('A' for Active; 'I' for Inactive)
ROOT
ATOM      1  O1  BZF d   1      -0.790  -4.852   1.192  0.00  0.00    -0.204 OA
ATOM      2  C2  BZF d   1       0.250  -5.553   1.771  0.00  0.00     0.174 A 
ATOM      3  C3  BZF d   1       1.426  -4.926   1.561  0.00  0.00    -0.012 A 
ATOM      4  C3A BZF d   1       1.088  -3.712   0.882  0.00  0.00    -0.107 A 
ATOM      5  C4  BZF d   1       1.825  -2.660   0.417  0.00  0.00     0.055 A 
ATOM      6  C5  BZF d   1       1.199  -1.666  -0.266  0.00  0.00    -0.016 A 
ATOM      7  C6  BZF d   1      -0.159  -1.694  -0.507  0.00  0.00     0.022 A 
ATOM      8  C7  BZF d   1      -0.932  -2.714  -0.061  0.00  0.00     0.029 A 
ATOM      9  C7A BZF d   1      -0.308  -3.704   0.658  0.00  0.00     0.058 A 
ENDROOT
TORSDOF 0
ENDMDL
