MODEL 1
REMARK minimizedAffinity 8.11670494
REMARK minimizedRMSD -1
REMARK  0 active torsions:
REMARK  status: ('A' for Active; 'I' for Inactive)
ROOT
ATOM      1  O1  BZF d   1       5.992  -1.033  -5.999  0.00  0.00    -0.204 OA
ATOM      2  C2  BZF d   1       5.975  -2.367  -5.640  0.00  0.00     0.174 A 
ATOM      3  C3  BZF d   1       5.989  -2.500  -4.298  0.00  0.00    -0.012 A 
ATOM      4  C3A BZF d   1       5.923  -1.166  -3.786  0.00  0.00    -0.107 A 
ATOM      5  C4  BZF d   1       5.889  -0.645  -2.524  0.00  0.00     0.055 A 
ATOM      6  C5  BZF d   1       5.900   0.705  -2.366  0.00  0.00    -0.016 A 
ATOM      7  C6  BZF d   1       5.951   1.562  -3.446  0.00  0.00     0.022 A 
ATOM      8  C7  BZF d   1       5.982   1.092  -4.717  0.00  0.00     0.029 A 
ATOM      9  C7A BZF d   1       5.937  -0.271  -4.881  0.00  0.00     0.058 A 
ENDROOT
TORSDOF 0
ENDMDL
