MODEL 1
REMARK minimizedAffinity 6.115798
REMARK minimizedRMSD -1
REMARK  0 active torsions:
REMARK  status: ('A' for Active; 'I' for Inactive)
ROOT
ATOM      1  O1  BZF d   1       5.994  -0.513  -2.066  0.00  0.00    -0.204 OA
ATOM      2  C2  BZF d   1       5.623   0.795  -1.824  0.00  0.00     0.174 A 
ATOM      3  C3  BZF d   1       5.215   1.395  -2.960  0.00  0.00    -0.012 A 
ATOM      4  C3A BZF d   1       5.250   0.372  -3.960  0.00  0.00    -0.107 A 
ATOM      5  C4  BZF d   1       4.942   0.348  -5.290  0.00  0.00     0.055 A 
ATOM      6  C5  BZF d   1       5.157  -0.793  -5.997  0.00  0.00    -0.016 A 
ATOM      7  C6  BZF d   1       5.683  -1.924  -5.408  0.00  0.00     0.022 A 
ATOM      8  C7  BZF d   1       6.000  -1.949  -4.091  0.00  0.00     0.029 A 
ATOM      9  C7A BZF d   1       5.753  -0.809  -3.366  0.00  0.00     0.058 A 
ENDROOT
TORSDOF 0
ENDMDL
