MODEL 1
REMARK minimizedAffinity 6.14980698
REMARK minimizedRMSD -1
REMARK  0 active torsions:
REMARK  status: ('A' for Active; 'I' for Inactive)
ROOT
ATOM      1  O1  BZF d   1       0.827   1.136  -2.764  0.00  0.00    -0.204 OA
ATOM      2  C2  BZF d   1       0.538   1.272  -1.420  0.00  0.00     0.174 A 
ATOM      3  C3  BZF d   1       0.546   0.072  -0.804  0.00  0.00    -0.012 A 
ATOM      4  C3A BZF d   1       0.950  -0.863  -1.809  0.00  0.00    -0.107 A 
ATOM      5  C4  BZF d   1       1.159  -2.213  -1.805  0.00  0.00     0.055 A 
ATOM      6  C5  BZF d   1       1.478  -2.835  -2.971  0.00  0.00    -0.016 A 
ATOM      7  C6  BZF d   1       1.591  -2.140  -4.157  0.00  0.00     0.022 A 
ATOM      8  C7  BZF d   1       1.398  -0.799  -4.210  0.00  0.00     0.029 A 
ATOM      9  C7A BZF d   1       1.108  -0.163  -3.027  0.00  0.00     0.058 A 
ENDROOT
TORSDOF 0
ENDMDL
