MODEL 1
REMARK minimizedAffinity 6.57027531
REMARK minimizedRMSD -1
REMARK  0 active torsions:
REMARK  status: ('A' for Active; 'I' for Inactive)
ROOT
ATOM      1  O1  BZF d   1       4.900   2.488   2.959  0.00  0.00    -0.204 OA
ATOM      2  C2  BZF d   1       3.949   2.107   2.032  0.00  0.00     0.174 A 
ATOM      3  C3  BZF d   1       3.585   0.822   2.220  0.00  0.00    -0.012 A 
ATOM      4  C3A BZF d   1       4.289   0.399   3.392  0.00  0.00    -0.107 A 
ATOM      5  C4  BZF d   1       4.330  -0.773   4.091  0.00  0.00     0.055 A 
ATOM      6  C5  BZF d   1       5.176  -0.882   5.149  0.00  0.00    -0.016 A 
ATOM      7  C6  BZF d   1       5.999   0.157   5.531  0.00  0.00     0.022 A 
ATOM      8  C7  BZF d   1       5.990   1.341   4.871  0.00  0.00     0.029 A 
ATOM      9  C7A BZF d   1       5.112   1.466   3.822  0.00  0.00     0.058 A 
ENDROOT
TORSDOF 0
ENDMDL
