MODEL 1
REMARK minimizedAffinity 0.489285767
REMARK minimizedRMSD -1
REMARK  0 active torsions:
REMARK  status: ('A' for Active; 'I' for Inactive)
ROOT
ATOM      1  O1  BZF d   1       0.586  -0.657  -4.644  0.00  0.00    -0.204 OA
ATOM      2  C2  BZF d   1       0.650  -2.037  -4.607  0.00  0.00     0.174 A 
ATOM      3  C3  BZF d   1       0.857  -2.472  -3.348  0.00  0.00    -0.012 A 
ATOM      4  C3A BZF d   1       0.834  -1.295  -2.534  0.00  0.00    -0.107 A 
ATOM      5  C4  BZF d   1       0.967  -1.079  -1.192  0.00  0.00     0.055 A 
ATOM      6  C5  BZF d   1       0.970   0.198  -0.726  0.00  0.00    -0.016 A 
ATOM      7  C6  BZF d   1       0.848   1.280  -1.573  0.00  0.00     0.022 A 
ATOM      8  C7  BZF d   1       0.708   1.115  -2.911  0.00  0.00     0.029 A 
ATOM      9  C7A BZF d   1       0.672  -0.175  -3.381  0.00  0.00     0.058 A 
ENDROOT
TORSDOF 0
ENDMDL
