MODEL 1
REMARK minimizedAffinity 1.30915403
REMARK minimizedRMSD -1
REMARK  0 active torsions:
REMARK  status: ('A' for Active; 'I' for Inactive)
ROOT
ATOM      1  O1  BZF d   1       1.587  -1.660  -2.004  0.00  0.00    -0.204 OA
ATOM      2  C2  BZF d   1       1.178  -1.674  -0.684  0.00  0.00     0.174 A 
ATOM      3  C3  BZF d   1       0.744  -0.455  -0.305  0.00  0.00    -0.012 A 
ATOM      4  C3A BZF d   1       0.804   0.350  -1.486  0.00  0.00    -0.107 A 
ATOM      5  C4  BZF d   1       0.487   1.651  -1.752  0.00  0.00     0.055 A 
ATOM      6  C5  BZF d   1       0.732   2.151  -2.992  0.00  0.00    -0.016 A 
ATOM      7  C6  BZF d   1       1.297   1.380  -3.986  0.00  0.00     0.022 A 
ATOM      8  C7  BZF d   1       1.623   0.082  -3.772  0.00  0.00     0.029 A 
ATOM      9  C7A BZF d   1       1.347  -0.435  -2.529  0.00  0.00     0.058 A 
ENDROOT
TORSDOF 0
ENDMDL
