MODEL 1
REMARK minimizedAffinity 2.00129342
REMARK minimizedRMSD -1
REMARK  0 active torsions:
REMARK  status: ('A' for Active; 'I' for Inactive)
ROOT
ATOM      1  O1  BZF d   1       1.110  -2.102  -2.057  0.00  0.00    -0.204 OA
ATOM      2  C2  BZF d   1       1.586  -2.587  -3.259  0.00  0.00     0.174 A 
ATOM      3  C3  BZF d   1       1.705  -1.593  -4.163  0.00  0.00    -0.012 A 
ATOM      4  C3A BZF d   1       1.364  -0.398  -3.454  0.00  0.00    -0.107 A 
ATOM      5  C4  BZF d   1       1.310   0.920  -3.808  0.00  0.00     0.055 A 
ATOM      6  C5  BZF d   1       0.868   1.830  -2.900  0.00  0.00    -0.016 A 
ATOM      7  C6  BZF d   1       0.468   1.456  -1.634  0.00  0.00     0.022 A 
ATOM      8  C7  BZF d   1       0.509   0.162  -1.235  0.00  0.00     0.029 A 
ATOM      9  C7A BZF d   1       0.987  -0.756  -2.139  0.00  0.00     0.058 A 
ENDROOT
TORSDOF 0
ENDMDL
