MODEL 1
REMARK minimizedAffinity 0.499716431
REMARK minimizedRMSD -1
REMARK  0 active torsions:
REMARK  status: ('A' for Active; 'I' for Inactive)
ROOT
ATOM      1  O1  BZF d   1       3.229  -0.162  -2.241  0.00  0.00    -0.204 OA
ATOM      2  C2  BZF d   1       1.939   0.107  -2.654  0.00  0.00     0.174 A 
ATOM      3  C3  BZF d   1       1.919   0.474  -3.952  0.00  0.00    -0.012 A 
ATOM      4  C3A BZF d   1       3.271   0.341  -4.401  0.00  0.00    -0.107 A 
ATOM      5  C4  BZF d   1       3.885   0.544  -5.604  0.00  0.00     0.055 A 
ATOM      6  C5  BZF d   1       5.233   0.395  -5.690  0.00  0.00    -0.016 A 
ATOM      7  C6  BZF d   1       5.997   0.049  -4.595  0.00  0.00     0.022 A 
ATOM      8  C7  BZF d   1       5.432  -0.168  -3.383  0.00  0.00     0.029 A 
ATOM      9  C7A BZF d   1       4.067  -0.050  -3.299  0.00  0.00     0.058 A 
ENDROOT
TORSDOF 0
ENDMDL
