MODEL 1
REMARK minimizedAffinity 0.914989829
REMARK minimizedRMSD -1
REMARK  0 active torsions:
REMARK  status: ('A' for Active; 'I' for Inactive)
ROOT
ATOM      1  O1  BZF d   1       0.818   1.115  -2.875  0.00  0.00    -0.204 OA
ATOM      2  C2  BZF d   1       0.492   1.220  -1.536  0.00  0.00     0.174 A 
ATOM      3  C3  BZF d   1       0.481   0.006  -0.950  0.00  0.00    -0.012 A 
ATOM      4  C3A BZF d   1       0.912  -0.906  -1.964  0.00  0.00    -0.107 A 
ATOM      5  C4  BZF d   1       1.118  -2.256  -1.987  0.00  0.00     0.055 A 
ATOM      6  C5  BZF d   1       1.468  -2.851  -3.158  0.00  0.00    -0.016 A 
ATOM      7  C6  BZF d   1       1.615  -2.129  -4.324  0.00  0.00     0.022 A 
ATOM      8  C7  BZF d   1       1.426  -0.787  -4.350  0.00  0.00     0.029 A 
ATOM      9  C7A BZF d   1       1.104  -0.178  -3.161  0.00  0.00     0.058 A 
ENDROOT
TORSDOF 0
ENDMDL
