MODEL 1
REMARK minimizedAffinity 7.45374346
REMARK minimizedRMSD -1
REMARK  0 active torsions:
REMARK  status: ('A' for Active; 'I' for Inactive)
ROOT
ATOM      1  O1  BZF d   1      -2.561   2.106   4.855  0.00  0.00    -0.204 OA
ATOM      2  C2  BZF d   1      -3.554   2.762   5.557  0.00  0.00     0.174 A 
ATOM      3  C3  BZF d   1      -4.483   1.891   6.000  0.00  0.00    -0.012 A 
ATOM      4  C3A BZF d   1      -3.995   0.599   5.626  0.00  0.00    -0.107 A 
ATOM      5  C4  BZF d   1      -4.468  -0.671   5.803  0.00  0.00     0.055 A 
ATOM      6  C5  BZF d   1      -3.788  -1.711   5.252  0.00  0.00    -0.016 A 
ATOM      7  C6  BZF d   1      -2.637  -1.518   4.517  0.00  0.00     0.022 A 
ATOM      8  C7  BZF d   1      -2.127  -0.278   4.319  0.00  0.00     0.029 A 
ATOM      9  C7A BZF d   1      -2.793   0.772   4.902  0.00  0.00     0.058 A 
ENDROOT
TORSDOF 0
ENDMDL
