MODEL 1
REMARK minimizedAffinity 1.46292269
REMARK minimizedRMSD -1
REMARK  0 active torsions:
REMARK  status: ('A' for Active; 'I' for Inactive)
ROOT
ATOM      1  O1  BZF d   1       1.384  -2.021  -2.386  0.00  0.00    -0.204 OA
ATOM      2  C2  BZF d   1       0.870  -2.193  -1.115  0.00  0.00     0.174 A 
ATOM      3  C3  BZF d   1       0.558  -1.003  -0.561  0.00  0.00    -0.012 A 
ATOM      4  C3A BZF d   1       0.811  -0.034  -1.583  0.00  0.00    -0.107 A 
ATOM      5  C4  BZF d   1       0.678   1.323  -1.643  0.00  0.00     0.055 A 
ATOM      6  C5  BZF d   1       1.082   1.978  -2.763  0.00  0.00    -0.016 A 
ATOM      7  C6  BZF d   1       1.628   1.308  -3.838  0.00  0.00     0.022 A 
ATOM      8  C7  BZF d   1       1.776  -0.039  -3.827  0.00  0.00     0.029 A 
ATOM      9  C7A BZF d   1       1.338  -0.707  -2.710  0.00  0.00     0.058 A 
ENDROOT
TORSDOF 0
ENDMDL
