MODEL 1
REMARK minimizedAffinity 1.01843548
REMARK minimizedRMSD -1
REMARK  0 active torsions:
REMARK  status: ('A' for Active; 'I' for Inactive)
ROOT
ATOM      1  O1  BZF d   1       0.932  -1.876  -1.554  0.00  0.00    -0.204 OA
ATOM      2  C2  BZF d   1       1.097  -2.398  -2.822  0.00  0.00     0.174 A 
ATOM      3  C3  BZF d   1       1.159  -1.412  -3.741  0.00  0.00    -0.012 A 
ATOM      4  C3A BZF d   1       1.118  -0.195  -2.990  0.00  0.00    -0.107 A 
ATOM      5  C4  BZF d   1       1.160   1.125  -3.339  0.00  0.00     0.055 A 
ATOM      6  C5  BZF d   1       1.023   2.068  -2.370  0.00  0.00    -0.016 A 
ATOM      7  C6  BZF d   1       0.838   1.728  -1.046  0.00  0.00     0.022 A 
ATOM      8  C7  BZF d   1       0.794   0.432  -0.651  0.00  0.00     0.029 A 
ATOM      9  C7A BZF d   1       0.965  -0.523  -1.623  0.00  0.00     0.058 A 
ENDROOT
TORSDOF 0
ENDMDL
