MODEL 1
REMARK minimizedAffinity -1.01817858
REMARK minimizedRMSD -1
REMARK  0 active torsions:
REMARK  status: ('A' for Active; 'I' for Inactive)
ROOT
ATOM      1  O1  BZF d   1       2.283   2.851  -6.000  0.00  0.00    -0.204 OA
ATOM      2  C2  BZF d   1       2.257   4.145  -5.515  0.00  0.00     0.174 A 
ATOM      3  C3  BZF d   1       3.407   4.438  -4.875  0.00  0.00    -0.012 A 
ATOM      4  C3A BZF d   1       4.238   3.286  -5.046  0.00  0.00    -0.107 A 
ATOM      5  C4  BZF d   1       5.508   2.977  -4.650  0.00  0.00     0.055 A 
ATOM      6  C5  BZF d   1       6.000   1.738  -4.915  0.00  0.00    -0.016 A 
ATOM      7  C6  BZF d   1       5.248   0.784  -5.568  0.00  0.00     0.022 A 
ATOM      8  C7  BZF d   1       3.985   1.045  -5.984  0.00  0.00     0.029 A 
ATOM      9  C7A BZF d   1       3.497   2.307  -5.747  0.00  0.00     0.058 A 
ENDROOT
TORSDOF 0
ENDMDL
