MODEL 1
REMARK minimizedAffinity 4.09169626
REMARK minimizedRMSD -1
REMARK  0 active torsions:
REMARK  status: ('A' for Active; 'I' for Inactive)
ROOT
ATOM      1  O1  BZF d   1      -2.723   2.358   4.075  0.00  0.00    -0.204 OA
ATOM      2  C2  BZF d   1      -3.270   1.561   5.062  0.00  0.00     0.174 A 
ATOM      3  C3  BZF d   1      -3.887   2.313   5.996  0.00  0.00    -0.012 A 
ATOM      4  C3A BZF d   1      -3.794   3.659   5.518  0.00  0.00    -0.107 A 
ATOM      5  C4  BZF d   1      -4.234   4.858   6.000  0.00  0.00     0.055 A 
ATOM      6  C5  BZF d   1      -3.915   5.996   5.329  0.00  0.00    -0.016 A 
ATOM      7  C6  BZF d   1      -3.155   5.972   4.178  0.00  0.00     0.022 A 
ATOM      8  C7  BZF d   1      -2.701   4.805   3.659  0.00  0.00     0.029 A 
ATOM      9  C7A BZF d   1      -3.049   3.651   4.316  0.00  0.00     0.058 A 
ENDROOT
TORSDOF 0
ENDMDL
