MODEL 1
REMARK minimizedAffinity 4.0548563
REMARK minimizedRMSD -1
REMARK  0 active torsions:
REMARK  status: ('A' for Active; 'I' for Inactive)
ROOT
ATOM      1  O1  BZF d   1       0.974  -2.676  -1.996  0.00  0.00    -0.204 OA
ATOM      2  C2  BZF d   1       1.353  -2.926  -3.301  0.00  0.00     0.174 A 
ATOM      3  C3  BZF d   1       1.449  -1.777  -4.000  0.00  0.00    -0.012 A 
ATOM      4  C3A BZF d   1       1.200  -0.736  -3.050  0.00  0.00    -0.107 A 
ATOM      5  C4  BZF d   1       1.172   0.626  -3.135  0.00  0.00     0.055 A 
ATOM      6  C5  BZF d   1       0.824   1.350  -2.039  0.00  0.00    -0.016 A 
ATOM      7  C6  BZF d   1       0.495   0.744  -0.844  0.00  0.00     0.022 A 
ATOM      8  C7  BZF d   1       0.513  -0.604  -0.709  0.00  0.00     0.029 A 
ATOM      9  C7A BZF d   1       0.896  -1.337  -1.806  0.00  0.00     0.058 A 
ENDROOT
TORSDOF 0
ENDMDL
