MODEL 1
REMARK minimizedAffinity 5.72987795
REMARK minimizedRMSD -1
REMARK  0 active torsions:
REMARK  status: ('A' for Active; 'I' for Inactive)
ROOT
ATOM      1  O1  BZF d   1       1.031  -0.174  -4.197  0.00  0.00    -0.204 OA
ATOM      2  C2  BZF d   1       1.231  -1.482  -4.593  0.00  0.00     0.174 A 
ATOM      3  C3  BZF d   1       1.279  -2.303  -3.524  0.00  0.00    -0.012 A 
ATOM      4  C3A BZF d   1       1.005  -1.468  -2.395  0.00  0.00    -0.107 A 
ATOM      5  C4  BZF d   1       0.898  -1.707  -1.055  0.00  0.00     0.055 A 
ATOM      6  C5  BZF d   1       0.694  -0.660  -0.212  0.00  0.00    -0.016 A 
ATOM      7  C6  BZF d   1       0.597   0.636  -0.674  0.00  0.00     0.022 A 
ATOM      8  C7  BZF d   1       0.691   0.921  -1.995  0.00  0.00     0.029 A 
ATOM      9  C7A BZF d   1       0.864  -0.138  -2.853  0.00  0.00     0.058 A 
ENDROOT
TORSDOF 0
ENDMDL
