MODEL 1
REMARK minimizedAffinity 0.813831985
REMARK minimizedRMSD -1
REMARK  0 active torsions:
REMARK  status: ('A' for Active; 'I' for Inactive)
ROOT
ATOM      1  C1  DEN d   1       4.259   5.349   3.758  0.00  0.00     0.130 A 
ATOM      2  C2  DEN d   1       4.973   4.776   4.895  0.00  0.00    -0.031 A 
ATOM      3  C3  DEN d   1       3.996   4.541   5.977  0.00  0.00     0.027 A 
ATOM      4  C4  DEN d   1       1.458   5.001   6.000  0.00  0.00     0.027 A 
ATOM      5  C5  DEN d   1       0.400   5.493   5.268  0.00  0.00    -0.003 A 
ATOM      6  C6  DEN d   1       0.558   5.999   4.005  0.00  0.00     0.001 A 
ATOM      7  C7  DEN d   1       1.796   5.983   3.417  0.00  0.00     0.017 A 
ATOM      8  C8  DEN d   1       2.869   5.495   4.152  0.00  0.00    -0.094 A 
ATOM      9  C9  DEN d   1       2.686   4.976   5.422  0.00  0.00    -0.072 A 
ENDROOT
TORSDOF 0
ENDMDL
