MODEL 1
REMARK minimizedAffinity -4.17949867
REMARK minimizedRMSD -1
REMARK  0 active torsions:
REMARK  status: ('A' for Active; 'I' for Inactive)
ROOT
ATOM      1  C1  DEN d   1       2.975   6.000   5.998  0.00  0.00     0.130 A 
ATOM      2  C2  DEN d   1       1.564   5.777   5.696  0.00  0.00    -0.031 A 
ATOM      3  C3  DEN d   1       1.484   4.878   4.527  0.00  0.00     0.027 A 
ATOM      4  C4  DEN d   1       3.397   3.812   3.165  0.00  0.00     0.027 A 
ATOM      5  C5  DEN d   1       4.765   3.718   3.035  0.00  0.00    -0.003 A 
ATOM      6  C6  DEN d   1       5.625   4.398   3.855  0.00  0.00     0.001 A 
ATOM      7  C7  DEN d   1       5.126   5.169   4.872  0.00  0.00     0.017 A 
ATOM      8  C8  DEN d   1       3.748   5.275   5.005  0.00  0.00    -0.094 A 
ATOM      9  C9  DEN d   1       2.895   4.570   4.173  0.00  0.00    -0.072 A 
ENDROOT
TORSDOF 0
ENDMDL
