MODEL 1
REMARK minimizedAffinity 2.22524047
REMARK minimizedRMSD -1
REMARK  0 active torsions:
REMARK  status: ('A' for Active; 'I' for Inactive)
ROOT
ATOM      1  C1  DEN d   1       3.778   2.145   2.364  0.00  0.00     0.130 A 
ATOM      2  C2  DEN d   1       4.702   3.269   2.241  0.00  0.00    -0.031 A 
ATOM      3  C3  DEN d   1       5.154   3.337   0.837  0.00  0.00     0.027 A 
ATOM      4  C4  DEN d   1       4.514   1.821  -1.149  0.00  0.00     0.027 A 
ATOM      5  C5  DEN d   1       3.770   0.726  -1.532  0.00  0.00    -0.003 A 
ATOM      6  C6  DEN d   1       3.011   0.013  -0.643  0.00  0.00     0.001 A 
ATOM      7  C7  DEN d   1       2.941   0.414   0.665  0.00  0.00     0.017 A 
ATOM      8  C8  DEN d   1       3.693   1.512   1.060  0.00  0.00    -0.094 A 
ATOM      9  C9  DEN d   1       4.446   2.227   0.144  0.00  0.00    -0.072 A 
ENDROOT
TORSDOF 0
ENDMDL
