MODEL 1
REMARK minimizedAffinity 0.506454647
REMARK minimizedRMSD -1
REMARK  0 active torsions:
REMARK  status: ('A' for Active; 'I' for Inactive)
ROOT
ATOM      1  C1  DEN d   1       2.830   5.928   4.398  0.00  0.00     0.130 A 
ATOM      2  C2  DEN d   1       2.949   5.983   2.944  0.00  0.00    -0.031 A 
ATOM      3  C3  DEN d   1       1.587   5.996   2.374  0.00  0.00     0.027 A 
ATOM      4  C4  DEN d   1      -0.684   5.943   3.596  0.00  0.00     0.027 A 
ATOM      5  C5  DEN d   1      -1.293   5.882   4.830  0.00  0.00    -0.003 A 
ATOM      6  C6  DEN d   1      -0.577   5.799   5.995  0.00  0.00     0.001 A 
ATOM      7  C7  DEN d   1       0.792   5.820   5.953  0.00  0.00     0.017 A 
ATOM      8  C8  DEN d   1       1.413   5.873   4.712  0.00  0.00    -0.094 A 
ATOM      9  C9  DEN d   1       0.672   5.969   3.547  0.00  0.00    -0.072 A 
ENDROOT
TORSDOF 0
ENDMDL
