MODEL 1
REMARK minimizedAffinity 3.34749198
REMARK minimizedRMSD -1
REMARK  0 active torsions:
REMARK  status: ('A' for Active; 'I' for Inactive)
ROOT
ATOM      1  C1  DEN d   1       3.926  -1.295   1.648  0.00  0.00     0.130 A 
ATOM      2  C2  DEN d   1       3.325  -2.291   0.765  0.00  0.00    -0.031 A 
ATOM      3  C3  DEN d   1       2.559  -1.577  -0.275  0.00  0.00     0.027 A 
ATOM      4  C4  DEN d   1       2.251   0.962  -0.607  0.00  0.00     0.027 A 
ATOM      5  C5  DEN d   1       2.561   2.206  -0.103  0.00  0.00    -0.003 A 
ATOM      6  C6  DEN d   1       3.312   2.368   1.031  0.00  0.00     0.001 A 
ATOM      7  C7  DEN d   1       3.818   1.268   1.672  0.00  0.00     0.017 A 
ATOM      8  C8  DEN d   1       3.504   0.011   1.174  0.00  0.00    -0.094 A 
ATOM      9  C9  DEN d   1       2.753  -0.131   0.020  0.00  0.00    -0.072 A 
ENDROOT
TORSDOF 0
ENDMDL
