MODEL 1
REMARK minimizedAffinity 13.4479618
REMARK minimizedRMSD -1
REMARK  0 active torsions:
REMARK  status: ('A' for Active; 'I' for Inactive)
ROOT
ATOM      1  C1  DEN d   1       2.704  -0.522   0.675  0.00  0.00     0.130 A 
ATOM      2  C2  DEN d   1       3.665  -0.198  -0.376  0.00  0.00    -0.031 A 
ATOM      3  C3  DEN d   1       3.124   0.934  -1.156  0.00  0.00     0.027 A 
ATOM      4  C4  DEN d   1       0.906   2.212  -0.836  0.00  0.00     0.027 A 
ATOM      5  C5  DEN d   1      -0.245   2.292  -0.084  0.00  0.00    -0.003 A 
ATOM      6  C6  DEN d   1      -0.507   1.425   0.944  0.00  0.00     0.001 A 
ATOM      7  C7  DEN d   1       0.415   0.468   1.277  0.00  0.00     0.017 A 
ATOM      8  C8  DEN d   1       1.574   0.377   0.518  0.00  0.00    -0.094 A 
ATOM      9  C9  DEN d   1       1.827   1.270  -0.509  0.00  0.00    -0.072 A 
ENDROOT
TORSDOF 0
ENDMDL
