MODEL 1
REMARK minimizedAffinity 9.66385841
REMARK minimizedRMSD -1
REMARK  0 active torsions:
REMARK  status: ('A' for Active; 'I' for Inactive)
ROOT
ATOM      1  C1  DEN d   1       2.716   1.125   1.469  0.00  0.00     0.130 A 
ATOM      2  C2  DEN d   1       1.553   0.754   0.668  0.00  0.00    -0.031 A 
ATOM      3  C3  DEN d   1       1.964   0.727  -0.750  0.00  0.00     0.027 A 
ATOM      4  C4  DEN d   1       4.279   1.216  -1.777  0.00  0.00     0.027 A 
ATOM      5  C5  DEN d   1       5.577   1.584  -1.497  0.00  0.00    -0.003 A 
ATOM      6  C6  DEN d   1       5.999   1.856  -0.223  0.00  0.00     0.001 A 
ATOM      7  C7  DEN d   1       5.128   1.720   0.825  0.00  0.00     0.017 A 
ATOM      8  C8  DEN d   1       3.816   1.356   0.550  0.00  0.00    -0.094 A 
ATOM      9  C9  DEN d   1       3.411   1.074  -0.744  0.00  0.00    -0.072 A 
ENDROOT
TORSDOF 0
ENDMDL
