MODEL 1
REMARK minimizedAffinity -5.62128305
REMARK minimizedRMSD -1
REMARK  0 active torsions:
REMARK  status: ('A' for Active; 'I' for Inactive)
ROOT
ATOM      1  C1  DEN d   1       1.501   5.883   3.869  0.00  0.00     0.130 A 
ATOM      2  C2  DEN d   1       0.179   5.999   4.480  0.00  0.00    -0.031 A 
ATOM      3  C3  DEN d   1       0.013   4.875   5.424  0.00  0.00     0.027 A 
ATOM      4  C4  DEN d   1       1.665   2.980   5.999  0.00  0.00     0.027 A 
ATOM      5  C5  DEN d   1       2.909   2.454   5.727  0.00  0.00    -0.003 A 
ATOM      6  C6  DEN d   1       3.749   3.010   4.799  0.00  0.00     0.001 A 
ATOM      7  C7  DEN d   1       3.375   4.152   4.142  0.00  0.00     0.017 A 
ATOM      8  C8  DEN d   1       2.120   4.684   4.406  0.00  0.00    -0.094 A 
ATOM      9  C9  DEN d   1       1.290   4.115   5.357  0.00  0.00    -0.072 A 
ENDROOT
TORSDOF 0
ENDMDL
