MODEL 1
REMARK minimizedAffinity 6.99859381
REMARK minimizedRMSD -1
REMARK  0 active torsions:
REMARK  status: ('A' for Active; 'I' for Inactive)
ROOT
ATOM      1  C1  DEN d   1       4.881   0.850  -2.551  0.00  0.00     0.130 A 
ATOM      2  C2  DEN d   1       5.147   2.225  -2.138  0.00  0.00    -0.031 A 
ATOM      3  C3  DEN d   1       4.354   2.498  -0.922  0.00  0.00     0.027 A 
ATOM      4  C4  DEN d   1       2.754   0.931   0.357  0.00  0.00     0.027 A 
ATOM      5  C5  DEN d   1       2.197  -0.329   0.381  0.00  0.00    -0.003 A 
ATOM      6  C6  DEN d   1       2.467  -1.265  -0.582  0.00  0.00     0.001 A 
ATOM      7  C7  DEN d   1       3.352  -0.971  -1.585  0.00  0.00     0.017 A 
ATOM      8  C8  DEN d   1       3.912   0.300  -1.620  0.00  0.00    -0.094 A 
ATOM      9  C9  DEN d   1       3.636   1.228  -0.630  0.00  0.00    -0.072 A 
ENDROOT
TORSDOF 0
ENDMDL
