MODEL 1
REMARK minimizedAffinity -5.40350389
REMARK minimizedRMSD -1
REMARK  0 active torsions:
REMARK  status: ('A' for Active; 'I' for Inactive)
ROOT
ATOM      1  C1  DEN d   1       2.280   2.944   5.998  0.00  0.00     0.130 A 
ATOM      2  C2  DEN d   1       3.596   2.897   5.368  0.00  0.00    -0.031 A 
ATOM      3  C3  DEN d   1       3.634   3.929   4.312  0.00  0.00     0.027 A 
ATOM      4  C4  DEN d   1       1.793   5.588   3.599  0.00  0.00     0.027 A 
ATOM      5  C5  DEN d   1       0.500   5.999   3.835  0.00  0.00    -0.003 A 
ATOM      6  C6  DEN d   1      -0.296   5.403   4.777  0.00  0.00     0.001 A 
ATOM      7  C7  DEN d   1       0.209   4.392   5.550  0.00  0.00     0.017 A 
ATOM      8  C8  DEN d   1       1.510   3.967   5.314  0.00  0.00    -0.094 A 
ATOM      9  C9  DEN d   1       2.302   4.591   4.365  0.00  0.00    -0.072 A 
ENDROOT
TORSDOF 0
ENDMDL
