MODEL 1
REMARK minimizedAffinity -4.95131063
REMARK minimizedRMSD -1
REMARK  1 active torsions:
REMARK  status: ('A' for Active; 'I' for Inactive)
REMARK    1  A    between atoms: C1_2  and  C2_3 
ROOT
ATOM      1  C2  UNL d   1      -0.631   0.759  -1.193  0.00  0.00    -0.081 A 
ATOM      2  C3  UNL d   1      -1.405   0.704  -0.027  0.00  0.00     0.006 A 
ATOM      3  C4  UNL d   1      -0.899   0.111   1.132  0.00  0.00     0.002 A 
ATOM      4  C5  UNL d   1       0.392  -0.429   1.147  0.00  0.00    -0.080 A 
ATOM      5  C6  UNL d   1       0.959  -1.041   2.394  0.00  0.00     0.076 C 
ATOM      6  C7  UNL d   1       1.159  -0.389  -0.022  0.00  0.00     0.002 A 
ATOM      7  C8  UNL d   1       0.653   0.203  -1.181  0.00  0.00     0.006 A 
ENDROOT
BRANCH   1   8
ATOM      8  C1  UNL d   1      -1.150   1.455  -2.425  0.00  0.00     0.054 C 
ATOM      9  C   UNL d   1      -0.479   2.808  -2.620  0.00  0.00     0.018 C 
ENDBRANCH   1   8
TORSDOF 1
ENDMDL
