MODEL 1
REMARK minimizedAffinity -3.80847383
REMARK minimizedRMSD -1
REMARK  1 active torsions:
REMARK  status: ('A' for Active; 'I' for Inactive)
REMARK    1  A    between atoms: C1_2  and  C2_3 
ROOT
ATOM      1  C2  UNL d   1      -0.406   0.009  -0.672  0.00  0.00    -0.081 A 
ATOM      2  C3  UNL d   1      -1.225  -0.118   0.457  0.00  0.00     0.006 A 
ATOM      3  C4  UNL d   1      -0.683  -0.502   1.685  0.00  0.00     0.002 A 
ATOM      4  C5  UNL d   1       0.687  -0.757   1.808  0.00  0.00    -0.080 A 
ATOM      5  C6  UNL d   1       1.287  -1.140   3.128  0.00  0.00     0.076 C 
ATOM      6  C7  UNL d   1       1.502  -0.647   0.677  0.00  0.00     0.002 A 
ATOM      7  C8  UNL d   1       0.961  -0.264  -0.552  0.00  0.00     0.006 A 
ENDROOT
BRANCH   1   8
ATOM      8  C1  UNL d   1      -0.977   0.486  -1.983  0.00  0.00     0.054 C 
ATOM      9  C   UNL d   1      -0.440   1.860  -2.354  0.00  0.00     0.018 C 
ENDBRANCH   1   8
TORSDOF 1
ENDMDL
