MODEL 1
REMARK minimizedAffinity -4.37927198
REMARK minimizedRMSD -1
REMARK  1 active torsions:
REMARK  status: ('A' for Active; 'I' for Inactive)
REMARK    1  A    between atoms: C1_2  and  C2_3 
ROOT
ATOM      1  C2  UNL d   1       0.118   0.074  -0.915  0.00  0.00    -0.081 A 
ATOM      2  C3  UNL d   1      -0.478   0.187   0.348  0.00  0.00     0.006 A 
ATOM      3  C4  UNL d   1       0.068  -0.475   1.450  0.00  0.00     0.002 A 
ATOM      4  C5  UNL d   1       1.221  -1.254   1.310  0.00  0.00    -0.080 A 
ATOM      5  C6  UNL d   1       1.834  -1.946   2.492  0.00  0.00     0.076 C 
ATOM      6  C7  UNL d   1       1.806  -1.381   0.046  0.00  0.00     0.002 A 
ATOM      7  C8  UNL d   1       1.261  -0.720  -1.057  0.00  0.00     0.006 A 
ENDROOT
BRANCH   1   8
ATOM      8  C1  UNL d   1      -0.431   0.839  -2.092  0.00  0.00     0.054 C 
ATOM      9  C   UNL d   1       0.167   2.236  -2.171  0.00  0.00     0.018 C 
ENDBRANCH   1   8
TORSDOF 1
ENDMDL
