MODEL 1
REMARK minimizedAffinity -2.82780552
REMARK minimizedRMSD -1
REMARK  1 active torsions:
REMARK  status: ('A' for Active; 'I' for Inactive)
REMARK    1  A    between atoms: C1_2  and  C2_3 
ROOT
ATOM      1  C2  UNL d   1      -0.750   0.816  -1.131  0.00  0.00    -0.081 A 
ATOM      2  C3  UNL d   1      -1.608   0.638  -0.039  0.00  0.00     0.006 A 
ATOM      3  C4  UNL d   1      -1.172  -0.041   1.101  0.00  0.00     0.002 A 
ATOM      4  C5  UNL d   1       0.131  -0.546   1.172  0.00  0.00    -0.080 A 
ATOM      5  C6  UNL d   1       0.621  -1.250   2.403  0.00  0.00     0.076 C 
ATOM      6  C7  UNL d   1       0.983  -0.383   0.075  0.00  0.00     0.002 A 
ATOM      7  C8  UNL d   1       0.547   0.294  -1.066  0.00  0.00     0.006 A 
ENDROOT
BRANCH   1   8
ATOM      8  C1  UNL d   1      -1.196   1.603  -2.336  0.00  0.00     0.054 C 
ATOM      9  C   UNL d   1      -0.297   2.809  -2.573  0.00  0.00     0.018 C 
ENDBRANCH   1   8
TORSDOF 1
ENDMDL
