MODEL 1
REMARK minimizedAffinity -5.68879795
REMARK minimizedRMSD -1
REMARK  1 active torsions:
REMARK  status: ('A' for Active; 'I' for Inactive)
REMARK    1  A    between atoms: C1_2  and  C2_3 
ROOT
ATOM      1  C2  UNL d   1      -0.336   0.902  -0.642  0.00  0.00    -0.081 A 
ATOM      2  C3  UNL d   1      -1.164   0.489   0.409  0.00  0.00     0.006 A 
ATOM      3  C4  UNL d   1      -0.613  -0.032   1.582  0.00  0.00     0.002 A 
ATOM      4  C5  UNL d   1       0.774  -0.142   1.727  0.00  0.00    -0.080 A 
ATOM      5  C6  UNL d   1       1.379  -0.672   2.993  0.00  0.00     0.076 C 
ATOM      6  C7  UNL d   1       1.601   0.254   0.671  0.00  0.00     0.002 A 
ATOM      7  C8  UNL d   1       1.051   0.774  -0.503  0.00  0.00     0.006 A 
ENDROOT
BRANCH   1   8
ATOM      8  C1  UNL d   1      -0.924   1.524  -1.882  0.00  0.00     0.054 C 
ATOM      9  C   UNL d   1      -0.326   2.898  -2.149  0.00  0.00     0.018 C 
ENDBRANCH   1   8
TORSDOF 1
ENDMDL
