MODEL 1
REMARK minimizedAffinity -4.23254871
REMARK minimizedRMSD -1
REMARK  1 active torsions:
REMARK  status: ('A' for Active; 'I' for Inactive)
REMARK    1  A    between atoms: C1_2  and  C2_3 
ROOT
ATOM      1  C2  UNL d   1      -0.327  -0.136  -0.452  0.00  0.00    -0.081 A 
ATOM      2  C3  UNL d   1      -0.872  -0.298   0.827  0.00  0.00     0.006 A 
ATOM      3  C4  UNL d   1      -0.099  -0.823   1.865  0.00  0.00     0.002 A 
ATOM      4  C5  UNL d   1       1.233  -1.187   1.644  0.00  0.00    -0.080 A 
ATOM      5  C6  UNL d   1       2.083  -1.724   2.757  0.00  0.00     0.076 C 
ATOM      6  C7  UNL d   1       1.773  -1.042   0.361  0.00  0.00     0.002 A 
ATOM      7  C8  UNL d   1       1.001  -0.517  -0.677  0.00  0.00     0.006 A 
ENDROOT
BRANCH   1   8
ATOM      8  C1  UNL d   1      -1.138   0.491  -1.557  0.00  0.00     0.054 C 
ATOM      9  C   UNL d   1      -0.577   1.849  -1.954  0.00  0.00     0.018 C 
ENDBRANCH   1   8
TORSDOF 1
ENDMDL
