MODEL 1
REMARK minimizedAffinity -0.2863383
REMARK minimizedRMSD -1
REMARK  1 active torsions:
REMARK  status: ('A' for Active; 'I' for Inactive)
REMARK    1  A    between atoms: C1_2  and  C2_3 
ROOT
ATOM      1  C2  UNL d   1      -0.888   0.858  -1.083  0.00  0.00    -0.081 A 
ATOM      2  C3  UNL d   1       0.452   0.471  -0.951  0.00  0.00     0.006 A 
ATOM      3  C4  UNL d   1       0.866  -0.286   0.147  0.00  0.00     0.002 A 
ATOM      4  C5  UNL d   1      -0.053  -0.675   1.128  0.00  0.00    -0.080 A 
ATOM      5  C6  UNL d   1       0.372  -1.513   2.297  0.00  0.00     0.076 C 
ATOM      6  C7  UNL d   1      -1.388  -0.274   1.006  0.00  0.00     0.002 A 
ATOM      7  C8  UNL d   1      -1.802   0.484  -0.092  0.00  0.00     0.006 A 
ENDROOT
BRANCH   1   8
ATOM      8  C1  UNL d   1      -1.350   1.619  -2.299  0.00  0.00     0.054 C 
ATOM      9  C   UNL d   1      -0.429   2.793  -2.600  0.00  0.00     0.018 C 
ENDBRANCH   1   8
TORSDOF 1
ENDMDL
