MODEL 1
REMARK minimizedAffinity 11.230587
REMARK minimizedRMSD -1
REMARK  1 active torsions:
REMARK  status: ('A' for Active; 'I' for Inactive)
REMARK    1  A    between atoms: C1_2  and  C2_3 
ROOT
ATOM      1  C2  UNL d   1      -0.283   1.993   0.456  0.00  0.00    -0.073 A 
ATOM      2  C3  UNL d   1       0.900   1.273   0.253  0.00  0.00    -0.002 A 
ATOM      3  C4  UNL d   1       1.400   1.088  -1.037  0.00  0.00     0.004 A 
ATOM      4  C5  UNL d   1       0.728   1.626  -2.134  0.00  0.00    -0.004 A 
ATOM      5  C6  UNL d   1      -0.450   2.358  -1.951  0.00  0.00    -0.075 A 
ATOM      6  C7  UNL d   1      -1.186   2.941  -3.121  0.00  0.00     0.076 C 
ATOM      7  C8  UNL d   1      -0.947   2.537  -0.653  0.00  0.00     0.001 A 
ENDROOT
BRANCH   1   8
ATOM      8  C1  UNL d   1      -0.824   2.200   1.847  0.00  0.00     0.053 C 
ATOM      9  C   UNL d   1       0.204   1.859   2.914  0.00  0.00     0.018 C 
ENDBRANCH   1   8
TORSDOF 1
ENDMDL
