MODEL 1
REMARK minimizedAffinity 19.214695
REMARK minimizedRMSD -1
REMARK  1 active torsions:
REMARK  status: ('A' for Active; 'I' for Inactive)
REMARK    1  A    between atoms: C1_2  and  C2_3 
ROOT
ATOM      1  C2  UNL d   1      -4.262   3.676   1.270  0.00  0.00    -0.073 A 
ATOM      2  C3  UNL d   1      -4.667   4.281   0.075  0.00  0.00    -0.002 A 
ATOM      3  C4  UNL d   1      -5.462   5.427   0.100  0.00  0.00     0.004 A 
ATOM      4  C5  UNL d   1      -5.854   5.984   1.317  0.00  0.00    -0.004 A 
ATOM      5  C6  UNL d   1      -5.449   5.400   2.522  0.00  0.00    -0.075 A 
ATOM      6  C7  UNL d   1      -5.864   5.985   3.840  0.00  0.00     0.076 C 
ATOM      7  C8  UNL d   1      -4.653   4.248   2.489  0.00  0.00     0.001 A 
ENDROOT
BRANCH   1   8
ATOM      8  C1  UNL d   1      -3.398   2.442   1.248  0.00  0.00     0.053 C 
ATOM      9  C   UNL d   1      -2.554   2.358  -0.015  0.00  0.00     0.018 C 
ENDBRANCH   1   8
TORSDOF 1
ENDMDL
