MODEL 1
REMARK minimizedAffinity 14.0200443
REMARK minimizedRMSD -1
REMARK  1 active torsions:
REMARK  status: ('A' for Active; 'I' for Inactive)
REMARK    1  A    between atoms: C1_2  and  C2_3 
ROOT
ATOM      1  C2  UNL d   1      -3.024  -2.962   4.426  0.00  0.00    -0.073 A 
ATOM      2  C3  UNL d   1      -2.768  -1.667   4.890  0.00  0.00    -0.002 A 
ATOM      3  C4  UNL d   1      -1.644  -1.409   5.676  0.00  0.00     0.004 A 
ATOM      4  C5  UNL d   1      -0.762  -2.439   5.999  0.00  0.00    -0.004 A 
ATOM      5  C6  UNL d   1      -0.994  -3.738   5.534  0.00  0.00    -0.075 A 
ATOM      6  C7  UNL d   1      -0.055  -4.858   5.875  0.00  0.00     0.076 C 
ATOM      7  C8  UNL d   1      -2.126  -3.990   4.749  0.00  0.00     0.001 A 
ENDROOT
BRANCH   1   8
ATOM      8  C1  UNL d   1      -4.233  -3.245   3.573  0.00  0.00     0.053 C 
ATOM      9  C   UNL d   1      -4.937  -4.527   3.988  0.00  0.00     0.018 C 
ENDBRANCH   1   8
TORSDOF 1
ENDMDL
