MODEL 1
REMARK minimizedAffinity 4.73736095
REMARK minimizedRMSD -1
REMARK  1 active torsions:
REMARK  status: ('A' for Active; 'I' for Inactive)
REMARK    1  A    between atoms: C1_2  and  C2_3 
ROOT
ATOM      1  C2  UNL d   1      -4.457   3.726  -5.329  0.00  0.00    -0.073 A 
ATOM      2  C3  UNL d   1      -4.643   4.982  -5.917  0.00  0.00    -0.002 A 
ATOM      3  C4  UNL d   1      -3.584   5.886  -5.999  0.00  0.00     0.004 A 
ATOM      4  C5  UNL d   1      -2.327   5.542  -5.502  0.00  0.00    -0.004 A 
ATOM      5  C6  UNL d   1      -2.117   4.287  -4.921  0.00  0.00    -0.075 A 
ATOM      6  C7  UNL d   1      -0.772   3.903  -4.379  0.00  0.00     0.076 C 
ATOM      7  C8  UNL d   1      -3.187   3.386  -4.839  0.00  0.00     0.001 A 
ENDROOT
BRANCH   1   8
ATOM      8  C1  UNL d   1      -5.596   2.744  -5.243  0.00  0.00     0.053 C 
ATOM      9  C   UNL d   1      -5.127   1.309  -5.430  0.00  0.00     0.018 C 
ENDBRANCH   1   8
TORSDOF 1
ENDMDL
