MODEL 1
REMARK minimizedAffinity 12.8077908
REMARK minimizedRMSD -1
REMARK  1 active torsions:
REMARK  status: ('A' for Active; 'I' for Inactive)
REMARK    1  A    between atoms: C1_2  and  C2_3 
ROOT
ATOM      1  C2  UNL d   1      -0.429  -2.504   3.650  0.00  0.00    -0.073 A 
ATOM      2  C3  UNL d   1       0.042  -3.330   2.624  0.00  0.00    -0.002 A 
ATOM      3  C4  UNL d   1       0.921  -2.829   1.663  0.00  0.00     0.004 A 
ATOM      4  C5  UNL d   1       1.343  -1.501   1.721  0.00  0.00    -0.004 A 
ATOM      5  C6  UNL d   1       0.892  -0.663   2.746  0.00  0.00    -0.075 A 
ATOM      6  C7  UNL d   1       1.334   0.769   2.822  0.00  0.00     0.076 C 
ATOM      7  C8  UNL d   1       0.007  -1.173   3.706  0.00  0.00     0.001 A 
ENDROOT
BRANCH   1   8
ATOM      8  C1  UNL d   1      -1.373  -3.042   4.693  0.00  0.00     0.053 C 
ATOM      9  C   UNL d   1      -0.660  -3.360   5.998  0.00  0.00     0.018 C 
ENDBRANCH   1   8
TORSDOF 1
ENDMDL
