MODEL 1
REMARK minimizedAffinity 16.3925648
REMARK minimizedRMSD -1
REMARK  1 active torsions:
REMARK  status: ('A' for Active; 'I' for Inactive)
REMARK    1  A    between atoms: C1_2  and  C2_3 
ROOT
ATOM      1  C2  UNL d   1       4.265  -5.182  -0.363  0.00  0.00    -0.073 A 
ATOM      2  C3  UNL d   1       4.053  -5.999  -1.479  0.00  0.00    -0.002 A 
ATOM      3  C4  UNL d   1       2.842  -5.949  -2.169  0.00  0.00     0.004 A 
ATOM      4  C5  UNL d   1       1.834  -5.077  -1.757  0.00  0.00    -0.004 A 
ATOM      5  C6  UNL d   1       2.031  -4.244  -0.651  0.00  0.00    -0.075 A 
ATOM      6  C7  UNL d   1       0.957  -3.302  -0.192  0.00  0.00     0.076 C 
ATOM      7  C8  UNL d   1       3.250  -4.303   0.039  0.00  0.00     0.001 A 
ENDROOT
BRANCH   1   8
ATOM      8  C1  UNL d   1       5.574  -5.229   0.382  0.00  0.00     0.053 C 
ATOM      9  C   UNL d   1       5.385  -5.598   1.845  0.00  0.00     0.018 C 
ENDBRANCH   1   8
TORSDOF 1
ENDMDL
