MODEL 1
REMARK minimizedAffinity 6.98928213
REMARK minimizedRMSD -1
REMARK  1 active torsions:
REMARK  status: ('A' for Active; 'I' for Inactive)
REMARK    1  A    between atoms: C1_2  and  C2_3 
ROOT
ATOM      1  C2  UNL d   1      -2.748   4.522  -5.220  0.00  0.00    -0.073 A 
ATOM      2  C3  UNL d   1      -3.744   5.426  -5.609  0.00  0.00    -0.002 A 
ATOM      3  C4  UNL d   1      -5.001   4.964  -6.000  0.00  0.00     0.004 A 
ATOM      4  C5  UNL d   1      -5.279   3.597  -5.998  0.00  0.00    -0.004 A 
ATOM      5  C6  UNL d   1      -4.301   2.679  -5.601  0.00  0.00    -0.075 A 
ATOM      6  C7  UNL d   1      -4.583   1.205  -5.596  0.00  0.00     0.076 C 
ATOM      7  C8  UNL d   1      -3.039   3.151  -5.213  0.00  0.00     0.001 A 
ENDROOT
BRANCH   1   8
ATOM      8  C1  UNL d   1      -1.391   5.017  -4.792  0.00  0.00     0.053 C 
ATOM      9  C   UNL d   1      -0.756   5.919  -5.839  0.00  0.00     0.018 C 
ENDBRANCH   1   8
TORSDOF 1
ENDMDL
