MODEL 1
REMARK minimizedAffinity 9.90333176
REMARK minimizedRMSD -1
REMARK  1 active torsions:
REMARK  status: ('A' for Active; 'I' for Inactive)
REMARK    1  A    between atoms: C1_2  and  C2_3 
ROOT
ATOM      1  C2  UNL d   1      -3.734   2.308  -5.061  0.00  0.00    -0.073 A 
ATOM      2  C3  UNL d   1      -2.499   2.047  -4.457  0.00  0.00    -0.002 A 
ATOM      3  C4  UNL d   1      -1.546   3.059  -4.336  0.00  0.00     0.004 A 
ATOM      4  C5  UNL d   1      -1.820   4.342  -4.809  0.00  0.00    -0.004 A 
ATOM      5  C6  UNL d   1      -3.054   4.625  -5.404  0.00  0.00    -0.075 A 
ATOM      6  C7  UNL d   1      -3.364   6.000  -5.920  0.00  0.00     0.076 C 
ATOM      7  C8  UNL d   1      -4.004   3.603  -5.525  0.00  0.00     0.001 A 
ENDROOT
BRANCH   1   8
ATOM      8  C1  UNL d   1      -4.769   1.220  -5.188  0.00  0.00     0.053 C 
ATOM      9  C   UNL d   1      -5.985   1.679  -5.976  0.00  0.00     0.018 C 
ENDBRANCH   1   8
TORSDOF 1
ENDMDL
