MODEL 1
REMARK minimizedAffinity -0.0829224214
REMARK minimizedRMSD -1
REMARK  1 active torsions:
REMARK  status: ('A' for Active; 'I' for Inactive)
REMARK    1  A    between atoms: C1_2  and  C2_3 
ROOT
ATOM      1  C2  UNL d   1      -4.995   3.696  -5.275  0.00  0.00    -0.073 A 
ATOM      2  C3  UNL d   1      -5.389   4.827  -5.998  0.00  0.00    -0.002 A 
ATOM      3  C4  UNL d   1      -4.594   5.975  -6.000  0.00  0.00     0.004 A 
ATOM      4  C5  UNL d   1      -3.397   6.000  -5.285  0.00  0.00    -0.004 A 
ATOM      5  C6  UNL d   1      -2.981   4.875  -4.566  0.00  0.00    -0.075 A 
ATOM      6  C7  UNL d   1      -1.696   4.887  -3.790  0.00  0.00     0.076 C 
ATOM      7  C8  UNL d   1      -3.785   3.728  -4.567  0.00  0.00     0.001 A 
ENDROOT
BRANCH   1   8
ATOM      8  C1  UNL d   1      -5.847   2.453  -5.275  0.00  0.00     0.053 C 
ATOM      9  C   UNL d   1      -5.006   1.186  -5.260  0.00  0.00     0.018 C 
ENDBRANCH   1   8
TORSDOF 1
ENDMDL
