MODEL 1
REMARK minimizedAffinity 16.8205013
REMARK minimizedRMSD -1
REMARK  1 active torsions:
REMARK  status: ('A' for Active; 'I' for Inactive)
REMARK    1  A    between atoms: C1_2  and  C2_3 
ROOT
ATOM      1  C2  UNL d   1      -3.598   4.499   0.150  0.00  0.00    -0.073 A 
ATOM      2  C3  UNL d   1      -4.394   4.870  -0.940  0.00  0.00    -0.002 A 
ATOM      3  C4  UNL d   1      -5.571   5.592  -0.740  0.00  0.00     0.004 A 
ATOM      4  C5  UNL d   1      -5.961   5.956   0.548  0.00  0.00    -0.004 A 
ATOM      5  C6  UNL d   1      -5.172   5.606   1.649  0.00  0.00    -0.075 A 
ATOM      6  C7  UNL d   1      -5.579   5.988   3.042  0.00  0.00     0.076 C 
ATOM      7  C8  UNL d   1      -3.993   4.878   1.441  0.00  0.00     0.001 A 
ENDROOT
BRANCH   1   8
ATOM      8  C1  UNL d   1      -2.322   3.725  -0.062  0.00  0.00     0.053 C 
ATOM      9  C   UNL d   1      -2.468   2.266   0.338  0.00  0.00     0.018 C 
ENDBRANCH   1   8
TORSDOF 1
ENDMDL
