MODEL 1
REMARK minimizedAffinity -1.06286025
REMARK minimizedRMSD -1
REMARK  0 active torsions:
REMARK  status: ('A' for Active; 'I' for Inactive)
ROOT
ATOM      1  C   UNL d   1       5.231   1.024   4.340  0.00  0.00     0.172 C 
ATOM      2  N   UNL d   1       5.156   2.362   3.802  0.00  0.00    -0.070 N 
ATOM      3  C1  UNL d   1       4.240   2.803   2.884  0.00  0.00    -0.004 A 
ATOM      4  C2  UNL d   1       4.502   4.132   2.630  0.00  0.00    -0.047 A 
ATOM      5  C3  UNL d   1       5.615   4.502   3.422  0.00  0.00    -0.047 A 
ATOM      6  C4  UNL d   1       6.000   3.388   4.137  0.00  0.00    -0.004 A 
ENDROOT
TORSDOF 0
ENDMDL
