MODEL 1
REMARK minimizedAffinity -0.769322336
REMARK minimizedRMSD -1
REMARK  0 active torsions:
REMARK  status: ('A' for Active; 'I' for Inactive)
ROOT
ATOM      1  C   UNL d   1       5.986   2.438   4.268  0.00  0.00     0.172 C 
ATOM      2  N   UNL d   1       5.991   3.782   3.742  0.00  0.00    -0.070 N 
ATOM      3  C1  UNL d   1       5.995   4.931   4.487  0.00  0.00    -0.004 A 
ATOM      4  C2  UNL d   1       5.999   5.999   3.616  0.00  0.00    -0.047 A 
ATOM      5  C3  UNL d   1       5.997   5.474   2.302  0.00  0.00    -0.047 A 
ATOM      6  C4  UNL d   1       5.992   4.099   2.410  0.00  0.00    -0.004 A 
ENDROOT
TORSDOF 0
ENDMDL
