MODEL 1
REMARK minimizedAffinity -1.68883109
REMARK minimizedRMSD -1
REMARK  0 active torsions:
REMARK  status: ('A' for Active; 'I' for Inactive)
ROOT
ATOM      1  C   UNL d   1       5.692  -1.617   5.276  0.00  0.00     0.172 C 
ATOM      2  N   UNL d   1       5.816  -0.208   4.986  0.00  0.00    -0.070 N 
ATOM      3  C1  UNL d   1       5.879   0.797   5.915  0.00  0.00    -0.004 A 
ATOM      4  C2  UNL d   1       5.994   1.991   5.237  0.00  0.00    -0.047 A 
ATOM      5  C3  UNL d   1       5.999   1.695   3.854  0.00  0.00    -0.047 A 
ATOM      6  C4  UNL d   1       5.888   0.327   3.726  0.00  0.00    -0.004 A 
ENDROOT
TORSDOF 0
ENDMDL
