MODEL 1
REMARK minimizedAffinity -2.57361698
REMARK minimizedRMSD -1
REMARK  0 active torsions:
REMARK  status: ('A' for Active; 'I' for Inactive)
ROOT
ATOM      1  C   UNL d   1       5.701   4.125   2.670  0.00  0.00     0.172 C 
ATOM      2  N   UNL d   1       5.777   2.941   3.493  0.00  0.00    -0.070 N 
ATOM      3  C1  UNL d   1       6.000   2.921   4.844  0.00  0.00    -0.004 A 
ATOM      4  C2  UNL d   1       6.000   1.605   5.252  0.00  0.00    -0.047 A 
ATOM      5  C3  UNL d   1       5.770   0.806   4.107  0.00  0.00    -0.047 A 
ATOM      6  C4  UNL d   1       5.636   1.659   3.032  0.00  0.00    -0.004 A 
ENDROOT
TORSDOF 0
ENDMDL
