MODEL 1
REMARK minimizedAffinity -1.47681534
REMARK minimizedRMSD -1
REMARK  0 active torsions:
REMARK  status: ('A' for Active; 'I' for Inactive)
ROOT
ATOM      1  C   UNL d   1       5.983   1.226   3.788  0.00  0.00     0.172 C 
ATOM      2  N   UNL d   1       5.988   2.628   4.133  0.00  0.00    -0.070 N 
ATOM      3  C1  UNL d   1       5.983   3.138   5.404  0.00  0.00    -0.004 A 
ATOM      4  C2  UNL d   1       5.991   4.512   5.307  0.00  0.00    -0.047 A 
ATOM      5  C3  UNL d   1       6.000   4.840   3.931  0.00  0.00    -0.047 A 
ATOM      6  C4  UNL d   1       5.998   3.655   3.226  0.00  0.00    -0.004 A 
ENDROOT
TORSDOF 0
ENDMDL
