MODEL 1
REMARK minimizedAffinity -0.498666584
REMARK minimizedRMSD -1
REMARK  0 active torsions:
REMARK  status: ('A' for Active; 'I' for Inactive)
ROOT
ATOM      1  C   UNL d   1       5.971  -0.557   4.487  0.00  0.00     0.172 C 
ATOM      2  N   UNL d   1       5.982   0.887   4.508  0.00  0.00    -0.070 N 
ATOM      3  C1  UNL d   1       5.984   1.669   5.631  0.00  0.00    -0.004 A 
ATOM      4  C2  UNL d   1       5.996   2.987   5.228  0.00  0.00    -0.047 A 
ATOM      5  C3  UNL d   1       6.000   2.997   3.813  0.00  0.00    -0.047 A 
ATOM      6  C4  UNL d   1       5.991   1.684   3.393  0.00  0.00    -0.004 A 
ENDROOT
TORSDOF 0
ENDMDL
