MODEL 1
REMARK minimizedAffinity -1.90509367
REMARK minimizedRMSD -1
REMARK  0 active torsions:
REMARK  status: ('A' for Active; 'I' for Inactive)
ROOT
ATOM      1  C   UNL d   1       5.980  -1.050   5.249  0.00  0.00     0.172 C 
ATOM      2  N   UNL d   1       5.663   0.202   4.602  0.00  0.00    -0.070 N 
ATOM      3  C1  UNL d   1       6.000   0.546   3.321  0.00  0.00    -0.004 A 
ATOM      4  C2  UNL d   1       5.517   1.815   3.084  0.00  0.00    -0.047 A 
ATOM      5  C3  UNL d   1       4.868   2.249   4.264  0.00  0.00    -0.047 A 
ATOM      6  C4  UNL d   1       4.974   1.231   5.188  0.00  0.00    -0.004 A 
ENDROOT
TORSDOF 0
ENDMDL
