MODEL 1
REMARK minimizedAffinity 7.05746937
REMARK minimizedRMSD -1
REMARK  0 active torsions:
REMARK  status: ('A' for Active; 'I' for Inactive)
ROOT
ATOM      1  C   UNL d   1      -0.361   4.792   4.075  0.00  0.00     0.172 C 
ATOM      2  N   UNL d   1      -0.719   4.076   2.873  0.00  0.00    -0.070 N 
ATOM      3  C1  UNL d   1       0.150   3.680   1.891  0.00  0.00    -0.004 A 
ATOM      4  C2  UNL d   1      -0.580   3.029   0.919  0.00  0.00    -0.047 A 
ATOM      5  C3  UNL d   1      -1.934   3.035   1.331  0.00  0.00    -0.047 A 
ATOM      6  C4  UNL d   1      -1.991   3.689   2.544  0.00  0.00    -0.004 A 
ENDROOT
TORSDOF 0
ENDMDL
