MODEL 1
REMARK minimizedAffinity -1.57444489
REMARK minimizedRMSD -1
REMARK  0 active torsions:
REMARK  status: ('A' for Active; 'I' for Inactive)
ROOT
ATOM      1  C   UNL d   1       5.621  -0.960   5.526  0.00  0.00     0.172 C 
ATOM      2  N   UNL d   1       5.624   0.388   5.010  0.00  0.00    -0.070 N 
ATOM      3  C1  UNL d   1       5.999   1.508   5.703  0.00  0.00    -0.004 A 
ATOM      4  C2  UNL d   1       5.860   2.591   4.863  0.00  0.00    -0.047 A 
ATOM      5  C3  UNL d   1       5.384   2.106   3.622  0.00  0.00    -0.047 A 
ATOM      6  C4  UNL d   1       5.246   0.739   3.740  0.00  0.00    -0.004 A 
ENDROOT
TORSDOF 0
ENDMDL
