MODEL 1
REMARK minimizedAffinity -2.12389779
REMARK minimizedRMSD -1
REMARK  0 active torsions:
REMARK  status: ('A' for Active; 'I' for Inactive)
ROOT
ATOM      1  C   UNL d   1       5.993  -1.018   4.872  0.00  0.00     0.172 C 
ATOM      2  N   UNL d   1       5.994   0.330   4.353  0.00  0.00    -0.070 N 
ATOM      3  C1  UNL d   1       6.000   1.475   5.105  0.00  0.00    -0.004 A 
ATOM      4  C2  UNL d   1       6.000   2.547   4.240  0.00  0.00    -0.047 A 
ATOM      5  C3  UNL d   1       5.993   2.030   2.923  0.00  0.00    -0.047 A 
ATOM      6  C4  UNL d   1       5.989   0.654   3.022  0.00  0.00    -0.004 A 
ENDROOT
TORSDOF 0
ENDMDL
