MODEL 1
REMARK minimizedAffinity -1.94644392
REMARK minimizedRMSD -1
REMARK  0 active torsions:
REMARK  status: ('A' for Active; 'I' for Inactive)
ROOT
ATOM      1  C   UNL d   1       5.638   4.146   2.606  0.00  0.00     0.172 C 
ATOM      2  N   UNL d   1       5.373   2.861   3.209  0.00  0.00    -0.070 N 
ATOM      3  C1  UNL d   1       4.464   2.619   4.204  0.00  0.00    -0.004 A 
ATOM      4  C2  UNL d   1       4.511   1.273   4.500  0.00  0.00    -0.047 A 
ATOM      5  C3  UNL d   1       5.482   0.687   3.654  0.00  0.00    -0.047 A 
ATOM      6  C4  UNL d   1       6.000   1.693   2.865  0.00  0.00    -0.004 A 
ENDROOT
TORSDOF 0
ENDMDL
