MODEL 1
REMARK minimizedAffinity 2.22630453
REMARK minimizedRMSD -1
REMARK  0 active torsions:
REMARK  status: ('A' for Active; 'I' for Inactive)
ROOT
ATOM      1  C   UNL d   1       5.991   1.902   2.467  0.00  0.00     0.172 C 
ATOM      2  N   UNL d   1       5.987   3.300   2.828  0.00  0.00    -0.070 N 
ATOM      3  C1  UNL d   1       6.000   3.795   4.105  0.00  0.00    -0.004 A 
ATOM      4  C2  UNL d   1       5.991   5.171   4.025  0.00  0.00    -0.047 A 
ATOM      5  C3  UNL d   1       5.971   5.515   2.652  0.00  0.00    -0.047 A 
ATOM      6  C4  UNL d   1       5.969   4.337   1.934  0.00  0.00    -0.004 A 
ENDROOT
TORSDOF 0
ENDMDL
