MODEL 1
REMARK minimizedAffinity -2.40998316
REMARK minimizedRMSD -1
REMARK  0 active torsions:
REMARK  status: ('A' for Active; 'I' for Inactive)
ROOT
ATOM      1  C   UNL d   1       5.245   0.003   5.252  0.00  0.00     0.172 C 
ATOM      2  N   UNL d   1       5.273   1.121   4.339  0.00  0.00    -0.070 N 
ATOM      3  C1  UNL d   1       4.585   2.295   4.493  0.00  0.00    -0.004 A 
ATOM      4  C2  UNL d   1       4.878   3.101   3.414  0.00  0.00    -0.047 A 
ATOM      5  C3  UNL d   1       5.772   2.386   2.582  0.00  0.00    -0.047 A 
ATOM      6  C4  UNL d   1       6.000   1.164   3.179  0.00  0.00    -0.004 A 
ENDROOT
TORSDOF 0
ENDMDL
