MODEL 1
REMARK minimizedAffinity -0.874166906
REMARK minimizedRMSD -1
REMARK  0 active torsions:
REMARK  status: ('A' for Active; 'I' for Inactive)
ROOT
ATOM      1  C   UNL d   1       5.995   4.362   2.674  0.00  0.00     0.172 C 
ATOM      2  N   UNL d   1       5.996   3.184   3.508  0.00  0.00    -0.070 N 
ATOM      3  C1  UNL d   1       5.993   3.175   4.878  0.00  0.00    -0.004 A 
ATOM      4  C2  UNL d   1       5.994   1.860   5.291  0.00  0.00    -0.047 A 
ATOM      5  C3  UNL d   1       5.999   1.051   4.130  0.00  0.00    -0.047 A 
ATOM      6  C4  UNL d   1       6.000   1.896   3.041  0.00  0.00    -0.004 A 
ENDROOT
TORSDOF 0
ENDMDL
