MODEL 1
REMARK minimizedAffinity -1.88742089
REMARK minimizedRMSD -1
REMARK  0 active torsions:
REMARK  status: ('A' for Active; 'I' for Inactive)
ROOT
ATOM      1  C   UNL d   1       5.973  -0.406   2.561  0.00  0.00     0.172 C 
ATOM      2  N   UNL d   1       5.982   0.613   3.584  0.00  0.00    -0.070 N 
ATOM      3  C1  UNL d   1       5.985   1.965   3.363  0.00  0.00    -0.004 A 
ATOM      4  C2  UNL d   1       5.994   2.592   4.590  0.00  0.00    -0.047 A 
ATOM      5  C3  UNL d   1       5.998   1.583   5.582  0.00  0.00    -0.047 A 
ATOM      6  C4  UNL d   1       5.990   0.368   4.932  0.00  0.00    -0.004 A 
ENDROOT
TORSDOF 0
ENDMDL
