MODEL 1
REMARK minimizedAffinity 0.245773569
REMARK minimizedRMSD -1
REMARK  0 active torsions:
REMARK  status: ('A' for Active; 'I' for Inactive)
ROOT
ATOM      1  C   UNL d   1       5.987   4.880   5.556  0.00  0.00     0.172 C 
ATOM      2  N   UNL d   1       5.983   4.884   4.112  0.00  0.00    -0.070 N 
ATOM      3  C1  UNL d   1       5.964   5.998   3.317  0.00  0.00    -0.004 A 
ATOM      4  C2  UNL d   1       5.969   5.580   2.004  0.00  0.00    -0.047 A 
ATOM      5  C3  UNL d   1       5.991   4.165   2.010  0.00  0.00    -0.047 A 
ATOM      6  C4  UNL d   1       5.999   3.761   3.329  0.00  0.00    -0.004 A 
ENDROOT
TORSDOF 0
ENDMDL
