MODEL 1
REMARK minimizedAffinity -2.40463591
REMARK minimizedRMSD -1
REMARK  0 active torsions:
REMARK  status: ('A' for Active; 'I' for Inactive)
ROOT
ATOM      1  C   UNL d   1       5.957  -1.627   5.943  0.00  0.00     0.172 C 
ATOM      2  N   UNL d   1       5.958  -0.347   5.275  0.00  0.00    -0.070 N 
ATOM      3  C1  UNL d   1       5.970  -0.154   3.920  0.00  0.00    -0.004 A 
ATOM      4  C2  UNL d   1       5.967   1.205   3.687  0.00  0.00    -0.047 A 
ATOM      5  C3  UNL d   1       5.954   1.850   4.946  0.00  0.00    -0.047 A 
ATOM      6  C4  UNL d   1       5.950   0.866   5.912  0.00  0.00    -0.004 A 
ENDROOT
TORSDOF 0
ENDMDL
