MODEL 1
REMARK minimizedAffinity -4.78511715
REMARK minimizedRMSD -1
REMARK  2 active torsions:
REMARK  status: ('A' for Active; 'I' for Inactive)
REMARK    1  A    between atoms: C2'_3  and  C1'_4 
REMARK    2  A    between atoms: C1'_4  and  C1_5 
ROOT
ATOM      1  C1  I4B d   1      -0.524   0.952  -0.102  0.00  0.00    -0.075 A 
ATOM      2  C2  I4B d   1      -0.663   1.768   0.993  0.00  0.00     0.003 A 
ATOM      3  C3  I4B d   1      -0.101   3.068   0.990  0.00  0.00     0.002 A 
ATOM      4  C4  I4B d   1       0.630   3.489  -0.102  0.00  0.00    -0.004 A 
ATOM      5  C5  I4B d   1       0.751   2.669  -1.220  0.00  0.00     0.002 A 
ATOM      6  C6  I4B d   1       0.160   1.398  -1.226  0.00  0.00     0.003 A 
ENDROOT
BRANCH   1   7
ATOM      7  C1' I4B d   1      -1.103  -0.426  -0.052  0.00  0.00     0.060 C 
BRANCH   7   8
ATOM      8  C2' I4B d   1      -0.001  -1.407  -0.397  0.00  0.00    -0.013 C 
ATOM      9  C4' I4B d   1       0.985  -1.540   0.733  0.00  0.00     0.013 C 
ATOM     10  C3' I4B d   1      -0.639  -2.726  -0.717  0.00  0.00     0.013 C 
ENDBRANCH   7   8
ENDBRANCH   1   7
TORSDOF 2
ENDMDL
