MODEL 1
REMARK minimizedAffinity -5.52772093
REMARK minimizedRMSD -1
REMARK  2 active torsions:
REMARK  status: ('A' for Active; 'I' for Inactive)
REMARK    1  A    between atoms: C2'_3  and  C1'_4 
REMARK    2  A    between atoms: C1'_4  and  C1_5 
ROOT
ATOM      1  C1  I4B d   1       0.339  -0.085  -0.097  0.00  0.00    -0.075 A 
ATOM      2  C2  I4B d   1      -0.898   0.162   0.442  0.00  0.00     0.003 A 
ATOM      3  C3  I4B d   1      -1.351   1.494   0.606  0.00  0.00     0.002 A 
ATOM      4  C4  I4B d   1      -0.519   2.541   0.267  0.00  0.00    -0.004 A 
ATOM      5  C5  I4B d   1       0.727   2.288  -0.301  0.00  0.00     0.002 A 
ATOM      6  C6  I4B d   1       1.154   0.967  -0.496  0.00  0.00     0.003 A 
ENDROOT
BRANCH   1   7
ATOM      7  C1' I4B d   1       0.799  -1.503  -0.226  0.00  0.00     0.060 C 
BRANCH   7   8
ATOM      8  C2' I4B d   1      -0.142  -2.214  -1.177  0.00  0.00    -0.013 C 
ATOM      9  C4' I4B d   1       0.599  -2.758  -2.371  0.00  0.00     0.013 C 
ATOM     10  C3' I4B d   1      -0.826  -3.311  -0.418  0.00  0.00     0.013 C 
ENDBRANCH   7   8
ENDBRANCH   1   7
TORSDOF 2
ENDMDL
