MODEL 1
REMARK minimizedAffinity -3.44025064
REMARK minimizedRMSD -1
REMARK  2 active torsions:
REMARK  status: ('A' for Active; 'I' for Inactive)
REMARK    1  A    between atoms: C2'_3  and  C1'_4 
REMARK    2  A    between atoms: C1'_4  and  C1_5 
ROOT
ATOM      1  C1  I4B d   1       0.398   0.351   0.001  0.00  0.00    -0.075 A 
ATOM      2  C2  I4B d   1       1.359   1.246  -0.399  0.00  0.00     0.003 A 
ATOM      3  C3  I4B d   1       1.075   2.633  -0.422  0.00  0.00     0.002 A 
ATOM      4  C4  I4B d   1      -0.189   3.074  -0.089  0.00  0.00    -0.004 A 
ATOM      5  C5  I4B d   1      -1.155   2.167   0.338  0.00  0.00     0.002 A 
ATOM      6  C6  I4B d   1      -0.856   0.798   0.395  0.00  0.00     0.003 A 
ENDROOT
BRANCH   1   7
ATOM      7  C1' I4B d   1       0.721  -1.110  -0.018  0.00  0.00     0.060 C 
BRANCH   7   8
ATOM      8  C2' I4B d   1      -0.435  -1.835  -0.676  0.00  0.00    -0.013 C 
ATOM      9  C4' I4B d   1      -0.057  -2.331  -2.047  0.00  0.00     0.013 C 
ATOM     10  C3' I4B d   1      -0.839  -2.969   0.217  0.00  0.00     0.013 C 
ENDBRANCH   7   8
ENDBRANCH   1   7
TORSDOF 2
ENDMDL
