MODEL 1
REMARK minimizedAffinity -5.49989414
REMARK minimizedRMSD -1
REMARK  2 active torsions:
REMARK  status: ('A' for Active; 'I' for Inactive)
REMARK    1  A    between atoms: C2'_3  and  C1'_4 
REMARK    2  A    between atoms: C1'_4  and  C1_5 
ROOT
ATOM      1  C1  I4B d   1       0.188  -0.268   0.065  0.00  0.00    -0.075 A 
ATOM      2  C2  I4B d   1       1.248   0.603   0.025  0.00  0.00     0.003 A 
ATOM      3  C3  I4B d   1       1.022   1.999  -0.042  0.00  0.00     0.002 A 
ATOM      4  C4  I4B d   1      -0.271   2.475  -0.118  0.00  0.00    -0.004 A 
ATOM      5  C5  I4B d   1      -1.345   1.593  -0.054  0.00  0.00     0.002 A 
ATOM      6  C6  I4B d   1      -1.115   0.213   0.051  0.00  0.00     0.003 A 
ENDROOT
BRANCH   1   7
ATOM      7  C1' I4B d   1       0.463  -1.738   0.103  0.00  0.00     0.060 C 
BRANCH   7   8
ATOM      8  C2' I4B d   1      -0.387  -2.399  -0.963  0.00  0.00    -0.013 C 
ATOM      9  C4' I4B d   1       0.463  -2.919  -2.092  0.00  0.00     0.013 C 
ATOM     10  C3' I4B d   1      -1.164  -3.506  -0.316  0.00  0.00     0.013 C 
ENDBRANCH   7   8
ENDBRANCH   1   7
TORSDOF 2
ENDMDL
