MODEL 1
REMARK minimizedAffinity -4.78225327
REMARK minimizedRMSD -1
REMARK  2 active torsions:
REMARK  status: ('A' for Active; 'I' for Inactive)
REMARK    1  A    between atoms: C2'_3  and  C1'_4 
REMARK    2  A    between atoms: C1'_4  and  C1_5 
ROOT
ATOM      1  C1  I4B d   1       0.170  -0.456  -0.123  0.00  0.00    -0.075 A 
ATOM      2  C2  I4B d   1      -1.012  -0.028   0.427  0.00  0.00     0.003 A 
ATOM      3  C3  I4B d   1      -1.287   1.357   0.539  0.00  0.00     0.002 A 
ATOM      4  C4  I4B d   1      -0.336   2.273   0.138  0.00  0.00    -0.004 A 
ATOM      5  C5  I4B d   1       0.853   1.837  -0.441  0.00  0.00     0.002 A 
ATOM      6  C6  I4B d   1       1.102   0.465  -0.584  0.00  0.00     0.003 A 
ENDROOT
BRANCH   1   7
ATOM      7  C1' I4B d   1       0.441  -1.925  -0.196  0.00  0.00     0.060 C 
BRANCH   7   8
ATOM      8  C2' I4B d   1      -0.543  -2.533  -1.174  0.00  0.00    -0.013 C 
ATOM      9  C4' I4B d   1       0.130  -2.894  -2.472  0.00  0.00     0.013 C 
ATOM     10  C3' I4B d   1      -1.152  -3.741  -0.527  0.00  0.00     0.013 C 
ENDBRANCH   7   8
ENDBRANCH   1   7
TORSDOF 2
ENDMDL
