MODEL 1
REMARK minimizedAffinity -4.77917719
REMARK minimizedRMSD -1
REMARK  2 active torsions:
REMARK  status: ('A' for Active; 'I' for Inactive)
REMARK    1  A    between atoms: C2'_3  and  C1'_4 
REMARK    2  A    between atoms: C1'_4  and  C1_5 
ROOT
ATOM      1  C1  I4B d   1       0.131  -0.223   0.006  0.00  0.00    -0.075 A 
ATOM      2  C2  I4B d   1      -1.141   0.234   0.248  0.00  0.00     0.003 A 
ATOM      3  C3  I4B d   1      -1.399   1.625   0.308  0.00  0.00     0.002 A 
ATOM      4  C4  I4B d   1      -0.355   2.517   0.172  0.00  0.00    -0.004 A 
ATOM      5  C5  I4B d   1       0.930   2.052  -0.096  0.00  0.00     0.002 A 
ATOM      6  C6  I4B d   1       1.172   0.674  -0.192  0.00  0.00     0.003 A 
ENDROOT
BRANCH   1   7
ATOM      7  C1' I4B d   1       0.374  -1.698  -0.018  0.00  0.00     0.060 C 
BRANCH   7   8
ATOM      8  C2' I4B d   1      -0.583  -2.313  -1.019  0.00  0.00    -0.013 C 
ATOM      9  C4' I4B d   1       0.113  -2.627  -2.317  0.00  0.00     0.013 C 
ATOM     10  C3' I4B d   1      -1.165  -3.550  -0.403  0.00  0.00     0.013 C 
ENDBRANCH   7   8
ENDBRANCH   1   7
TORSDOF 2
ENDMDL
