MODEL 1
REMARK minimizedAffinity -5.35754156
REMARK minimizedRMSD -1
REMARK  2 active torsions:
REMARK  status: ('A' for Active; 'I' for Inactive)
REMARK    1  A    between atoms: C2'_3  and  C1'_4 
REMARK    2  A    between atoms: C1'_4  and  C1_5 
ROOT
ATOM      1  C1  I4B d   1       0.071  -0.143  -0.107  0.00  0.00    -0.075 A 
ATOM      2  C2  I4B d   1      -1.197   0.297   0.179  0.00  0.00     0.003 A 
ATOM      3  C3  I4B d   1      -1.472   1.685   0.245  0.00  0.00     0.002 A 
ATOM      4  C4  I4B d   1      -0.445   2.590   0.070  0.00  0.00    -0.004 A 
ATOM      5  C5  I4B d   1       0.835   2.142  -0.242  0.00  0.00     0.002 A 
ATOM      6  C6  I4B d   1       1.093   0.767  -0.344  0.00  0.00     0.003 A 
ENDROOT
BRANCH   1   7
ATOM      7  C1' I4B d   1       0.333  -1.616  -0.137  0.00  0.00     0.060 C 
BRANCH   7   8
ATOM      8  C2' I4B d   1      -0.494  -2.214  -1.257  0.00  0.00    -0.013 C 
ATOM      9  C4' I4B d   1       0.350  -2.476  -2.477  0.00  0.00     0.013 C 
ATOM     10  C3' I4B d   1      -1.117  -3.480  -0.747  0.00  0.00     0.013 C 
ENDBRANCH   7   8
ENDBRANCH   1   7
TORSDOF 2
ENDMDL
