MODEL 1
REMARK minimizedAffinity -4.41124582
REMARK minimizedRMSD -1
REMARK  2 active torsions:
REMARK  status: ('A' for Active; 'I' for Inactive)
REMARK    1  A    between atoms: C2'_3  and  C1'_4 
REMARK    2  A    between atoms: C1'_4  and  C1_5 
ROOT
ATOM      1  C1  I4B d   1       0.057  -0.612   0.244  0.00  0.00    -0.075 A 
ATOM      2  C2  I4B d   1       1.141   0.188  -0.016  0.00  0.00     0.003 A 
ATOM      3  C3  I4B d   1       1.012   1.598   0.021  0.00  0.00     0.002 A 
ATOM      4  C4  I4B d   1      -0.222   2.161   0.272  0.00  0.00    -0.004 A 
ATOM      5  C5  I4B d   1      -1.315   1.348   0.558  0.00  0.00     0.002 A 
ATOM      6  C6  I4B d   1      -1.173  -0.047   0.557  0.00  0.00     0.003 A 
ENDROOT
BRANCH   1   7
ATOM      7  C1' I4B d   1       0.221  -2.096   0.164  0.00  0.00     0.060 C 
BRANCH   7   8
ATOM      8  C2' I4B d   1      -0.769  -2.621  -0.856  0.00  0.00    -0.013 C 
ATOM      9  C4' I4B d   1      -0.080  -3.005  -2.138  0.00  0.00     0.013 C 
ATOM     10  C3' I4B d   1      -1.479  -3.795  -0.250  0.00  0.00     0.013 C 
ENDBRANCH   7   8
ENDBRANCH   1   7
TORSDOF 2
ENDMDL
