MODEL 1
REMARK minimizedAffinity -3.6127665
REMARK minimizedRMSD -1
REMARK  2 active torsions:
REMARK  status: ('A' for Active; 'I' for Inactive)
REMARK    1  A    between atoms: C2'_3  and  C1'_4 
REMARK    2  A    between atoms: C1'_4  and  C1_5 
ROOT
ATOM      1  C1  I4B d   1      -0.045  -0.585  -0.136  0.00  0.00    -0.075 A 
ATOM      2  C2  I4B d   1      -1.221  -0.072   0.354  0.00  0.00     0.003 A 
ATOM      3  C3  I4B d   1      -1.378   1.326   0.511  0.00  0.00     0.002 A 
ATOM      4  C4  I4B d   1      -0.323   2.166   0.215  0.00  0.00    -0.004 A 
ATOM      5  C5  I4B d   1       0.859   1.646  -0.303  0.00  0.00     0.002 A 
ATOM      6  C6  I4B d   1       0.995   0.263  -0.492  0.00  0.00     0.003 A 
ENDROOT
BRANCH   1   7
ATOM      7  C1' I4B d   1       0.098  -2.069  -0.257  0.00  0.00     0.060 C 
BRANCH   7   8
ATOM      8  C2' I4B d   1      -0.648  -2.510  -1.500  0.00  0.00    -0.013 C 
ATOM      9  C4' I4B d   1       0.304  -2.879  -2.606  0.00  0.00     0.013 C 
ATOM     10  C3' I4B d   1      -1.522  -3.670  -1.128  0.00  0.00     0.013 C 
ENDBRANCH   7   8
ENDBRANCH   1   7
TORSDOF 2
ENDMDL
