MODEL 1
REMARK minimizedAffinity -5.10895729
REMARK minimizedRMSD -1
REMARK  2 active torsions:
REMARK  status: ('A' for Active; 'I' for Inactive)
REMARK    1  A    between atoms: C2'_3  and  C1'_4 
REMARK    2  A    between atoms: C1'_4  and  C1_5 
ROOT
ATOM      1  C1  I4B d   1       0.153  -0.431  -0.220  0.00  0.00    -0.075 A 
ATOM      2  C2  I4B d   1       1.377   0.183  -0.304  0.00  0.00     0.003 A 
ATOM      3  C3  I4B d   1       1.476   1.592  -0.198  0.00  0.00     0.002 A 
ATOM      4  C4  I4B d   1       0.329   2.346  -0.061  0.00  0.00    -0.004 A 
ATOM      5  C5  I4B d   1      -0.910   1.719   0.046  0.00  0.00     0.002 A 
ATOM      6  C6  I4B d   1      -0.997   0.321  -0.021  0.00  0.00     0.003 A 
ENDROOT
BRANCH   1   7
ATOM      7  C1' I4B d   1       0.082  -1.918  -0.368  0.00  0.00     0.060 C 
BRANCH   7   8
ATOM      8  C2' I4B d   1      -0.595  -2.223  -1.689  0.00  0.00    -0.013 C 
ATOM      9  C4' I4B d   1       0.416  -2.403  -2.791  0.00  0.00     0.013 C 
ATOM     10  C3' I4B d   1      -1.425  -3.459  -1.510  0.00  0.00     0.013 C 
ENDBRANCH   7   8
ENDBRANCH   1   7
TORSDOF 2
ENDMDL
