MODEL 1
REMARK minimizedAffinity -3.55504394
REMARK minimizedRMSD -1
REMARK  2 active torsions:
REMARK  status: ('A' for Active; 'I' for Inactive)
REMARK    1  A    between atoms: C2'_3  and  C1'_4 
REMARK    2  A    between atoms: C1'_4  and  C1_5 
ROOT
ATOM      1  C1  I4B d   1      -0.216  -0.594  -0.222  0.00  0.00    -0.075 A 
ATOM      2  C2  I4B d   1       0.939   0.108  -0.457  0.00  0.00     0.003 A 
ATOM      3  C3  I4B d   1       0.963   1.515  -0.294  0.00  0.00     0.002 A 
ATOM      4  C4  I4B d   1      -0.195   2.179   0.055  0.00  0.00    -0.004 A 
ATOM      5  C5  I4B d   1      -1.360   1.462   0.315  0.00  0.00     0.002 A 
ATOM      6  C6  I4B d   1      -1.368   0.066   0.188  0.00  0.00     0.003 A 
ENDROOT
BRANCH   1   7
ATOM      7  C1' I4B d   1      -0.216  -2.075  -0.436  0.00  0.00     0.060 C 
BRANCH   7   8
ATOM      8  C2' I4B d   1      -0.273  -2.331  -1.928  0.00  0.00    -0.013 C 
ATOM      9  C4' I4B d   1       0.880  -3.190  -2.378  0.00  0.00     0.013 C 
ATOM     10  C3' I4B d   1      -1.587  -2.983  -2.236  0.00  0.00     0.013 C 
ENDBRANCH   7   8
ENDBRANCH   1   7
TORSDOF 2
ENDMDL
