MODEL 1
REMARK minimizedAffinity -2.18923664
REMARK minimizedRMSD -1
REMARK  2 active torsions:
REMARK  status: ('A' for Active; 'I' for Inactive)
REMARK    1  A    between atoms: C2'_3  and  C1'_4 
REMARK    2  A    between atoms: C1'_4  and  C1_5 
ROOT
ATOM      1  C1  I4B d   1      -0.110   0.834   0.022  0.00  0.00    -0.075 A 
ATOM      2  C2  I4B d   1      -0.634   1.412   1.151  0.00  0.00     0.003 A 
ATOM      3  C3  I4B d   1      -0.483   2.802   1.375  0.00  0.00     0.002 A 
ATOM      4  C4  I4B d   1       0.237   3.562   0.476  0.00  0.00    -0.004 A 
ATOM      5  C5  I4B d   1       0.748   2.978  -0.680  0.00  0.00     0.002 A 
ATOM      6  C6  I4B d   1       0.563   1.608  -0.915  0.00  0.00     0.003 A 
ENDROOT
BRANCH   1   7
ATOM      7  C1' I4B d   1      -0.258  -0.643  -0.167  0.00  0.00     0.060 C 
BRANCH   7   8
ATOM      8  C2' I4B d   1      -0.567  -0.898  -1.628  0.00  0.00    -0.013 C 
ATOM      9  C4' I4B d   1      -0.575  -2.372  -1.934  0.00  0.00     0.013 C 
ATOM     10  C3' I4B d   1      -1.895  -0.273  -1.936  0.00  0.00     0.013 C 
ENDBRANCH   7   8
ENDBRANCH   1   7
TORSDOF 2
ENDMDL
