MODEL 1
REMARK minimizedAffinity 9.6587553
REMARK minimizedRMSD -1
REMARK  3 active torsions:
REMARK  status: ('A' for Active; 'I' for Inactive)
REMARK    1  A    between atoms: C3'_2  and  C2'_3 
REMARK    2  A    between atoms: C2'_3  and  C1'_4 
REMARK    3  A    between atoms: C1'_4  and  C1_5 
ROOT
ATOM      1  C1  N4B d   1      -2.353  -5.357  -2.317  0.00  0.00    -0.075 A 
ATOM      2  C2  N4B d   1      -1.895  -5.987  -1.138  0.00  0.00     0.002 A 
ATOM      3  C3  N4B d   1      -0.842  -5.451  -0.438  0.00  0.00     0.002 A 
ATOM      4  C4  N4B d   1      -0.222  -4.302  -0.904  0.00  0.00    -0.004 A 
ATOM      5  C5  N4B d   1      -0.687  -3.685  -2.028  0.00  0.00     0.002 A 
ATOM      6  C6  N4B d   1      -1.746  -4.210  -2.741  0.00  0.00     0.002 A 
ENDROOT
BRANCH   1   7
ATOM      7  C1' N4B d   1      -3.444  -5.953  -3.163  0.00  0.00     0.057 C 
BRANCH   7   8
ATOM      8  C2' N4B d   1      -2.983  -5.996  -4.617  0.00  0.00     0.009 C 
BRANCH   8   9
ATOM      9  C3' N4B d   1      -4.152  -5.946  -5.586  0.00  0.00     0.004 C 
ATOM     10  C4' N4B d   1      -5.388  -5.358  -4.974  0.00  0.00     0.003 C 
ENDBRANCH   8   9
ENDBRANCH   7   8
ENDBRANCH   1   7
TORSDOF 3
ENDMDL
