MODEL 1
REMARK minimizedAffinity 8.56651878
REMARK minimizedRMSD -1
REMARK  3 active torsions:
REMARK  status: ('A' for Active; 'I' for Inactive)
REMARK    1  A    between atoms: C3'_2  and  C2'_3 
REMARK    2  A    between atoms: C2'_3  and  C1'_4 
REMARK    3  A    between atoms: C1'_4  and  C1_5 
ROOT
ATOM      1  C1  N4B d   1       2.024   2.213   1.443  0.00  0.00    -0.075 A 
ATOM      2  C2  N4B d   1       2.828   2.978   2.317  0.00  0.00     0.002 A 
ATOM      3  C3  N4B d   1       2.554   2.994   3.663  0.00  0.00     0.002 A 
ATOM      4  C4  N4B d   1       1.475   2.273   4.153  0.00  0.00    -0.004 A 
ATOM      5  C5  N4B d   1       0.719   1.518   3.305  0.00  0.00     0.002 A 
ATOM      6  C6  N4B d   1       0.985   1.488   1.951  0.00  0.00     0.002 A 
ENDROOT
BRANCH   1   7
ATOM      7  C1' N4B d   1       2.232   2.232  -0.047  0.00  0.00     0.057 C 
BRANCH   7   8
ATOM      8  C2' N4B d   1       3.589   1.614  -0.371  0.00  0.00     0.009 C 
BRANCH   8   9
ATOM      9  C3' N4B d   1       4.700   2.650  -0.367  0.00  0.00     0.004 C 
ATOM     10  C4' N4B d   1       6.000   2.106   0.147  0.00  0.00     0.003 C 
ENDBRANCH   8   9
ENDBRANCH   7   8
ENDBRANCH   1   7
TORSDOF 3
ENDMDL
