MODEL 1
REMARK minimizedAffinity -0.928646863
REMARK minimizedRMSD -1
REMARK  3 active torsions:
REMARK  status: ('A' for Active; 'I' for Inactive)
REMARK    1  A    between atoms: C3'_2  and  C2'_3 
REMARK    2  A    between atoms: C2'_3  and  C1'_4 
REMARK    3  A    between atoms: C1'_4  and  C1_5 
ROOT
ATOM      1  C1  N4B d   1       0.712  -1.312  -0.395  0.00  0.00    -0.075 A 
ATOM      2  C2  N4B d   1       1.212  -0.099   0.127  0.00  0.00     0.002 A 
ATOM      3  C3  N4B d   1       0.472   1.052   0.019  0.00  0.00     0.002 A 
ATOM      4  C4  N4B d   1      -0.759   1.019  -0.620  0.00  0.00    -0.004 A 
ATOM      5  C5  N4B d   1      -1.246  -0.162  -1.099  0.00  0.00     0.002 A 
ATOM      6  C6  N4B d   1      -0.514  -1.327  -0.994  0.00  0.00     0.002 A 
ENDROOT
BRANCH   1   7
ATOM      7  C1' N4B d   1       1.523  -2.579  -0.377  0.00  0.00     0.057 C 
BRANCH   7   8
ATOM      8  C2' N4B d   1       2.998  -2.232  -0.555  0.00  0.00     0.009 C 
BRANCH   8   9
ATOM      9  C3' N4B d   1       3.365  -2.045  -2.017  0.00  0.00     0.004 C 
ATOM     10  C4' N4B d   1       3.351  -3.330  -2.789  0.00  0.00     0.003 C 
ENDBRANCH   8   9
ENDBRANCH   7   8
ENDBRANCH   1   7
TORSDOF 3
ENDMDL
