MODEL 1
REMARK minimizedAffinity 0.16356191
REMARK minimizedRMSD -1
REMARK  0 active torsions:
REMARK  status: ('A' for Active; 'I' for Inactive)
ROOT
ATOM      1  C1  DEN d   1       1.877   3.311  -1.362  0.00  0.00     0.130 A 
ATOM      2  C2  DEN d   1       1.179   3.990  -0.274  0.00  0.00    -0.031 A 
ATOM      3  C3  DEN d   1       0.598   2.959   0.610  0.00  0.00     0.027 A 
ATOM      4  C4  DEN d   1       0.716   0.390   0.402  0.00  0.00     0.027 A 
ATOM      5  C5  DEN d   1       1.188  -0.653  -0.363  0.00  0.00    -0.003 A 
ATOM      6  C6  DEN d   1       1.889  -0.451  -1.522  0.00  0.00     0.001 A 
ATOM      7  C7  DEN d   1       2.176   0.826  -1.928  0.00  0.00     0.017 A 
ATOM      8  C8  DEN d   1       1.696   1.884  -1.166  0.00  0.00    -0.094 A 
ATOM      9  C9  DEN d   1       1.001   1.658   0.010  0.00  0.00    -0.072 A 
ENDROOT
TORSDOF 0
ENDMDL
