MODEL 1
REMARK minimizedAffinity 3.96220112
REMARK minimizedRMSD -1
REMARK  0 active torsions:
REMARK  status: ('A' for Active; 'I' for Inactive)
ROOT
ATOM      1  C1  DEN d   1       0.627   3.287   0.371  0.00  0.00     0.130 A 
ATOM      2  C2  DEN d   1       1.124   4.342  -0.507  0.00  0.00    -0.031 A 
ATOM      3  C3  DEN d   1       1.845   3.703  -1.626  0.00  0.00     0.027 A 
ATOM      4  C4  DEN d   1       2.234   1.194  -2.084  0.00  0.00     0.027 A 
ATOM      5  C5  DEN d   1       2.011  -0.080  -1.612  0.00  0.00    -0.003 A 
ATOM      6  C6  DEN d   1       1.346  -0.319  -0.439  0.00  0.00     0.001 A 
ATOM      7  C7  DEN d   1       0.841   0.731   0.281  0.00  0.00     0.017 A 
ATOM      8  C8  DEN d   1       1.068   2.020  -0.184  0.00  0.00    -0.094 A 
ATOM      9  C9  DEN d   1       1.732   2.240  -1.379  0.00  0.00    -0.072 A 
ENDROOT
TORSDOF 0
ENDMDL
