MODEL 1
REMARK minimizedAffinity -5.93122864
REMARK minimizedRMSD -1
REMARK  0 active torsions:
REMARK  status: ('A' for Active; 'I' for Inactive)
ROOT
ATOM      1  C1  DEN d   1       1.442   1.002   0.973  0.00  0.00     0.130 A 
ATOM      2  C2  DEN d   1       1.223  -0.022  -0.045  0.00  0.00    -0.031 A 
ATOM      3  C3  DEN d   1       1.057   0.656  -1.347  0.00  0.00     0.027 A 
ATOM      4  C4  DEN d   1       1.124   3.179  -1.882  0.00  0.00     0.027 A 
ATOM      5  C5  DEN d   1       1.270   4.437  -1.342  0.00  0.00    -0.003 A 
ATOM      6  C6  DEN d   1       1.448   4.639   0.001  0.00  0.00     0.001 A 
ATOM      7  C7  DEN d   1       1.530   3.563   0.845  0.00  0.00     0.017 A 
ATOM      8  C8  DEN d   1       1.376   2.291   0.309  0.00  0.00    -0.094 A 
ATOM      9  C9  DEN d   1       1.209   2.107  -1.053  0.00  0.00    -0.072 A 
ENDROOT
TORSDOF 0
ENDMDL
