MODEL 1
REMARK minimizedAffinity -4.81566429
REMARK minimizedRMSD -1
REMARK  0 active torsions:
REMARK  status: ('A' for Active; 'I' for Inactive)
ROOT
ATOM      1  C1  DEN d   1       0.666   3.720   1.093  0.00  0.00     0.130 A 
ATOM      2  C2  DEN d   1       1.054   4.843   0.244  0.00  0.00    -0.031 A 
ATOM      3  C3  DEN d   1       1.490   4.301  -1.059  0.00  0.00     0.027 A 
ATOM      4  C4  DEN d   1       1.597   1.845  -1.840  0.00  0.00     0.027 A 
ATOM      5  C5  DEN d   1       1.380   0.537  -1.466  0.00  0.00    -0.003 A 
ATOM      6  C6  DEN d   1       0.946   0.199  -0.212  0.00  0.00     0.001 A 
ATOM      7  C7  DEN d   1       0.671   1.185   0.700  0.00  0.00     0.017 A 
ATOM      8  C8  DEN d   1       0.894   2.505   0.332  0.00  0.00    -0.094 A 
ATOM      9  C9  DEN d   1       1.322   2.827  -0.945  0.00  0.00    -0.072 A 
ENDROOT
TORSDOF 0
ENDMDL
