MODEL 1
REMARK minimizedAffinity -1.79191244
REMARK minimizedRMSD -1
REMARK  0 active torsions:
REMARK  status: ('A' for Active; 'I' for Inactive)
ROOT
ATOM      1  C1  DEN d   1       1.462   3.755  -1.115  0.00  0.00     0.130 A 
ATOM      2  C2  DEN d   1       1.378   4.252   0.255  0.00  0.00    -0.031 A 
ATOM      3  C3  DEN d   1       1.190   3.092   1.150  0.00  0.00     0.027 A 
ATOM      4  C4  DEN d   1       1.029   0.589   0.550  0.00  0.00     0.027 A 
ATOM      5  C5  DEN d   1       1.034  -0.320  -0.484  0.00  0.00    -0.003 A 
ATOM      6  C6  DEN d   1       1.147   0.065  -1.794  0.00  0.00     0.001 A 
ATOM      7  C7  DEN d   1       1.306   1.391  -2.100  0.00  0.00     0.017 A 
ATOM      8  C8  DEN d   1       1.294   2.314  -1.063  0.00  0.00    -0.094 A 
ATOM      9  C9  DEN d   1       1.190   1.904   0.256  0.00  0.00    -0.072 A 
ENDROOT
TORSDOF 0
ENDMDL
