MODEL 1
REMARK minimizedAffinity 0.858762085
REMARK minimizedRMSD -1
REMARK  0 active torsions:
REMARK  status: ('A' for Active; 'I' for Inactive)
ROOT
ATOM      1  C1  DEN d   1       1.146   1.232   0.663  0.00  0.00     0.130 A 
ATOM      2  C2  DEN d   1       1.058   0.149  -0.312  0.00  0.00    -0.031 A 
ATOM      3  C3  DEN d   1       1.295   0.721  -1.653  0.00  0.00     0.027 A 
ATOM      4  C4  DEN d   1       1.791   3.166  -2.308  0.00  0.00     0.027 A 
ATOM      5  C5  DEN d   1       1.952   4.447  -1.827  0.00  0.00    -0.003 A 
ATOM      6  C6  DEN d   1       1.824   4.749  -0.497  0.00  0.00     0.001 A 
ATOM      7  C7  DEN d   1       1.570   3.749   0.405  0.00  0.00     0.017 A 
ATOM      8  C8  DEN d   1       1.398   2.457  -0.074  0.00  0.00    -0.094 A 
ATOM      9  C9  DEN d   1       1.544   2.170  -1.420  0.00  0.00    -0.072 A 
ENDROOT
TORSDOF 0
ENDMDL
