MODEL 1
REMARK minimizedAffinity -1.90295649
REMARK minimizedRMSD -1
REMARK  0 active torsions:
REMARK  status: ('A' for Active; 'I' for Inactive)
ROOT
ATOM      1  C1  DEN d   1       1.463   4.123   1.115  0.00  0.00     0.130 A 
ATOM      2  C2  DEN d   1       1.746   5.202   0.172  0.00  0.00    -0.031 A 
ATOM      3  C3  DEN d   1       1.760   4.626  -1.188  0.00  0.00     0.027 A 
ATOM      4  C4  DEN d   1       1.368   2.184  -1.921  0.00  0.00     0.027 A 
ATOM      5  C5  DEN d   1       1.104   0.908  -1.476  0.00  0.00    -0.003 A 
ATOM      6  C6  DEN d   1       0.976   0.610  -0.146  0.00  0.00     0.001 A 
ATOM      7  C7  DEN d   1       1.067   1.610   0.786  0.00  0.00     0.017 A 
ATOM      8  C8  DEN d   1       1.341   2.898   0.346  0.00  0.00    -0.094 A 
ATOM      9  C9  DEN d   1       1.455   3.182  -1.005  0.00  0.00    -0.072 A 
ENDROOT
TORSDOF 0
ENDMDL
