MODEL 1
REMARK minimizedAffinity 8.28076267
REMARK minimizedRMSD -1
REMARK  0 active torsions:
REMARK  status: ('A' for Active; 'I' for Inactive)
ROOT
ATOM      1  C1  DEN d   1       1.754   0.526   0.250  0.00  0.00     0.130 A 
ATOM      2  C2  DEN d   1       1.610  -0.572  -0.703  0.00  0.00    -0.031 A 
ATOM      3  C3  DEN d   1       1.124  -0.008  -1.978  0.00  0.00     0.027 A 
ATOM      4  C4  DEN d   1       0.589   2.444  -2.569  0.00  0.00     0.027 A 
ATOM      5  C5  DEN d   1       0.546   3.733  -2.083  0.00  0.00    -0.003 A 
ATOM      6  C6  DEN d   1       0.867   4.035  -0.787  0.00  0.00     0.001 A 
ATOM      7  C7  DEN d   1       1.290   3.042   0.057  0.00  0.00     0.017 A 
ATOM      8  C8  DEN d   1       1.328   1.739  -0.424  0.00  0.00    -0.094 A 
ATOM      9  C9  DEN d   1       1.012   1.456  -1.741  0.00  0.00    -0.072 A 
ENDROOT
TORSDOF 0
ENDMDL
