MODEL 1
REMARK minimizedAffinity -1.27688909
REMARK minimizedRMSD -1
REMARK  0 active torsions:
REMARK  status: ('A' for Active; 'I' for Inactive)
ROOT
ATOM      1  C1  DEN d   1       1.397   3.873  -0.756  0.00  0.00     0.130 A 
ATOM      2  C2  DEN d   1       1.281   3.921  -2.210  0.00  0.00    -0.031 A 
ATOM      3  C3  DEN d   1       1.198   2.533  -2.708  0.00  0.00     0.027 A 
ATOM      4  C4  DEN d   1       1.234   0.326  -1.373  0.00  0.00     0.027 A 
ATOM      5  C5  DEN d   1       1.330  -0.222  -0.113  0.00  0.00    -0.003 A 
ATOM      6  C6  DEN d   1       1.488   0.548   1.008  0.00  0.00     0.001 A 
ATOM      7  C7  DEN d   1       1.509   1.913   0.897  0.00  0.00     0.017 A 
ATOM      8  C8  DEN d   1       1.420   2.473  -0.371  0.00  0.00    -0.094 A 
ATOM      9  C9  DEN d   1       1.249   1.678  -1.491  0.00  0.00    -0.072 A 
ENDROOT
TORSDOF 0
ENDMDL
