MODEL 1
REMARK minimizedAffinity -2.70835662
REMARK minimizedRMSD -1
REMARK  0 active torsions:
REMARK  status: ('A' for Active; 'I' for Inactive)
ROOT
ATOM      1  C1  DEN d   1       1.323   3.563  -0.744  0.00  0.00     0.130 A 
ATOM      2  C2  DEN d   1       1.289   3.615  -2.203  0.00  0.00    -0.031 A 
ATOM      3  C3  DEN d   1       1.105   2.238  -2.705  0.00  0.00     0.027 A 
ATOM      4  C4  DEN d   1       0.866   0.044  -1.371  0.00  0.00     0.027 A 
ATOM      5  C5  DEN d   1       0.844  -0.505  -0.108  0.00  0.00    -0.003 A 
ATOM      6  C6  DEN d   1       1.013   0.252   1.021  0.00  0.00     0.001 A 
ATOM      7  C7  DEN d   1       1.166   1.609   0.911  0.00  0.00     0.017 A 
ATOM      8  C8  DEN d   1       1.197   2.169  -0.359  0.00  0.00    -0.094 A 
ATOM      9  C9  DEN d   1       1.012   1.388  -1.487  0.00  0.00    -0.072 A 
ENDROOT
TORSDOF 0
ENDMDL
