MODEL 1
REMARK minimizedAffinity 3.00220823
REMARK minimizedRMSD -1
REMARK  0 active torsions:
REMARK  status: ('A' for Active; 'I' for Inactive)
ROOT
ATOM      1  C1  DEN d   1       0.040  -2.107  -1.881  0.00  0.00     0.130 A 
ATOM      2  C2  DEN d   1       0.505  -3.225  -1.064  0.00  0.00    -0.031 A 
ATOM      3  C3  DEN d   1       1.314  -2.676   0.042  0.00  0.00     0.027 A 
ATOM      4  C4  DEN d   1       1.886  -0.217   0.570  0.00  0.00     0.027 A 
ATOM      5  C5  DEN d   1       1.727   1.086   0.155  0.00  0.00    -0.003 A 
ATOM      6  C6  DEN d   1       1.029   1.412  -0.977  0.00  0.00     0.001 A 
ATOM      7  C7  DEN d   1       0.425   0.424  -1.710  0.00  0.00     0.017 A 
ATOM      8  C8  DEN d   1       0.587  -0.893  -1.302  0.00  0.00    -0.094 A 
ATOM      9  C9  DEN d   1       1.286  -1.201  -0.147  0.00  0.00    -0.072 A 
ENDROOT
TORSDOF 0
ENDMDL
