MODEL 1
REMARK minimizedAffinity -3.85154128
REMARK minimizedRMSD -1
REMARK  0 active torsions:
REMARK  status: ('A' for Active; 'I' for Inactive)
ROOT
ATOM      1  C1  DEN d   1       1.077   1.539   0.856  0.00  0.00     0.130 A 
ATOM      2  C2  DEN d   1       0.801   0.477  -0.107  0.00  0.00    -0.031 A 
ATOM      3  C3  DEN d   1       0.828   1.069  -1.460  0.00  0.00     0.027 A 
ATOM      4  C4  DEN d   1       1.274   3.513  -2.152  0.00  0.00     0.027 A 
ATOM      5  C5  DEN d   1       1.546   4.780  -1.685  0.00  0.00    -0.003 A 
ATOM      6  C6  DEN d   1       1.647   5.060  -0.348  0.00  0.00     0.001 A 
ATOM      7  C7  DEN d   1       1.519   4.050   0.568  0.00  0.00     0.017 A 
ATOM      8  C8  DEN d   1       1.237   2.771   0.106  0.00  0.00    -0.094 A 
ATOM      9  C9  DEN d   1       1.151   2.506  -1.251  0.00  0.00    -0.072 A 
ENDROOT
TORSDOF 0
ENDMDL
