MODEL 1
REMARK minimizedAffinity 7.21273613
REMARK minimizedRMSD -1
REMARK  0 active torsions:
REMARK  status: ('A' for Active; 'I' for Inactive)
ROOT
ATOM      1  C1  DEN d   1       0.757   2.426  -0.375  0.00  0.00     0.130 A 
ATOM      2  C2  DEN d   1       0.868   1.709  -1.643  0.00  0.00    -0.031 A 
ATOM      3  C3  DEN d   1       1.566   2.586  -2.604  0.00  0.00     0.027 A 
ATOM      4  C4  DEN d   1       2.486   4.970  -2.253  0.00  0.00     0.027 A 
ATOM      5  C5  DEN d   1       2.618   6.000  -1.348  0.00  0.00    -0.003 A 
ATOM      6  C6  DEN d   1       2.115   5.925  -0.077  0.00  0.00     0.001 A 
ATOM      7  C7  DEN d   1       1.493   4.777   0.340  0.00  0.00     0.017 A 
ATOM      8  C8  DEN d   1       1.349   3.737  -0.569  0.00  0.00    -0.094 A 
ATOM      9  C9  DEN d   1       1.876   3.828  -1.846  0.00  0.00    -0.072 A 
ENDROOT
TORSDOF 0
ENDMDL
