MODEL 1
REMARK minimizedAffinity -0.475002199
REMARK minimizedRMSD -1
REMARK  0 active torsions:
REMARK  status: ('A' for Active; 'I' for Inactive)
ROOT
ATOM      1  C1  DEN d   1       1.735   4.921   0.982  0.00  0.00     0.130 A 
ATOM      2  C2  DEN d   1       1.866   5.986  -0.008  0.00  0.00    -0.031 A 
ATOM      3  C3  DEN d   1       1.894   5.363  -1.347  0.00  0.00     0.027 A 
ATOM      4  C4  DEN d   1       1.745   2.867  -1.980  0.00  0.00     0.027 A 
ATOM      5  C5  DEN d   1       1.637   1.588  -1.482  0.00  0.00    -0.003 A 
ATOM      6  C6  DEN d   1       1.589   1.329  -0.138  0.00  0.00     0.001 A 
ATOM      7  C7  DEN d   1       1.603   2.368   0.754  0.00  0.00     0.017 A 
ATOM      8  C8  DEN d   1       1.719   3.661   0.260  0.00  0.00    -0.094 A 
ATOM      9  C9  DEN d   1       1.754   3.903  -1.102  0.00  0.00    -0.072 A 
ENDROOT
TORSDOF 0
ENDMDL
