MODEL 1
REMARK minimizedAffinity -2.87109518
REMARK minimizedRMSD -1
REMARK  0 active torsions:
REMARK  status: ('A' for Active; 'I' for Inactive)
ROOT
ATOM      1  C1  DEN d   1       1.577   3.868  -1.626  0.00  0.00     0.130 A 
ATOM      2  C2  DEN d   1       1.384   4.755  -0.482  0.00  0.00    -0.031 A 
ATOM      3  C3  DEN d   1       1.203   3.918   0.720  0.00  0.00     0.027 A 
ATOM      4  C4  DEN d   1       1.207   1.346   0.921  0.00  0.00     0.027 A 
ATOM      5  C5  DEN d   1       1.322   0.166   0.221  0.00  0.00    -0.003 A 
ATOM      6  C6  DEN d   1       1.494   0.136  -1.137  0.00  0.00     0.001 A 
ATOM      7  C7  DEN d   1       1.603   1.311  -1.833  0.00  0.00     0.017 A 
ATOM      8  C8  DEN d   1       1.480   2.505  -1.135  0.00  0.00    -0.094 A 
ATOM      9  C9  DEN d   1       1.318   2.514   0.240  0.00  0.00    -0.072 A 
ENDROOT
TORSDOF 0
ENDMDL
