MODEL 1
REMARK minimizedAffinity 6.48189497
REMARK minimizedRMSD -1
REMARK  1 active torsions:
REMARK  status: ('A' for Active; 'I' for Inactive)
REMARK    1  A    between atoms: C3_4  and  O_7 
ROOT
ATOM      1  C   UNL d   1       3.177   1.666  -0.941  0.00  0.00    -0.033 A 
ATOM      2  C1  UNL d   1       3.844   2.698  -1.604  0.00  0.00     0.039 A 
ATOM      3  C2  UNL d   1       4.502   2.445  -2.809  0.00  0.00    -0.080 A 
ATOM      4  C3  UNL d   1       4.485   1.158  -3.340  0.00  0.00     0.150 A 
ATOM      5  C4  UNL d   1       3.819   0.126  -2.687  0.00  0.00    -0.007 A 
ATOM      6  C5  UNL d   1       3.163   0.380  -1.483  0.00  0.00     0.039 A 
ENDROOT
BRANCH   4   7
ATOM      7  O   UNL d   1       5.117   0.862  -4.511  0.00  0.00    -0.526 OA
ATOM      8  H5  UNL d   1       5.558   1.665  -4.834  0.00  0.00     0.418 HD
ENDBRANCH   4   7
TORSDOF 1
ENDMDL
