MODEL 1
REMARK minimizedAffinity 9.06787205
REMARK minimizedRMSD -1
REMARK  1 active torsions:
REMARK  status: ('A' for Active; 'I' for Inactive)
REMARK    1  A    between atoms: C3_4  and  O_7 
ROOT
ATOM      1  C   UNL d   1       3.356   1.201  -1.332  0.00  0.00    -0.033 A 
ATOM      2  C1  UNL d   1       3.316   0.185  -0.374  0.00  0.00     0.039 A 
ATOM      3  C2  UNL d   1       3.782   0.424   0.920  0.00  0.00    -0.080 A 
ATOM      4  C3  UNL d   1       4.283   1.682   1.244  0.00  0.00     0.150 A 
ATOM      5  C4  UNL d   1       4.323   2.700   0.297  0.00  0.00    -0.007 A 
ATOM      6  C5  UNL d   1       3.858   2.458  -0.996  0.00  0.00     0.039 A 
ENDROOT
BRANCH   4   7
ATOM      7  O   UNL d   1       4.753   1.961   2.493  0.00  0.00    -0.526 OA
ATOM      8  H5  UNL d   1       4.691   1.156   3.033  0.00  0.00     0.418 HD
ENDBRANCH   4   7
TORSDOF 1
ENDMDL
