MODEL 1
REMARK minimizedAffinity 1.68688738
REMARK minimizedRMSD -1
REMARK  1 active torsions:
REMARK  status: ('A' for Active; 'I' for Inactive)
REMARK    1  A    between atoms: C3_4  and  O_7 
ROOT
ATOM      1  C   UNL d   1       3.654   0.948  -1.674  0.00  0.00    -0.033 A 
ATOM      2  C1  UNL d   1       3.158   0.389  -0.495  0.00  0.00     0.039 A 
ATOM      3  C2  UNL d   1       3.517   0.931   0.741  0.00  0.00    -0.080 A 
ATOM      4  C3  UNL d   1       4.370   2.030   0.784  0.00  0.00     0.150 A 
ATOM      5  C4  UNL d   1       4.865   2.594  -0.387  0.00  0.00    -0.007 A 
ATOM      6  C5  UNL d   1       4.507   2.051  -1.620  0.00  0.00     0.039 A 
ENDROOT
BRANCH   4   7
ATOM      7  O   UNL d   1       4.752   2.590   1.967  0.00  0.00    -0.526 OA
ATOM      8  H5  UNL d   1       4.355   2.078   2.692  0.00  0.00     0.418 HD
ENDBRANCH   4   7
TORSDOF 1
ENDMDL
