MODEL 1
REMARK minimizedAffinity 3.08997631
REMARK minimizedRMSD -1
REMARK  1 active torsions:
REMARK  status: ('A' for Active; 'I' for Inactive)
REMARK    1  A    between atoms: C3_4  and  O_7 
ROOT
ATOM      1  C   UNL d   1       3.006   0.499  -1.230  0.00  0.00    -0.033 A 
ATOM      2  C1  UNL d   1       3.769   1.645  -1.465  0.00  0.00     0.039 A 
ATOM      3  C2  UNL d   1       4.281   2.377  -0.392  0.00  0.00    -0.080 A 
ATOM      4  C3  UNL d   1       4.025   1.952   0.909  0.00  0.00     0.150 A 
ATOM      5  C4  UNL d   1       3.270   0.810   1.150  0.00  0.00    -0.007 A 
ATOM      6  C5  UNL d   1       2.758   0.080   0.078  0.00  0.00     0.039 A 
ENDROOT
BRANCH   4   7
ATOM      7  O   UNL d   1       4.500   2.637   1.988  0.00  0.00    -0.526 OA
ATOM      8  H5  UNL d   1       4.979   3.420   1.669  0.00  0.00     0.418 HD
ENDBRANCH   4   7
TORSDOF 1
ENDMDL
