MODEL 1
REMARK minimizedAffinity 1.47832942
REMARK minimizedRMSD -1
REMARK  1 active torsions:
REMARK  status: ('A' for Active; 'I' for Inactive)
REMARK    1  A    between atoms: C1_2  and  C2_3 
ROOT
ATOM      1  C2  UNL d   1       1.190   0.160  -0.051  0.00  0.00    -0.073 A 
ATOM      2  C3  UNL d   1       1.104  -1.232  -0.170  0.00  0.00    -0.002 A 
ATOM      3  C4  UNL d   1       2.248  -1.990  -0.422  0.00  0.00     0.004 A 
ATOM      4  C5  UNL d   1       3.489  -1.366  -0.550  0.00  0.00    -0.004 A 
ATOM      5  C6  UNL d   1       3.598   0.022  -0.422  0.00  0.00    -0.075 A 
ATOM      6  C7  UNL d   1       4.925   0.709  -0.559  0.00  0.00     0.076 C 
ATOM      7  C8  UNL d   1       2.443   0.777  -0.172  0.00  0.00     0.001 A 
ENDROOT
BRANCH   1   8
ATOM      8  C1  UNL d   1      -0.042   0.982   0.227  0.00  0.00     0.053 C 
ATOM      9  C   UNL d   1       0.134   1.880   1.442  0.00  0.00     0.018 C 
ENDBRANCH   1   8
TORSDOF 1
ENDMDL
