MODEL 1
REMARK minimizedAffinity -4.09549141
REMARK minimizedRMSD -1
REMARK  1 active torsions:
REMARK  status: ('A' for Active; 'I' for Inactive)
REMARK    1  A    between atoms: C1_2  and  C2_3 
ROOT
ATOM      1  C2  UNL d   1       1.917  -0.348  -0.043  0.00  0.00    -0.073 A 
ATOM      2  C3  UNL d   1       1.225   0.854   0.147  0.00  0.00    -0.002 A 
ATOM      3  C4  UNL d   1      -0.129   0.946  -0.179  0.00  0.00     0.004 A 
ATOM      4  C5  UNL d   1      -0.805  -0.161  -0.691  0.00  0.00    -0.004 A 
ATOM      5  C6  UNL d   1      -0.134  -1.374  -0.877  0.00  0.00    -0.075 A 
ATOM      6  C7  UNL d   1      -0.846  -2.574  -1.428  0.00  0.00     0.076 C 
ATOM      7  C8  UNL d   1       1.226  -1.458  -0.549  0.00  0.00     0.001 A 
ENDROOT
BRANCH   1   8
ATOM      8  C1  UNL d   1       3.377  -0.454   0.313  0.00  0.00     0.053 C 
ATOM      9  C   UNL d   1       4.176   0.736  -0.194  0.00  0.00     0.018 C 
ENDBRANCH   1   8
TORSDOF 1
ENDMDL
