MODEL 1
REMARK minimizedAffinity 3.41365623
REMARK minimizedRMSD -1
REMARK  1 active torsions:
REMARK  status: ('A' for Active; 'I' for Inactive)
REMARK    1  A    between atoms: C1_2  and  C2_3 
ROOT
ATOM      1  C2  UNL d   1       1.572  -1.014  -0.196  0.00  0.00    -0.073 A 
ATOM      2  C3  UNL d   1       2.387  -1.903  -0.906  0.00  0.00    -0.002 A 
ATOM      3  C4  UNL d   1       3.662  -1.514  -1.319  0.00  0.00     0.004 A 
ATOM      4  C5  UNL d   1       4.137  -0.236  -1.022  0.00  0.00    -0.004 A 
ATOM      5  C6  UNL d   1       3.342   0.662  -0.303  0.00  0.00    -0.075 A 
ATOM      6  C7  UNL d   1       3.837   2.041   0.022  0.00  0.00     0.076 C 
ATOM      7  C8  UNL d   1       2.062   0.265   0.106  0.00  0.00     0.001 A 
ENDROOT
BRANCH   1   8
ATOM      8  C1  UNL d   1       0.197  -1.432   0.258  0.00  0.00     0.053 C 
ATOM      9  C   UNL d   1      -0.661  -1.920  -0.898  0.00  0.00     0.018 C 
ENDBRANCH   1   8
TORSDOF 1
ENDMDL
