MODEL 1
REMARK minimizedAffinity 1.91456079
REMARK minimizedRMSD -1
REMARK  1 active torsions:
REMARK  status: ('A' for Active; 'I' for Inactive)
REMARK    1  A    between atoms: C1_2  and  C2_3 
ROOT
ATOM      1  C2  UNL d   1       0.443   0.220  -0.337  0.00  0.00    -0.076 A 
ATOM      2  C3  UNL d   1       0.595   1.388   0.431  0.00  0.00     0.004 A 
ATOM      3  C4  UNL d   1       0.831   1.319   1.803  0.00  0.00    -0.003 A 
ATOM      4  C5  UNL d   1       0.919   0.080   2.430  0.00  0.00     0.000 A 
ATOM      5  C6  UNL d   1       0.789  -1.088   1.680  0.00  0.00     0.000 A 
ATOM      6  C7  UNL d   1       0.567  -1.036   0.293  0.00  0.00    -0.073 A 
ATOM      7  C8  UNL d   1       0.428  -2.328  -0.464  0.00  0.00     0.078 C 
ENDROOT
BRANCH   1   8
ATOM      8  C1  UNL d   1       0.162   0.358  -1.816  0.00  0.00     0.053 C 
ATOM      9  C   UNL d   1      -1.297   0.100  -2.158  0.00  0.00     0.018 C 
ENDBRANCH   1   8
TORSDOF 1
ENDMDL
