MODEL 1
REMARK minimizedAffinity 4.55907345
REMARK minimizedRMSD -1
REMARK  1 active torsions:
REMARK  status: ('A' for Active; 'I' for Inactive)
REMARK    1  A    between atoms: C1_2  and  C2_3 
ROOT
ATOM      1  C2  UNL d   1       0.474   1.792   2.176  0.00  0.00    -0.076 A 
ATOM      2  C3  UNL d   1       1.191   1.984   3.370  0.00  0.00     0.004 A 
ATOM      3  C4  UNL d   1       1.910   3.156   3.595  0.00  0.00    -0.003 A 
ATOM      4  C5  UNL d   1       1.924   4.157   2.629  0.00  0.00     0.000 A 
ATOM      5  C6  UNL d   1       1.204   3.992   1.447  0.00  0.00     0.000 A 
ATOM      6  C7  UNL d   1       0.460   2.822   1.211  0.00  0.00    -0.073 A 
ATOM      7  C8  UNL d   1      -0.293   2.694  -0.085  0.00  0.00     0.078 C 
ENDROOT
BRANCH   1   8
ATOM      8  C1  UNL d   1      -0.265   0.489   1.976  0.00  0.00     0.053 C 
ATOM      9  C   UNL d   1       0.490  -0.703   2.544  0.00  0.00     0.018 C 
ENDBRANCH   1   8
TORSDOF 1
ENDMDL
