MODEL 1
REMARK minimizedAffinity 8.73059273
REMARK minimizedRMSD -1
REMARK  1 active torsions:
REMARK  status: ('A' for Active; 'I' for Inactive)
REMARK    1  A    between atoms: C1_2  and  C2_3 
ROOT
ATOM      1  C2  UNL d   1      -0.187   0.577   1.490  0.00  0.00    -0.076 A 
ATOM      2  C3  UNL d   1       0.315   0.110   2.717  0.00  0.00     0.004 A 
ATOM      3  C4  UNL d   1       1.354  -0.818   2.761  0.00  0.00    -0.003 A 
ATOM      4  C5  UNL d   1       1.910  -1.293   1.578  0.00  0.00     0.000 A 
ATOM      5  C6  UNL d   1       1.436  -0.827   0.352  0.00  0.00     0.000 A 
ATOM      6  C7  UNL d   1       0.400   0.120   0.290  0.00  0.00    -0.073 A 
ATOM      7  C8  UNL d   1      -0.076   0.584  -1.059  0.00  0.00     0.078 C 
ENDROOT
BRANCH   1   8
ATOM      8  C1  UNL d   1      -1.333   1.562   1.504  0.00  0.00     0.053 C 
ATOM      9  C   UNL d   1      -2.690   0.879   1.432  0.00  0.00     0.018 C 
ENDBRANCH   1   8
TORSDOF 1
ENDMDL
