MODEL 1
REMARK minimizedAffinity 7.55555725
REMARK minimizedRMSD -1
REMARK  1 active torsions:
REMARK  status: ('A' for Active; 'I' for Inactive)
REMARK    1  A    between atoms: C1_2  and  C2_3 
ROOT
ATOM      1  C2  UNL d   1       0.102  -0.657  -0.337  0.00  0.00    -0.076 A 
ATOM      2  C3  UNL d   1      -0.027   0.590  -0.974  0.00  0.00     0.004 A 
ATOM      3  C4  UNL d   1      -0.978   0.790  -1.973  0.00  0.00    -0.003 A 
ATOM      4  C5  UNL d   1      -1.816  -0.254  -2.351  0.00  0.00     0.000 A 
ATOM      5  C6  UNL d   1      -1.714  -1.492  -1.718  0.00  0.00     0.000 A 
ATOM      6  C7  UNL d   1      -0.771  -1.705  -0.698  0.00  0.00    -0.073 A 
ATOM      7  C8  UNL d   1      -0.700  -3.063  -0.053  0.00  0.00     0.078 C 
ENDROOT
BRANCH   1   8
ATOM      8  C1  UNL d   1       1.170  -0.823   0.720  0.00  0.00     0.053 C 
ATOM      9  C   UNL d   1       0.794  -0.160   2.036  0.00  0.00     0.018 C 
ENDBRANCH   1   8
TORSDOF 1
ENDMDL
