MODEL 1
REMARK minimizedAffinity 6.77571297
REMARK minimizedRMSD -1
REMARK  1 active torsions:
REMARK  status: ('A' for Active; 'I' for Inactive)
REMARK    1  A    between atoms: C1_2  and  C2_3 
ROOT
ATOM      1  C2  UNL d   1       0.631  -3.821  -0.494  0.00  0.00    -0.076 A 
ATOM      2  C3  UNL d   1      -0.137  -4.724  -1.251  0.00  0.00     0.004 A 
ATOM      3  C4  UNL d   1      -1.377  -4.352  -1.769  0.00  0.00    -0.003 A 
ATOM      4  C5  UNL d   1      -1.868  -3.072  -1.540  0.00  0.00     0.000 A 
ATOM      5  C6  UNL d   1      -1.112  -2.158  -0.806  0.00  0.00     0.000 A 
ATOM      6  C7  UNL d   1       0.147  -2.511  -0.291  0.00  0.00    -0.073 A 
ATOM      7  C8  UNL d   1       0.917  -1.488   0.498  0.00  0.00     0.078 C 
ENDROOT
BRANCH   1   8
ATOM      8  C1  UNL d   1       1.955  -4.289   0.065  0.00  0.00     0.053 C 
ATOM      9  C   UNL d   1       1.952  -5.772   0.407  0.00  0.00     0.018 C 
ENDBRANCH   1   8
TORSDOF 1
ENDMDL
