MODEL 1
REMARK minimizedAffinity -2.22851777
REMARK minimizedRMSD -1
REMARK  1 active torsions:
REMARK  status: ('A' for Active; 'I' for Inactive)
REMARK    1  A    between atoms: C1_2  and  C2_3 
ROOT
ATOM      1  C2  UNL d   1      -0.808   0.056  -0.512  0.00  0.00    -0.076 A 
ATOM      2  C3  UNL d   1      -1.536  -1.128  -0.721  0.00  0.00     0.004 A 
ATOM      3  C4  UNL d   1      -2.651  -1.146  -1.558  0.00  0.00    -0.003 A 
ATOM      4  C5  UNL d   1      -3.054   0.019  -2.201  0.00  0.00     0.000 A 
ATOM      5  C6  UNL d   1      -2.332   1.198  -2.020  0.00  0.00     0.000 A 
ATOM      6  C7  UNL d   1      -1.197   1.230  -1.192  0.00  0.00    -0.073 A 
ATOM      7  C8  UNL d   1      -0.460   2.531  -1.027  0.00  0.00     0.078 C 
ENDROOT
BRANCH   1   8
ATOM      8  C1  UNL d   1       0.376   0.022   0.428  0.00  0.00     0.053 C 
ATOM      9  C   UNL d   1      -0.021   0.278   1.874  0.00  0.00     0.018 C 
ENDBRANCH   1   8
TORSDOF 1
ENDMDL
