MODEL 1
REMARK minimizedAffinity 13.9052916
REMARK minimizedRMSD -1
REMARK  2 active torsions:
REMARK  status: ('A' for Active; 'I' for Inactive)
REMARK    1  A    between atoms: C2'_3  and  C1'_4 
REMARK    2  A    between atoms: C1'_4  and  C1_5 
ROOT
ATOM      1  C1  I4B d   1       1.048  -3.579  -5.873  0.00  0.00    -0.075 A 
ATOM      2  C2  I4B d   1       0.587  -4.865  -6.000  0.00  0.00     0.003 A 
ATOM      3  C3  I4B d   1       1.486  -5.956  -5.916  0.00  0.00     0.002 A 
ATOM      4  C4  I4B d   1       2.835  -5.714  -5.756  0.00  0.00    -0.004 A 
ATOM      5  C5  I4B d   1       3.298  -4.410  -5.605  0.00  0.00     0.002 A 
ATOM      6  C6  I4B d   1       2.397  -3.336  -5.651  0.00  0.00     0.003 A 
ENDROOT
BRANCH   1   7
ATOM      7  C1' I4B d   1       0.076  -2.449  -5.999  0.00  0.00     0.060 C 
BRANCH   7   8
ATOM      8  C2' I4B d   1       0.547  -1.324  -5.100  0.00  0.00    -0.013 C 
ATOM      9  C4' I4B d   1       0.934  -0.110  -5.903  0.00  0.00     0.013 C 
ATOM     10  C3' I4B d   1      -0.557  -1.007  -4.137  0.00  0.00     0.013 C 
ENDBRANCH   7   8
ENDBRANCH   1   7
TORSDOF 2
ENDMDL
