MODEL 1
REMARK minimizedAffinity 21.2996368
REMARK minimizedRMSD -1
REMARK  2 active torsions:
REMARK  status: ('A' for Active; 'I' for Inactive)
REMARK    1  A    between atoms: C2'_3  and  C1'_4 
REMARK    2  A    between atoms: C1'_4  and  C1_5 
ROOT
ATOM      1  C1  I4B d   1       4.501   3.949   2.443  0.00  0.00    -0.075 A 
ATOM      2  C2  I4B d   1       5.101   3.238   3.452  0.00  0.00     0.003 A 
ATOM      3  C3  I4B d   1       5.842   3.909   4.454  0.00  0.00     0.002 A 
ATOM      4  C4  I4B d   1       6.000   5.278   4.381  0.00  0.00    -0.004 A 
ATOM      5  C5  I4B d   1       5.372   6.000   3.370  0.00  0.00     0.002 A 
ATOM      6  C6  I4B d   1       4.608   5.333   2.402  0.00  0.00     0.003 A 
ENDROOT
BRANCH   1   7
ATOM      7  C1' I4B d   1       3.753   3.205   1.383  0.00  0.00     0.060 C 
BRANCH   7   8
ATOM      8  C2' I4B d   1       3.522   1.792   1.879  0.00  0.00    -0.013 C 
ATOM      9  C4' I4B d   1       2.051   1.484   1.980  0.00  0.00     0.013 C 
ATOM     10  C3' I4B d   1       4.208   0.852   0.934  0.00  0.00     0.013 C 
ENDBRANCH   7   8
ENDBRANCH   1   7
TORSDOF 2
ENDMDL
