MODEL 1
REMARK minimizedAffinity 12.4958334
REMARK minimizedRMSD -1
REMARK  2 active torsions:
REMARK  status: ('A' for Active; 'I' for Inactive)
REMARK    1  A    between atoms: C2'_3  and  C1'_4 
REMARK    2  A    between atoms: C1'_4  and  C1_5 
ROOT
ATOM      1  C1  I4B d   1       1.400  -0.438   4.005  0.00  0.00    -0.075 A 
ATOM      2  C2  I4B d   1       1.122  -0.854   2.727  0.00  0.00     0.003 A 
ATOM      3  C3  I4B d   1       0.281  -0.079   1.892  0.00  0.00     0.002 A 
ATOM      4  C4  I4B d   1      -0.298   1.071   2.389  0.00  0.00    -0.004 A 
ATOM      5  C5  I4B d   1       0.003   1.503   3.678  0.00  0.00     0.002 A 
ATOM      6  C6  I4B d   1       0.866   0.751   4.487  0.00  0.00     0.003 A 
ENDROOT
BRANCH   1   7
ATOM      7  C1' I4B d   1       2.265  -1.297   4.871  0.00  0.00     0.060 C 
BRANCH   7   8
ATOM      8  C2' I4B d   1       3.277  -0.401   5.556  0.00  0.00    -0.013 C 
ATOM      9  C4' I4B d   1       4.485  -1.182   6.000  0.00  0.00     0.013 C 
ATOM     10  C3' I4B d   1       3.658   0.686   4.595  0.00  0.00     0.013 C 
ENDBRANCH   7   8
ENDBRANCH   1   7
TORSDOF 2
ENDMDL
