MODEL 1
REMARK minimizedAffinity 17.3416042
REMARK minimizedRMSD -1
REMARK  2 active torsions:
REMARK  status: ('A' for Active; 'I' for Inactive)
REMARK    1  A    between atoms: C2'_3  and  C1'_4 
REMARK    2  A    between atoms: C1'_4  and  C1_5 
ROOT
ATOM      1  C1  I4B d   1       2.354   0.528   2.874  0.00  0.00    -0.075 A 
ATOM      2  C2  I4B d   1       2.292  -0.677   3.527  0.00  0.00     0.003 A 
ATOM      3  C3  I4B d   1       1.070  -1.391   3.591  0.00  0.00     0.002 A 
ATOM      4  C4  I4B d   1      -0.067  -0.842   3.035  0.00  0.00    -0.004 A 
ATOM      5  C5  I4B d   1       0.003   0.369   2.353  0.00  0.00     0.002 A 
ATOM      6  C6  I4B d   1       1.224   1.053   2.261  0.00  0.00     0.003 A 
ENDROOT
BRANCH   1   7
ATOM      7  C1' I4B d   1       3.653   1.271   2.854  0.00  0.00     0.060 C 
BRANCH   7   8
ATOM      8  C2' I4B d   1       3.911   1.722   1.430  0.00  0.00    -0.013 C 
ATOM      9  C4' I4B d   1       3.933   3.224   1.330  0.00  0.00     0.013 C 
ATOM     10  C3' I4B d   1       5.215   1.130   0.987  0.00  0.00     0.013 C 
ENDBRANCH   7   8
ENDBRANCH   1   7
TORSDOF 2
ENDMDL
