MODEL 1
REMARK minimizedAffinity 13.8397226
REMARK minimizedRMSD -1
REMARK  2 active torsions:
REMARK  status: ('A' for Active; 'I' for Inactive)
REMARK    1  A    between atoms: C2'_3  and  C1'_4 
REMARK    2  A    between atoms: C1'_4  and  C1_5 
ROOT
ATOM      1  C1  I4B d   1       2.468  -1.273   4.541  0.00  0.00    -0.075 A 
ATOM      2  C2  I4B d   1       2.954  -2.332   5.267  0.00  0.00     0.003 A 
ATOM      3  C3  I4B d   1       4.159  -2.201   5.999  0.00  0.00     0.002 A 
ATOM      4  C4  I4B d   1       4.868  -1.019   5.936  0.00  0.00    -0.004 A 
ATOM      5  C5  I4B d   1       4.363   0.061   5.217  0.00  0.00     0.002 A 
ATOM      6  C6  I4B d   1       3.149  -0.063   4.525  0.00  0.00     0.003 A 
ENDROOT
BRANCH   1   7
ATOM      7  C1' I4B d   1       1.210  -1.456   3.754  0.00  0.00     0.060 C 
BRANCH   7   8
ATOM      8  C2' I4B d   1       0.780  -0.098   3.238  0.00  0.00    -0.013 C 
ATOM      9  C4' I4B d   1       1.541   0.279   1.994  0.00  0.00     0.013 C 
ATOM     10  C3' I4B d   1      -0.696  -0.148   2.977  0.00  0.00     0.013 C 
ENDBRANCH   7   8
ENDBRANCH   1   7
TORSDOF 2
ENDMDL
