MODEL 1
REMARK minimizedAffinity 10.0907764
REMARK minimizedRMSD -1
REMARK  2 active torsions:
REMARK  status: ('A' for Active; 'I' for Inactive)
REMARK    1  A    between atoms: C2'_3  and  C1'_4 
REMARK    2  A    between atoms: C1'_4  and  C1_5 
ROOT
ATOM      1  C1  I4B d   1      -0.728   0.017   3.211  0.00  0.00    -0.075 A 
ATOM      2  C2  I4B d   1       0.349   0.487   2.503  0.00  0.00     0.003 A 
ATOM      3  C3  I4B d   1       1.609  -0.151   2.614  0.00  0.00     0.002 A 
ATOM      4  C4  I4B d   1       1.757  -1.217   3.477  0.00  0.00    -0.004 A 
ATOM      5  C5  I4B d   1       0.658  -1.707   4.177  0.00  0.00     0.002 A 
ATOM      6  C6  I4B d   1      -0.595  -1.094   4.034  0.00  0.00     0.003 A 
ENDROOT
BRANCH   1   7
ATOM      7  C1' I4B d   1      -2.035   0.734   3.096  0.00  0.00     0.060 C 
BRANCH   7   8
ATOM      8  C2' I4B d   1      -3.011  -0.183   2.387  0.00  0.00    -0.013 C 
ATOM      9  C4' I4B d   1      -3.908  -0.889   3.369  0.00  0.00     0.013 C 
ATOM     10  C3' I4B d   1      -3.807   0.644   1.423  0.00  0.00     0.013 C 
ENDBRANCH   7   8
ENDBRANCH   1   7
TORSDOF 2
ENDMDL
