MODEL 1
REMARK minimizedAffinity 14.2117205
REMARK minimizedRMSD -1
REMARK  2 active torsions:
REMARK  status: ('A' for Active; 'I' for Inactive)
REMARK    1  A    between atoms: C2'_3  and  C1'_4 
REMARK    2  A    between atoms: C1'_4  and  C1_5 
ROOT
ATOM      1  C1  I4B d   1       1.551  -0.285  -5.188  0.00  0.00    -0.075 A 
ATOM      2  C2  I4B d   1       0.489  -0.099  -4.340  0.00  0.00     0.003 A 
ATOM      3  C3  I4B d   1      -0.559  -1.051  -4.290  0.00  0.00     0.002 A 
ATOM      4  C4  I4B d   1      -0.528  -2.140  -5.136  0.00  0.00    -0.004 A 
ATOM      5  C5  I4B d   1       0.562  -2.339  -5.980  0.00  0.00     0.002 A 
ATOM      6  C6  I4B d   1       1.614  -1.412  -5.997  0.00  0.00     0.003 A 
ENDROOT
BRANCH   1   7
ATOM      7  C1' I4B d   1       2.624   0.757  -5.239  0.00  0.00     0.060 C 
BRANCH   7   8
ATOM      8  C2' I4B d   1       3.813   0.168  -5.970  0.00  0.00    -0.013 C 
ATOM      9  C4' I4B d   1       4.968   1.133  -6.000  0.00  0.00     0.013 C 
ATOM     10  C3' I4B d   1       4.193  -1.110  -5.282  0.00  0.00     0.013 C 
ENDBRANCH   7   8
ENDBRANCH   1   7
TORSDOF 2
ENDMDL
