MODEL 1
REMARK minimizedAffinity 12.687624
REMARK minimizedRMSD -1
REMARK  2 active torsions:
REMARK  status: ('A' for Active; 'I' for Inactive)
REMARK    1  A    between atoms: C2'_3  and  C1'_4 
REMARK    2  A    between atoms: C1'_4  and  C1_5 
ROOT
ATOM      1  C1  I4B d   1       3.214  -0.669  -5.370  0.00  0.00    -0.075 A 
ATOM      2  C2  I4B d   1       3.041  -2.023  -5.228  0.00  0.00     0.003 A 
ATOM      3  C3  I4B d   1       1.744  -2.587  -5.304  0.00  0.00     0.002 A 
ATOM      4  C4  I4B d   1       0.652  -1.761  -5.473  0.00  0.00    -0.004 A 
ATOM      5  C5  I4B d   1       0.832  -0.391  -5.641  0.00  0.00     0.002 A 
ATOM      6  C6  I4B d   1       2.123   0.158  -5.601  0.00  0.00     0.003 A 
ENDROOT
BRANCH   1   7
ATOM      7  C1' I4B d   1       4.594  -0.103  -5.251  0.00  0.00     0.060 C 
BRANCH   7   8
ATOM      8  C2' I4B d   1       4.624   1.215  -5.999  0.00  0.00    -0.013 C 
ATOM      9  C4' I4B d   1       3.572   2.160  -5.481  0.00  0.00     0.013 C 
ATOM     10  C3' I4B d   1       5.997   1.799  -5.851  0.00  0.00     0.013 C 
ENDBRANCH   7   8
ENDBRANCH   1   7
TORSDOF 2
ENDMDL
