MODEL 1
REMARK minimizedAffinity 14.9010239
REMARK minimizedRMSD -1
REMARK  2 active torsions:
REMARK  status: ('A' for Active; 'I' for Inactive)
REMARK    1  A    between atoms: C2'_3  and  C1'_4 
REMARK    2  A    between atoms: C1'_4  and  C1_5 
ROOT
ATOM      1  C1  I4B d   1       5.194   2.310   3.481  0.00  0.00    -0.075 A 
ATOM      2  C2  I4B d   1       4.893   3.145   4.527  0.00  0.00     0.003 A 
ATOM      3  C3  I4B d   1       4.159   4.335   4.300  0.00  0.00     0.002 A 
ATOM      4  C4  I4B d   1       3.792   4.673   3.014  0.00  0.00    -0.004 A 
ATOM      5  C5  I4B d   1       4.079   3.813   1.957  0.00  0.00     0.002 A 
ATOM      6  C6  I4B d   1       4.773   2.618   2.193  0.00  0.00     0.003 A 
ENDROOT
BRANCH   1   7
ATOM      7  C1' I4B d   1       5.999   1.078   3.750  0.00  0.00     0.060 C 
BRANCH   7   8
ATOM      8  C2' I4B d   1       5.173   0.165   4.633  0.00  0.00    -0.013 C 
ATOM      9  C4' I4B d   1       3.878  -0.214   3.965  0.00  0.00     0.013 C 
ATOM     10  C3' I4B d   1       5.998  -1.049   4.943  0.00  0.00     0.013 C 
ENDBRANCH   7   8
ENDBRANCH   1   7
TORSDOF 2
ENDMDL
