MODEL 1
REMARK minimizedAffinity 9.36133766
REMARK minimizedRMSD -1
REMARK  2 active torsions:
REMARK  status: ('A' for Active; 'I' for Inactive)
REMARK    1  A    between atoms: C2'_3  and  C1'_4 
REMARK    2  A    between atoms: C1'_4  and  C1_5 
ROOT
ATOM      1  C1  I4B d   1       4.093   3.300   2.054  0.00  0.00    -0.075 A 
ATOM      2  C2  I4B d   1       4.581   2.556   3.099  0.00  0.00     0.003 A 
ATOM      3  C3  I4B d   1       5.308   3.181   4.141  0.00  0.00     0.002 A 
ATOM      4  C4  I4B d   1       5.564   4.536   4.073  0.00  0.00    -0.004 A 
ATOM      5  C5  I4B d   1       5.049   5.292   3.024  0.00  0.00     0.002 A 
ATOM      6  C6  I4B d   1       4.298   4.673   2.015  0.00  0.00     0.003 A 
ENDROOT
BRANCH   1   7
ATOM      7  C1' I4B d   1       3.358   2.602   0.954  0.00  0.00     0.060 C 
BRANCH   7   8
ATOM      8  C2' I4B d   1       1.899   2.509   1.353  0.00  0.00    -0.013 C 
ATOM      9  C4' I4B d   1       0.999   2.987   0.244  0.00  0.00     0.013 C 
ATOM     10  C3' I4B d   1       1.607   1.082   1.710  0.00  0.00     0.013 C 
ENDBRANCH   7   8
ENDBRANCH   1   7
TORSDOF 2
ENDMDL
