MODEL 1
REMARK minimizedAffinity 9.90393543
REMARK minimizedRMSD -1
REMARK  0 active torsions:
REMARK  status: ('A' for Active; 'I' for Inactive)
ROOT
ATOM      1  C   UNL d   1      -0.016   2.952   5.999  0.00  0.00     0.077 C 
ATOM      2  C1  UNL d   1      -0.039   2.269   4.664  0.00  0.00    -0.074 A 
ATOM      3  C2  UNL d   1      -0.708   2.839   3.576  0.00  0.00    -0.005 A 
ATOM      4  C3  UNL d   1      -0.712   2.197   2.338  0.00  0.00     0.006 A 
ATOM      5  C4  UNL d   1      -0.049   0.980   2.175  0.00  0.00    -0.005 A 
ATOM      6  C5  UNL d   1       0.626   0.395   3.252  0.00  0.00    -0.074 A 
ATOM      7  C6  UNL d   1       1.352  -0.907   3.091  0.00  0.00     0.077 C 
ATOM      8  C7  UNL d   1       0.632   1.050   4.491  0.00  0.00    -0.001 A 
ENDROOT
TORSDOF 0
ENDMDL
