MODEL 1
REMARK minimizedAffinity 8.58621788
REMARK minimizedRMSD -1
REMARK  0 active torsions:
REMARK  status: ('A' for Active; 'I' for Inactive)
ROOT
ATOM      1  C   UNL d   1       0.716   2.230   6.000  0.00  0.00     0.077 C 
ATOM      2  C1  UNL d   1       1.148   1.059   5.169  0.00  0.00    -0.074 A 
ATOM      3  C2  UNL d   1       2.067   0.127   5.662  0.00  0.00    -0.005 A 
ATOM      4  C3  UNL d   1       2.452  -0.963   4.882  0.00  0.00     0.006 A 
ATOM      5  C4  UNL d   1       1.923  -1.132   3.602  0.00  0.00    -0.005 A 
ATOM      6  C5  UNL d   1       1.002  -0.211   3.092  0.00  0.00    -0.074 A 
ATOM      7  C6  UNL d   1       0.416  -0.384   1.722  0.00  0.00     0.077 C 
ATOM      8  C7  UNL d   1       0.615   0.877   3.885  0.00  0.00    -0.001 A 
ENDROOT
TORSDOF 0
ENDMDL
