MODEL 1
REMARK minimizedAffinity 9.23290348
REMARK minimizedRMSD -1
REMARK  0 active torsions:
REMARK  status: ('A' for Active; 'I' for Inactive)
ROOT
ATOM      1  C   UNL d   1      -1.134  -4.179  -5.995  0.00  0.00     0.077 C 
ATOM      2  C1  UNL d   1      -0.918  -2.848  -5.340  0.00  0.00    -0.074 A 
ATOM      3  C2  UNL d   1      -1.538  -2.534  -4.126  0.00  0.00    -0.005 A 
ATOM      4  C3  UNL d   1      -1.320  -1.295  -3.524  0.00  0.00     0.006 A 
ATOM      5  C4  UNL d   1      -0.481  -0.358  -4.128  0.00  0.00    -0.005 A 
ATOM      6  C5  UNL d   1       0.148  -0.654  -5.342  0.00  0.00    -0.074 A 
ATOM      7  C6  UNL d   1       1.061   0.338  -6.000  0.00  0.00     0.077 C 
ATOM      8  C7  UNL d   1      -0.071  -1.904  -5.937  0.00  0.00    -0.001 A 
ENDROOT
TORSDOF 0
ENDMDL
