MODEL 1
REMARK minimizedAffinity 5.96706343
REMARK minimizedRMSD -1
REMARK  0 active torsions:
REMARK  status: ('A' for Active; 'I' for Inactive)
ROOT
ATOM      1  C   UNL d   1      -2.322  -0.819   2.327  0.00  0.00     0.077 C 
ATOM      2  C1  UNL d   1      -0.885  -0.814   2.758  0.00  0.00    -0.074 A 
ATOM      3  C2  UNL d   1      -0.044   0.257   2.440  0.00  0.00    -0.005 A 
ATOM      4  C3  UNL d   1       1.288   0.253   2.855  0.00  0.00     0.006 A 
ATOM      5  C4  UNL d   1       1.791  -0.821   3.591  0.00  0.00    -0.005 A 
ATOM      6  C5  UNL d   1       0.964  -1.900   3.918  0.00  0.00    -0.074 A 
ATOM      7  C6  UNL d   1       1.486  -3.058   4.717  0.00  0.00     0.077 C 
ATOM      8  C7  UNL d   1      -0.375  -1.885   3.504  0.00  0.00    -0.001 A 
ENDROOT
TORSDOF 0
ENDMDL
