MODEL 1
REMARK minimizedAffinity 4.48193693
REMARK minimizedRMSD -1
REMARK  0 active torsions:
REMARK  status: ('A' for Active; 'I' for Inactive)
ROOT
ATOM      1  C   UNL d   1      -1.218  -1.976  -1.909  0.00  0.00     0.077 C 
ATOM      2  C1  UNL d   1      -0.322  -1.514  -3.020  0.00  0.00    -0.074 A 
ATOM      3  C2  UNL d   1       0.062  -0.173  -3.124  0.00  0.00    -0.005 A 
ATOM      4  C3  UNL d   1       0.904   0.239  -4.157  0.00  0.00     0.006 A 
ATOM      5  C4  UNL d   1       1.369  -0.683  -5.094  0.00  0.00    -0.005 A 
ATOM      6  C5  UNL d   1       0.997  -2.028  -5.006  0.00  0.00    -0.074 A 
ATOM      7  C6  UNL d   1       1.497  -3.034  -6.000  0.00  0.00     0.077 C 
ATOM      8  C7  UNL d   1       0.157  -2.436  -3.961  0.00  0.00    -0.001 A 
ENDROOT
TORSDOF 0
ENDMDL
