MODEL 1
REMARK minimizedAffinity 5.66391516
REMARK minimizedRMSD -1
REMARK  0 active torsions:
REMARK  status: ('A' for Active; 'I' for Inactive)
ROOT
ATOM      1  C   UNL d   1      -1.906  -4.769  -5.879  0.00  0.00     0.077 C 
ATOM      2  C1  UNL d   1      -1.500  -4.179  -4.562  0.00  0.00    -0.074 A 
ATOM      3  C2  UNL d   1      -1.442  -4.967  -3.408  0.00  0.00    -0.005 A 
ATOM      4  C3  UNL d   1      -1.053  -4.407  -2.192  0.00  0.00     0.006 A 
ATOM      5  C4  UNL d   1      -0.719  -3.054  -2.117  0.00  0.00    -0.005 A 
ATOM      6  C5  UNL d   1      -0.770  -2.250  -3.260  0.00  0.00    -0.074 A 
ATOM      7  C6  UNL d   1      -0.404  -0.797  -3.198  0.00  0.00     0.077 C 
ATOM      8  C7  UNL d   1      -1.155  -2.823  -4.480  0.00  0.00    -0.001 A 
ENDROOT
TORSDOF 0
ENDMDL
