MODEL 1
REMARK minimizedAffinity 12.0607786
REMARK minimizedRMSD -1
REMARK  0 active torsions:
REMARK  status: ('A' for Active; 'I' for Inactive)
ROOT
ATOM      1  C   UNL d   1       1.612   0.105  -3.424  0.00  0.00     0.077 C 
ATOM      2  C1  UNL d   1       0.546  -0.882  -3.798  0.00  0.00    -0.074 A 
ATOM      3  C2  UNL d   1       0.391  -1.304  -5.123  0.00  0.00    -0.005 A 
ATOM      4  C3  UNL d   1      -0.598  -2.230  -5.454  0.00  0.00     0.006 A 
ATOM      5  C4  UNL d   1      -1.441  -2.742  -4.467  0.00  0.00    -0.005 A 
ATOM      6  C5  UNL d   1      -1.300  -2.332  -3.137  0.00  0.00    -0.074 A 
ATOM      7  C6  UNL d   1      -2.191  -2.879  -2.062  0.00  0.00     0.077 C 
ATOM      8  C7  UNL d   1      -0.299  -1.406  -2.811  0.00  0.00    -0.001 A 
ENDROOT
TORSDOF 0
ENDMDL
