MODEL 1
REMARK minimizedAffinity 13.7112503
REMARK minimizedRMSD -1
REMARK  0 active torsions:
REMARK  status: ('A' for Active; 'I' for Inactive)
ROOT
ATOM      1  C   UNL d   1       5.557  -3.324   5.489  0.00  0.00     0.077 C 
ATOM      2  C1  UNL d   1       4.634  -2.468   4.674  0.00  0.00    -0.074 A 
ATOM      3  C2  UNL d   1       3.453  -2.992   4.138  0.00  0.00    -0.005 A 
ATOM      4  C3  UNL d   1       2.599  -2.181   3.390  0.00  0.00     0.006 A 
ATOM      5  C4  UNL d   1       2.917  -0.841   3.171  0.00  0.00    -0.005 A 
ATOM      6  C5  UNL d   1       4.093  -0.299   3.699  0.00  0.00    -0.074 A 
ATOM      7  C6  UNL d   1       4.445   1.143   3.481  0.00  0.00     0.077 C 
ATOM      8  C7  UNL d   1       4.943  -1.118   4.455  0.00  0.00    -0.001 A 
ENDROOT
TORSDOF 0
ENDMDL
