MODEL 1
REMARK minimizedAffinity 6.75761509
REMARK minimizedRMSD -1
REMARK  0 active torsions:
REMARK  status: ('A' for Active; 'I' for Inactive)
ROOT
ATOM      1  C   UNL d   1       3.188  -0.458   3.424  0.00  0.00     0.077 C 
ATOM      2  C1  UNL d   1       3.365  -1.654   4.311  0.00  0.00    -0.074 A 
ATOM      3  C2  UNL d   1       4.637  -2.047   4.743  0.00  0.00    -0.005 A 
ATOM      4  C3  UNL d   1       4.785  -3.156   5.576  0.00  0.00     0.006 A 
ATOM      5  C4  UNL d   1       3.666  -3.883   5.984  0.00  0.00    -0.005 A 
ATOM      6  C5  UNL d   1       2.387  -3.505   5.563  0.00  0.00    -0.074 A 
ATOM      7  C6  UNL d   1       1.174  -4.270   6.000  0.00  0.00     0.077 C 
ATOM      8  C7  UNL d   1       2.246  -2.385   4.732  0.00  0.00    -0.001 A 
ENDROOT
TORSDOF 0
ENDMDL
