MODEL 1
REMARK minimizedAffinity 8.36152458
REMARK minimizedRMSD -1
REMARK  0 active torsions:
REMARK  status: ('A' for Active; 'I' for Inactive)
ROOT
ATOM      1  C1  DEN d   1      -1.021   2.262   0.080  0.00  0.00     0.130 A 
ATOM      2  C2  DEN d   1      -2.458   2.340   0.329  0.00  0.00    -0.031 A 
ATOM      3  C3  DEN d   1      -2.657   2.694   1.748  0.00  0.00     0.027 A 
ATOM      4  C4  DEN d   1      -0.889   3.130   3.575  0.00  0.00     0.027 A 
ATOM      5  C5  DEN d   1       0.461   3.170   3.844  0.00  0.00    -0.003 A 
ATOM      6  C6  DEN d   1       1.404   2.879   2.893  0.00  0.00     0.001 A 
ATOM      7  C7  DEN d   1       1.010   2.579   1.616  0.00  0.00     0.017 A 
ATOM      8  C8  DEN d   1      -0.350   2.530   1.340  0.00  0.00    -0.094 A 
ATOM      9  C9  DEN d   1      -1.287   2.839   2.311  0.00  0.00    -0.072 A 
ENDROOT
TORSDOF 0
ENDMDL
