MODEL 1
REMARK minimizedAffinity -1.2356528
REMARK minimizedRMSD -1
REMARK  0 active torsions:
REMARK  status: ('A' for Active; 'I' for Inactive)
ROOT
ATOM      1  C1  DEN d   1       1.400   3.610   2.546  0.00  0.00     0.130 A 
ATOM      2  C2  DEN d   1       2.761   3.099   2.690  0.00  0.00    -0.031 A 
ATOM      3  C3  DEN d   1       2.853   1.829   1.943  0.00  0.00     0.027 A 
ATOM      4  C4  DEN d   1       1.033   0.613   0.578  0.00  0.00     0.027 A 
ATOM      5  C5  DEN d   1      -0.283   0.655   0.174  0.00  0.00    -0.003 A 
ATOM      6  C6  DEN d   1      -1.132   1.659   0.557  0.00  0.00     0.001 A 
ATOM      7  C7  DEN d   1      -0.663   2.687   1.332  0.00  0.00     0.017 A 
ATOM      8  C8  DEN d   1       0.661   2.647   1.749  0.00  0.00    -0.094 A 
ATOM      9  C9  DEN d   1       1.507   1.630   1.341  0.00  0.00    -0.072 A 
ENDROOT
TORSDOF 0
ENDMDL
