MODEL 1
REMARK minimizedAffinity 0.169595599
REMARK minimizedRMSD -1
REMARK  0 active torsions:
REMARK  status: ('A' for Active; 'I' for Inactive)
ROOT
ATOM      1  C1  DEN d   1       0.101   0.639   0.314  0.00  0.00     0.130 A 
ATOM      2  C2  DEN d   1      -1.213   1.272   0.377  0.00  0.00    -0.031 A 
ATOM      3  C3  DEN d   1      -1.075   2.538   1.124  0.00  0.00     0.027 A 
ATOM      4  C4  DEN d   1       1.036   3.578   2.179  0.00  0.00     0.027 A 
ATOM      5  C5  DEN d   1       2.385   3.403   2.395  0.00  0.00    -0.003 A 
ATOM      6  C6  DEN d   1       3.055   2.288   1.966  0.00  0.00     0.001 A 
ATOM      7  C7  DEN d   1       2.386   1.325   1.258  0.00  0.00     0.017 A 
ATOM      8  C8  DEN d   1       1.024   1.490   1.043  0.00  0.00    -0.094 A 
ATOM      9  C9  DEN d   1       0.368   2.630   1.474  0.00  0.00    -0.072 A 
ENDROOT
TORSDOF 0
ENDMDL
