MODEL 1
REMARK minimizedAffinity 1.40549922
REMARK minimizedRMSD -1
REMARK  0 active torsions:
REMARK  status: ('A' for Active; 'I' for Inactive)
ROOT
ATOM      1  C1  DEN d   1      -3.024   2.021  -5.951  0.00  0.00     0.130 A 
ATOM      2  C2  DEN d   1      -1.580   2.233  -5.977  0.00  0.00    -0.031 A 
ATOM      3  C3  DEN d   1      -1.332   3.688  -6.000  0.00  0.00     0.027 A 
ATOM      4  C4  DEN d   1      -3.036   5.625  -5.992  0.00  0.00     0.027 A 
ATOM      5  C5  DEN d   1      -4.376   5.940  -5.985  0.00  0.00    -0.003 A 
ATOM      6  C6  DEN d   1      -5.353   4.979  -6.000  0.00  0.00     0.001 A 
ATOM      7  C7  DEN d   1      -5.002   3.655  -5.977  0.00  0.00     0.017 A 
ATOM      8  C8  DEN d   1      -3.652   3.329  -5.992  0.00  0.00    -0.094 A 
ATOM      9  C9  DEN d   1      -2.681   4.315  -5.964  0.00  0.00    -0.072 A 
ENDROOT
TORSDOF 0
ENDMDL
