MODEL 1
REMARK minimizedAffinity -2.67631435
REMARK minimizedRMSD -1
REMARK  0 active torsions:
REMARK  status: ('A' for Active; 'I' for Inactive)
ROOT
ATOM      1  C1  DEN d   1      -1.114   1.987   0.773  0.00  0.00     0.130 A 
ATOM      2  C2  DEN d   1      -1.997   2.672   1.712  0.00  0.00    -0.031 A 
ATOM      3  C3  DEN d   1      -1.170   3.198   2.817  0.00  0.00     0.027 A 
ATOM      4  C4  DEN d   1       1.380   3.022   3.160  0.00  0.00     0.027 A 
ATOM      5  C5  DEN d   1       2.552   2.524   2.634  0.00  0.00    -0.003 A 
ATOM      6  C6  DEN d   1       2.579   1.789   1.479  0.00  0.00     0.001 A 
ATOM      7  C7  DEN d   1       1.418   1.569   0.786  0.00  0.00     0.017 A 
ATOM      8  C8  DEN d   1       0.231   2.062   1.314  0.00  0.00    -0.094 A 
ATOM      9  C9  DEN d   1       0.226   2.813   2.477  0.00  0.00    -0.072 A 
ENDROOT
TORSDOF 0
ENDMDL
