MODEL 1
REMARK minimizedAffinity 4.91539717
REMARK minimizedRMSD -1
REMARK  0 active torsions:
REMARK  status: ('A' for Active; 'I' for Inactive)
ROOT
ATOM      1  C1  DEN d   1       4.680   4.043   3.210  0.00  0.00     0.130 A 
ATOM      2  C2  DEN d   1       5.998   3.726   2.666  0.00  0.00    -0.031 A 
ATOM      3  C3  DEN d   1       5.827   2.689   1.629  0.00  0.00     0.027 A 
ATOM      4  C4  DEN d   1       3.661   1.552   0.812  0.00  0.00     0.027 A 
ATOM      5  C5  DEN d   1       2.296   1.484   0.983  0.00  0.00    -0.003 A 
ATOM      6  C6  DEN d   1       1.639   2.233   1.924  0.00  0.00     0.001 A 
ATOM      7  C7  DEN d   1       2.342   3.117   2.700  0.00  0.00     0.017 A 
ATOM      8  C8  DEN d   1       3.720   3.186   2.538  0.00  0.00    -0.094 A 
ATOM      9  C9  DEN d   1       4.363   2.429   1.573  0.00  0.00    -0.072 A 
ENDROOT
TORSDOF 0
ENDMDL
