MODEL 1
REMARK minimizedAffinity 2.88818598
REMARK minimizedRMSD -1
REMARK  0 active torsions:
REMARK  status: ('A' for Active; 'I' for Inactive)
ROOT
ATOM      1  C1  DEN d   1       1.871   3.705   2.279  0.00  0.00     0.130 A 
ATOM      2  C2  DEN d   1       3.237   3.191   2.333  0.00  0.00    -0.031 A 
ATOM      3  C3  DEN d   1       3.276   1.918   1.587  0.00  0.00     0.027 A 
ATOM      4  C4  DEN d   1       1.365   0.700   0.355  0.00  0.00     0.027 A 
ATOM      5  C5  DEN d   1       0.025   0.743   0.041  0.00  0.00    -0.003 A 
ATOM      6  C6  DEN d   1      -0.795   1.751   0.476  0.00  0.00     0.001 A 
ATOM      7  C7  DEN d   1      -0.272   2.781   1.212  0.00  0.00     0.017 A 
ATOM      8  C8  DEN d   1       1.077   2.740   1.539  0.00  0.00    -0.094 A 
ATOM      9  C9  DEN d   1       1.892   1.719   1.079  0.00  0.00    -0.072 A 
ENDROOT
TORSDOF 0
ENDMDL
