MODEL 1
REMARK minimizedAffinity 8.32810497
REMARK minimizedRMSD -1
REMARK  0 active torsions:
REMARK  status: ('A' for Active; 'I' for Inactive)
ROOT
ATOM      1  C1  DEN d   1       0.959   1.375   0.371  0.00  0.00     0.130 A 
ATOM      2  C2  DEN d   1       1.119  -0.009  -0.068  0.00  0.00    -0.031 A 
ATOM      3  C3  DEN d   1      -0.163  -0.708   0.150  0.00  0.00     0.027 A 
ATOM      4  C4  DEN d   1      -2.370   0.213   1.116  0.00  0.00     0.027 A 
ATOM      5  C5  DEN d   1      -2.988   1.327   1.639  0.00  0.00    -0.003 A 
ATOM      6  C6  DEN d   1      -2.329   2.516   1.807  0.00  0.00     0.001 A 
ATOM      7  C7  DEN d   1      -1.024   2.631   1.406  0.00  0.00     0.017 A 
ATOM      8  C8  DEN d   1      -0.393   1.510   0.884  0.00  0.00    -0.094 A 
ATOM      9  C9  DEN d   1      -1.080   0.321   0.711  0.00  0.00    -0.072 A 
ENDROOT
TORSDOF 0
ENDMDL
