MODEL 1
REMARK minimizedAffinity 6.77507448
REMARK minimizedRMSD -1
REMARK  0 active torsions:
REMARK  status: ('A' for Active; 'I' for Inactive)
ROOT
ATOM      1  C1  DEN d   1      -4.223  -3.780  -0.148  0.00  0.00     0.130 A 
ATOM      2  C2  DEN d   1      -4.151  -5.238  -0.105  0.00  0.00    -0.031 A 
ATOM      3  C3  DEN d   1      -2.813  -5.643  -0.582  0.00  0.00     0.027 A 
ATOM      4  C4  DEN d   1      -0.856  -4.161  -1.374  0.00  0.00     0.027 A 
ATOM      5  C5  DEN d   1      -0.449  -2.864  -1.599  0.00  0.00    -0.003 A 
ATOM      6  C6  DEN d   1      -1.276  -1.793  -1.390  0.00  0.00     0.001 A 
ATOM      7  C7  DEN d   1      -2.539  -1.996  -0.899  0.00  0.00     0.017 A 
ATOM      8  C8  DEN d   1      -2.959  -3.301  -0.677  0.00  0.00    -0.094 A 
ATOM      9  C9  DEN d   1      -2.104  -4.370  -0.883  0.00  0.00    -0.072 A 
ENDROOT
TORSDOF 0
ENDMDL
