MODEL 1
REMARK minimizedAffinity 8.79234886
REMARK minimizedRMSD -1
REMARK  0 active torsions:
REMARK  status: ('A' for Active; 'I' for Inactive)
ROOT
ATOM      1  C1  DEN d   1       3.899   3.407   1.102  0.00  0.00     0.130 A 
ATOM      2  C2  DEN d   1       2.803   3.983   1.877  0.00  0.00    -0.031 A 
ATOM      3  C3  DEN d   1       1.563   3.267   1.516  0.00  0.00     0.027 A 
ATOM      4  C4  DEN d   1       1.236   1.328  -0.153  0.00  0.00     0.027 A 
ATOM      5  C5  DEN d   1       1.871   0.507  -1.058  0.00  0.00    -0.003 A 
ATOM      6  C6  DEN d   1       3.209   0.616  -1.329  0.00  0.00     0.001 A 
ATOM      7  C7  DEN d   1       3.965   1.538  -0.655  0.00  0.00     0.017 A 
ATOM      8  C8  DEN d   1       3.330   2.375   0.253  0.00  0.00    -0.094 A 
ATOM      9  C9  DEN d   1       1.979   2.241   0.522  0.00  0.00    -0.072 A 
ENDROOT
TORSDOF 0
ENDMDL
