MODEL 1
REMARK minimizedAffinity 10.5264654
REMARK minimizedRMSD -1
REMARK  0 active torsions:
REMARK  status: ('A' for Active; 'I' for Inactive)
ROOT
ATOM      1  C1  DEN d   1      -3.448  -4.721   0.673  0.00  0.00     0.130 A 
ATOM      2  C2  DEN d   1      -4.145  -5.753  -0.089  0.00  0.00    -0.031 A 
ATOM      3  C3  DEN d   1      -3.552  -5.800  -1.441  0.00  0.00     0.027 A 
ATOM      4  C4  DEN d   1      -1.630  -4.386  -2.420  0.00  0.00     0.027 A 
ATOM      5  C5  DEN d   1      -0.734  -3.374  -2.156  0.00  0.00    -0.003 A 
ATOM      6  C6  DEN d   1      -0.703  -2.722  -0.952  0.00  0.00     0.001 A 
ATOM      7  C7  DEN d   1      -1.554  -3.106   0.050  0.00  0.00     0.017 A 
ATOM      8  C8  DEN d   1      -2.466  -4.120  -0.211  0.00  0.00    -0.094 A 
ATOM      9  C9  DEN d   1      -2.473  -4.775  -1.431  0.00  0.00    -0.072 A 
ENDROOT
TORSDOF 0
ENDMDL
