MODEL 1
REMARK minimizedAffinity 10.1308756
REMARK minimizedRMSD -1
REMARK  0 active torsions:
REMARK  status: ('A' for Active; 'I' for Inactive)
ROOT
ATOM      1  C1  DEN d   1      -2.130   2.908   1.656  0.00  0.00     0.130 A 
ATOM      2  C2  DEN d   1      -0.838   3.565   1.833  0.00  0.00    -0.031 A 
ATOM      3  C3  DEN d   1       0.216   2.626   1.400  0.00  0.00     0.027 A 
ATOM      4  C4  DEN d   1      -0.027   0.232   0.471  0.00  0.00     0.027 A 
ATOM      5  C5  DEN d   1      -0.925  -0.762   0.148  0.00  0.00    -0.003 A 
ATOM      6  C6  DEN d   1      -2.274  -0.616   0.336  0.00  0.00     0.001 A 
ATOM      7  C7  DEN d   1      -2.768   0.567   0.819  0.00  0.00     0.017 A 
ATOM      8  C8  DEN d   1      -1.868   1.571   1.153  0.00  0.00    -0.094 A 
ATOM      9  C9  DEN d   1      -0.509   1.409   0.944  0.00  0.00    -0.072 A 
ENDROOT
TORSDOF 0
ENDMDL
