MODEL 1
REMARK minimizedAffinity 2.48614192
REMARK minimizedRMSD -1
REMARK  0 active torsions:
REMARK  status: ('A' for Active; 'I' for Inactive)
ROOT
ATOM      1  C1  DEN d   1      -0.647   3.018   0.862  0.00  0.00     0.130 A 
ATOM      2  C2  DEN d   1       0.709   2.554   1.140  0.00  0.00    -0.031 A 
ATOM      3  C3  DEN d   1       0.678   1.081   1.233  0.00  0.00     0.027 A 
ATOM      4  C4  DEN d   1      -1.328  -0.519   0.970  0.00  0.00     0.027 A 
ATOM      5  C5  DEN d   1      -2.684  -0.590   0.739  0.00  0.00    -0.003 A 
ATOM      6  C6  DEN d   1      -3.456   0.528   0.568  0.00  0.00     0.001 A 
ATOM      7  C7  DEN d   1      -2.869   1.766   0.580  0.00  0.00     0.017 A 
ATOM      8  C8  DEN d   1      -1.503   1.847   0.820  0.00  0.00    -0.094 A 
ATOM      9  C9  DEN d   1      -0.739   0.703   0.979  0.00  0.00    -0.072 A 
ENDROOT
TORSDOF 0
ENDMDL
