MODEL 1
REMARK minimizedAffinity 5.18410969
REMARK minimizedRMSD -1
REMARK  0 active torsions:
REMARK  status: ('A' for Active; 'I' for Inactive)
ROOT
ATOM      1  C1  DEN d   1      -0.807   1.438  -1.043  0.00  0.00     0.130 A 
ATOM      2  C2  DEN d   1      -1.445   0.983   0.188  0.00  0.00    -0.031 A 
ATOM      3  C3  DEN d   1      -0.455   0.198   0.953  0.00  0.00     0.027 A 
ATOM      4  C4  DEN d   1       1.993  -0.350   0.354  0.00  0.00     0.027 A 
ATOM      5  C5  DEN d   1       2.979  -0.191  -0.595  0.00  0.00    -0.003 A 
ATOM      6  C6  DEN d   1       2.764   0.487  -1.765  0.00  0.00     0.001 A 
ATOM      7  C7  DEN d   1       1.546   1.071  -1.997  0.00  0.00     0.017 A 
ATOM      8  C8  DEN d   1       0.545   0.909  -1.049  0.00  0.00    -0.094 A 
ATOM      9  C9  DEN d   1       0.786   0.231   0.133  0.00  0.00    -0.072 A 
ENDROOT
TORSDOF 0
ENDMDL
