MODEL 1
REMARK minimizedAffinity 13.361124
REMARK minimizedRMSD -1
REMARK  0 active torsions:
REMARK  status: ('A' for Active; 'I' for Inactive)
ROOT
ATOM      1  C1  DEN d   1       2.505   1.154  -2.181  0.00  0.00     0.130 A 
ATOM      2  C2  DEN d   1       2.598  -0.139  -2.854  0.00  0.00    -0.031 A 
ATOM      3  C3  DEN d   1       2.183  -1.183  -1.896  0.00  0.00     0.027 A 
ATOM      4  C4  DEN d   1       1.406  -0.925   0.550  0.00  0.00     0.027 A 
ATOM      5  C5  DEN d   1       1.175  -0.023   1.565  0.00  0.00    -0.003 A 
ATOM      6  C6  DEN d   1       1.402   1.319   1.415  0.00  0.00     0.001 A 
ATOM      7  C7  DEN d   1       1.831   1.804   0.208  0.00  0.00     0.017 A 
ATOM      8  C8  DEN d   1       2.073   0.900  -0.818  0.00  0.00    -0.094 A 
ATOM      9  C9  DEN d   1       1.826  -0.452  -0.651  0.00  0.00    -0.072 A 
ENDROOT
TORSDOF 0
ENDMDL
