MODEL 1
REMARK minimizedAffinity 8.36897659
REMARK minimizedRMSD -1
REMARK  0 active torsions:
REMARK  status: ('A' for Active; 'I' for Inactive)
ROOT
ATOM      1  N1  IND d   1       1.070  -3.287   3.954  0.00  0.00    -0.196 N 
ATOM      2  C2  IND d   1       1.878  -3.254   5.057  0.00  0.00     0.054 A 
ATOM      3  C3  IND d   1       2.123  -1.975   5.421  0.00  0.00    -0.031 A 
ATOM      4  C4  IND d   1       1.219   0.215   4.415  0.00  0.00     0.051 A 
ATOM      5  C5  IND d   1       0.475   0.696   3.374  0.00  0.00    -0.031 A 
ATOM      6  C6  IND d   1      -0.123  -0.144   2.457  0.00  0.00     0.015 A 
ATOM      7  C7  IND d   1      -0.009  -1.502   2.553  0.00  0.00    -0.016 A 
ATOM      8  C8  IND d   1       0.752  -1.993   3.604  0.00  0.00    -0.047 A 
ATOM      9  C9  IND d   1       1.397  -1.145   4.514  0.00  0.00    -0.096 A 
ATOM     10  HN1 IND d   1       0.805  -3.997   3.548  0.00  0.00     0.298 HD
ENDROOT
TORSDOF 0
ENDMDL
