MODEL 1
REMARK minimizedAffinity 19.5015049
REMARK minimizedRMSD -1
REMARK  0 active torsions:
REMARK  status: ('A' for Active; 'I' for Inactive)
ROOT
ATOM      1  N1  IND d   1       0.423  -1.859  -4.499  0.00  0.00    -0.196 N 
ATOM      2  C2  IND d   1       0.001  -1.350  -3.302  0.00  0.00     0.054 A 
ATOM      3  C3  IND d   1      -1.076  -2.033  -2.854  0.00  0.00    -0.031 A 
ATOM      4  C4  IND d   1      -2.251  -4.085  -3.873  0.00  0.00     0.051 A 
ATOM      5  C5  IND d   1      -2.250  -4.888  -4.978  0.00  0.00    -0.031 A 
ATOM      6  C6  IND d   1      -1.338  -4.722  -6.000  0.00  0.00     0.015 A 
ATOM      7  C7  IND d   1      -0.382  -3.748  -5.949  0.00  0.00    -0.016 A 
ATOM      8  C8  IND d   1      -0.384  -2.925  -4.831  0.00  0.00    -0.047 A 
ATOM      9  C9  IND d   1      -1.334  -3.063  -3.811  0.00  0.00    -0.096 A 
ATOM     10  HN1 IND d   1       1.081  -1.562  -4.967  0.00  0.00     0.298 HD
ENDROOT
TORSDOF 0
ENDMDL
