MODEL 1
REMARK minimizedAffinity 9.43306446
REMARK minimizedRMSD -1
REMARK  0 active torsions:
REMARK  status: ('A' for Active; 'I' for Inactive)
ROOT
ATOM      1  N1  IND d   1      -1.371  -3.403  -1.927  0.00  0.00    -0.196 N 
ATOM      2  C2  IND d   1      -0.910  -2.179  -2.325  0.00  0.00     0.054 A 
ATOM      3  C3  IND d   1      -0.786  -2.138  -3.671  0.00  0.00    -0.031 A 
ATOM      4  C4  IND d   1      -1.380  -3.929  -5.423  0.00  0.00     0.051 A 
ATOM      5  C5  IND d   1      -1.800  -5.224  -5.540  0.00  0.00    -0.031 A 
ATOM      6  C6  IND d   1      -2.108  -5.993  -4.436  0.00  0.00     0.015 A 
ATOM      7  C7  IND d   1      -2.017  -5.489  -3.169  0.00  0.00    -0.016 A 
ATOM      8  C8  IND d   1      -1.584  -4.177  -3.047  0.00  0.00    -0.047 A 
ATOM      9  C9  IND d   1      -1.229  -3.405  -4.161  0.00  0.00    -0.096 A 
ATOM     10  HN1 IND d   1      -1.506  -3.648  -1.114  0.00  0.00     0.298 HD
ENDROOT
TORSDOF 0
ENDMDL
