MODEL 1
REMARK minimizedAffinity 5.62031841
REMARK minimizedRMSD -1
REMARK  0 active torsions:
REMARK  status: ('A' for Active; 'I' for Inactive)
ROOT
ATOM      1  N1  IND d   1       0.504  -1.683   3.502  0.00  0.00    -0.196 N 
ATOM      2  C2  IND d   1       1.484  -1.240   4.347  0.00  0.00     0.054 A 
ATOM      3  C3  IND d   1       1.521   0.111   4.356  0.00  0.00    -0.031 A 
ATOM      4  C4  IND d   1       0.003   1.798   3.142  0.00  0.00     0.051 A 
ATOM      5  C5  IND d   1      -1.012   1.871   2.228  0.00  0.00    -0.031 A 
ATOM      6  C6  IND d   1      -1.586   0.740   1.684  0.00  0.00     0.015 A 
ATOM      7  C7  IND d   1      -1.173  -0.512   2.043  0.00  0.00    -0.016 A 
ATOM      8  C8  IND d   1      -0.138  -0.590   2.965  0.00  0.00    -0.047 A 
ATOM      9  C9  IND d   1       0.477   0.555   3.489  0.00  0.00    -0.096 A 
ATOM     10  HN1 IND d   1       0.321  -2.506   3.335  0.00  0.00     0.298 HD
ENDROOT
TORSDOF 0
ENDMDL
