MODEL 1
REMARK minimizedAffinity 10.2112608
REMARK minimizedRMSD -1
REMARK  0 active torsions:
REMARK  status: ('A' for Active; 'I' for Inactive)
ROOT
ATOM      1  N1  IND d   1       0.342  -3.456   3.751  0.00  0.00    -0.196 N 
ATOM      2  C2  IND d   1       1.104  -3.530   4.883  0.00  0.00     0.054 A 
ATOM      3  C3  IND d   1       1.659  -2.328   5.157  0.00  0.00    -0.031 A 
ATOM      4  C4  IND d   1       1.368  -0.078   3.939  0.00  0.00     0.051 A 
ATOM      5  C5  IND d   1       0.797   0.481   2.831  0.00  0.00    -0.031 A 
ATOM      6  C6  IND d   1       0.027  -0.258   1.956  0.00  0.00     0.015 A 
ATOM      7  C7  IND d   1      -0.211  -1.587   2.165  0.00  0.00    -0.016 A 
ATOM      8  C8  IND d   1       0.373  -2.160   3.286  0.00  0.00    -0.047 A 
ATOM      9  C9  IND d   1       1.191  -1.425   4.154  0.00  0.00    -0.096 A 
ATOM     10  HN1 IND d   1      -0.086  -4.109   3.391  0.00  0.00     0.298 HD
ENDROOT
TORSDOF 0
ENDMDL
