MODEL 1
REMARK minimizedAffinity 7.90936375
REMARK minimizedRMSD -1
REMARK  0 active torsions:
REMARK  status: ('A' for Active; 'I' for Inactive)
ROOT
ATOM      1  N1  IND d   1       0.890   0.004  -2.956  0.00  0.00    -0.196 N 
ATOM      2  C2  IND d   1       0.974   0.018  -4.320  0.00  0.00     0.054 A 
ATOM      3  C3  IND d   1       0.150  -0.912  -4.852  0.00  0.00    -0.031 A 
ATOM      4  C4  IND d   1      -1.504  -2.496  -3.676  0.00  0.00     0.051 A 
ATOM      5  C5  IND d   1      -1.911  -2.901  -2.436  0.00  0.00    -0.031 A 
ATOM      6  C6  IND d   1      -1.396  -2.345  -1.282  0.00  0.00     0.015 A 
ATOM      7  C7  IND d   1      -0.460  -1.352  -1.326  0.00  0.00    -0.016 A 
ATOM      8  C8  IND d   1      -0.040  -0.943  -2.584  0.00  0.00    -0.047 A 
ATOM      9  C9  IND d   1      -0.527  -1.532  -3.757  0.00  0.00    -0.096 A 
ATOM     10  HN1 IND d   1       1.341   0.502  -2.420  0.00  0.00     0.298 HD
ENDROOT
TORSDOF 0
ENDMDL
