MODEL 1
REMARK minimizedAffinity 10.5363426
REMARK minimizedRMSD -1
REMARK  0 active torsions:
REMARK  status: ('A' for Active; 'I' for Inactive)
ROOT
ATOM      1  N1  IND d   1       2.495  -2.023   5.144  0.00  0.00    -0.196 N 
ATOM      2  C2  IND d   1       1.843  -3.224   5.128  0.00  0.00     0.054 A 
ATOM      3  C3  IND d   1       0.812  -3.188   4.254  0.00  0.00    -0.031 A 
ATOM      4  C4  IND d   1       0.075  -1.297   2.671  0.00  0.00     0.051 A 
ATOM      5  C5  IND d   1       0.340   0.005   2.351  0.00  0.00    -0.031 A 
ATOM      6  C6  IND d   1       1.359   0.711   2.956  0.00  0.00     0.015 A 
ATOM      7  C7  IND d   1       2.162   0.135   3.900  0.00  0.00    -0.016 A 
ATOM      8  C8  IND d   1       1.891  -1.184   4.232  0.00  0.00    -0.047 A 
ATOM      9  C9  IND d   1       0.831  -1.893   3.652  0.00  0.00    -0.096 A 
ATOM     10  HN1 IND d   1       3.168  -1.824   5.640  0.00  0.00     0.298 HD
ENDROOT
TORSDOF 0
ENDMDL
