MODEL 1
REMARK minimizedAffinity 8.87506676
REMARK minimizedRMSD -1
REMARK  0 active torsions:
REMARK  status: ('A' for Active; 'I' for Inactive)
ROOT
ATOM      1  N1  IND d   1      -2.277  -1.365   2.881  0.00  0.00    -0.196 N 
ATOM      2  C2  IND d   1      -2.810  -0.252   2.293  0.00  0.00     0.054 A 
ATOM      3  C3  IND d   1      -1.886   0.733   2.227  0.00  0.00    -0.031 A 
ATOM      4  C4  IND d   1       0.590   0.702   2.933  0.00  0.00     0.051 A 
ATOM      5  C5  IND d   1       1.524  -0.079   3.553  0.00  0.00    -0.031 A 
ATOM      6  C6  IND d   1       1.233  -1.356   3.988  0.00  0.00     0.015 A 
ATOM      7  C7  IND d   1      -0.005  -1.906   3.807  0.00  0.00    -0.016 A 
ATOM      8  C8  IND d   1      -0.957  -1.113   3.184  0.00  0.00    -0.047 A 
ATOM      9  C9  IND d   1      -0.680   0.200   2.778  0.00  0.00    -0.096 A 
ATOM     10  HN1 IND d   1      -2.696  -2.100   3.036  0.00  0.00     0.298 HD
ENDROOT
TORSDOF 0
ENDMDL
