MODEL 1
REMARK minimizedAffinity 17.0630264
REMARK minimizedRMSD -1
REMARK  0 active torsions:
REMARK  status: ('A' for Active; 'I' for Inactive)
ROOT
ATOM      1  N1  IND d   1      -0.663  -0.655  -5.480  0.00  0.00    -0.196 N 
ATOM      2  C2  IND d   1       0.554  -0.034  -5.516  0.00  0.00     0.054 A 
ATOM      3  C3  IND d   1       1.182  -0.160  -4.325  0.00  0.00    -0.031 A 
ATOM      4  C4  IND d   1       0.441  -1.430  -2.212  0.00  0.00     0.051 A 
ATOM      5  C5  IND d   1      -0.612  -2.124  -1.686  0.00  0.00    -0.031 A 
ATOM      6  C6  IND d   1      -1.758  -2.371  -2.414  0.00  0.00     0.015 A 
ATOM      7  C7  IND d   1      -1.890  -1.942  -3.704  0.00  0.00    -0.016 A 
ATOM      8  C8  IND d   1      -0.825  -1.230  -4.238  0.00  0.00    -0.047 A 
ATOM      9  C9  IND d   1       0.324  -0.940  -3.491  0.00  0.00    -0.096 A 
ATOM     10  HN1 IND d   1      -1.232  -0.682  -6.124  0.00  0.00     0.298 HD
ENDROOT
TORSDOF 0
ENDMDL
