MODEL 1
REMARK minimizedAffinity 5.40736437
REMARK minimizedRMSD -1
REMARK  1 active torsions:
REMARK  status: ('A' for Active; 'I' for Inactive)
REMARK    1  A    between atoms: C1_2  and  C2_3 
ROOT
ATOM      1  C2  UNL d   1       0.806   1.692   0.582  0.00  0.00    -0.081 A 
ATOM      2  C3  UNL d   1      -0.302   2.291  -0.030  0.00  0.00     0.006 A 
ATOM      3  C4  UNL d   1      -0.220   3.597  -0.519  0.00  0.00     0.002 A 
ATOM      4  C5  UNL d   1       0.971   4.322  -0.410  0.00  0.00    -0.080 A 
ATOM      5  C6  UNL d   1       1.082   5.715  -0.958  0.00  0.00     0.076 C 
ATOM      6  C7  UNL d   1       2.072   3.730   0.217  0.00  0.00     0.002 A 
ATOM      7  C8  UNL d   1       1.991   2.424   0.707  0.00  0.00     0.006 A 
ENDROOT
BRANCH   1   8
ATOM      8  C1  UNL d   1       0.740   0.261   1.052  0.00  0.00     0.054 C 
ATOM      9  C   UNL d   1       1.702  -0.622   0.270  0.00  0.00     0.018 C 
ENDBRANCH   1   8
TORSDOF 1
ENDMDL
