MODEL 1
REMARK minimizedAffinity 11.0586185
REMARK minimizedRMSD -1
REMARK  1 active torsions:
REMARK  status: ('A' for Active; 'I' for Inactive)
REMARK    1  A    between atoms: C1_2  and  C2_3 
ROOT
ATOM      1  C2  UNL d   1      -2.412   0.962  -4.000  0.00  0.00    -0.081 A 
ATOM      2  C3  UNL d   1      -2.533   2.260  -3.491  0.00  0.00     0.006 A 
ATOM      3  C4  UNL d   1      -3.551   2.574  -2.588  0.00  0.00     0.002 A 
ATOM      4  C5  UNL d   1      -4.459   1.595  -2.172  0.00  0.00    -0.080 A 
ATOM      5  C6  UNL d   1      -5.538   1.911  -1.180  0.00  0.00     0.076 C 
ATOM      6  C7  UNL d   1      -4.349   0.301  -2.695  0.00  0.00     0.002 A 
ATOM      7  C8  UNL d   1      -3.332  -0.013  -3.599  0.00  0.00     0.006 A 
ENDROOT
BRANCH   1   8
ATOM      8  C1  UNL d   1      -1.276   0.604  -4.925  0.00  0.00     0.054 C 
ATOM      9  C   UNL d   1      -0.166  -0.125  -4.181  0.00  0.00     0.018 C 
ENDBRANCH   1   8
TORSDOF 1
ENDMDL
