MODEL 1
REMARK minimizedAffinity 12.676218
REMARK minimizedRMSD -1
REMARK  1 active torsions:
REMARK  status: ('A' for Active; 'I' for Inactive)
REMARK    1  A    between atoms: C1_2  and  C2_3 
ROOT
ATOM      1  C2  UNL d   1       1.895  -5.624  -1.151  0.00  0.00    -0.081 A 
ATOM      2  C3  UNL d   1       2.021  -5.464  -2.536  0.00  0.00     0.006 A 
ATOM      3  C4  UNL d   1       3.270  -5.572  -3.152  0.00  0.00     0.002 A 
ATOM      4  C5  UNL d   1       4.413  -5.851  -2.394  0.00  0.00    -0.080 A 
ATOM      5  C6  UNL d   1       5.755  -6.000  -3.046  0.00  0.00     0.076 C 
ATOM      6  C7  UNL d   1       4.290  -5.994  -1.008  0.00  0.00     0.002 A 
ATOM      7  C8  UNL d   1       3.041  -5.885  -0.392  0.00  0.00     0.006 A 
ENDROOT
BRANCH   1   8
ATOM      8  C1  UNL d   1       0.540  -5.572  -0.493  0.00  0.00     0.054 C 
ATOM      9  C   UNL d   1      -0.016  -4.155  -0.483  0.00  0.00     0.018 C 
ENDBRANCH   1   8
TORSDOF 1
ENDMDL
