MODEL 1
REMARK minimizedAffinity 7.72284651
REMARK minimizedRMSD -1
REMARK  1 active torsions:
REMARK  status: ('A' for Active; 'I' for Inactive)
REMARK    1  A    between atoms: C1_2  and  C2_3 
ROOT
ATOM      1  C2  UNL d   1      -1.401   3.562  -1.619  0.00  0.00    -0.081 A 
ATOM      2  C3  UNL d   1      -1.499   4.935  -1.880  0.00  0.00     0.006 A 
ATOM      3  C4  UNL d   1      -0.350   5.727  -1.942  0.00  0.00     0.002 A 
ATOM      4  C5  UNL d   1       0.915   5.160  -1.752  0.00  0.00    -0.080 A 
ATOM      5  C6  UNL d   1       2.158   5.994  -1.846  0.00  0.00     0.076 C 
ATOM      6  C7  UNL d   1       1.011   3.792  -1.473  0.00  0.00     0.002 A 
ATOM      7  C8  UNL d   1      -0.137   3.000  -1.410  0.00  0.00     0.006 A 
ENDROOT
BRANCH   1   8
ATOM      8  C1  UNL d   1      -2.633   2.693  -1.615  0.00  0.00     0.054 C 
ATOM      9  C   UNL d   1      -3.130   2.433  -3.030  0.00  0.00     0.018 C 
ENDBRANCH   1   8
TORSDOF 1
ENDMDL
