MODEL 1
REMARK minimizedAffinity 12.5096331
REMARK minimizedRMSD -1
REMARK  1 active torsions:
REMARK  status: ('A' for Active; 'I' for Inactive)
REMARK    1  A    between atoms: C1_2  and  C2_3 
ROOT
ATOM      1  C2  UNL d   1      -0.276   3.512  -1.094  0.00  0.00    -0.081 A 
ATOM      2  C3  UNL d   1      -1.597   3.080  -1.267  0.00  0.00     0.006 A 
ATOM      3  C4  UNL d   1      -2.525   3.887  -1.930  0.00  0.00     0.002 A 
ATOM      4  C5  UNL d   1      -2.146   5.135  -2.437  0.00  0.00    -0.080 A 
ATOM      5  C6  UNL d   1      -3.125   5.998  -3.177  0.00  0.00     0.076 C 
ATOM      6  C7  UNL d   1      -0.832   5.574  -2.249  0.00  0.00     0.002 A 
ATOM      7  C8  UNL d   1       0.097   4.768  -1.586  0.00  0.00     0.006 A 
ENDROOT
BRANCH   1   8
ATOM      8  C1  UNL d   1       0.743   2.617  -0.437  0.00  0.00     0.054 C 
ATOM      9  C   UNL d   1       0.245   2.104   0.906  0.00  0.00     0.018 C 
ENDBRANCH   1   8
TORSDOF 1
ENDMDL
