MODEL 1
REMARK minimizedAffinity 7.75114346
REMARK minimizedRMSD -1
REMARK  1 active torsions:
REMARK  status: ('A' for Active; 'I' for Inactive)
REMARK    1  A    between atoms: C1_2  and  C2_3 
ROOT
ATOM      1  C2  UNL d   1       2.148  -1.887   0.347  0.00  0.00    -0.081 A 
ATOM      2  C3  UNL d   1       3.226  -2.451  -0.347  0.00  0.00     0.006 A 
ATOM      3  C4  UNL d   1       4.475  -2.576   0.265  0.00  0.00     0.002 A 
ATOM      4  C5  UNL d   1       4.666  -2.147   1.583  0.00  0.00    -0.080 A 
ATOM      5  C6  UNL d   1       5.994  -2.303   2.262  0.00  0.00     0.076 C 
ATOM      6  C7  UNL d   1       3.594  -1.568   2.271  0.00  0.00     0.002 A 
ATOM      7  C8  UNL d   1       2.345  -1.442   1.659  0.00  0.00     0.006 A 
ENDROOT
BRANCH   1   8
ATOM      8  C1  UNL d   1       0.783  -1.810  -0.288  0.00  0.00     0.054 C 
ATOM      9  C   UNL d   1       0.274  -3.192  -0.674  0.00  0.00     0.018 C 
ENDBRANCH   1   8
TORSDOF 1
ENDMDL
