MODEL 1
REMARK minimizedAffinity 10.5273714
REMARK minimizedRMSD -1
REMARK  1 active torsions:
REMARK  status: ('A' for Active; 'I' for Inactive)
REMARK    1  A    between atoms: C1_2  and  C2_3 
ROOT
ATOM      1  C2  UNL d   1      -3.618   0.257   2.799  0.00  0.00    -0.081 A 
ATOM      2  C3  UNL d   1      -3.105   0.194   4.101  0.00  0.00     0.006 A 
ATOM      3  C4  UNL d   1      -3.878  -0.327   5.142  0.00  0.00     0.002 A 
ATOM      4  C5  UNL d   1      -5.171  -0.801   4.897  0.00  0.00    -0.080 A 
ATOM      5  C6  UNL d   1      -6.000  -1.390   6.000  0.00  0.00     0.076 C 
ATOM      6  C7  UNL d   1      -5.690  -0.721   3.600  0.00  0.00     0.002 A 
ATOM      7  C8  UNL d   1      -4.918  -0.200   2.560  0.00  0.00     0.006 A 
ENDROOT
BRANCH   1   8
ATOM      8  C1  UNL d   1      -2.764   0.758   1.663  0.00  0.00     0.054 C 
ATOM      9  C   UNL d   1      -2.989   2.243   1.415  0.00  0.00     0.018 C 
ENDBRANCH   1   8
TORSDOF 1
ENDMDL
