MODEL 1
REMARK minimizedAffinity 14.4771538
REMARK minimizedRMSD -1
REMARK  1 active torsions:
REMARK  status: ('A' for Active; 'I' for Inactive)
REMARK    1  A    between atoms: C1_2  and  C2_3 
ROOT
ATOM      1  C2  UNL d   1      -1.968   2.964  -1.253  0.00  0.00    -0.081 A 
ATOM      2  C3  UNL d   1      -0.675   2.477  -1.028  0.00  0.00     0.006 A 
ATOM      3  C4  UNL d   1       0.441   3.227  -1.409  0.00  0.00     0.002 A 
ATOM      4  C5  UNL d   1       0.282   4.479  -2.013  0.00  0.00    -0.080 A 
ATOM      5  C6  UNL d   1       1.471   5.308  -2.398  0.00  0.00     0.076 C 
ATOM      6  C7  UNL d   1      -1.011   4.958  -2.253  0.00  0.00     0.002 A 
ATOM      7  C8  UNL d   1      -2.126   4.208  -1.873  0.00  0.00     0.006 A 
ENDROOT
BRANCH   1   8
ATOM      8  C1  UNL d   1      -3.172   2.187  -0.785  0.00  0.00     0.054 C 
ATOM      9  C   UNL d   1      -4.467   2.877  -1.188  0.00  0.00     0.018 C 
ENDBRANCH   1   8
TORSDOF 1
ENDMDL
