MODEL 1
REMARK minimizedAffinity -1.22684431
REMARK minimizedRMSD -1
REMARK  0 active torsions:
REMARK  status: ('A' for Active; 'I' for Inactive)
ROOT
ATOM      1  C1  DEN d   1       2.045  -5.371  -4.667  0.00  0.00     0.130 A 
ATOM      2  C2  DEN d   1       2.444  -5.818  -5.999  0.00  0.00    -0.031 A 
ATOM      3  C3  DEN d   1       3.909  -6.000  -6.000  0.00  0.00     0.027 A 
ATOM      4  C4  DEN d   1       5.590  -5.638  -4.077  0.00  0.00     0.027 A 
ATOM      5  C5  DEN d   1       5.725  -5.250  -2.762  0.00  0.00    -0.003 A 
ATOM      6  C6  DEN d   1       4.656  -4.846  -2.007  0.00  0.00     0.001 A 
ATOM      7  C7  DEN d   1       3.398  -4.864  -2.547  0.00  0.00     0.017 A 
ATOM      8  C8  DEN d   1       3.255  -5.246  -3.874  0.00  0.00    -0.094 A 
ATOM      9  C9  DEN d   1       4.346  -5.663  -4.618  0.00  0.00    -0.072 A 
ENDROOT
TORSDOF 0
ENDMDL
