MODEL 1
REMARK minimizedAffinity 2.30446053
REMARK minimizedRMSD -1
REMARK  0 active torsions:
REMARK  status: ('A' for Active; 'I' for Inactive)
ROOT
ATOM      1  C1  DEN d   1       3.818  -5.838  -1.917  0.00  0.00     0.130 A 
ATOM      2  C2  DEN d   1       2.361  -5.746  -1.896  0.00  0.00    -0.031 A 
ATOM      3  C3  DEN d   1       1.883  -5.757  -3.293  0.00  0.00     0.027 A 
ATOM      4  C4  DEN d   1       3.249  -5.912  -5.475  0.00  0.00     0.027 A 
ATOM      5  C5  DEN d   1       4.519  -5.997  -6.000  0.00  0.00    -0.003 A 
ATOM      6  C6  DEN d   1       5.638  -6.000  -5.209  0.00  0.00     0.001 A 
ATOM      7  C7  DEN d   1       5.505  -5.963  -3.846  0.00  0.00     0.017 A 
ATOM      8  C8  DEN d   1       4.228  -5.870  -3.309  0.00  0.00    -0.094 A 
ATOM      9  C9  DEN d   1       3.109  -5.881  -4.125  0.00  0.00    -0.072 A 
ENDROOT
TORSDOF 0
ENDMDL
