MODEL 1
REMARK minimizedAffinity 4.08105659
REMARK minimizedRMSD -1
REMARK  0 active torsions:
REMARK  status: ('A' for Active; 'I' for Inactive)
ROOT
ATOM      1  C1  DEN d   1       2.624  -5.081  -5.113  0.00  0.00     0.130 A 
ATOM      2  C2  DEN d   1       3.777  -5.206  -6.000  0.00  0.00    -0.031 A 
ATOM      3  C3  DEN d   1       4.944  -5.587  -5.180  0.00  0.00     0.027 A 
ATOM      4  C4  DEN d   1       5.076  -5.997  -2.637  0.00  0.00     0.027 A 
ATOM      5  C5  DEN d   1       4.358  -5.999  -1.461  0.00  0.00    -0.003 A 
ATOM      6  C6  DEN d   1       3.031  -5.665  -1.416  0.00  0.00     0.001 A 
ATOM      7  C7  DEN d   1       2.368  -5.359  -2.575  0.00  0.00     0.017 A 
ATOM      8  C8  DEN d   1       3.087  -5.347  -3.763  0.00  0.00    -0.094 A 
ATOM      9  C9  DEN d   1       4.426  -5.699  -3.790  0.00  0.00    -0.072 A 
ENDROOT
TORSDOF 0
ENDMDL
