MODEL 1
REMARK minimizedAffinity -1.95823324
REMARK minimizedRMSD -1
REMARK  0 active torsions:
REMARK  status: ('A' for Active; 'I' for Inactive)
ROOT
ATOM      1  C1  DEN d   1       4.584  -5.230  -5.782  0.00  0.00     0.130 A 
ATOM      2  C2  DEN d   1       3.140  -5.200  -5.998  0.00  0.00    -0.031 A 
ATOM      3  C3  DEN d   1       2.479  -5.448  -4.701  0.00  0.00     0.027 A 
ATOM      4  C4  DEN d   1       3.545  -5.870  -2.391  0.00  0.00     0.027 A 
ATOM      5  C5  DEN d   1       4.736  -6.000  -1.711  0.00  0.00    -0.003 A 
ATOM      6  C6  DEN d   1       5.949  -5.917  -2.341  0.00  0.00     0.001 A 
ATOM      7  C7  DEN d   1       6.000  -5.652  -3.684  0.00  0.00     0.017 A 
ATOM      8  C8  DEN d   1       4.803  -5.527  -4.378  0.00  0.00    -0.094 A 
ATOM      9  C9  DEN d   1       3.587  -5.603  -3.721  0.00  0.00    -0.072 A 
ENDROOT
TORSDOF 0
ENDMDL
