MODEL 1
REMARK minimizedAffinity -0.771036685
REMARK minimizedRMSD -1
REMARK  0 active torsions:
REMARK  status: ('A' for Active; 'I' for Inactive)
ROOT
ATOM      1  C1  DEN d   1       2.258  -5.988  -5.999  0.00  0.00     0.130 A 
ATOM      2  C2  DEN d   1       1.244  -5.777  -4.969  0.00  0.00    -0.031 A 
ATOM      3  C3  DEN d   1       1.920  -5.260  -3.762  0.00  0.00     0.027 A 
ATOM      4  C4  DEN d   1       4.423  -4.762  -3.392  0.00  0.00     0.027 A 
ATOM      5  C5  DEN d   1       5.672  -4.794  -3.973  0.00  0.00    -0.003 A 
ATOM      6  C6  DEN d   1       5.873  -5.254  -5.247  0.00  0.00     0.001 A 
ATOM      7  C7  DEN d   1       4.802  -5.659  -6.000  0.00  0.00     0.017 A 
ATOM      8  C8  DEN d   1       3.541  -5.637  -5.418  0.00  0.00    -0.094 A 
ATOM      9  C9  DEN d   1       3.357  -5.157  -4.133  0.00  0.00    -0.072 A 
ENDROOT
TORSDOF 0
ENDMDL
