MODEL 1
REMARK minimizedAffinity -0.672274351
REMARK minimizedRMSD -1
REMARK  0 active torsions:
REMARK  status: ('A' for Active; 'I' for Inactive)
ROOT
ATOM      1  C1  DEN d   1      -4.545   1.873  -5.656  0.00  0.00     0.130 A 
ATOM      2  C2  DEN d   1      -3.099   1.676  -5.703  0.00  0.00    -0.031 A 
ATOM      3  C3  DEN d   1      -2.462   3.002  -5.842  0.00  0.00     0.027 A 
ATOM      4  C4  DEN d   1      -3.570   5.327  -5.983  0.00  0.00     0.027 A 
ATOM      5  C5  DEN d   1      -4.772   5.998  -5.997  0.00  0.00    -0.003 A 
ATOM      6  C6  DEN d   1      -5.975   5.345  -5.934  0.00  0.00     0.001 A 
ATOM      7  C7  DEN d   1      -6.000   3.981  -5.807  0.00  0.00     0.017 A 
ATOM      8  C8  DEN d   1      -4.792   3.296  -5.799  0.00  0.00    -0.094 A 
ATOM      9  C9  DEN d   1      -3.587   3.976  -5.852  0.00  0.00    -0.072 A 
ENDROOT
TORSDOF 0
ENDMDL
