MODEL 1
REMARK minimizedAffinity 2.17046785
REMARK minimizedRMSD -1
REMARK  0 active torsions:
REMARK  status: ('A' for Active; 'I' for Inactive)
ROOT
ATOM      1  C1  DEN d   1      -4.886   1.828  -4.759  0.00  0.00     0.130 A 
ATOM      2  C2  DEN d   1      -6.000   2.527  -5.393  0.00  0.00    -0.031 A 
ATOM      3  C3  DEN d   1      -5.477   3.772  -5.991  0.00  0.00     0.027 A 
ATOM      4  C4  DEN d   1      -3.062   4.677  -6.000  0.00  0.00     0.027 A 
ATOM      5  C5  DEN d   1      -1.772   4.439  -5.578  0.00  0.00    -0.003 A 
ATOM      6  C6  DEN d   1      -1.439   3.341  -4.831  0.00  0.00     0.001 A 
ATOM      7  C7  DEN d   1      -2.400   2.415  -4.520  0.00  0.00     0.017 A 
ATOM      8  C8  DEN d   1      -3.703   2.651  -4.936  0.00  0.00    -0.094 A 
ATOM      9  C9  DEN d   1      -4.018   3.761  -5.701  0.00  0.00    -0.072 A 
ENDROOT
TORSDOF 0
ENDMDL
