MODEL 1
REMARK minimizedAffinity -1.09438384
REMARK minimizedRMSD -1
REMARK  0 active torsions:
REMARK  status: ('A' for Active; 'I' for Inactive)
ROOT
ATOM      1  C1  DEN d   1       4.520  -5.223  -2.498  0.00  0.00     0.130 A 
ATOM      2  C2  DEN d   1       5.880  -5.093  -3.014  0.00  0.00    -0.031 A 
ATOM      3  C3  DEN d   1       5.834  -5.294  -4.476  0.00  0.00     0.027 A 
ATOM      4  C4  DEN d   1       3.800  -5.786  -5.984  0.00  0.00     0.027 A 
ATOM      5  C5  DEN d   1       2.440  -5.997  -6.000  0.00  0.00    -0.003 A 
ATOM      6  C6  DEN d   1       1.688  -6.000  -4.855  0.00  0.00     0.001 A 
ATOM      7  C7  DEN d   1       2.286  -5.741  -3.650  0.00  0.00     0.017 A 
ATOM      8  C8  DEN d   1       3.659  -5.534  -3.625  0.00  0.00    -0.094 A 
ATOM      9  C9  DEN d   1       4.399  -5.523  -4.795  0.00  0.00    -0.072 A 
ENDROOT
TORSDOF 0
ENDMDL
