MODEL 1
REMARK minimizedAffinity 2.8914361
REMARK minimizedRMSD -1
REMARK  0 active torsions:
REMARK  status: ('A' for Active; 'I' for Inactive)
ROOT
ATOM      1  C1  DEN d   1       2.305  -5.920  -4.673  0.00  0.00     0.130 A 
ATOM      2  C2  DEN d   1       2.554  -5.360  -5.998  0.00  0.00    -0.031 A 
ATOM      3  C3  DEN d   1       3.908  -4.770  -5.998  0.00  0.00     0.027 A 
ATOM      4  C4  DEN d   1       5.635  -4.673  -4.084  0.00  0.00     0.027 A 
ATOM      5  C5  DEN d   1       5.872  -5.005  -2.769  0.00  0.00    -0.003 A 
ATOM      6  C6  DEN d   1       4.933  -5.630  -1.992  0.00  0.00     0.001 A 
ATOM      7  C7  DEN d   1       3.727  -5.983  -2.538  0.00  0.00     0.017 A 
ATOM      8  C8  DEN d   1       3.477  -5.645  -3.862  0.00  0.00    -0.094 A 
ATOM      9  C9  DEN d   1       4.445  -5.025  -4.634  0.00  0.00    -0.072 A 
ENDROOT
TORSDOF 0
ENDMDL
