MODEL 1
REMARK minimizedAffinity 0.843862593
REMARK minimizedRMSD -1
REMARK  0 active torsions:
REMARK  status: ('A' for Active; 'I' for Inactive)
ROOT
ATOM      1  C1  DEN d   1      -2.247   2.239  -4.888  0.00  0.00     0.130 A 
ATOM      2  C2  DEN d   1      -1.392   3.283  -5.445  0.00  0.00    -0.031 A 
ATOM      3  C3  DEN d   1      -2.264   4.348  -5.982  0.00  0.00     0.027 A 
ATOM      4  C4  DEN d   1      -4.839   4.481  -6.000  0.00  0.00     0.027 A 
ATOM      5  C5  DEN d   1      -6.000   3.826  -5.651  0.00  0.00    -0.003 A 
ATOM      6  C6  DEN d   1      -5.991   2.591  -5.060  0.00  0.00     0.001 A 
ATOM      7  C7  DEN d   1      -4.797   1.991  -4.757  0.00  0.00     0.017 A 
ATOM      8  C8  DEN d   1      -3.623   2.642  -5.112  0.00  0.00    -0.094 A 
ATOM      9  C9  DEN d   1      -3.653   3.896  -5.698  0.00  0.00    -0.072 A 
ENDROOT
TORSDOF 0
ENDMDL
