MODEL 1
REMARK minimizedAffinity -0.538418829
REMARK minimizedRMSD -1
REMARK  0 active torsions:
REMARK  status: ('A' for Active; 'I' for Inactive)
ROOT
ATOM      1  C1  DEN d   1       4.081  -5.337  -1.920  0.00  0.00     0.130 A 
ATOM      2  C2  DEN d   1       2.680  -5.132  -1.563  0.00  0.00    -0.031 A 
ATOM      3  C3  DEN d   1       1.872  -5.261  -2.792  0.00  0.00     0.027 A 
ATOM      4  C4  DEN d   1       2.650  -5.759  -5.200  0.00  0.00     0.027 A 
ATOM      5  C5  DEN d   1       3.747  -5.998  -5.999  0.00  0.00    -0.003 A 
ATOM      6  C6  DEN d   1       5.024  -5.999  -5.504  0.00  0.00     0.001 A 
ATOM      7  C7  DEN d   1       5.233  -5.802  -4.165  0.00  0.00     0.017 A 
ATOM      8  C8  DEN d   1       4.133  -5.553  -3.354  0.00  0.00    -0.094 A 
ATOM      9  C9  DEN d   1       2.849  -5.568  -3.871  0.00  0.00    -0.072 A 
ENDROOT
TORSDOF 0
ENDMDL
