MODEL 1
REMARK minimizedAffinity 0.804862022
REMARK minimizedRMSD -1
REMARK  0 active torsions:
REMARK  status: ('A' for Active; 'I' for Inactive)
ROOT
ATOM      1  C1  DEN d   1       2.096   3.854   0.969  0.00  0.00     0.130 A 
ATOM      2  C2  DEN d   1       2.851   2.700   1.450  0.00  0.00    -0.031 A 
ATOM      3  C3  DEN d   1       1.918   1.561   1.567  0.00  0.00     0.027 A 
ATOM      4  C4  DEN d   1      -0.607   1.473   1.049  0.00  0.00     0.027 A 
ATOM      5  C5  DEN d   1      -1.693   2.207   0.626  0.00  0.00    -0.003 A 
ATOM      6  C6  DEN d   1      -1.599   3.540   0.323  0.00  0.00     0.001 A 
ATOM      7  C7  DEN d   1      -0.385   4.169   0.395  0.00  0.00     0.017 A 
ATOM      8  C8  DEN d   1       0.713   3.436   0.828  0.00  0.00    -0.094 A 
ATOM      9  C9  DEN d   1       0.601   2.087   1.118  0.00  0.00    -0.072 A 
ENDROOT
TORSDOF 0
ENDMDL
