MODEL 1
REMARK minimizedAffinity -3.77811027
REMARK minimizedRMSD -1
REMARK  0 active torsions:
REMARK  status: ('A' for Active; 'I' for Inactive)
ROOT
ATOM      1  C1  DEN d   1       1.892  -5.790  -4.007  0.00  0.00     0.130 A 
ATOM      2  C2  DEN d   1       1.800  -5.995  -5.450  0.00  0.00    -0.031 A 
ATOM      3  C3  DEN d   1       3.171  -5.999  -5.999  0.00  0.00     0.027 A 
ATOM      4  C4  DEN d   1       5.415  -5.714  -4.760  0.00  0.00     0.027 A 
ATOM      5  C5  DEN d   1       6.000  -5.502  -3.531  0.00  0.00    -0.003 A 
ATOM      6  C6  DEN d   1       5.261  -5.338  -2.390  0.00  0.00     0.001 A 
ATOM      7  C7  DEN d   1       3.896  -5.429  -2.446  0.00  0.00     0.017 A 
ATOM      8  C8  DEN d   1       3.298  -5.636  -3.683  0.00  0.00    -0.094 A 
ATOM      9  C9  DEN d   1       4.063  -5.811  -4.823  0.00  0.00    -0.072 A 
ENDROOT
TORSDOF 0
ENDMDL
