MODEL 1
REMARK minimizedAffinity -2.29266834
REMARK minimizedRMSD -1
REMARK  0 active torsions:
REMARK  status: ('A' for Active; 'I' for Inactive)
ROOT
ATOM      1  C1  DEN d   1      -3.187   1.489  -4.870  0.00  0.00     0.130 A 
ATOM      2  C2  DEN d   1      -3.800   2.652  -5.508  0.00  0.00    -0.031 A 
ATOM      3  C3  DEN d   1      -2.717   3.526  -6.000  0.00  0.00     0.027 A 
ATOM      4  C4  DEN d   1      -0.165   3.193  -5.843  0.00  0.00     0.027 A 
ATOM      5  C5  DEN d   1       0.833   2.363  -5.380  0.00  0.00    -0.003 A 
ATOM      6  C6  DEN d   1       0.563   1.211  -4.691  0.00  0.00     0.001 A 
ATOM      7  C7  DEN d   1      -0.737   0.833  -4.484  0.00  0.00     0.017 A 
ATOM      8  C8  DEN d   1      -1.748   1.668  -4.941  0.00  0.00    -0.094 A 
ATOM      9  C9  DEN d   1      -1.455   2.823  -5.646  0.00  0.00    -0.072 A 
ENDROOT
TORSDOF 0
ENDMDL
