MODEL 1
REMARK minimizedAffinity 1.65256464
REMARK minimizedRMSD -1
REMARK  0 active torsions:
REMARK  status: ('A' for Active; 'I' for Inactive)
ROOT
ATOM      1  C1  DEN d   1       1.836   3.417   2.563  0.00  0.00     0.130 A 
ATOM      2  C2  DEN d   1       0.384   3.546   2.469  0.00  0.00    -0.031 A 
ATOM      3  C3  DEN d   1      -0.079   2.692   1.356  0.00  0.00     0.027 A 
ATOM      4  C4  DEN d   1       1.303   1.187  -0.217  0.00  0.00     0.027 A 
ATOM      5  C5  DEN d   1       2.574   0.759  -0.532  0.00  0.00    -0.003 A 
ATOM      6  C6  DEN d   1       3.682   1.210   0.135  0.00  0.00     0.001 A 
ATOM      7  C7  DEN d   1       3.537   2.082   1.182  0.00  0.00     0.017 A 
ATOM      8  C8  DEN d   1       2.259   2.523   1.500  0.00  0.00    -0.094 A 
ATOM      9  C9  DEN d   1       1.150   2.046   0.822  0.00  0.00    -0.072 A 
ENDROOT
TORSDOF 0
ENDMDL
