MODEL 1
REMARK minimizedAffinity -2.13226652
REMARK minimizedRMSD -1
REMARK  1 active torsions:
REMARK  status: ('A' for Active; 'I' for Inactive)
REMARK    1  A    between atoms: C1_2  and  C2_3 
ROOT
ATOM      1  C2  UNL d   1      -3.922   2.349  -2.361  0.00  0.00    -0.081 A 
ATOM      2  C3  UNL d   1      -5.317   2.471  -2.368  0.00  0.00     0.006 A 
ATOM      3  C4  UNL d   1      -5.988   2.867  -3.527  0.00  0.00     0.002 A 
ATOM      4  C5  UNL d   1      -5.277   3.139  -4.701  0.00  0.00    -0.080 A 
ATOM      5  C6  UNL d   1      -5.987   3.536  -5.961  0.00  0.00     0.076 C 
ATOM      6  C7  UNL d   1      -3.882   3.034  -4.690  0.00  0.00     0.002 A 
ATOM      7  C8  UNL d   1      -3.210   2.639  -3.531  0.00  0.00     0.006 A 
ENDROOT
BRANCH   1   8
ATOM      8  C1  UNL d   1      -3.201   1.860  -1.131  0.00  0.00     0.054 C 
ATOM      9  C   UNL d   1      -3.768   0.532  -0.649  0.00  0.00     0.018 C 
ENDBRANCH   1   8
TORSDOF 1
ENDMDL
