MODEL 1
REMARK minimizedAffinity 7.99168682
REMARK minimizedRMSD -1
REMARK  1 active torsions:
REMARK  status: ('A' for Active; 'I' for Inactive)
REMARK    1  A    between atoms: C1_2  and  C2_3 
ROOT
ATOM      1  C2  UNL d   1       0.891   4.945  -1.120  0.00  0.00    -0.081 A 
ATOM      2  C3  UNL d   1       1.514   4.034  -0.258  0.00  0.00     0.006 A 
ATOM      3  C4  UNL d   1       0.764   3.063   0.409  0.00  0.00     0.002 A 
ATOM      4  C5  UNL d   1      -0.620   2.982   0.220  0.00  0.00    -0.080 A 
ATOM      5  C6  UNL d   1      -1.433   1.925   0.907  0.00  0.00     0.076 C 
ATOM      6  C7  UNL d   1      -1.245   3.903  -0.627  0.00  0.00     0.002 A 
ATOM      7  C8  UNL d   1      -0.495   4.874  -1.294  0.00  0.00     0.006 A 
ENDROOT
BRANCH   1   8
ATOM      8  C1  UNL d   1       1.706   5.952  -1.890  0.00  0.00     0.054 C 
ATOM      9  C   UNL d   1       1.340   5.946  -3.367  0.00  0.00     0.018 C 
ENDBRANCH   1   8
TORSDOF 1
ENDMDL
