MODEL 1
REMARK minimizedAffinity 0.721216083
REMARK minimizedRMSD -1
REMARK  1 active torsions:
REMARK  status: ('A' for Active; 'I' for Inactive)
REMARK    1  A    between atoms: C1_2  and  C2_3 
ROOT
ATOM      1  C2  UNL d   1      -4.885   0.714  -5.738  0.00  0.00    -0.081 A 
ATOM      2  C3  UNL d   1      -5.982   1.580  -5.647  0.00  0.00     0.006 A 
ATOM      3  C4  UNL d   1      -5.800   2.963  -5.718  0.00  0.00     0.002 A 
ATOM      4  C5  UNL d   1      -4.521   3.503  -5.890  0.00  0.00    -0.080 A 
ATOM      5  C6  UNL d   1      -4.316   4.985  -5.999  0.00  0.00     0.076 C 
ATOM      6  C7  UNL d   1      -3.423   2.639  -5.964  0.00  0.00     0.002 A 
ATOM      7  C8  UNL d   1      -3.604   1.256  -5.891  0.00  0.00     0.006 A 
ENDROOT
BRANCH   1   8
ATOM      8  C1  UNL d   1      -5.085  -0.780  -5.726  0.00  0.00     0.054 C 
ATOM      9  C   UNL d   1      -3.774  -1.515  -5.969  0.00  0.00     0.018 C 
ENDBRANCH   1   8
TORSDOF 1
ENDMDL
