MODEL 1
REMARK minimizedAffinity 9.75386333
REMARK minimizedRMSD -1
REMARK  1 active torsions:
REMARK  status: ('A' for Active; 'I' for Inactive)
REMARK    1  A    between atoms: C1_2  and  C2_3 
ROOT
ATOM      1  C2  UNL d   1       1.921  -3.323  -0.219  0.00  0.00    -0.081 A 
ATOM      2  C3  UNL d   1       1.526  -4.664  -0.292  0.00  0.00     0.006 A 
ATOM      3  C4  UNL d   1       0.299  -5.010  -0.863  0.00  0.00     0.002 A 
ATOM      4  C5  UNL d   1      -0.549  -4.023  -1.376  0.00  0.00    -0.080 A 
ATOM      5  C6  UNL d   1      -1.855  -4.384  -2.019  0.00  0.00     0.076 C 
ATOM      6  C7  UNL d   1      -0.162  -2.682  -1.287  0.00  0.00     0.002 A 
ATOM      7  C8  UNL d   1       1.064  -2.335  -0.716  0.00  0.00     0.006 A 
ENDROOT
BRANCH   1   8
ATOM      8  C1  UNL d   1       3.272  -2.951   0.338  0.00  0.00     0.054 C 
ATOM      9  C   UNL d   1       3.582  -1.480   0.102  0.00  0.00     0.018 C 
ENDBRANCH   1   8
TORSDOF 1
ENDMDL
