MODEL 1
REMARK minimizedAffinity 3.91939473
REMARK minimizedRMSD -1
REMARK  1 active torsions:
REMARK  status: ('A' for Active; 'I' for Inactive)
REMARK    1  A    between atoms: C1_2  and  C2_3 
ROOT
ATOM      1  C2  UNL d   1       0.478   2.344  -0.185  0.00  0.00    -0.081 A 
ATOM      2  C3  UNL d   1       0.500   1.380  -1.201  0.00  0.00     0.006 A 
ATOM      3  C4  UNL d   1       1.254   0.213  -1.053  0.00  0.00     0.002 A 
ATOM      4  C5  UNL d   1       1.991  -0.012   0.114  0.00  0.00    -0.080 A 
ATOM      5  C6  UNL d   1       2.781  -1.275   0.298  0.00  0.00     0.076 C 
ATOM      6  C7  UNL d   1       1.984   0.959   1.121  0.00  0.00     0.002 A 
ATOM      7  C8  UNL d   1       1.231   2.126   0.974  0.00  0.00     0.006 A 
ENDROOT
BRANCH   1   8
ATOM      8  C1  UNL d   1      -0.385   3.573  -0.314  0.00  0.00     0.054 C 
ATOM      9  C   UNL d   1      -1.277   3.496  -1.545  0.00  0.00     0.018 C 
ENDBRANCH   1   8
TORSDOF 1
ENDMDL
