MODEL 1
REMARK minimizedAffinity 12.6480331
REMARK minimizedRMSD -1
REMARK  1 active torsions:
REMARK  status: ('A' for Active; 'I' for Inactive)
REMARK    1  A    between atoms: C1_2  and  C2_3 
ROOT
ATOM      1  C2  UNL d   1       0.186   3.245   1.222  0.00  0.00    -0.081 A 
ATOM      2  C3  UNL d   1       1.474   2.989   1.709  0.00  0.00     0.006 A 
ATOM      3  C4  UNL d   1       1.658   2.181   2.834  0.00  0.00     0.002 A 
ATOM      4  C5  UNL d   1       0.559   1.610   3.485  0.00  0.00    -0.080 A 
ATOM      5  C6  UNL d   1       0.745   0.716   4.675  0.00  0.00     0.076 C 
ATOM      6  C7  UNL d   1      -0.728   1.880   3.009  0.00  0.00     0.002 A 
ATOM      7  C8  UNL d   1      -0.913   2.688   1.885  0.00  0.00     0.006 A 
ENDROOT
BRANCH   1   8
ATOM      8  C1  UNL d   1      -0.012   4.063  -0.028  0.00  0.00     0.054 C 
ATOM      9  C   UNL d   1       1.310   4.613  -0.545  0.00  0.00     0.018 C 
ENDBRANCH   1   8
TORSDOF 1
ENDMDL
