MODEL 1
REMARK minimizedAffinity 6.61139154
REMARK minimizedRMSD -1
REMARK  1 active torsions:
REMARK  status: ('A' for Active; 'I' for Inactive)
REMARK    1  A    between atoms: C1_2  and  C2_3 
ROOT
ATOM      1  C2  UNL d   1      -2.870   4.033  -2.244  0.00  0.00    -0.081 A 
ATOM      2  C3  UNL d   1      -2.610   5.392  -2.464  0.00  0.00     0.006 A 
ATOM      3  C4  UNL d   1      -1.478   5.994  -1.910  0.00  0.00     0.002 A 
ATOM      4  C5  UNL d   1      -0.583   5.248  -1.135  0.00  0.00    -0.080 A 
ATOM      5  C6  UNL d   1       0.651   5.876  -0.560  0.00  0.00     0.076 C 
ATOM      6  C7  UNL d   1      -0.852   3.895  -0.902  0.00  0.00     0.002 A 
ATOM      7  C8  UNL d   1      -1.984   3.292  -1.454  0.00  0.00     0.006 A 
ENDROOT
BRANCH   1   8
ATOM      8  C1  UNL d   1      -4.055   3.365  -2.893  0.00  0.00     0.054 C 
ATOM      9  C   UNL d   1      -3.917   3.344  -4.409  0.00  0.00     0.018 C 
ENDBRANCH   1   8
TORSDOF 1
ENDMDL
