MODEL 1
REMARK minimizedAffinity -1.58352327
REMARK minimizedRMSD -1
REMARK  0 active torsions:
REMARK  status: ('A' for Active; 'I' for Inactive)
ROOT
ATOM      1  C   UNL d   1      -0.047   1.277   0.503  0.00  0.00     0.023 A 
ATOM      2  C1  UNL d   1      -1.215   1.087  -0.236  0.00  0.00     0.003 A 
ATOM      3  C2  UNL d   1      -1.485  -0.157  -0.811  0.00  0.00     0.048 A 
ATOM      4  C3  UNL d   1      -0.582  -1.206  -0.643  0.00  0.00     0.023 A 
ATOM      5  C4  UNL d   1       0.588  -1.021   0.095  0.00  0.00     0.048 A 
ATOM      6  C5  UNL d   1       0.853   0.224   0.668  0.00  0.00     0.003 A 
ATOM      7  I   UNL d   1      -0.981  -3.058  -1.499  0.00  0.00    -0.146 I 
ENDROOT
TORSDOF 0
ENDMDL
