MODEL 1
REMARK minimizedAffinity -0.600816309
REMARK minimizedRMSD -1
REMARK  0 active torsions:
REMARK  status: ('A' for Active; 'I' for Inactive)
ROOT
ATOM      1  C   UNL d   1      -1.780  -3.972  -2.958  0.00  0.00     0.023 A 
ATOM      2  C1  UNL d   1      -0.562  -3.353  -3.243  0.00  0.00     0.003 A 
ATOM      3  C2  UNL d   1       0.066  -2.567  -2.275  0.00  0.00     0.048 A 
ATOM      4  C3  UNL d   1      -0.527  -2.406  -1.023  0.00  0.00     0.023 A 
ATOM      5  C4  UNL d   1      -1.745  -3.024  -0.734  0.00  0.00     0.048 A 
ATOM      6  C5  UNL d   1      -2.370  -3.808  -1.705  0.00  0.00     0.003 A 
ATOM      7  I   UNL d   1       0.406  -1.237   0.420  0.00  0.00    -0.146 I 
ENDROOT
TORSDOF 0
ENDMDL
