MODEL 1
REMARK minimizedAffinity -4.08119059
REMARK minimizedRMSD -1
REMARK  0 active torsions:
REMARK  status: ('A' for Active; 'I' for Inactive)
ROOT
ATOM      1  C   UNL d   1       1.306   3.226   0.633  0.00  0.00     0.023 A 
ATOM      2  C1  UNL d   1       2.207   2.168   0.755  0.00  0.00     0.003 A 
ATOM      3  C2  UNL d   1       1.790   0.861   0.495  0.00  0.00     0.048 A 
ATOM      4  C3  UNL d   1       0.471   0.619   0.112  0.00  0.00     0.023 A 
ATOM      5  C4  UNL d   1      -0.433   1.674  -0.012  0.00  0.00     0.048 A 
ATOM      6  C5  UNL d   1      -0.012   2.979   0.250  0.00  0.00     0.003 A 
ATOM      7  I   UNL d   1      -0.151  -1.326  -0.276  0.00  0.00    -0.146 I 
ENDROOT
TORSDOF 0
ENDMDL
