MODEL 1
REMARK minimizedAffinity -2.64321899
REMARK minimizedRMSD -1
REMARK  0 active torsions:
REMARK  status: ('A' for Active; 'I' for Inactive)
ROOT
ATOM      1  C   UNL d   1      -0.382  -1.892  -0.043  0.00  0.00     0.023 A 
ATOM      2  C1  UNL d   1       0.799  -1.219  -0.358  0.00  0.00     0.003 A 
ATOM      3  C2  UNL d   1       0.876   0.167  -0.208  0.00  0.00     0.048 A 
ATOM      4  C3  UNL d   1      -0.232   0.875   0.258  0.00  0.00     0.023 A 
ATOM      5  C4  UNL d   1      -1.415   0.206   0.575  0.00  0.00     0.048 A 
ATOM      6  C5  UNL d   1      -1.488  -1.180   0.423  0.00  0.00     0.003 A 
ATOM      7  I   UNL d   1      -0.119   2.938   0.482  0.00  0.00    -0.146 I 
ENDROOT
TORSDOF 0
ENDMDL
