MODEL 1
REMARK minimizedAffinity -3.03405738
REMARK minimizedRMSD -1
REMARK  0 active torsions:
REMARK  status: ('A' for Active; 'I' for Inactive)
ROOT
ATOM      1  C   UNL d   1       0.074   3.627   0.308  0.00  0.00     0.023 A 
ATOM      2  C1  UNL d   1       0.855   2.885  -0.579  0.00  0.00     0.003 A 
ATOM      3  C2  UNL d   1       0.678   1.504  -0.681  0.00  0.00     0.048 A 
ATOM      4  C3  UNL d   1      -0.283   0.870   0.106  0.00  0.00     0.023 A 
ATOM      5  C4  UNL d   1      -1.067   1.608   0.995  0.00  0.00     0.048 A 
ATOM      6  C5  UNL d   1      -0.886   2.989   1.094  0.00  0.00     0.003 A 
ATOM      7  I   UNL d   1      -0.549  -1.186  -0.044  0.00  0.00    -0.146 I 
ENDROOT
TORSDOF 0
ENDMDL
