MODEL 1
REMARK minimizedAffinity -3.92547154
REMARK minimizedRMSD -1
REMARK  0 active torsions:
REMARK  status: ('A' for Active; 'I' for Inactive)
ROOT
ATOM      1  C   UNL d   1      -0.965   2.528   0.139  0.00  0.00     0.023 A 
ATOM      2  C1  UNL d   1      -1.242   1.594   1.138  0.00  0.00     0.003 A 
ATOM      3  C2  UNL d   1      -1.127   0.228   0.869  0.00  0.00     0.048 A 
ATOM      4  C3  UNL d   1      -0.735  -0.197  -0.400  0.00  0.00     0.023 A 
ATOM      5  C4  UNL d   1      -0.456   0.734  -1.402  0.00  0.00     0.048 A 
ATOM      6  C5  UNL d   1      -0.573   2.099  -1.129  0.00  0.00     0.003 A 
ATOM      7  I   UNL d   1      -0.564  -2.229  -0.801  0.00  0.00    -0.146 I 
ENDROOT
TORSDOF 0
ENDMDL
