MODEL 1
REMARK minimizedAffinity -4.3322401
REMARK minimizedRMSD -1
REMARK  0 active torsions:
REMARK  status: ('A' for Active; 'I' for Inactive)
ROOT
ATOM      1  C   UNL d   1       0.275   3.318  -0.066  0.00  0.00     0.023 A 
ATOM      2  C1  UNL d   1       1.378   2.532  -0.400  0.00  0.00     0.003 A 
ATOM      3  C2  UNL d   1       1.282   1.139  -0.362  0.00  0.00     0.048 A 
ATOM      4  C3  UNL d   1       0.080   0.539   0.010  0.00  0.00     0.023 A 
ATOM      5  C4  UNL d   1      -1.027   1.322   0.345  0.00  0.00     0.048 A 
ATOM      6  C5  UNL d   1      -0.926   2.714   0.306  0.00  0.00     0.003 A 
ATOM      7  I   UNL d   1      -0.066  -1.533   0.068  0.00  0.00    -0.146 I 
ENDROOT
TORSDOF 0
ENDMDL
