MODEL 1
REMARK minimizedAffinity -5.01271486
REMARK minimizedRMSD -1
REMARK  0 active torsions:
REMARK  status: ('A' for Active; 'I' for Inactive)
ROOT
ATOM      1  C   UNL d   1       1.539   3.002   0.957  0.00  0.00     0.023 A 
ATOM      2  C1  UNL d   1       2.484   2.007   0.705  0.00  0.00     0.003 A 
ATOM      3  C2  UNL d   1       2.068   0.720   0.356  0.00  0.00     0.048 A 
ATOM      4  C3  UNL d   1       0.707   0.435   0.261  0.00  0.00     0.023 A 
ATOM      5  C4  UNL d   1      -0.242   1.428   0.511  0.00  0.00     0.048 A 
ATOM      6  C5  UNL d   1       0.178   2.713   0.860  0.00  0.00     0.003 A 
ATOM      7  I   UNL d   1       0.086  -1.479  -0.258  0.00  0.00    -0.146 I 
ENDROOT
TORSDOF 0
ENDMDL
