MODEL 1
REMARK minimizedAffinity -1.91670167
REMARK minimizedRMSD -1
REMARK  0 active torsions:
REMARK  status: ('A' for Active; 'I' for Inactive)
ROOT
ATOM      1  C   UNL d   1      -0.350   1.072   0.694  0.00  0.00     0.023 A 
ATOM      2  C1  UNL d   1       0.305  -0.039   1.225  0.00  0.00     0.003 A 
ATOM      3  C2  UNL d   1       0.314  -1.247   0.526  0.00  0.00     0.048 A 
ATOM      4  C3  UNL d   1      -0.334  -1.338  -0.706  0.00  0.00     0.023 A 
ATOM      5  C4  UNL d   1      -0.990  -0.229  -1.242  0.00  0.00     0.048 A 
ATOM      6  C5  UNL d   1      -0.997   0.977  -0.538  0.00  0.00     0.003 A 
ATOM      7  I   UNL d   1      -0.323  -3.135  -1.749  0.00  0.00    -0.146 I 
ENDROOT
TORSDOF 0
ENDMDL
