MODEL 1
REMARK minimizedAffinity -2.52445936
REMARK minimizedRMSD -1
REMARK  0 active torsions:
REMARK  status: ('A' for Active; 'I' for Inactive)
ROOT
ATOM      1  C   UNL d   1       0.052   3.056   0.538  0.00  0.00     0.023 A 
ATOM      2  C1  UNL d   1      -1.096   2.313   0.814  0.00  0.00     0.003 A 
ATOM      3  C2  UNL d   1      -1.188   0.985   0.394  0.00  0.00     0.048 A 
ATOM      4  C3  UNL d   1      -0.127   0.405  -0.301  0.00  0.00     0.023 A 
ATOM      5  C4  UNL d   1       1.024   1.143  -0.578  0.00  0.00     0.048 A 
ATOM      6  C5  UNL d   1       1.111   2.472  -0.157  0.00  0.00     0.003 A 
ATOM      7  I   UNL d   1      -0.261  -1.573  -0.926  0.00  0.00    -0.146 I 
ENDROOT
TORSDOF 0
ENDMDL
