MODEL 1
REMARK minimizedAffinity -5.14474964
REMARK minimizedRMSD -1
REMARK  0 active torsions:
REMARK  status: ('A' for Active; 'I' for Inactive)
ROOT
ATOM      1  C   UNL d   1       1.893   3.265   0.790  0.00  0.00     0.023 A 
ATOM      2  C1  UNL d   1       2.604   2.077   0.956  0.00  0.00     0.003 A 
ATOM      3  C2  UNL d   1       1.998   0.853   0.667  0.00  0.00     0.048 A 
ATOM      4  C3  UNL d   1       0.680   0.824   0.211  0.00  0.00     0.023 A 
ATOM      5  C4  UNL d   1      -0.035   2.011   0.043  0.00  0.00     0.048 A 
ATOM      6  C5  UNL d   1       0.576   3.233   0.334  0.00  0.00     0.003 A 
ATOM      7  I   UNL d   1      -0.225  -0.996  -0.220  0.00  0.00    -0.146 I 
ENDROOT
TORSDOF 0
ENDMDL
