MODEL 1
REMARK minimizedAffinity 5.80325413
REMARK minimizedRMSD -1
REMARK  0 active torsions:
REMARK  status: ('A' for Active; 'I' for Inactive)
ROOT
ATOM      1  C   UNL d   1      -0.498  -4.016  -2.785  0.00  0.00     0.023 A 
ATOM      2  C1  UNL d   1      -1.039  -3.677  -1.544  0.00  0.00     0.003 A 
ATOM      3  C2  UNL d   1      -0.364  -2.787  -0.706  0.00  0.00     0.048 A 
ATOM      4  C3  UNL d   1       0.851  -2.239  -1.115  0.00  0.00     0.023 A 
ATOM      5  C4  UNL d   1       1.396  -2.575  -2.356  0.00  0.00     0.048 A 
ATOM      6  C5  UNL d   1       0.718  -3.466  -3.190  0.00  0.00     0.003 A 
ATOM      7  I   UNL d   1       1.858  -0.914   0.131  0.00  0.00    -0.146 I 
ENDROOT
TORSDOF 0
ENDMDL
