MODEL 1
REMARK minimizedAffinity 9.29712963
REMARK minimizedRMSD -1
REMARK  3 active torsions:
REMARK  status: ('A' for Active; 'I' for Inactive)
REMARK    1  A    between atoms: C3'_2  and  C2'_3 
REMARK    2  A    between atoms: C2'_3  and  C1'_4 
REMARK    3  A    between atoms: C1'_4  and  C1_5 
ROOT
ATOM      1  C1  N4B d   1      -1.037   4.779  -3.781  0.00  0.00    -0.075 A 
ATOM      2  C2  N4B d   1      -1.093   4.297  -5.108  0.00  0.00     0.002 A 
ATOM      3  C3  N4B d   1      -2.122   4.677  -5.933  0.00  0.00     0.002 A 
ATOM      4  C4  N4B d   1      -3.113   5.519  -5.451  0.00  0.00    -0.004 A 
ATOM      5  C5  N4B d   1      -3.039   6.000  -4.177  0.00  0.00     0.002 A 
ATOM      6  C6  N4B d   1      -2.008   5.630  -3.337  0.00  0.00     0.002 A 
ENDROOT
BRANCH   1   7
ATOM      7  C1' N4B d   1       0.022   4.324  -2.815  0.00  0.00     0.057 C 
BRANCH   7   8
ATOM      8  C2' N4B d   1       0.721   3.092  -3.381  0.00  0.00     0.009 C 
BRANCH   8   9
ATOM      9  C3' N4B d   1       1.926   2.689  -2.548  0.00  0.00     0.004 C 
ATOM     10  C4' N4B d   1       3.187   2.602  -3.355  0.00  0.00     0.003 C 
ENDBRANCH   8   9
ENDBRANCH   7   8
ENDBRANCH   1   7
TORSDOF 3
ENDMDL
