MODEL 1
REMARK minimizedAffinity 4.37463379
REMARK minimizedRMSD -1
REMARK  3 active torsions:
REMARK  status: ('A' for Active; 'I' for Inactive)
REMARK    1  A    between atoms: C3'_2  and  C2'_3 
REMARK    2  A    between atoms: C2'_3  and  C1'_4 
REMARK    3  A    between atoms: C1'_4  and  C1_5 
ROOT
ATOM      1  C1  N4B d   1      -4.510  -4.220   3.448  0.00  0.00    -0.075 A 
ATOM      2  C2  N4B d   1      -4.468  -3.306   4.524  0.00  0.00     0.002 A 
ATOM      3  C3  N4B d   1      -4.805  -3.719   5.790  0.00  0.00     0.002 A 
ATOM      4  C4  N4B d   1      -5.203  -5.031   6.000  0.00  0.00    -0.004 A 
ATOM      5  C5  N4B d   1      -5.217  -5.914   4.960  0.00  0.00     0.002 A 
ATOM      6  C6  N4B d   1      -4.877  -5.514   3.684  0.00  0.00     0.002 A 
ENDROOT
BRANCH   1   7
ATOM      7  C1' N4B d   1      -4.234  -3.794   2.032  0.00  0.00     0.057 C 
BRANCH   7   8
ATOM      8  C2' N4B d   1      -3.655  -2.383   2.038  0.00  0.00     0.009 C 
BRANCH   8   9
ATOM      9  C3' N4B d   1      -2.281  -2.329   1.393  0.00  0.00     0.004 C 
ATOM     10  C4' N4B d   1      -1.458  -1.171   1.874  0.00  0.00     0.003 C 
ENDBRANCH   8   9
ENDBRANCH   7   8
ENDBRANCH   1   7
TORSDOF 3
ENDMDL
