MODEL 1
REMARK minimizedAffinity 16.9836922
REMARK minimizedRMSD -1
REMARK  3 active torsions:
REMARK  status: ('A' for Active; 'I' for Inactive)
REMARK    1  A    between atoms: C3'_2  and  C2'_3 
REMARK    2  A    between atoms: C2'_3  and  C1'_4 
REMARK    3  A    between atoms: C1'_4  and  C1_5 
ROOT
ATOM      1  C1  N4B d   1      -2.361  -2.336   0.751  0.00  0.00    -0.075 A 
ATOM      2  C2  N4B d   1      -1.692  -3.535   0.423  0.00  0.00     0.002 A 
ATOM      3  C3  N4B d   1      -2.321  -4.743   0.600  0.00  0.00     0.002 A 
ATOM      4  C4  N4B d   1      -3.606  -4.777   1.121  0.00  0.00    -0.004 A 
ATOM      5  C5  N4B d   1      -4.255  -3.612   1.412  0.00  0.00     0.002 A 
ATOM      6  C6  N4B d   1      -3.636  -2.391   1.234  0.00  0.00     0.002 A 
ENDROOT
BRANCH   1   7
ATOM      7  C1' N4B d   1      -1.683  -0.996   0.655  0.00  0.00     0.057 C 
BRANCH   7   8
ATOM      8  C2' N4B d   1      -0.632  -0.886   1.756  0.00  0.00     0.009 C 
BRANCH   8   9
ATOM      9  C3' N4B d   1      -1.026   0.127   2.817  0.00  0.00     0.004 C 
ATOM     10  C4' N4B d   1      -1.878   1.235   2.275  0.00  0.00     0.003 C 
ENDBRANCH   8   9
ENDBRANCH   7   8
ENDBRANCH   1   7
TORSDOF 3
ENDMDL
