MODEL 1
REMARK minimizedAffinity 21.9455433
REMARK minimizedRMSD -1
REMARK  3 active torsions:
REMARK  status: ('A' for Active; 'I' for Inactive)
REMARK    1  A    between atoms: C3'_2  and  C2'_3 
REMARK    2  A    between atoms: C2'_3  and  C1'_4 
REMARK    3  A    between atoms: C1'_4  and  C1_5 
ROOT
ATOM      1  C1  N4B d   1      -1.707  -4.559  -3.198  0.00  0.00    -0.075 A 
ATOM      2  C2  N4B d   1      -2.766  -5.301  -3.767  0.00  0.00     0.002 A 
ATOM      3  C3  N4B d   1      -2.565  -5.999  -4.932  0.00  0.00     0.002 A 
ATOM      4  C4  N4B d   1      -1.326  -5.956  -5.554  0.00  0.00    -0.004 A 
ATOM      5  C5  N4B d   1      -0.302  -5.258  -4.984  0.00  0.00     0.002 A 
ATOM      6  C6  N4B d   1      -0.488  -4.554  -3.811  0.00  0.00     0.002 A 
ENDROOT
BRANCH   1   7
ATOM      7  C1' N4B d   1      -1.902  -3.710  -1.972  0.00  0.00     0.057 C 
BRANCH   7   8
ATOM      8  C2' N4B d   1      -1.842  -2.237  -2.367  0.00  0.00     0.009 C 
BRANCH   8   9
ATOM      9  C3' N4B d   1      -2.730  -1.375  -1.486  0.00  0.00     0.004 C 
ATOM     10  C4' N4B d   1      -2.149  -1.148  -0.122  0.00  0.00     0.003 C 
ENDBRANCH   8   9
ENDBRANCH   7   8
ENDBRANCH   1   7
TORSDOF 3
ENDMDL
