MODEL 1
REMARK minimizedAffinity 16.337923
REMARK minimizedRMSD -1
REMARK  3 active torsions:
REMARK  status: ('A' for Active; 'I' for Inactive)
REMARK    1  A    between atoms: C3'_2  and  C2'_3 
REMARK    2  A    between atoms: C2'_3  and  C1'_4 
REMARK    3  A    between atoms: C1'_4  and  C1_5 
ROOT
ATOM      1  C1  N4B d   1      -4.101  -0.612  -0.215  0.00  0.00    -0.075 A 
ATOM      2  C2  N4B d   1      -4.784  -1.009  -1.386  0.00  0.00     0.002 A 
ATOM      3  C3  N4B d   1      -4.179  -1.859  -2.279  0.00  0.00     0.002 A 
ATOM      4  C4  N4B d   1      -2.891  -2.308  -2.033  0.00  0.00    -0.004 A 
ATOM      5  C5  N4B d   1      -2.247  -1.941  -0.888  0.00  0.00     0.002 A 
ATOM      6  C6  N4B d   1      -2.844  -1.090   0.021  0.00  0.00     0.002 A 
ENDROOT
BRANCH   1   7
ATOM      7  C1' N4B d   1      -4.687   0.384   0.748  0.00  0.00     0.057 C 
BRANCH   7   8
ATOM      8  C2' N4B d   1      -5.038   1.663  -0.006  0.00  0.00     0.009 C 
BRANCH   8   9
ATOM      9  C3' N4B d   1      -6.000   2.539   0.778  0.00  0.00     0.004 C 
ATOM     10  C4' N4B d   1      -5.999   2.233   2.246  0.00  0.00     0.003 C 
ENDBRANCH   8   9
ENDBRANCH   7   8
ENDBRANCH   1   7
TORSDOF 3
ENDMDL
