MODEL 1
REMARK minimizedAffinity 10.2417631
REMARK minimizedRMSD -1
REMARK  3 active torsions:
REMARK  status: ('A' for Active; 'I' for Inactive)
REMARK    1  A    between atoms: C3'_2  and  C2'_3 
REMARK    2  A    between atoms: C2'_3  and  C1'_4 
REMARK    3  A    between atoms: C1'_4  and  C1_5 
ROOT
ATOM      1  C1  N4B d   1       3.560   2.566  -2.677  0.00  0.00    -0.075 A 
ATOM      2  C2  N4B d   1       4.546   3.453  -2.193  0.00  0.00     0.002 A 
ATOM      3  C3  N4B d   1       5.363   4.118  -3.074  0.00  0.00     0.002 A 
ATOM      4  C4  N4B d   1       5.225   3.900  -4.436  0.00  0.00    -0.004 A 
ATOM      5  C5  N4B d   1       4.253   3.061  -4.897  0.00  0.00     0.002 A 
ATOM      6  C6  N4B d   1       3.422   2.388  -4.024  0.00  0.00     0.002 A 
ENDROOT
BRANCH   1   7
ATOM      7  C1' N4B d   1       2.701   1.750  -1.750  0.00  0.00     0.057 C 
BRANCH   7   8
ATOM      8  C2' N4B d   1       3.597   0.985  -0.781  0.00  0.00     0.009 C 
BRANCH   8   9
ATOM      9  C3' N4B d   1       3.089   1.067   0.648  0.00  0.00     0.004 C 
ATOM     10  C4' N4B d   1       4.042   1.776   1.564  0.00  0.00     0.003 C 
ENDBRANCH   8   9
ENDBRANCH   7   8
ENDBRANCH   1   7
TORSDOF 3
ENDMDL
