MODEL 1
REMARK minimizedAffinity 15.1073856
REMARK minimizedRMSD -1
REMARK  3 active torsions:
REMARK  status: ('A' for Active; 'I' for Inactive)
REMARK    1  A    between atoms: C3'_2  and  C2'_3 
REMARK    2  A    between atoms: C2'_3  and  C1'_4 
REMARK    3  A    between atoms: C1'_4  and  C1_5 
ROOT
ATOM      1  C1  N4B d   1      -2.793  -1.253   1.826  0.00  0.00    -0.075 A 
ATOM      2  C2  N4B d   1      -3.878  -2.052   2.249  0.00  0.00     0.002 A 
ATOM      3  C3  N4B d   1      -3.905  -3.390   1.945  0.00  0.00     0.002 A 
ATOM      4  C4  N4B d   1      -2.873  -3.947   1.205  0.00  0.00    -0.004 A 
ATOM      5  C5  N4B d   1      -1.816  -3.174   0.821  0.00  0.00     0.002 A 
ATOM      6  C6  N4B d   1      -1.773  -1.828   1.124  0.00  0.00     0.002 A 
ENDROOT
BRANCH   1   7
ATOM      7  C1' N4B d   1      -2.760   0.232   2.061  0.00  0.00     0.057 C 
BRANCH   7   8
ATOM      8  C2' N4B d   1      -1.526   0.582   2.887  0.00  0.00     0.009 C 
BRANCH   8   9
ATOM      9  C3' N4B d   1      -1.891   1.247   4.202  0.00  0.00     0.004 C 
ATOM     10  C4' N4B d   1      -1.148   0.671   5.371  0.00  0.00     0.003 C 
ENDBRANCH   8   9
ENDBRANCH   7   8
ENDBRANCH   1   7
TORSDOF 3
ENDMDL
