MODEL 1
REMARK minimizedAffinity 12.9722328
REMARK minimizedRMSD -1
REMARK  3 active torsions:
REMARK  status: ('A' for Active; 'I' for Inactive)
REMARK    1  A    between atoms: C3'_2  and  C2'_3 
REMARK    2  A    between atoms: C2'_3  and  C1'_4 
REMARK    3  A    between atoms: C1'_4  and  C1_5 
ROOT
ATOM      1  C1  N4B d   1      -1.637   0.033   3.617  0.00  0.00    -0.075 A 
ATOM      2  C2  N4B d   1      -0.498  -0.557   4.209  0.00  0.00     0.002 A 
ATOM      3  C3  N4B d   1       0.308  -1.387   3.468  0.00  0.00     0.002 A 
ATOM      4  C4  N4B d   1      -0.015  -1.656   2.147  0.00  0.00    -0.004 A 
ATOM      5  C5  N4B d   1      -1.102  -1.062   1.576  0.00  0.00     0.002 A 
ATOM      6  C6  N4B d   1      -1.918  -0.222   2.307  0.00  0.00     0.002 A 
ENDROOT
BRANCH   1   7
ATOM      7  C1' N4B d   1      -2.595   0.879   4.410  0.00  0.00     0.057 C 
BRANCH   7   8
ATOM      8  C2' N4B d   1      -3.200   0.036   5.528  0.00  0.00     0.009 C 
BRANCH   8   9
ATOM      9  C3' N4B d   1      -4.534   0.590   5.999  0.00  0.00     0.004 C 
ATOM     10  C4' N4B d   1      -4.697   2.050   5.695  0.00  0.00     0.003 C 
ENDBRANCH   8   9
ENDBRANCH   7   8
ENDBRANCH   1   7
TORSDOF 3
ENDMDL
