MODEL 1
REMARK minimizedAffinity 5.89756775
REMARK minimizedRMSD -1
REMARK  0 active torsions:
REMARK  status: ('A' for Active; 'I' for Inactive)
ROOT
ATOM      1  N1  IND d   1       1.570  -0.005   1.796  0.00  0.00    -0.196 N 
ATOM      2  C2  IND d   1       2.056  -1.264   1.580  0.00  0.00     0.054 A 
ATOM      3  C3  IND d   1       1.893  -1.615   0.284  0.00  0.00    -0.031 A 
ATOM      4  C4  IND d   1       0.948  -0.241  -1.676  0.00  0.00     0.051 A 
ATOM      5  C5  IND d   1       0.345   0.952  -1.964  0.00  0.00    -0.031 A 
ATOM      6  C6  IND d   1       0.118   1.907  -0.994  0.00  0.00     0.015 A 
ATOM      7  C7  IND d   1       0.497   1.708   0.303  0.00  0.00    -0.016 A 
ATOM      8  C8  IND d   1       1.103   0.496   0.600  0.00  0.00    -0.047 A 
ATOM      9  C9  IND d   1       1.298  -0.494  -0.371  0.00  0.00    -0.096 A 
ATOM     10  HN1 IND d   1       1.559   0.406   2.551  0.00  0.00     0.298 HD
ENDROOT
TORSDOF 0
ENDMDL
