MODEL 1
REMARK minimizedAffinity 3.80027723
REMARK minimizedRMSD -1
REMARK  0 active torsions:
REMARK  status: ('A' for Active; 'I' for Inactive)
ROOT
ATOM      1  N1  IND d   1       0.482  -0.573  -2.699  0.00  0.00    -0.196 N 
ATOM      2  C2  IND d   1      -0.531   0.048  -3.375  0.00  0.00     0.054 A 
ATOM      3  C3  IND d   1      -0.989   1.105  -2.666  0.00  0.00    -0.031 A 
ATOM      4  C4  IND d   1      -0.156   2.056  -0.424  0.00  0.00     0.051 A 
ATOM      5  C5  IND d   1       0.724   1.807   0.591  0.00  0.00    -0.031 A 
ATOM      6  C6  IND d   1       1.588   0.731   0.560  0.00  0.00     0.015 A 
ATOM      7  C7  IND d   1       1.611  -0.133  -0.498  0.00  0.00    -0.016 A 
ATOM      8  C8  IND d   1       0.714   0.113  -1.528  0.00  0.00    -0.047 A 
ATOM      9  C9  IND d   1      -0.194   1.179  -1.482  0.00  0.00    -0.096 A 
ATOM     10  HN1 IND d   1       0.903  -1.276  -2.962  0.00  0.00     0.298 HD
ENDROOT
TORSDOF 0
ENDMDL
