MODEL 1
REMARK minimizedAffinity 8.12473011
REMARK minimizedRMSD -1
REMARK  0 active torsions:
REMARK  status: ('A' for Active; 'I' for Inactive)
ROOT
ATOM      1  N1  IND d   1       1.804   0.221   1.848  0.00  0.00    -0.196 N 
ATOM      2  C2  IND d   1       2.146  -1.039   1.442  0.00  0.00     0.054 A 
ATOM      3  C3  IND d   1       1.729  -1.254   0.174  0.00  0.00    -0.031 A 
ATOM      4  C4  IND d   1       0.557   0.355  -1.458  0.00  0.00     0.051 A 
ATOM      5  C5  IND d   1       0.005   1.603  -1.530  0.00  0.00    -0.031 A 
ATOM      6  C6  IND d   1       0.027   2.473  -0.459  0.00  0.00     0.015 A 
ATOM      7  C7  IND d   1       0.615   2.130   0.726  0.00  0.00    -0.016 A 
ATOM      8  C8  IND d   1       1.170   0.861   0.805  0.00  0.00    -0.047 A 
ATOM      9  C9  IND d   1       1.113  -0.042  -0.265  0.00  0.00    -0.096 A 
ATOM     10  HN1 IND d   1       1.958   0.558   2.624  0.00  0.00     0.298 HD
ENDROOT
TORSDOF 0
ENDMDL
