MODEL 1
REMARK minimizedAffinity 1.30455387
REMARK minimizedRMSD -1
REMARK  0 active torsions:
REMARK  status: ('A' for Active; 'I' for Inactive)
ROOT
ATOM      1  N1  IND d   1       0.651  -0.218  -2.643  0.00  0.00    -0.196 N 
ATOM      2  C2  IND d   1      -0.392   0.272  -3.378  0.00  0.00     0.054 A 
ATOM      3  C3  IND d   1      -1.026   1.254  -2.699  0.00  0.00    -0.031 A 
ATOM      4  C4  IND d   1      -0.459   2.288  -0.410  0.00  0.00     0.051 A 
ATOM      5  C5  IND d   1       0.384   2.147   0.656  0.00  0.00    -0.031 A 
ATOM      6  C6  IND d   1       1.381   1.193   0.677  0.00  0.00     0.015 A 
ATOM      7  C7  IND d   1       1.580   0.348  -0.378  0.00  0.00    -0.016 A 
ATOM      8  C8  IND d   1       0.721   0.483  -1.460  0.00  0.00    -0.047 A 
ATOM      9  C9  IND d   1      -0.319   1.421  -1.469  0.00  0.00    -0.096 A 
ATOM     10  HN1 IND d   1       1.175  -0.858  -2.880  0.00  0.00     0.298 HD
ENDROOT
TORSDOF 0
ENDMDL
