MODEL 1
REMARK minimizedAffinity 8.05126953
REMARK minimizedRMSD -1
REMARK  0 active torsions:
REMARK  status: ('A' for Active; 'I' for Inactive)
ROOT
ATOM      1  N1  IND d   1      -4.637   3.781  -4.355  0.00  0.00    -0.196 N 
ATOM      2  C2  IND d   1      -4.239   4.581  -5.389  0.00  0.00     0.054 A 
ATOM      3  C3  IND d   1      -3.151   4.057  -5.997  0.00  0.00    -0.031 A 
ATOM      4  C4  IND d   1      -1.919   1.846  -5.525  0.00  0.00     0.051 A 
ATOM      5  C5  IND d   1      -1.892   0.793  -4.655  0.00  0.00    -0.031 A 
ATOM      6  C6  IND d   1      -2.798   0.679  -3.620  0.00  0.00     0.015 A 
ATOM      7  C7  IND d   1      -3.777   1.611  -3.424  0.00  0.00    -0.016 A 
ATOM      8  C8  IND d   1      -3.804   2.686  -4.302  0.00  0.00    -0.047 A 
ATOM      9  C9  IND d   1      -2.860   2.829  -5.328  0.00  0.00    -0.096 A 
ATOM     10  HN1 IND d   1      -5.297   3.936  -3.826  0.00  0.00     0.298 HD
ENDROOT
TORSDOF 0
ENDMDL
