MODEL 1
REMARK minimizedAffinity 9.63753128
REMARK minimizedRMSD -1
REMARK  0 active torsions:
REMARK  status: ('A' for Active; 'I' for Inactive)
ROOT
ATOM      1  N1  IND d   1       3.919   3.554   2.035  0.00  0.00    -0.196 N 
ATOM      2  C2  IND d   1       4.598   4.725   1.845  0.00  0.00     0.054 A 
ATOM      3  C3  IND d   1       3.986   5.476   0.902  0.00  0.00    -0.031 A 
ATOM      4  C4  IND d   1       1.804   5.024  -0.386  0.00  0.00     0.051 A 
ATOM      5  C5  IND d   1       0.845   4.069  -0.580  0.00  0.00    -0.031 A 
ATOM      6  C6  IND d   1       0.861   2.871   0.105  0.00  0.00     0.015 A 
ATOM      7  C7  IND d   1       1.834   2.586   1.020  0.00  0.00    -0.016 A 
ATOM      8  C8  IND d   1       2.813   3.550   1.214  0.00  0.00    -0.047 A 
ATOM      9  C9  IND d   1       2.826   4.750   0.491  0.00  0.00    -0.096 A 
ATOM     10  HN1 IND d   1       4.145   2.926   2.577  0.00  0.00     0.298 HD
ENDROOT
TORSDOF 0
ENDMDL
