MODEL 1
REMARK minimizedAffinity 1.55582523
REMARK minimizedRMSD -1
REMARK  0 active torsions:
REMARK  status: ('A' for Active; 'I' for Inactive)
ROOT
ATOM      1  N1  IND d   1      -5.998   4.926   1.433  0.00  0.00    -0.196 N 
ATOM      2  C2  IND d   1      -5.154   5.997   1.532  0.00  0.00     0.054 A 
ATOM      3  C3  IND d   1      -3.894   5.635   1.200  0.00  0.00    -0.031 A 
ATOM      4  C4  IND d   1      -3.010   3.365   0.367  0.00  0.00     0.051 A 
ATOM      5  C5  IND d   1      -3.397   2.072   0.150  0.00  0.00    -0.031 A 
ATOM      6  C6  IND d   1      -4.698   1.657   0.350  0.00  0.00     0.015 A 
ATOM      7  C7  IND d   1      -5.666   2.526   0.766  0.00  0.00    -0.016 A 
ATOM      8  C8  IND d   1      -5.276   3.837   0.995  0.00  0.00    -0.047 A 
ATOM      9  C9  IND d   1      -3.948   4.255   0.835  0.00  0.00    -0.096 A 
ATOM     10  HN1 IND d   1      -6.838   4.931   1.614  0.00  0.00     0.298 HD
ENDROOT
TORSDOF 0
ENDMDL
