MODEL 1
REMARK minimizedAffinity 6.06256485
REMARK minimizedRMSD -1
REMARK  0 active torsions:
REMARK  status: ('A' for Active; 'I' for Inactive)
ROOT
ATOM      1  N1  IND d   1      -2.017   4.194  -5.989  0.00  0.00    -0.196 N 
ATOM      2  C2  IND d   1      -2.724   5.053  -5.194  0.00  0.00     0.054 A 
ATOM      3  C3  IND d   1      -2.952   4.494  -3.984  0.00  0.00    -0.031 A 
ATOM      4  C4  IND d   1      -2.168   2.223  -3.058  0.00  0.00     0.051 A 
ATOM      5  C5  IND d   1      -1.526   1.074  -3.424  0.00  0.00    -0.031 A 
ATOM      6  C6  IND d   1      -1.001   0.904  -4.689  0.00  0.00     0.015 A 
ATOM      7  C7  IND d   1      -1.089   1.886  -5.635  0.00  0.00    -0.016 A 
ATOM      8  C8  IND d   1      -1.748   3.051  -5.269  0.00  0.00    -0.047 A 
ATOM      9  C9  IND d   1      -2.320   3.213  -4.000  0.00  0.00    -0.096 A 
ATOM     10  HN1 IND d   1      -1.780   4.343  -6.802  0.00  0.00     0.298 HD
ENDROOT
TORSDOF 0
ENDMDL
