MODEL 1
REMARK minimizedAffinity 1.37418771
REMARK minimizedRMSD -1
REMARK  0 active torsions:
REMARK  status: ('A' for Active; 'I' for Inactive)
ROOT
ATOM      1  N1  IND d   1      -2.403   2.916  -3.889  0.00  0.00    -0.196 N 
ATOM      2  C2  IND d   1      -1.604   3.767  -4.600  0.00  0.00     0.054 A 
ATOM      3  C3  IND d   1      -2.329   4.425  -5.533  0.00  0.00    -0.031 A 
ATOM      4  C4  IND d   1      -4.859   4.336  -6.000  0.00  0.00     0.051 A 
ATOM      5  C5  IND d   1      -5.999   3.678  -5.633  0.00  0.00    -0.031 A 
ATOM      6  C6  IND d   1      -6.000   2.715  -4.644  0.00  0.00     0.015 A 
ATOM      7  C7  IND d   1      -4.857   2.381  -3.975  0.00  0.00    -0.016 A 
ATOM      8  C8  IND d   1      -3.695   3.042  -4.350  0.00  0.00    -0.047 A 
ATOM      9  C9  IND d   1      -3.681   3.989  -5.382  0.00  0.00    -0.096 A 
ATOM     10  HN1 IND d   1      -2.142   2.391  -3.261  0.00  0.00     0.298 HD
ENDROOT
TORSDOF 0
ENDMDL
