MODEL 1
REMARK minimizedAffinity 11.0263891
REMARK minimizedRMSD -1
REMARK  0 active torsions:
REMARK  status: ('A' for Active; 'I' for Inactive)
ROOT
ATOM      1  N1  IND d   1       2.106  -0.031   2.485  0.00  0.00    -0.196 N 
ATOM      2  C2  IND d   1       1.951  -0.758   1.338  0.00  0.00     0.054 A 
ATOM      3  C3  IND d   1       2.771  -1.834   1.349  0.00  0.00    -0.031 A 
ATOM      4  C4  IND d   1       4.376  -2.649   3.189  0.00  0.00     0.051 A 
ATOM      5  C5  IND d   1       4.888  -2.296   4.405  0.00  0.00    -0.031 A 
ATOM      6  C6  IND d   1       4.489  -1.148   5.059  0.00  0.00     0.015 A 
ATOM      7  C7  IND d   1       3.550  -0.312   4.523  0.00  0.00    -0.016 A 
ATOM      8  C8  IND d   1       3.033  -0.664   3.284  0.00  0.00    -0.047 A 
ATOM      9  C9  IND d   1       3.466  -1.806   2.596  0.00  0.00    -0.096 A 
ATOM     10  HN1 IND d   1       1.694   0.699   2.676  0.00  0.00     0.298 HD
ENDROOT
TORSDOF 0
ENDMDL
