MODEL 1
REMARK minimizedAffinity 12.0930262
REMARK minimizedRMSD -1
REMARK  0 active torsions:
REMARK  status: ('A' for Active; 'I' for Inactive)
ROOT
ATOM      1  N1  IND d   1      -3.586   1.624  -6.000  0.00  0.00    -0.196 N 
ATOM      2  C2  IND d   1      -2.293   1.206  -5.847  0.00  0.00     0.054 A 
ATOM      3  C3  IND d   1      -1.516   2.228  -5.424  0.00  0.00    -0.031 A 
ATOM      4  C4  IND d   1      -2.174   4.643  -4.822  0.00  0.00     0.051 A 
ATOM      5  C5  IND d   1      -3.234   5.506  -4.836  0.00  0.00    -0.031 A 
ATOM      6  C6  IND d   1      -4.491   5.110  -5.243  0.00  0.00     0.015 A 
ATOM      7  C7  IND d   1      -4.739   3.828  -5.644  0.00  0.00    -0.016 A 
ATOM      8  C8  IND d   1      -3.664   2.951  -5.638  0.00  0.00    -0.047 A 
ATOM      9  C9  IND d   1      -2.376   3.358  -5.266  0.00  0.00    -0.096 A 
ATOM     10  HN1 IND d   1      -4.240   1.139  -6.275  0.00  0.00     0.298 HD
ENDROOT
TORSDOF 0
ENDMDL
