MODEL 1
REMARK minimizedAffinity -3.42652035
REMARK minimizedRMSD -1
REMARK  0 active torsions:
REMARK  status: ('A' for Active; 'I' for Inactive)
ROOT
ATOM      1  C   UNL d   1      -0.120   1.216  -0.164  0.00  0.00     0.078 C 
ATOM      2  C1  UNL d   1      -0.513   0.015   0.643  0.00  0.00    -0.077 A 
ATOM      3  C2  UNL d   1      -1.009   0.152   1.945  0.00  0.00    -0.001 A 
ATOM      4  C3  UNL d   1      -1.362  -0.976   2.688  0.00  0.00     0.003 A 
ATOM      5  C4  UNL d   1      -1.220  -2.249   2.139  0.00  0.00    -0.005 A 
ATOM      6  C5  UNL d   1      -0.724  -2.395   0.844  0.00  0.00     0.003 A 
ATOM      7  C6  UNL d   1      -0.372  -1.268   0.100  0.00  0.00    -0.001 A 
ENDROOT
TORSDOF 0
ENDMDL
