MODEL 1
REMARK minimizedAffinity -4.28706455
REMARK minimizedRMSD -1
REMARK  0 active torsions:
REMARK  status: ('A' for Active; 'I' for Inactive)
ROOT
ATOM      1  C   UNL d   1      -0.378   1.612   0.090  0.00  0.00     0.078 C 
ATOM      2  C1  UNL d   1      -0.431   0.127   0.291  0.00  0.00    -0.077 A 
ATOM      3  C2  UNL d   1      -1.287  -0.442   1.242  0.00  0.00    -0.001 A 
ATOM      4  C3  UNL d   1      -1.318  -1.826   1.425  0.00  0.00     0.003 A 
ATOM      5  C4  UNL d   1      -0.496  -2.652   0.661  0.00  0.00    -0.005 A 
ATOM      6  C5  UNL d   1       0.361  -2.094  -0.286  0.00  0.00     0.003 A 
ATOM      7  C6  UNL d   1       0.394  -0.711  -0.470  0.00  0.00    -0.001 A 
ENDROOT
TORSDOF 0
ENDMDL
