MODEL 1
REMARK minimizedAffinity -4.96879244
REMARK minimizedRMSD -1
REMARK  0 active torsions:
REMARK  status: ('A' for Active; 'I' for Inactive)
ROOT
ATOM      1  C   UNL d   1      -0.318   4.326   3.273  0.00  0.00     0.078 C 
ATOM      2  C1  UNL d   1       0.368   3.854   2.026  0.00  0.00    -0.077 A 
ATOM      3  C2  UNL d   1       1.714   4.157   1.785  0.00  0.00    -0.001 A 
ATOM      4  C3  UNL d   1       2.337   3.720   0.614  0.00  0.00     0.003 A 
ATOM      5  C4  UNL d   1       1.622   2.979  -0.324  0.00  0.00    -0.005 A 
ATOM      6  C5  UNL d   1       0.281   2.675  -0.094  0.00  0.00     0.003 A 
ATOM      7  C6  UNL d   1      -0.343   3.111   1.075  0.00  0.00    -0.001 A 
ENDROOT
TORSDOF 0
ENDMDL
