MODEL 1
REMARK minimizedAffinity -5.59783077
REMARK minimizedRMSD -1
REMARK  0 active torsions:
REMARK  status: ('A' for Active; 'I' for Inactive)
ROOT
ATOM      1  C   UNL d   1       0.168   1.007  -0.033  0.00  0.00     0.078 C 
ATOM      2  C1  UNL d   1      -0.004  -0.468  -0.245  0.00  0.00    -0.077 A 
ATOM      3  C2  UNL d   1      -0.255  -1.327   0.833  0.00  0.00    -0.001 A 
ATOM      4  C3  UNL d   1      -0.404  -2.698   0.623  0.00  0.00     0.003 A 
ATOM      5  C4  UNL d   1      -0.303  -3.224  -0.664  0.00  0.00    -0.005 A 
ATOM      6  C5  UNL d   1      -0.052  -2.378  -1.742  0.00  0.00     0.003 A 
ATOM      7  C6  UNL d   1       0.098  -1.006  -1.534  0.00  0.00    -0.001 A 
ENDROOT
TORSDOF 0
ENDMDL
