MODEL 1
REMARK minimizedAffinity -2.42413163
REMARK minimizedRMSD -1
REMARK  0 active torsions:
REMARK  status: ('A' for Active; 'I' for Inactive)
ROOT
ATOM      1  C   UNL d   1      -0.111   1.426  -0.331  0.00  0.00     0.078 C 
ATOM      2  C1  UNL d   1      -0.420   0.059   0.203  0.00  0.00    -0.077 A 
ATOM      3  C2  UNL d   1       0.050  -1.091  -0.444  0.00  0.00    -0.001 A 
ATOM      4  C3  UNL d   1      -0.253  -2.357   0.059  0.00  0.00     0.003 A 
ATOM      5  C4  UNL d   1      -1.028  -2.486   1.210  0.00  0.00    -0.005 A 
ATOM      6  C5  UNL d   1      -1.502  -1.348   1.858  0.00  0.00     0.003 A 
ATOM      7  C6  UNL d   1      -1.200  -0.081   1.357  0.00  0.00    -0.001 A 
ENDROOT
TORSDOF 0
ENDMDL
