MODEL 1
REMARK minimizedAffinity -2.93258119
REMARK minimizedRMSD -1
REMARK  0 active torsions:
REMARK  status: ('A' for Active; 'I' for Inactive)
ROOT
ATOM      1  C   UNL d   1       0.057   0.091  -2.281  0.00  0.00     0.078 C 
ATOM      2  C1  UNL d   1      -0.414  -0.081  -0.868  0.00  0.00    -0.077 A 
ATOM      3  C2  UNL d   1      -0.293   0.956   0.064  0.00  0.00    -0.001 A 
ATOM      4  C3  UNL d   1      -0.727   0.778   1.379  0.00  0.00     0.003 A 
ATOM      5  C4  UNL d   1      -1.284  -0.436   1.773  0.00  0.00    -0.005 A 
ATOM      6  C5  UNL d   1      -1.407  -1.475   0.853  0.00  0.00     0.003 A 
ATOM      7  C6  UNL d   1      -0.973  -1.299  -0.462  0.00  0.00    -0.001 A 
ENDROOT
TORSDOF 0
ENDMDL
