MODEL 1
REMARK minimizedAffinity 1.03194988
REMARK minimizedRMSD -1
REMARK  0 active torsions:
REMARK  status: ('A' for Active; 'I' for Inactive)
ROOT
ATOM      1  C   UNL d   1      -0.081   5.972   3.438  0.00  0.00     0.078 C 
ATOM      2  C1  UNL d   1       0.624   5.301   2.297  0.00  0.00    -0.077 A 
ATOM      3  C2  UNL d   1       0.175   5.458   0.980  0.00  0.00    -0.001 A 
ATOM      4  C3  UNL d   1       0.835   4.820  -0.071  0.00  0.00     0.003 A 
ATOM      5  C4  UNL d   1       1.947   4.020   0.183  0.00  0.00    -0.005 A 
ATOM      6  C5  UNL d   1       2.400   3.857   1.491  0.00  0.00     0.003 A 
ATOM      7  C6  UNL d   1       1.741   4.494   2.544  0.00  0.00    -0.001 A 
ENDROOT
TORSDOF 0
ENDMDL
