MODEL 1
REMARK minimizedAffinity -5.15482092
REMARK minimizedRMSD -1
REMARK  0 active torsions:
REMARK  status: ('A' for Active; 'I' for Inactive)
ROOT
ATOM      1  C   UNL d   1       0.462  -1.875  -2.991  0.00  0.00     0.078 C 
ATOM      2  C1  UNL d   1      -0.003  -1.850  -1.565  0.00  0.00    -0.077 A 
ATOM      3  C2  UNL d   1      -0.254  -3.038  -0.868  0.00  0.00    -0.001 A 
ATOM      4  C3  UNL d   1      -0.696  -2.999   0.456  0.00  0.00     0.003 A 
ATOM      5  C4  UNL d   1      -0.893  -1.775   1.092  0.00  0.00    -0.005 A 
ATOM      6  C5  UNL d   1      -0.648  -0.588   0.406  0.00  0.00     0.003 A 
ATOM      7  C6  UNL d   1      -0.205  -0.625  -0.918  0.00  0.00    -0.001 A 
ENDROOT
TORSDOF 0
ENDMDL
