MODEL 1
REMARK minimizedAffinity -4.00151443
REMARK minimizedRMSD -1
REMARK  0 active torsions:
REMARK  status: ('A' for Active; 'I' for Inactive)
ROOT
ATOM      1  C   UNL d   1       0.392  -2.264  -2.622  0.00  0.00     0.078 C 
ATOM      2  C1  UNL d   1      -0.023  -2.078  -1.193  0.00  0.00    -0.077 A 
ATOM      3  C2  UNL d   1      -0.105  -3.169  -0.318  0.00  0.00    -0.001 A 
ATOM      4  C3  UNL d   1      -0.502  -2.982   1.007  0.00  0.00     0.003 A 
ATOM      5  C4  UNL d   1      -0.821  -1.707   1.469  0.00  0.00    -0.005 A 
ATOM      6  C5  UNL d   1      -0.744  -0.616   0.606  0.00  0.00     0.003 A 
ATOM      7  C6  UNL d   1      -0.348  -0.801  -0.720  0.00  0.00    -0.001 A 
ENDROOT
TORSDOF 0
ENDMDL
