MODEL 1
REMARK minimizedAffinity -3.90604496
REMARK minimizedRMSD -1
REMARK  0 active torsions:
REMARK  status: ('A' for Active; 'I' for Inactive)
ROOT
ATOM      1  C   UNL d   1      -0.053   1.927  -1.339  0.00  0.00     0.078 C 
ATOM      2  C1  UNL d   1       0.605   2.550  -0.145  0.00  0.00    -0.077 A 
ATOM      3  C2  UNL d   1       1.964   2.886  -0.164  0.00  0.00    -0.001 A 
ATOM      4  C3  UNL d   1       2.566   3.457   0.959  0.00  0.00     0.003 A 
ATOM      5  C4  UNL d   1       1.817   3.695   2.109  0.00  0.00    -0.005 A 
ATOM      6  C5  UNL d   1       0.464   3.362   2.138  0.00  0.00     0.003 A 
ATOM      7  C6  UNL d   1      -0.139   2.792   1.017  0.00  0.00    -0.001 A 
ENDROOT
TORSDOF 0
ENDMDL
