MODEL 1
REMARK minimizedAffinity -4.84707403
REMARK minimizedRMSD -1
REMARK  0 active torsions:
REMARK  status: ('A' for Active; 'I' for Inactive)
ROOT
ATOM      1  C   UNL d   1       0.570  -3.196  -3.469  0.00  0.00     0.078 C 
ATOM      2  C1  UNL d   1       0.492  -2.860  -2.010  0.00  0.00    -0.077 A 
ATOM      3  C2  UNL d   1       0.009  -3.789  -1.081  0.00  0.00    -0.001 A 
ATOM      4  C3  UNL d   1      -0.066  -3.460   0.273  0.00  0.00     0.003 A 
ATOM      5  C4  UNL d   1       0.338  -2.200   0.710  0.00  0.00    -0.005 A 
ATOM      6  C5  UNL d   1       0.818  -1.268  -0.207  0.00  0.00     0.003 A 
ATOM      7  C6  UNL d   1       0.894  -1.596  -1.562  0.00  0.00    -0.001 A 
ENDROOT
TORSDOF 0
ENDMDL
