MODEL 1
REMARK minimizedAffinity -5.47730541
REMARK minimizedRMSD -1
REMARK  0 active torsions:
REMARK  status: ('A' for Active; 'I' for Inactive)
ROOT
ATOM      1  C   UNL d   1      -0.020  -3.684  -0.083  0.00  0.00     0.078 C 
ATOM      2  C1  UNL d   1      -0.428  -2.309   0.355  0.00  0.00    -0.077 A 
ATOM      3  C2  UNL d   1      -1.578  -2.110   1.129  0.00  0.00    -0.001 A 
ATOM      4  C3  UNL d   1      -1.951  -0.824   1.522  0.00  0.00     0.003 A 
ATOM      5  C4  UNL d   1      -1.180   0.274   1.144  0.00  0.00    -0.005 A 
ATOM      6  C5  UNL d   1      -0.036   0.086   0.372  0.00  0.00     0.003 A 
ATOM      7  C6  UNL d   1       0.339  -1.199  -0.021  0.00  0.00    -0.001 A 
ENDROOT
TORSDOF 0
ENDMDL
