MODEL 1
REMARK minimizedAffinity 3.11415863
REMARK minimizedRMSD -1
REMARK  0 active torsions:
REMARK  status: ('A' for Active; 'I' for Inactive)
ROOT
ATOM      1  C   UNL d   1      -0.598   1.008  -0.293  0.00  0.00     0.078 C 
ATOM      2  C1  UNL d   1      -1.085  -0.371   0.039  0.00  0.00    -0.077 A 
ATOM      3  C2  UNL d   1      -1.447  -0.712   1.348  0.00  0.00    -0.001 A 
ATOM      4  C3  UNL d   1      -1.890  -2.002   1.645  0.00  0.00     0.003 A 
ATOM      5  C4  UNL d   1      -1.973  -2.962   0.638  0.00  0.00    -0.005 A 
ATOM      6  C5  UNL d   1      -1.613  -2.633  -0.667  0.00  0.00     0.003 A 
ATOM      7  C6  UNL d   1      -1.170  -1.343  -0.965  0.00  0.00    -0.001 A 
ENDROOT
TORSDOF 0
ENDMDL
