MODEL 1
REMARK minimizedAffinity 0.293245643
REMARK minimizedRMSD -1
REMARK  0 active torsions:
REMARK  status: ('A' for Active; 'I' for Inactive)
ROOT
ATOM      1  C   UNL d   1       0.561  -0.681   3.627  0.00  0.00     0.078 C 
ATOM      2  C1  UNL d   1      -0.514  -0.822   2.591  0.00  0.00    -0.077 A 
ATOM      3  C2  UNL d   1      -1.385  -1.919   2.601  0.00  0.00    -0.001 A 
ATOM      4  C3  UNL d   1      -2.375  -2.042   1.625  0.00  0.00     0.003 A 
ATOM      5  C4  UNL d   1      -2.504  -1.073   0.632  0.00  0.00    -0.005 A 
ATOM      6  C5  UNL d   1      -1.640   0.020   0.613  0.00  0.00     0.003 A 
ATOM      7  C6  UNL d   1      -0.650   0.145   1.588  0.00  0.00    -0.001 A 
ENDROOT
TORSDOF 0
ENDMDL
