MODEL 1
REMARK minimizedAffinity -4.1447382
REMARK minimizedRMSD -1
REMARK  0 active torsions:
REMARK  status: ('A' for Active; 'I' for Inactive)
ROOT
ATOM      1  N1  IND d   1       2.045  -2.139   0.691  0.00  0.00    -0.196 N 
ATOM      2  C2  IND d   1       2.589  -1.339   1.657  0.00  0.00     0.054 A 
ATOM      3  C3  IND d   1       2.070  -0.093   1.583  0.00  0.00    -0.031 A 
ATOM      4  C4  IND d   1       0.241   0.828   0.023  0.00  0.00     0.051 A 
ATOM      5  C5  IND d   1      -0.532   0.485  -1.050  0.00  0.00    -0.031 A 
ATOM      6  C6  IND d   1      -0.488  -0.777  -1.607  0.00  0.00     0.015 A 
ATOM      7  C7  IND d   1       0.328  -1.750  -1.102  0.00  0.00    -0.016 A 
ATOM      8  C8  IND d   1       1.120  -1.403  -0.017  0.00  0.00    -0.047 A 
ATOM      9  C9  IND d   1       1.110  -0.111   0.526  0.00  0.00    -0.096 A 
ATOM     10  HN1 IND d   1       2.246  -2.962   0.550  0.00  0.00     0.298 HD
ENDROOT
TORSDOF 0
ENDMDL
