MODEL 1
REMARK minimizedAffinity -2.03770185
REMARK minimizedRMSD -1
REMARK  0 active torsions:
REMARK  status: ('A' for Active; 'I' for Inactive)
ROOT
ATOM      1  N1  IND d   1      -0.038  -0.688  -1.657  0.00  0.00    -0.196 N 
ATOM      2  C2  IND d   1      -0.921   0.241  -1.184  0.00  0.00     0.054 A 
ATOM      3  C3  IND d   1      -0.603   0.591   0.083  0.00  0.00    -0.031 A 
ATOM      4  C4  IND d   1       1.385  -0.160   1.536  0.00  0.00     0.051 A 
ATOM      5  C5  IND d   1       2.442  -1.026   1.551  0.00  0.00    -0.031 A 
ATOM      6  C6  IND d   1       2.734  -1.838   0.474  0.00  0.00     0.015 A 
ATOM      7  C7  IND d   1       1.983  -1.806  -0.667  0.00  0.00    -0.016 A 
ATOM      8  C8  IND d   1       0.905  -0.933  -0.682  0.00  0.00    -0.047 A 
ATOM      9  C9  IND d   1       0.578  -0.137   0.423  0.00  0.00    -0.096 A 
ATOM     10  HN1 IND d   1      -0.066  -1.058  -2.433  0.00  0.00     0.298 HD
ENDROOT
TORSDOF 0
ENDMDL
