MODEL 1
REMARK minimizedAffinity -5.23851204
REMARK minimizedRMSD -1
REMARK  0 active torsions:
REMARK  status: ('A' for Active; 'I' for Inactive)
ROOT
ATOM      1  N1  IND d   1      -0.730   1.204   0.421  0.00  0.00    -0.196 N 
ATOM      2  C2  IND d   1      -1.605   0.476  -0.335  0.00  0.00     0.054 A 
ATOM      3  C3  IND d   1      -1.061  -0.716  -0.667  0.00  0.00    -0.031 A 
ATOM      4  C4  IND d   1       1.211  -1.721   0.007  0.00  0.00     0.051 A 
ATOM      5  C5  IND d   1       2.372  -1.417   0.661  0.00  0.00    -0.031 A 
ATOM      6  C6  IND d   1       2.561  -0.200   1.283  0.00  0.00     0.015 A 
ATOM      7  C7  IND d   1       1.588   0.758   1.284  0.00  0.00    -0.016 A 
ATOM      8  C8  IND d   1       0.410   0.455   0.615  0.00  0.00    -0.047 A 
ATOM      9  C9  IND d   1       0.229  -0.762  -0.054  0.00  0.00    -0.096 A 
ATOM     10  HN1 IND d   1      -0.868   1.997   0.724  0.00  0.00     0.298 HD
ENDROOT
TORSDOF 0
ENDMDL
