MODEL 1
REMARK minimizedAffinity -2.09682965
REMARK minimizedRMSD -1
REMARK  0 active torsions:
REMARK  status: ('A' for Active; 'I' for Inactive)
ROOT
ATOM      1  N1  IND d   1      -0.967  -0.437  -0.661  0.00  0.00    -0.196 N 
ATOM      2  C2  IND d   1      -1.034  -1.163  -1.817  0.00  0.00     0.054 A 
ATOM      3  C3  IND d   1       0.078  -1.917  -1.964  0.00  0.00    -0.031 A 
ATOM      4  C4  IND d   1       2.088  -2.194  -0.379  0.00  0.00     0.051 A 
ATOM      5  C5  IND d   1       2.617  -1.708   0.784  0.00  0.00    -0.031 A 
ATOM      6  C6  IND d   1       1.965  -0.757   1.541  0.00  0.00     0.015 A 
ATOM      7  C7  IND d   1       0.748  -0.262   1.168  0.00  0.00    -0.016 A 
ATOM      8  C8  IND d   1       0.210  -0.747  -0.016  0.00  0.00    -0.047 A 
ATOM      9  C9  IND d   1       0.887  -1.682  -0.810  0.00  0.00    -0.096 A 
ATOM     10  HN1 IND d   1      -1.561   0.120  -0.383  0.00  0.00     0.298 HD
ENDROOT
TORSDOF 0
ENDMDL
