MODEL 1
REMARK minimizedAffinity -0.497512788
REMARK minimizedRMSD -1
REMARK  0 active torsions:
REMARK  status: ('A' for Active; 'I' for Inactive)
ROOT
ATOM      1  N1  IND d   1      -0.208   0.896   1.166  0.00  0.00    -0.196 N 
ATOM      2  C2  IND d   1       0.322  -0.003   0.282  0.00  0.00     0.054 A 
ATOM      3  C3  IND d   1      -0.658  -0.570  -0.457  0.00  0.00    -0.031 A 
ATOM      4  C4  IND d   1      -3.189  -0.097  -0.456  0.00  0.00     0.051 A 
ATOM      5  C5  IND d   1      -4.151   0.616   0.202  0.00  0.00    -0.031 A 
ATOM      6  C6  IND d   1      -3.842   1.479   1.234  0.00  0.00     0.015 A 
ATOM      7  C7  IND d   1      -2.551   1.670   1.640  0.00  0.00    -0.016 A 
ATOM      8  C8  IND d   1      -1.572   0.941   0.979  0.00  0.00    -0.047 A 
ATOM      9  C9  IND d   1      -1.885   0.033  -0.040  0.00  0.00    -0.096 A 
ATOM     10  HN1 IND d   1       0.236   1.355   1.741  0.00  0.00     0.298 HD
ENDROOT
TORSDOF 0
ENDMDL
