MODEL 1
REMARK minimizedAffinity -5.08104134
REMARK minimizedRMSD -1
REMARK  0 active torsions:
REMARK  status: ('A' for Active; 'I' for Inactive)
ROOT
ATOM      1  N1  IND d   1       2.258  -1.734   0.786  0.00  0.00    -0.196 N 
ATOM      2  C2  IND d   1       2.979  -0.643   1.183  0.00  0.00     0.054 A 
ATOM      3  C3  IND d   1       2.378   0.495   0.768  0.00  0.00    -0.031 A 
ATOM      4  C4  IND d   1       0.152   0.803  -0.490  0.00  0.00     0.051 A 
ATOM      5  C5  IND d   1      -0.847   0.098  -1.100  0.00  0.00    -0.031 A 
ATOM      6  C6  IND d   1      -0.864  -1.282  -1.110  0.00  0.00     0.015 A 
ATOM      7  C7  IND d   1       0.116  -2.011  -0.498  0.00  0.00    -0.016 A 
ATOM      8  C8  IND d   1       1.136  -1.299   0.116  0.00  0.00    -0.047 A 
ATOM      9  C9  IND d   1       1.181   0.101   0.093  0.00  0.00    -0.096 A 
ATOM     10  HN1 IND d   1       2.470  -2.555   0.930  0.00  0.00     0.298 HD
ENDROOT
TORSDOF 0
ENDMDL
