MODEL 1
REMARK minimizedAffinity -3.08622026
REMARK minimizedRMSD -1
REMARK  0 active torsions:
REMARK  status: ('A' for Active; 'I' for Inactive)
ROOT
ATOM      1  N1  IND d   1      -0.869   0.569   0.361  0.00  0.00    -0.196 N 
ATOM      2  C2  IND d   1      -1.520   0.016  -0.705  0.00  0.00     0.054 A 
ATOM      3  C3  IND d   1      -0.781  -0.980  -1.244  0.00  0.00    -0.031 A 
ATOM      4  C4  IND d   1       1.480  -1.938  -0.473  0.00  0.00     0.051 A 
ATOM      5  C5  IND d   1       2.483  -1.736   0.434  0.00  0.00    -0.031 A 
ATOM      6  C6  IND d   1       2.417  -0.737   1.383  0.00  0.00     0.015 A 
ATOM      7  C7  IND d   1       1.336   0.094   1.469  0.00  0.00    -0.016 A 
ATOM      8  C8  IND d   1       0.319  -0.104   0.546  0.00  0.00    -0.047 A 
ATOM      9  C9  IND d   1       0.400  -1.088  -0.447  0.00  0.00    -0.096 A 
ATOM     10  HN1 IND d   1      -1.153   1.227   0.837  0.00  0.00     0.298 HD
ENDROOT
TORSDOF 0
ENDMDL
