MODEL 1
REMARK minimizedAffinity -5.52347898
REMARK minimizedRMSD -1
REMARK  0 active torsions:
REMARK  status: ('A' for Active; 'I' for Inactive)
ROOT
ATOM      1  N1  IND d   1       0.909   1.941  -0.278  0.00  0.00    -0.196 N 
ATOM      2  C2  IND d   1      -0.371   1.479  -0.406  0.00  0.00     0.054 A 
ATOM      3  C3  IND d   1      -0.386   0.127  -0.396  0.00  0.00    -0.031 A 
ATOM      4  C4  IND d   1       1.560  -1.528  -0.075  0.00  0.00     0.051 A 
ATOM      5  C5  IND d   1       2.920  -1.580   0.044  0.00  0.00    -0.031 A 
ATOM      6  C6  IND d   1       3.695  -0.439   0.066  0.00  0.00     0.015 A 
ATOM      7  C7  IND d   1       3.135   0.804  -0.021  0.00  0.00    -0.016 A 
ATOM      8  C8  IND d   1       1.754   0.861  -0.149  0.00  0.00    -0.047 A 
ATOM      9  C9  IND d   1       0.967  -0.295  -0.214  0.00  0.00    -0.096 A 
ATOM     10  HN1 IND d   1       1.146   2.768  -0.277  0.00  0.00     0.298 HD
ENDROOT
TORSDOF 0
ENDMDL
