MODEL 1
REMARK minimizedAffinity -5.61259604
REMARK minimizedRMSD -1
REMARK  0 active torsions:
REMARK  status: ('A' for Active; 'I' for Inactive)
ROOT
ATOM      1  N1  IND d   1      -0.336   1.526  -0.056  0.00  0.00    -0.196 N 
ATOM      2  C2  IND d   1      -1.337   0.879  -0.726  0.00  0.00     0.054 A 
ATOM      3  C3  IND d   1      -1.068  -0.444  -0.810  0.00  0.00    -0.031 A 
ATOM      4  C4  IND d   1       0.904  -1.777   0.170  0.00  0.00     0.051 A 
ATOM      5  C5  IND d   1       2.090  -1.617   0.832  0.00  0.00    -0.031 A 
ATOM      6  C6  IND d   1       2.534  -0.377   1.242  0.00  0.00     0.015 A 
ATOM      7  C7  IND d   1       1.802   0.753   1.015  0.00  0.00    -0.016 A 
ATOM      8  C8  IND d   1       0.601   0.596   0.337  0.00  0.00    -0.047 A 
ATOM      9  C9  IND d   1       0.165  -0.654  -0.119  0.00  0.00    -0.096 A 
ATOM     10  HN1 IND d   1      -0.299   2.372   0.095  0.00  0.00     0.298 HD
ENDROOT
TORSDOF 0
ENDMDL
