MODEL 1
REMARK minimizedAffinity -3.59693503
REMARK minimizedRMSD -1
REMARK  0 active torsions:
REMARK  status: ('A' for Active; 'I' for Inactive)
ROOT
ATOM      1  N1  IND d   1      -2.168   1.881   1.667  0.00  0.00    -0.196 N 
ATOM      2  C2  IND d   1      -3.370   1.637   1.063  0.00  0.00     0.054 A 
ATOM      3  C3  IND d   1      -3.219   0.743   0.060  0.00  0.00    -0.031 A 
ATOM      4  C4  IND d   1      -1.111  -0.525  -0.698  0.00  0.00     0.051 A 
ATOM      5  C5  IND d   1       0.235  -0.609  -0.473  0.00  0.00    -0.031 A 
ATOM      6  C6  IND d   1       0.860   0.146   0.498  0.00  0.00     0.015 A 
ATOM      7  C7  IND d   1       0.158   1.008   1.292  0.00  0.00    -0.016 A 
ATOM      8  C8  IND d   1      -1.207   1.102   1.062  0.00  0.00    -0.047 A 
ATOM      9  C9  IND d   1      -1.840   0.370   0.049  0.00  0.00    -0.096 A 
ATOM     10  HN1 IND d   1      -2.035   2.429   2.316  0.00  0.00     0.298 HD
ENDROOT
TORSDOF 0
ENDMDL
