MODEL 1
REMARK minimizedAffinity -5.40807056
REMARK minimizedRMSD -1
REMARK  0 active torsions:
REMARK  status: ('A' for Active; 'I' for Inactive)
ROOT
ATOM      1  N1  IND d   1       3.093   0.399   0.793  0.00  0.00    -0.196 N 
ATOM      2  C2  IND d   1       3.281  -0.955   0.799  0.00  0.00     0.054 A 
ATOM      3  C3  IND d   1       2.143  -1.590   0.439  0.00  0.00    -0.031 A 
ATOM      4  C4  IND d   1      -0.117  -0.602  -0.299  0.00  0.00     0.051 A 
ATOM      5  C5  IND d   1      -0.783   0.584  -0.430  0.00  0.00    -0.031 A 
ATOM      6  C6  IND d   1      -0.178   1.794  -0.157  0.00  0.00     0.015 A 
ATOM      7  C7  IND d   1       1.125   1.863   0.248  0.00  0.00    -0.016 A 
ATOM      8  C8  IND d   1       1.802   0.660   0.389  0.00  0.00    -0.047 A 
ATOM      9  C9  IND d   1       1.181  -0.573   0.154  0.00  0.00    -0.096 A 
ATOM     10  HN1 IND d   1       3.682   0.989   1.006  0.00  0.00     0.298 HD
ENDROOT
TORSDOF 0
ENDMDL
