MODEL 1
REMARK minimizedAffinity -3.59522033
REMARK minimizedRMSD -1
REMARK  0 active torsions:
REMARK  status: ('A' for Active; 'I' for Inactive)
ROOT
ATOM      1  N1  IND d   1       2.258   0.046   0.980  0.00  0.00    -0.196 N 
ATOM      2  C2  IND d   1       2.768  -1.210   0.805  0.00  0.00     0.054 A 
ATOM      3  C3  IND d   1       1.905  -1.973   0.097  0.00  0.00    -0.031 A 
ATOM      4  C4  IND d   1      -0.353  -1.336  -0.962  0.00  0.00     0.051 A 
ATOM      5  C5  IND d   1      -1.254  -0.312  -1.043  0.00  0.00    -0.031 A 
ATOM      6  C6  IND d   1      -1.024   0.910  -0.444  0.00  0.00     0.015 A 
ATOM      7  C7  IND d   1       0.125   1.158   0.252  0.00  0.00    -0.016 A 
ATOM      8  C8  IND d   1       1.039   0.117   0.342  0.00  0.00    -0.047 A 
ATOM      9  C9  IND d   1       0.792  -1.138  -0.228  0.00  0.00    -0.096 A 
ATOM     10  HN1 IND d   1       2.635   0.685   1.415  0.00  0.00     0.298 HD
ENDROOT
TORSDOF 0
ENDMDL
