MODEL 1
REMARK minimizedAffinity -5.46673918
REMARK minimizedRMSD -1
REMARK  0 active torsions:
REMARK  status: ('A' for Active; 'I' for Inactive)
ROOT
ATOM      1  C   UNL d   1      -0.031   0.398   0.292  0.00  0.00     0.078 C 
ATOM      2  C1  UNL d   1       0.978  -0.499   0.945  0.00  0.00    -0.077 A 
ATOM      3  C2  UNL d   1       0.596  -1.416   1.932  0.00  0.00    -0.001 A 
ATOM      4  C3  UNL d   1       1.547  -2.239   2.538  0.00  0.00     0.003 A 
ATOM      5  C4  UNL d   1       2.887  -2.151   2.165  0.00  0.00    -0.005 A 
ATOM      6  C5  UNL d   1       3.277  -1.241   1.185  0.00  0.00     0.003 A 
ATOM      7  C6  UNL d   1       2.327  -0.417   0.578  0.00  0.00    -0.001 A 
ENDROOT
TORSDOF 0
ENDMDL
