MODEL 1
REMARK minimizedAffinity -4.68102026
REMARK minimizedRMSD -1
REMARK  0 active torsions:
REMARK  status: ('A' for Active; 'I' for Inactive)
ROOT
ATOM      1  C   UNL d   1      -3.450   3.328  -3.680  0.00  0.00     0.078 C 
ATOM      2  C1  UNL d   1      -2.846   2.120  -3.027  0.00  0.00    -0.077 A 
ATOM      3  C2  UNL d   1      -2.401   1.034  -3.790  0.00  0.00    -0.001 A 
ATOM      4  C3  UNL d   1      -1.850  -0.087  -3.168  0.00  0.00     0.003 A 
ATOM      5  C4  UNL d   1      -1.740  -0.134  -1.779  0.00  0.00    -0.005 A 
ATOM      6  C5  UNL d   1      -2.183   0.941  -1.011  0.00  0.00     0.003 A 
ATOM      7  C6  UNL d   1      -2.734   2.063  -1.632  0.00  0.00    -0.001 A 
ENDROOT
TORSDOF 0
ENDMDL
