MODEL 1
REMARK minimizedAffinity -1.89292789
REMARK minimizedRMSD -1
REMARK  0 active torsions:
REMARK  status: ('A' for Active; 'I' for Inactive)
ROOT
ATOM      1  C   UNL d   1      -0.460  -0.711  -0.544  0.00  0.00     0.078 C 
ATOM      2  C1  UNL d   1       0.778  -0.291   0.191  0.00  0.00    -0.077 A 
ATOM      3  C2  UNL d   1       1.895  -1.132   0.261  0.00  0.00    -0.001 A 
ATOM      4  C3  UNL d   1       3.037  -0.732   0.957  0.00  0.00     0.003 A 
ATOM      5  C4  UNL d   1       3.072   0.509   1.588  0.00  0.00    -0.005 A 
ATOM      6  C5  UNL d   1       1.965   1.352   1.526  0.00  0.00     0.003 A 
ATOM      7  C6  UNL d   1       0.822   0.954   0.831  0.00  0.00    -0.001 A 
ENDROOT
TORSDOF 0
ENDMDL
