MODEL 1
REMARK minimizedAffinity -5.08948088
REMARK minimizedRMSD -1
REMARK  0 active torsions:
REMARK  status: ('A' for Active; 'I' for Inactive)
ROOT
ATOM      1  C   UNL d   1       3.411  -0.651   0.649  0.00  0.00     0.078 C 
ATOM      2  C1  UNL d   1       2.101   0.078   0.626  0.00  0.00    -0.077 A 
ATOM      3  C2  UNL d   1       0.905  -0.596   0.348  0.00  0.00    -0.001 A 
ATOM      4  C3  UNL d   1      -0.306   0.098   0.320  0.00  0.00     0.003 A 
ATOM      5  C4  UNL d   1      -0.333   1.468   0.569  0.00  0.00    -0.005 A 
ATOM      6  C5  UNL d   1       0.852   2.148   0.845  0.00  0.00     0.003 A 
ATOM      7  C6  UNL d   1       2.064   1.456   0.873  0.00  0.00    -0.001 A 
ENDROOT
TORSDOF 0
ENDMDL
