MODEL 1
REMARK minimizedAffinity -3.23480296
REMARK minimizedRMSD -1
REMARK  0 active torsions:
REMARK  status: ('A' for Active; 'I' for Inactive)
ROOT
ATOM      1  C   UNL d   1       3.124  -0.086   0.046  0.00  0.00     0.078 C 
ATOM      2  C1  UNL d   1       1.659   0.191   0.208  0.00  0.00    -0.077 A 
ATOM      3  C2  UNL d   1       1.196   1.482   0.492  0.00  0.00    -0.001 A 
ATOM      4  C3  UNL d   1      -0.169   1.723   0.649  0.00  0.00     0.003 A 
ATOM      5  C4  UNL d   1      -1.084   0.679   0.525  0.00  0.00    -0.005 A 
ATOM      6  C5  UNL d   1      -0.633  -0.609   0.244  0.00  0.00     0.003 A 
ATOM      7  C6  UNL d   1       0.733  -0.853   0.087  0.00  0.00    -0.001 A 
ENDROOT
TORSDOF 0
ENDMDL
