MODEL 1
REMARK minimizedAffinity -2.82127428
REMARK minimizedRMSD -1
REMARK  0 active torsions:
REMARK  status: ('A' for Active; 'I' for Inactive)
ROOT
ATOM      1  C   UNL d   1      -1.408  -0.376  -1.142  0.00  0.00     0.078 C 
ATOM      2  C1  UNL d   1      -0.082  -0.210  -0.463  0.00  0.00    -0.077 A 
ATOM      3  C2  UNL d   1       0.171   0.889   0.368  0.00  0.00    -0.001 A 
ATOM      4  C3  UNL d   1       1.414   1.036   0.985  0.00  0.00     0.003 A 
ATOM      5  C4  UNL d   1       2.415   0.088   0.778  0.00  0.00    -0.005 A 
ATOM      6  C5  UNL d   1       2.173  -1.007  -0.049  0.00  0.00     0.003 A 
ATOM      7  C6  UNL d   1       0.931  -1.155  -0.668  0.00  0.00    -0.001 A 
ENDROOT
TORSDOF 0
ENDMDL
