MODEL 1
REMARK minimizedAffinity 11.9786224
REMARK minimizedRMSD -1
REMARK  1 active torsions:
REMARK  status: ('A' for Active; 'I' for Inactive)
REMARK    1  A    between atoms: N_2  and  C1_3 
ROOT
ATOM      1  C1  UNL d   1       2.041   1.210  -1.632  0.00  0.00     0.143 A 
ATOM      2  C2  UNL d   1       1.662  -0.130  -1.497  0.00  0.00    -0.057 A 
ATOM      3  C3  UNL d   1       2.411  -1.021  -0.719  0.00  0.00     0.033 A 
ATOM      4  C4  UNL d   1       3.573  -0.594  -0.085  0.00  0.00    -0.042 A 
ATOM      5  C5  UNL d   1       3.983   0.727  -0.227  0.00  0.00     0.033 A 
ATOM      6  C6  UNL d   1       3.227   1.615  -0.999  0.00  0.00    -0.057 A 
ENDROOT
BRANCH   1   7
ATOM      7  N   UNL d   1       1.393   2.121  -2.470  0.00  0.00    -0.732 N 
ATOM      8  C   UNL d   1       1.281   3.515  -2.098  0.00  0.00     0.284 C 
ATOM      9  H3  UNL d   1       1.612   1.969  -3.452  0.00  0.00     0.395 HD
ENDBRANCH   1   7
TORSDOF 1
ENDMDL
