MODEL 1
REMARK minimizedAffinity 7.20911837
REMARK minimizedRMSD -1
REMARK  1 active torsions:
REMARK  status: ('A' for Active; 'I' for Inactive)
REMARK    1  A    between atoms: N_2  and  C1_3 
ROOT
ATOM      1  C1  UNL d   1       3.997   3.247   1.630  0.00  0.00     0.143 A 
ATOM      2  C2  UNL d   1       4.412   2.334   0.656  0.00  0.00    -0.057 A 
ATOM      3  C3  UNL d   1       3.711   1.142   0.432  0.00  0.00     0.033 A 
ATOM      4  C4  UNL d   1       2.595   0.830   1.201  0.00  0.00    -0.042 A 
ATOM      5  C5  UNL d   1       2.179   1.711   2.192  0.00  0.00     0.033 A 
ATOM      6  C6  UNL d   1       2.879   2.902   2.406  0.00  0.00    -0.057 A 
ENDROOT
BRANCH   1   7
ATOM      7  N   UNL d   1       4.708   4.402   1.968  0.00  0.00    -0.732 N 
ATOM      8  C   UNL d   1       4.081   5.704   1.886  0.00  0.00     0.284 C 
ATOM      9  H3  UNL d   1       5.291   4.272   2.791  0.00  0.00     0.395 HD
ENDBRANCH   1   7
TORSDOF 1
ENDMDL
