MODEL 1
REMARK minimizedAffinity 7.85373354
REMARK minimizedRMSD -1
REMARK  1 active torsions:
REMARK  status: ('A' for Active; 'I' for Inactive)
REMARK    1  A    between atoms: N_2  and  C1_3 
ROOT
ATOM      1  C1  UNL d   1       1.076  -2.266  -2.081  0.00  0.00     0.143 A 
ATOM      2  C2  UNL d   1       0.798  -1.308  -3.061  0.00  0.00    -0.057 A 
ATOM      3  C3  UNL d   1       1.374  -0.032  -3.013  0.00  0.00     0.033 A 
ATOM      4  C4  UNL d   1       2.218   0.318  -1.964  0.00  0.00    -0.042 A 
ATOM      5  C5  UNL d   1       2.488  -0.611  -0.965  0.00  0.00     0.033 A 
ATOM      6  C6  UNL d   1       1.916  -1.885  -1.022  0.00  0.00    -0.057 A 
ENDROOT
BRANCH   1   7
ATOM      7  N   UNL d   1       0.459  -3.518  -2.020  0.00  0.00    -0.732 N 
ATOM      8  C   UNL d   1      -0.604  -3.861  -2.941  0.00  0.00     0.284 C 
ATOM      9  H3  UNL d   1       1.122  -4.271  -1.851  0.00  0.00     0.395 HD
ENDBRANCH   1   7
TORSDOF 1
ENDMDL
