MODEL 1
REMARK minimizedAffinity 6.30940104
REMARK minimizedRMSD -1
REMARK  1 active torsions:
REMARK  status: ('A' for Active; 'I' for Inactive)
REMARK    1  A    between atoms: N_2  and  C1_3 
ROOT
ATOM      1  C1  UNL d   1       1.189   1.835   1.722  0.00  0.00     0.143 A 
ATOM      2  C2  UNL d   1       0.453   3.011   1.900  0.00  0.00    -0.057 A 
ATOM      3  C3  UNL d   1      -0.895   2.973   2.276  0.00  0.00     0.033 A 
ATOM      4  C4  UNL d   1      -1.540   1.753   2.454  0.00  0.00    -0.042 A 
ATOM      5  C5  UNL d   1      -0.834   0.571   2.258  0.00  0.00     0.033 A 
ATOM      6  C6  UNL d   1       0.513   0.616   1.888  0.00  0.00    -0.057 A 
ENDROOT
BRANCH   1   7
ATOM      7  N   UNL d   1       2.505   1.805   1.252  0.00  0.00    -0.732 N 
ATOM      8  C   UNL d   1       2.852   1.030   0.080  0.00  0.00     0.284 C 
ATOM      9  H3  UNL d   1       2.953   2.717   1.295  0.00  0.00     0.395 HD
ENDBRANCH   1   7
TORSDOF 1
ENDMDL
