MODEL 1
REMARK minimizedAffinity 2.28070307
REMARK minimizedRMSD -1
REMARK  1 active torsions:
REMARK  status: ('A' for Active; 'I' for Inactive)
REMARK    1  A    between atoms: N_2  and  C1_3 
ROOT
ATOM      1  C1  UNL d   1       2.404   1.816   2.858  0.00  0.00     0.143 A 
ATOM      2  C2  UNL d   1       1.662   0.637   2.995  0.00  0.00    -0.057 A 
ATOM      3  C3  UNL d   1       1.291   0.156   4.257  0.00  0.00     0.033 A 
ATOM      4  C4  UNL d   1       1.680   0.833   5.408  0.00  0.00    -0.042 A 
ATOM      5  C5  UNL d   1       2.439   1.992   5.296  0.00  0.00     0.033 A 
ATOM      6  C6  UNL d   1       2.801   2.471   4.034  0.00  0.00    -0.057 A 
ENDROOT
BRANCH   1   7
ATOM      7  N   UNL d   1       2.888   2.292   1.637  0.00  0.00    -0.732 N 
ATOM      8  C   UNL d   1       3.370   1.375   0.627  0.00  0.00     0.284 C 
ATOM      9  H3  UNL d   1       2.329   3.058   1.270  0.00  0.00     0.395 HD
ENDBRANCH   1   7
TORSDOF 1
ENDMDL
