MODEL 1
REMARK minimizedAffinity 3.09642434
REMARK minimizedRMSD -1
REMARK  1 active torsions:
REMARK  status: ('A' for Active; 'I' for Inactive)
REMARK    1  A    between atoms: N_2  and  C1_3 
ROOT
ATOM      1  C1  UNL d   1       0.087  -2.741  -2.014  0.00  0.00     0.143 A 
ATOM      2  C2  UNL d   1       0.851  -2.723  -0.843  0.00  0.00    -0.057 A 
ATOM      3  C3  UNL d   1       2.013  -1.947  -0.746  0.00  0.00     0.033 A 
ATOM      4  C4  UNL d   1       2.448  -1.196  -1.833  0.00  0.00    -0.042 A 
ATOM      5  C5  UNL d   1       1.717  -1.219  -3.016  0.00  0.00     0.033 A 
ATOM      6  C6  UNL d   1       0.554  -1.990  -3.104  0.00  0.00    -0.057 A 
ENDROOT
BRANCH   1   7
ATOM      7  N   UNL d   1      -1.023  -3.568  -2.206  0.00  0.00    -0.732 N 
ATOM      8  C   UNL d   1      -2.304  -3.008  -2.580  0.00  0.00     0.284 C 
ATOM      9  H3  UNL d   1      -0.786  -4.428  -2.696  0.00  0.00     0.395 HD
ENDBRANCH   1   7
TORSDOF 1
ENDMDL
