MODEL 1
REMARK minimizedAffinity 1.12506819
REMARK minimizedRMSD -1
REMARK  1 active torsions:
REMARK  status: ('A' for Active; 'I' for Inactive)
REMARK    1  A    between atoms: N_2  and  C1_3 
ROOT
ATOM      1  C1  UNL d   1      -0.309  -3.074  -2.091  0.00  0.00     0.143 A 
ATOM      2  C2  UNL d   1      -0.450  -4.273  -2.798  0.00  0.00    -0.057 A 
ATOM      3  C3  UNL d   1      -1.551  -4.498  -3.634  0.00  0.00     0.033 A 
ATOM      4  C4  UNL d   1      -2.548  -3.536  -3.754  0.00  0.00    -0.042 A 
ATOM      5  C5  UNL d   1      -2.442  -2.347  -3.041  0.00  0.00     0.033 A 
ATOM      6  C6  UNL d   1      -1.337  -2.126  -2.213  0.00  0.00    -0.057 A 
ENDROOT
BRANCH   1   7
ATOM      7  N   UNL d   1       0.712  -2.830  -1.169  0.00  0.00    -0.732 N 
ATOM      8  C   UNL d   1       1.845  -2.003  -1.525  0.00  0.00     0.284 C 
ATOM      9  H3  UNL d   1       0.356  -2.666  -0.230  0.00  0.00     0.395 HD
ENDBRANCH   1   7
TORSDOF 1
ENDMDL
