MODEL 1
REMARK minimizedAffinity 10.0073118
REMARK minimizedRMSD -1
REMARK  1 active torsions:
REMARK  status: ('A' for Active; 'I' for Inactive)
REMARK    1  A    between atoms: N_2  and  C1_3 
ROOT
ATOM      1  C1  UNL d   1      -0.279  -2.711  -1.952  0.00  0.00     0.143 A 
ATOM      2  C2  UNL d   1      -0.397  -4.105  -1.947  0.00  0.00    -0.057 A 
ATOM      3  C3  UNL d   1      -1.615  -4.731  -2.239  0.00  0.00     0.033 A 
ATOM      4  C4  UNL d   1      -2.747  -3.970  -2.514  0.00  0.00    -0.042 A 
ATOM      5  C5  UNL d   1      -2.659  -2.583  -2.500  0.00  0.00     0.033 A 
ATOM      6  C6  UNL d   1      -1.438  -1.964  -2.214  0.00  0.00    -0.057 A 
ENDROOT
BRANCH   1   7
ATOM      7  N   UNL d   1       0.879  -2.027  -1.573  0.00  0.00    -0.732 N 
ATOM      8  C   UNL d   1       1.457  -1.021  -2.438  0.00  0.00     0.284 C 
ATOM      9  H3  UNL d   1       0.877  -1.776  -0.587  0.00  0.00     0.395 HD
ENDBRANCH   1   7
TORSDOF 1
ENDMDL
