MODEL 1
REMARK minimizedAffinity 10.9049978
REMARK minimizedRMSD -1
REMARK  1 active torsions:
REMARK  status: ('A' for Active; 'I' for Inactive)
REMARK    1  A    between atoms: N_2  and  C1_3 
ROOT
ATOM      1  C1  UNL d   1       1.555   1.582  -2.382  0.00  0.00     0.143 A 
ATOM      2  C2  UNL d   1       2.348   1.475  -1.235  0.00  0.00    -0.057 A 
ATOM      3  C3  UNL d   1       2.642   0.229  -0.668  0.00  0.00     0.033 A 
ATOM      4  C4  UNL d   1       2.121  -0.935  -1.225  0.00  0.00    -0.042 A 
ATOM      5  C5  UNL d   1       1.310  -0.851  -2.351  0.00  0.00     0.033 A 
ATOM      6  C6  UNL d   1       1.025   0.396  -2.916  0.00  0.00    -0.057 A 
ENDROOT
BRANCH   1   7
ATOM      7  N   UNL d   1       1.146   2.798  -2.935  0.00  0.00    -0.732 N 
ATOM      8  C   UNL d   1       1.219   4.020  -2.163  0.00  0.00     0.284 C 
ATOM      9  H3  UNL d   1       1.436   2.901  -3.905  0.00  0.00     0.395 HD
ENDBRANCH   1   7
TORSDOF 1
ENDMDL
