MODEL 1
REMARK minimizedAffinity 15.1150036
REMARK minimizedRMSD -1
REMARK  1 active torsions:
REMARK  status: ('A' for Active; 'I' for Inactive)
REMARK    1  A    between atoms: N_2  and  C1_3 
ROOT
ATOM      1  C1  UNL d   1       0.878   1.502  -3.499  0.00  0.00     0.143 A 
ATOM      2  C2  UNL d   1       1.559   2.467  -2.749  0.00  0.00    -0.057 A 
ATOM      3  C3  UNL d   1       2.460   2.101  -1.742  0.00  0.00     0.033 A 
ATOM      4  C4  UNL d   1       2.675   0.759  -1.446  0.00  0.00    -0.042 A 
ATOM      5  C5  UNL d   1       1.990  -0.217  -2.162  0.00  0.00     0.033 A 
ATOM      6  C6  UNL d   1       1.097   0.155  -3.171  0.00  0.00    -0.057 A 
ENDROOT
BRANCH   1   7
ATOM      7  N   UNL d   1      -0.103   1.803  -4.447  0.00  0.00    -0.732 N 
ATOM      8  C   UNL d   1      -1.498   1.868  -4.068  0.00  0.00     0.284 C 
ATOM      9  H3  UNL d   1       0.188   2.537  -5.088  0.00  0.00     0.395 HD
ENDBRANCH   1   7
TORSDOF 1
ENDMDL
