MODEL 1
REMARK minimizedAffinity -4.61924648
REMARK minimizedRMSD -1
REMARK  1 active torsions:
REMARK  status: ('A' for Active; 'I' for Inactive)
REMARK    1  A    between atoms: N_2  and  C1_3 
ROOT
ATOM      1  C1  UNL d   1      -0.120   0.146   0.366  0.00  0.00     0.143 A 
ATOM      2  C2  UNL d   1       0.379   0.917   1.421  0.00  0.00    -0.057 A 
ATOM      3  C3  UNL d   1      -0.322   2.029   1.902  0.00  0.00     0.033 A 
ATOM      4  C4  UNL d   1      -1.525   2.408   1.315  0.00  0.00    -0.042 A 
ATOM      5  C5  UNL d   1      -2.028   1.671   0.248  0.00  0.00     0.033 A 
ATOM      6  C6  UNL d   1      -1.326   0.557  -0.223  0.00  0.00    -0.057 A 
ENDROOT
BRANCH   1   7
ATOM      7  N   UNL d   1       0.578  -0.912  -0.222  0.00  0.00    -0.732 N 
ATOM      8  C   UNL d   1      -0.100  -1.850  -1.091  0.00  0.00     0.284 C 
ATOM      9  H3  UNL d   1       1.501  -0.635  -0.549  0.00  0.00     0.395 HD
ENDBRANCH   1   7
TORSDOF 1
ENDMDL
