MODEL 1
REMARK minimizedAffinity -1.50248563
REMARK minimizedRMSD -1
REMARK  1 active torsions:
REMARK  status: ('A' for Active; 'I' for Inactive)
REMARK    1  A    between atoms: N_2  and  C1_3 
ROOT
ATOM      1  C1  UNL d   1       0.384  -0.467  -0.211  0.00  0.00     0.143 A 
ATOM      2  C2  UNL d   1       0.805  -0.618   1.115  0.00  0.00    -0.057 A 
ATOM      3  C3  UNL d   1       0.425   0.295   2.106  0.00  0.00     0.033 A 
ATOM      4  C4  UNL d   1      -0.361   1.395   1.782  0.00  0.00    -0.042 A 
ATOM      5  C5  UNL d   1      -0.771   1.580   0.466  0.00  0.00     0.033 A 
ATOM      6  C6  UNL d   1      -0.394   0.661  -0.518  0.00  0.00    -0.057 A 
ENDROOT
BRANCH   1   7
ATOM      7  N   UNL d   1       0.809  -1.285  -1.260  0.00  0.00    -0.732 N 
ATOM      8  C   UNL d   1       0.559  -2.710  -1.231  0.00  0.00     0.284 C 
ATOM      9  H3  UNL d   1       0.662  -0.856  -2.171  0.00  0.00     0.395 HD
ENDBRANCH   1   7
TORSDOF 1
ENDMDL
