MODEL 1
REMARK minimizedAffinity -2.88668871
REMARK minimizedRMSD -1
REMARK  1 active torsions:
REMARK  status: ('A' for Active; 'I' for Inactive)
REMARK    1  A    between atoms: N_2  and  C1_3 
ROOT
ATOM      1  C1  UNL d   1      -0.046  -0.468  -0.277  0.00  0.00     0.143 A 
ATOM      2  C2  UNL d   1       0.323  -0.337   1.066  0.00  0.00    -0.057 A 
ATOM      3  C3  UNL d   1      -0.077   0.770   1.824  0.00  0.00     0.033 A 
ATOM      4  C4  UNL d   1      -0.831   1.783   1.242  0.00  0.00    -0.042 A 
ATOM      5  C5  UNL d   1      -1.188   1.686  -0.099  0.00  0.00     0.033 A 
ATOM      6  C6  UNL d   1      -0.791   0.575  -0.849  0.00  0.00    -0.057 A 
ENDROOT
BRANCH   1   7
ATOM      7  N   UNL d   1       0.403  -1.496  -1.110  0.00  0.00    -0.732 N 
ATOM      8  C   UNL d   1      -0.460  -2.611  -1.436  0.00  0.00     0.284 C 
ATOM      9  H3  UNL d   1       0.948  -1.149  -1.896  0.00  0.00     0.395 HD
ENDBRANCH   1   7
TORSDOF 1
ENDMDL
