MODEL 1
REMARK minimizedAffinity -3.70935869
REMARK minimizedRMSD -1
REMARK  1 active torsions:
REMARK  status: ('A' for Active; 'I' for Inactive)
REMARK    1  A    between atoms: N_2  and  C1_3 
ROOT
ATOM      1  C1  UNL d   1       0.139  -0.152  -0.328  0.00  0.00     0.143 A 
ATOM      2  C2  UNL d   1      -0.823   0.823  -0.614  0.00  0.00    -0.057 A 
ATOM      3  C3  UNL d   1      -1.168   1.800   0.328  0.00  0.00     0.033 A 
ATOM      4  C4  UNL d   1      -0.576   1.801   1.586  0.00  0.00    -0.042 A 
ATOM      5  C5  UNL d   1       0.364   0.827   1.901  0.00  0.00     0.033 A 
ATOM      6  C6  UNL d   1       0.710  -0.142   0.954  0.00  0.00    -0.057 A 
ENDROOT
BRANCH   1   7
ATOM      7  N   UNL d   1       0.454  -1.209  -1.186  0.00  0.00    -0.732 N 
ATOM      8  C   UNL d   1      -0.539  -2.206  -1.523  0.00  0.00     0.284 C 
ATOM      9  H3  UNL d   1       1.030  -0.913  -1.971  0.00  0.00     0.395 HD
ENDBRANCH   1   7
TORSDOF 1
ENDMDL
