MODEL 1
REMARK minimizedAffinity -4.10723257
REMARK minimizedRMSD -1
REMARK  1 active torsions:
REMARK  status: ('A' for Active; 'I' for Inactive)
REMARK    1  A    between atoms: N_2  and  C1_3 
ROOT
ATOM      1  C1  UNL d   1      -0.240   1.129  -0.203  0.00  0.00     0.143 A 
ATOM      2  C2  UNL d   1      -0.181   1.009   1.189  0.00  0.00    -0.057 A 
ATOM      3  C3  UNL d   1      -0.503   2.086   2.025  0.00  0.00     0.033 A 
ATOM      4  C4  UNL d   1      -0.863   3.314   1.480  0.00  0.00    -0.042 A 
ATOM      5  C5  UNL d   1      -0.904   3.463   0.099  0.00  0.00     0.033 A 
ATOM      6  C6  UNL d   1      -0.588   2.383  -0.731  0.00  0.00    -0.057 A 
ENDROOT
BRANCH   1   7
ATOM      7  N   UNL d   1       0.163   0.126  -1.088  0.00  0.00    -0.732 N 
ATOM      8  C   UNL d   1       0.561  -1.175  -0.596  0.00  0.00     0.284 C 
ATOM      9  H3  UNL d   1      -0.411   0.095  -1.928  0.00  0.00     0.395 HD
ENDBRANCH   1   7
TORSDOF 1
ENDMDL
