MODEL 1
REMARK minimizedAffinity -4.36444616
REMARK minimizedRMSD -1
REMARK  1 active torsions:
REMARK  status: ('A' for Active; 'I' for Inactive)
REMARK    1  A    between atoms: N_2  and  C1_3 
ROOT
ATOM      1  C1  UNL d   1       0.094  -0.349   0.139  0.00  0.00     0.143 A 
ATOM      2  C2  UNL d   1       0.503  -0.031   1.438  0.00  0.00    -0.057 A 
ATOM      3  C3  UNL d   1      -0.049   1.055   2.128  0.00  0.00     0.033 A 
ATOM      4  C4  UNL d   1      -1.004   1.862   1.518  0.00  0.00    -0.042 A 
ATOM      5  C5  UNL d   1      -1.408   1.579   0.218  0.00  0.00     0.033 A 
ATOM      6  C6  UNL d   1      -0.857   0.490  -0.464  0.00  0.00    -0.057 A 
ENDROOT
BRANCH   1   7
ATOM      7  N   UNL d   1       0.676  -1.355  -0.636  0.00  0.00    -0.732 N 
ATOM      8  C   UNL d   1      -0.039  -2.584  -0.907  0.00  0.00     0.284 C 
ATOM      9  H3  UNL d   1       1.184  -0.985  -1.436  0.00  0.00     0.395 HD
ENDBRANCH   1   7
TORSDOF 1
ENDMDL
