MODEL 1
REMARK minimizedAffinity -3.80263424
REMARK minimizedRMSD -1
REMARK  1 active torsions:
REMARK  status: ('A' for Active; 'I' for Inactive)
REMARK    1  A    between atoms: N_2  and  C1_3 
ROOT
ATOM      1  C1  UNL d   1      -0.400   0.539   0.639  0.00  0.00     0.143 A 
ATOM      2  C2  UNL d   1      -0.069   1.062   1.893  0.00  0.00    -0.057 A 
ATOM      3  C3  UNL d   1      -0.331   2.400   2.214  0.00  0.00     0.033 A 
ATOM      4  C4  UNL d   1      -0.904   3.248   1.272  0.00  0.00    -0.042 A 
ATOM      5  C5  UNL d   1      -1.218   2.756   0.010  0.00  0.00     0.033 A 
ATOM      6  C6  UNL d   1      -0.960   1.417  -0.302  0.00  0.00    -0.057 A 
ENDROOT
BRANCH   1   7
ATOM      7  N   UNL d   1      -0.075  -0.756   0.226  0.00  0.00    -0.732 N 
ATOM      8  C   UNL d   1       0.701  -0.973  -0.976  0.00  0.00     0.284 C 
ATOM      9  H3  UNL d   1       0.186  -1.358   1.004  0.00  0.00     0.395 HD
ENDBRANCH   1   7
TORSDOF 1
ENDMDL
