MODEL 1
REMARK minimizedAffinity -1.42358577
REMARK minimizedRMSD -1
REMARK  1 active torsions:
REMARK  status: ('A' for Active; 'I' for Inactive)
REMARK    1  A    between atoms: N_2  and  C1_3 
ROOT
ATOM      1  C1  UNL d   1      -0.031  -0.628  -0.581  0.00  0.00     0.143 A 
ATOM      2  C2  UNL d   1       0.017  -0.981   0.772  0.00  0.00    -0.057 A 
ATOM      3  C3  UNL d   1       0.070  -0.007   1.775  0.00  0.00     0.033 A 
ATOM      4  C4  UNL d   1       0.105   1.343   1.441  0.00  0.00    -0.042 A 
ATOM      5  C5  UNL d   1       0.084   1.717   0.102  0.00  0.00     0.033 A 
ATOM      6  C6  UNL d   1       0.024   0.739  -0.896  0.00  0.00    -0.057 A 
ENDROOT
BRANCH   1   7
ATOM      7  N   UNL d   1       0.015  -1.552  -1.628  0.00  0.00    -0.732 N 
ATOM      8  C   UNL d   1       0.042  -2.973  -1.357  0.00  0.00     0.284 C 
ATOM      9  H3  UNL d   1      -0.586  -1.289  -2.405  0.00  0.00     0.395 HD
ENDBRANCH   1   7
TORSDOF 1
ENDMDL
