MODEL 1
REMARK minimizedAffinity -1.51133871
REMARK minimizedRMSD -1
REMARK  1 active torsions:
REMARK  status: ('A' for Active; 'I' for Inactive)
REMARK    1  A    between atoms: C1_2  and  C2_3 
ROOT
ATOM      1  C2  UNL d   1      -0.599   1.374   1.232  0.00  0.00    -0.081 A 
ATOM      2  C3  UNL d   1      -0.682   1.460  -0.163  0.00  0.00     0.006 A 
ATOM      3  C4  UNL d   1      -0.272   0.391  -0.964  0.00  0.00     0.002 A 
ATOM      4  C5  UNL d   1       0.220  -0.783  -0.384  0.00  0.00    -0.080 A 
ATOM      5  C6  UNL d   1       0.634  -1.949  -1.231  0.00  0.00     0.076 C 
ATOM      6  C7  UNL d   1       0.319  -0.862   1.009  0.00  0.00     0.002 A 
ATOM      7  C8  UNL d   1      -0.090   0.206   1.810  0.00  0.00     0.006 A 
ENDROOT
BRANCH   1   8
ATOM      8  C1  UNL d   1      -1.100   2.500   2.100  0.00  0.00     0.054 C 
ATOM      9  C   UNL d   1      -2.284   3.209   1.458  0.00  0.00     0.018 C 
ENDBRANCH   1   8
TORSDOF 1
ENDMDL
