MODEL 1
REMARK minimizedAffinity -6.18213797
REMARK minimizedRMSD -1
REMARK  1 active torsions:
REMARK  status: ('A' for Active; 'I' for Inactive)
REMARK    1  A    between atoms: C1_2  and  C2_3 
ROOT
ATOM      1  C2  UNL d   1      -0.306   1.510   0.022  0.00  0.00    -0.081 A 
ATOM      2  C3  UNL d   1       0.083   1.372  -1.316  0.00  0.00     0.006 A 
ATOM      3  C4  UNL d   1       0.670   0.186  -1.764  0.00  0.00     0.002 A 
ATOM      4  C5  UNL d   1       0.869  -0.884  -0.885  0.00  0.00    -0.080 A 
ATOM      5  C6  UNL d   1       1.470  -2.173  -1.360  0.00  0.00     0.076 C 
ATOM      6  C7  UNL d   1       0.496  -0.740   0.456  0.00  0.00     0.002 A 
ATOM      7  C8  UNL d   1      -0.090   0.446   0.905  0.00  0.00     0.006 A 
ENDROOT
BRANCH   1   8
ATOM      8  C1  UNL d   1      -0.998   2.763   0.494  0.00  0.00     0.054 C 
ATOM      9  C   UNL d   1      -2.336   2.445   1.146  0.00  0.00     0.018 C 
ENDBRANCH   1   8
TORSDOF 1
ENDMDL
