MODEL 1
REMARK minimizedAffinity -4.37975121
REMARK minimizedRMSD -1
REMARK  1 active torsions:
REMARK  status: ('A' for Active; 'I' for Inactive)
REMARK    1  A    between atoms: C1_2  and  C2_3 
ROOT
ATOM      1  C2  UNL d   1      -0.824   2.529   0.355  0.00  0.00    -0.081 A 
ATOM      2  C3  UNL d   1      -1.619   2.449   1.504  0.00  0.00     0.006 A 
ATOM      3  C4  UNL d   1      -1.683   1.263   2.239  0.00  0.00     0.002 A 
ATOM      4  C5  UNL d   1      -0.949   0.140   1.841  0.00  0.00    -0.080 A 
ATOM      5  C6  UNL d   1      -0.986  -1.130   2.638  0.00  0.00     0.076 C 
ATOM      6  C7  UNL d   1      -0.168   0.215   0.683  0.00  0.00     0.002 A 
ATOM      7  C8  UNL d   1      -0.104   1.401  -0.053  0.00  0.00     0.006 A 
ENDROOT
BRANCH   1   8
ATOM      8  C1  UNL d   1      -0.701   3.827  -0.403  0.00  0.00     0.054 C 
ATOM      9  C   UNL d   1       0.431   3.769  -1.419  0.00  0.00     0.018 C 
ENDBRANCH   1   8
TORSDOF 1
ENDMDL
