MODEL 1
REMARK minimizedAffinity -3.22315049
REMARK minimizedRMSD -1
REMARK  1 active torsions:
REMARK  status: ('A' for Active; 'I' for Inactive)
REMARK    1  A    between atoms: C1_2  and  C2_3 
ROOT
ATOM      1  C2  UNL d   1       0.191  -0.375  -0.004  0.00  0.00    -0.081 A 
ATOM      2  C3  UNL d   1       0.022  -0.288   1.383  0.00  0.00     0.006 A 
ATOM      3  C4  UNL d   1      -0.783   0.710   1.938  0.00  0.00     0.002 A 
ATOM      4  C5  UNL d   1      -1.437   1.633   1.115  0.00  0.00    -0.080 A 
ATOM      5  C6  UNL d   1      -2.328   2.690   1.695  0.00  0.00     0.076 C 
ATOM      6  C7  UNL d   1      -1.254   1.557  -0.270  0.00  0.00     0.002 A 
ATOM      7  C8  UNL d   1      -0.449   0.560  -0.825  0.00  0.00     0.006 A 
ENDROOT
BRANCH   1   8
ATOM      8  C1  UNL d   1       1.006  -1.489  -0.608  0.00  0.00     0.054 C 
ATOM      9  C   UNL d   1       0.184  -2.302  -1.598  0.00  0.00     0.018 C 
ENDBRANCH   1   8
TORSDOF 1
ENDMDL
