MODEL 1
REMARK minimizedAffinity -3.88230109
REMARK minimizedRMSD -1
REMARK  1 active torsions:
REMARK  status: ('A' for Active; 'I' for Inactive)
REMARK    1  A    between atoms: C1_2  and  C2_3 
ROOT
ATOM      1  C2  UNL d   1       0.859   0.042  -0.286  0.00  0.00    -0.081 A 
ATOM      2  C3  UNL d   1       0.732   1.304  -0.879  0.00  0.00     0.006 A 
ATOM      3  C4  UNL d   1      -0.166   2.241  -0.364  0.00  0.00     0.002 A 
ATOM      4  C5  UNL d   1      -0.946   1.936   0.756  0.00  0.00    -0.080 A 
ATOM      5  C6  UNL d   1      -1.893   2.944   1.337  0.00  0.00     0.076 C 
ATOM      6  C7  UNL d   1      -0.833   0.669   1.338  0.00  0.00     0.002 A 
ATOM      7  C8  UNL d   1       0.065  -0.269   0.823  0.00  0.00     0.006 A 
ENDROOT
BRANCH   1   8
ATOM      8  C1  UNL d   1       1.873  -0.948  -0.799  0.00  0.00     0.054 C 
ATOM      9  C   UNL d   1       1.200  -2.207  -1.328  0.00  0.00     0.018 C 
ENDBRANCH   1   8
TORSDOF 1
ENDMDL
