MODEL 1
REMARK minimizedAffinity -5.1858654
REMARK minimizedRMSD -1
REMARK  1 active torsions:
REMARK  status: ('A' for Active; 'I' for Inactive)
REMARK    1  A    between atoms: C1_2  and  C2_3 
ROOT
ATOM      1  C2  UNL d   1       0.643  -0.022   0.152  0.00  0.00    -0.081 A 
ATOM      2  C3  UNL d   1       0.249   1.050  -0.658  0.00  0.00     0.006 A 
ATOM      3  C4  UNL d   1      -0.716   1.957  -0.214  0.00  0.00     0.002 A 
ATOM      4  C5  UNL d   1      -1.296   1.813   1.051  0.00  0.00    -0.080 A 
ATOM      5  C6  UNL d   1      -2.311   2.797   1.553  0.00  0.00     0.076 C 
ATOM      6  C7  UNL d   1      -0.916   0.732   1.854  0.00  0.00     0.002 A 
ATOM      7  C8  UNL d   1       0.048  -0.176   1.409  0.00  0.00     0.006 A 
ENDROOT
BRANCH   1   8
ATOM      8  C1  UNL d   1       1.730  -0.964  -0.298  0.00  0.00     0.054 C 
ATOM      9  C   UNL d   1       1.170  -2.076  -1.173  0.00  0.00     0.018 C 
ENDBRANCH   1   8
TORSDOF 1
ENDMDL
