MODEL 1
REMARK minimizedAffinity -5.50996256
REMARK minimizedRMSD -1
REMARK  1 active torsions:
REMARK  status: ('A' for Active; 'I' for Inactive)
REMARK    1  A    between atoms: C1_2  and  C2_3 
ROOT
ATOM      1  C2  UNL d   1       0.540   0.114  -0.156  0.00  0.00    -0.081 A 
ATOM      2  C3  UNL d   1      -0.005  -0.130   1.110  0.00  0.00     0.006 A 
ATOM      3  C4  UNL d   1      -0.896   0.780   1.685  0.00  0.00     0.002 A 
ATOM      4  C5  UNL d   1      -1.261   1.944   1.001  0.00  0.00    -0.080 A 
ATOM      5  C6  UNL d   1      -2.239   2.914   1.594  0.00  0.00     0.076 C 
ATOM      6  C7  UNL d   1      -0.703   2.197  -0.256  0.00  0.00     0.002 A 
ATOM      7  C8  UNL d   1       0.188   1.288  -0.832  0.00  0.00     0.006 A 
ENDROOT
BRANCH   1   8
ATOM      8  C1  UNL d   1       1.450  -0.896  -0.807  0.00  0.00     0.054 C 
ATOM      9  C   UNL d   1       0.661  -1.896  -1.640  0.00  0.00     0.018 C 
ENDBRANCH   1   8
TORSDOF 1
ENDMDL
