MODEL 1
REMARK minimizedAffinity -2.25941873
REMARK minimizedRMSD -1
REMARK  0 active torsions:
REMARK  status: ('A' for Active; 'I' for Inactive)
ROOT
ATOM      1  C   UNL d   1       0.390  -0.345  -1.269  0.00  0.00     0.172 C 
ATOM      2  N   UNL d   1       0.650  -0.119  -2.672  0.00  0.00    -0.070 N 
ATOM      3  C1  UNL d   1       1.677   0.629  -3.183  0.00  0.00    -0.004 A 
ATOM      4  C2  UNL d   1       1.579   0.597  -4.557  0.00  0.00    -0.047 A 
ATOM      5  C3  UNL d   1       0.453  -0.196  -4.883  0.00  0.00    -0.047 A 
ATOM      6  C4  UNL d   1      -0.103  -0.627  -3.697  0.00  0.00    -0.004 A 
ENDROOT
TORSDOF 0
ENDMDL
