MODEL 1
REMARK minimizedAffinity -1.77688622
REMARK minimizedRMSD -1
REMARK  0 active torsions:
REMARK  status: ('A' for Active; 'I' for Inactive)
ROOT
ATOM      1  C   UNL d   1       0.731   0.875  -4.631  0.00  0.00     0.172 C 
ATOM      2  N   UNL d   1      -0.126  -0.240  -4.962  0.00  0.00    -0.070 N 
ATOM      3  C1  UNL d   1      -0.173  -1.436  -4.296  0.00  0.00    -0.004 A 
ATOM      4  C2  UNL d   1      -1.113  -2.228  -4.919  0.00  0.00    -0.047 A 
ATOM      5  C3  UNL d   1      -1.649  -1.484  -5.996  0.00  0.00    -0.047 A 
ATOM      6  C4  UNL d   1      -1.020  -0.256  -6.000  0.00  0.00    -0.004 A 
ENDROOT
TORSDOF 0
ENDMDL
