MODEL 1
REMARK minimizedAffinity -3.93157339
REMARK minimizedRMSD -1
REMARK  0 active torsions:
REMARK  status: ('A' for Active; 'I' for Inactive)
ROOT
ATOM      1  C   UNL d   1       0.131  -0.304  -0.120  0.00  0.00     0.172 C 
ATOM      2  N   UNL d   1       0.307   0.138   1.244  0.00  0.00    -0.070 N 
ATOM      3  C1  UNL d   1      -0.602   0.856   1.973  0.00  0.00    -0.004 A 
ATOM      4  C2  UNL d   1      -0.062   1.077   3.222  0.00  0.00    -0.047 A 
ATOM      5  C3  UNL d   1       1.217   0.471   3.243  0.00  0.00    -0.047 A 
ATOM      6  C4  UNL d   1       1.420  -0.103   2.005  0.00  0.00    -0.004 A 
ENDROOT
TORSDOF 0
ENDMDL
