MODEL 1
REMARK minimizedAffinity -3.76643944
REMARK minimizedRMSD -1
REMARK  0 active torsions:
REMARK  status: ('A' for Active; 'I' for Inactive)
ROOT
ATOM      1  C   UNL d   1       0.676  -0.747  -1.300  0.00  0.00     0.172 C 
ATOM      2  N   UNL d   1       0.503  -0.296   0.061  0.00  0.00    -0.070 N 
ATOM      3  C1  UNL d   1       1.369  -0.530   1.096  0.00  0.00    -0.004 A 
ATOM      4  C2  UNL d   1       0.847   0.063   2.225  0.00  0.00    -0.047 A 
ATOM      5  C3  UNL d   1      -0.375   0.674   1.857  0.00  0.00    -0.047 A 
ATOM      6  C4  UNL d   1      -0.564   0.436   0.511  0.00  0.00    -0.004 A 
ENDROOT
TORSDOF 0
ENDMDL
