MODEL 1
REMARK minimizedAffinity -2.14101434
REMARK minimizedRMSD -1
REMARK  0 active torsions:
REMARK  status: ('A' for Active; 'I' for Inactive)
ROOT
ATOM      1  C   UNL d   1      -1.170   1.890   2.701  0.00  0.00     0.172 C 
ATOM      2  N   UNL d   1      -0.948   1.016   1.573  0.00  0.00    -0.070 N 
ATOM      3  C1  UNL d   1       0.261   0.501   1.188  0.00  0.00    -0.004 A 
ATOM      4  C2  UNL d   1       0.051  -0.281   0.073  0.00  0.00    -0.047 A 
ATOM      5  C3  UNL d   1      -1.332  -0.234  -0.223  0.00  0.00    -0.047 A 
ATOM      6  C4  UNL d   1      -1.927   0.576   0.722  0.00  0.00    -0.004 A 
ENDROOT
TORSDOF 0
ENDMDL
