MODEL 1
REMARK minimizedAffinity -4.03658199
REMARK minimizedRMSD -1
REMARK  0 active torsions:
REMARK  status: ('A' for Active; 'I' for Inactive)
ROOT
ATOM      1  C   UNL d   1       0.228  -0.022  -0.631  0.00  0.00     0.172 C 
ATOM      2  N   UNL d   1      -0.370   0.461   0.591  0.00  0.00    -0.070 N 
ATOM      3  C1  UNL d   1       0.312   0.920   1.686  0.00  0.00    -0.004 A 
ATOM      4  C2  UNL d   1      -0.615   1.286   2.638  0.00  0.00    -0.047 A 
ATOM      5  C3  UNL d   1      -1.898   1.037   2.097  0.00  0.00    -0.047 A 
ATOM      6  C4  UNL d   1      -1.717   0.526   0.829  0.00  0.00    -0.004 A 
ENDROOT
TORSDOF 0
ENDMDL
