MODEL 1
REMARK minimizedAffinity -3.82103324
REMARK minimizedRMSD -1
REMARK  0 active torsions:
REMARK  status: ('A' for Active; 'I' for Inactive)
ROOT
ATOM      1  C   UNL d   1       0.378  -0.756  -0.846  0.00  0.00     0.172 C 
ATOM      2  N   UNL d   1       0.041  -0.042   0.363  0.00  0.00    -0.070 N 
ATOM      3  C1  UNL d   1      -1.223   0.307   0.758  0.00  0.00    -0.004 A 
ATOM      4  C2  UNL d   1      -1.120   0.973   1.961  0.00  0.00    -0.047 A 
ATOM      5  C3  UNL d   1       0.253   1.026   2.299  0.00  0.00    -0.047 A 
ATOM      6  C4  UNL d   1       0.949   0.391   1.293  0.00  0.00    -0.004 A 
ENDROOT
TORSDOF 0
ENDMDL
