MODEL 1
REMARK minimizedAffinity -4.0379982
REMARK minimizedRMSD -1
REMARK  0 active torsions:
REMARK  status: ('A' for Active; 'I' for Inactive)
ROOT
ATOM      1  C   UNL d   1       0.702  -0.820  -0.792  0.00  0.00     0.172 C 
ATOM      2  N   UNL d   1       0.069  -0.093   0.283  0.00  0.00    -0.070 N 
ATOM      3  C1  UNL d   1       0.715   0.513   1.327  0.00  0.00    -0.004 A 
ATOM      4  C2  UNL d   1      -0.238   1.097   2.132  0.00  0.00    -0.047 A 
ATOM      5  C3  UNL d   1      -1.502   0.831   1.554  0.00  0.00    -0.047 A 
ATOM      6  C4  UNL d   1      -1.283   0.093   0.410  0.00  0.00    -0.004 A 
ENDROOT
TORSDOF 0
ENDMDL
