MODEL 1
REMARK minimizedAffinity 2.7174933
REMARK minimizedRMSD -1
REMARK  0 active torsions:
REMARK  status: ('A' for Active; 'I' for Inactive)
ROOT
ATOM      1  C4' PXY d   1       2.661   1.035  -3.335  0.00  0.00     0.077 C 
ATOM      2  C1' PXY d   1       4.455   2.002   2.074  0.00  0.00     0.077 C 
ATOM      3  C1  PXY d   1       3.988   1.761   0.652  0.00  0.00    -0.082 A 
ATOM      4  C2  PXY d   1       3.068   0.841   0.413  0.00  0.00     0.003 A 
ATOM      5  C3  PXY d   1       2.657   0.587  -0.871  0.00  0.00     0.003 A 
ATOM      6  C4  PXY d   1       3.156   1.320  -1.914  0.00  0.00    -0.082 A 
ATOM      7  C5  PXY d   1       4.087   2.267  -1.678  0.00  0.00     0.003 A 
ATOM      8  C6  PXY d   1       4.521   2.481  -0.372  0.00  0.00     0.003 A 
ENDROOT
TORSDOF 0
ENDMDL
