MODEL 1
REMARK minimizedAffinity 2.35254264
REMARK minimizedRMSD -1
REMARK  0 active torsions:
REMARK  status: ('A' for Active; 'I' for Inactive)
ROOT
ATOM      1  C4' PXY d   1      -4.293   1.017   3.577  0.00  0.00     0.077 C 
ATOM      2  C1' PXY d   1       0.225  -0.884   0.512  0.00  0.00     0.077 C 
ATOM      3  C1  PXY d   1      -0.964  -0.379   1.305  0.00  0.00    -0.082 A 
ATOM      4  C2  PXY d   1      -0.886  -0.304   2.624  0.00  0.00     0.003 A 
ATOM      5  C3  PXY d   1      -1.963   0.121   3.359  0.00  0.00     0.003 A 
ATOM      6  C4  PXY d   1      -3.114   0.522   2.735  0.00  0.00    -0.082 A 
ATOM      7  C5  PXY d   1      -3.197   0.458   1.389  0.00  0.00     0.003 A 
ATOM      8  C6  PXY d   1      -2.107  -0.014   0.664  0.00  0.00     0.003 A 
ENDROOT
TORSDOF 0
ENDMDL
