MODEL 1
REMARK minimizedAffinity 9.09116077
REMARK minimizedRMSD -1
REMARK  0 active torsions:
REMARK  status: ('A' for Active; 'I' for Inactive)
ROOT
ATOM      1  C4' PXY d   1       1.385  -2.022   2.243  0.00  0.00     0.077 C 
ATOM      2  C1' PXY d   1      -3.795  -0.350   0.297  0.00  0.00     0.077 C 
ATOM      3  C1  PXY d   1      -2.441  -0.801   0.807  0.00  0.00    -0.082 A 
ATOM      4  C2  PXY d   1      -1.687   0.041   1.495  0.00  0.00     0.003 A 
ATOM      5  C3  PXY d   1      -0.446  -0.340   1.936  0.00  0.00     0.003 A 
ATOM      6  C4  PXY d   1       0.006  -1.613   1.717  0.00  0.00    -0.082 A 
ATOM      7  C5  PXY d   1      -0.761  -2.482   1.024  0.00  0.00     0.003 A 
ATOM      8  C6  PXY d   1      -2.001  -2.063   0.550  0.00  0.00     0.003 A 
ENDROOT
TORSDOF 0
ENDMDL
