MODEL 1
REMARK minimizedAffinity 12.363266
REMARK minimizedRMSD -1
REMARK  0 active torsions:
REMARK  status: ('A' for Active; 'I' for Inactive)
ROOT
ATOM      1  C4' PXY d   1       5.293   3.966  -1.824  0.00  0.00     0.077 C 
ATOM      2  C1' PXY d   1       2.622  -0.581  -4.191  0.00  0.00     0.077 C 
ATOM      3  C1  PXY d   1       3.321   0.606  -3.559  0.00  0.00    -0.082 A 
ATOM      4  C2  PXY d   1       3.285   1.784  -4.161  0.00  0.00     0.003 A 
ATOM      5  C3  PXY d   1       3.939   2.860  -3.619  0.00  0.00     0.003 A 
ATOM      6  C4  PXY d   1       4.593   2.743  -2.421  0.00  0.00    -0.082 A 
ATOM      7  C5  PXY d   1       4.625   1.547  -1.796  0.00  0.00     0.003 A 
ATOM      8  C6  PXY d   1       3.990   0.457  -2.383  0.00  0.00     0.003 A 
ENDROOT
TORSDOF 0
ENDMDL
