MODEL 1
REMARK minimizedAffinity 12.6795864
REMARK minimizedRMSD -1
REMARK  0 active torsions:
REMARK  status: ('A' for Active; 'I' for Inactive)
ROOT
ATOM      1  C4' PXY d   1       1.154  -2.043   2.833  0.00  0.00     0.077 C 
ATOM      2  C1' PXY d   1      -3.788  -0.839   0.087  0.00  0.00     0.077 C 
ATOM      3  C1  PXY d   1      -2.489  -1.142   0.808  0.00  0.00    -0.082 A 
ATOM      4  C2  PXY d   1      -1.946  -2.344   0.700  0.00  0.00     0.003 A 
ATOM      5  C3  PXY d   1      -0.789  -2.645   1.370  0.00  0.00     0.003 A 
ATOM      6  C4  PXY d   1      -0.152  -1.690   2.116  0.00  0.00    -0.082 A 
ATOM      7  C5  PXY d   1      -0.693  -0.458   2.222  0.00  0.00     0.003 A 
ATOM      8  C6  PXY d   1      -1.891  -0.185   1.567  0.00  0.00     0.003 A 
ENDROOT
TORSDOF 0
ENDMDL
