MODEL 1
REMARK minimizedAffinity 6.18062687
REMARK minimizedRMSD -1
REMARK  0 active torsions:
REMARK  status: ('A' for Active; 'I' for Inactive)
ROOT
ATOM      1  C4' PXY d   1      -3.443   0.443   1.154  0.00  0.00     0.077 C 
ATOM      2  C1' PXY d   1       1.498  -2.408   0.218  0.00  0.00     0.077 C 
ATOM      3  C1  PXY d   1       0.198  -1.665   0.452  0.00  0.00    -0.082 A 
ATOM      4  C2  PXY d   1       0.187  -0.594   1.230  0.00  0.00     0.003 A 
ATOM      5  C3  PXY d   1      -0.986   0.071   1.478  0.00  0.00     0.003 A 
ATOM      6  C4  PXY d   1      -2.151  -0.333   0.881  0.00  0.00    -0.082 A 
ATOM      7  C5  PXY d   1      -2.146  -1.418   0.078  0.00  0.00     0.003 A 
ATOM      8  C6  PXY d   1      -0.952  -2.103  -0.128  0.00  0.00     0.003 A 
ENDROOT
TORSDOF 0
ENDMDL
