MODEL 1
REMARK minimizedAffinity 0.453454792
REMARK minimizedRMSD -1
REMARK  0 active torsions:
REMARK  status: ('A' for Active; 'I' for Inactive)
ROOT
ATOM      1  C4' PXY d   1       3.838  -0.071   0.862  0.00  0.00     0.077 C 
ATOM      2  C1' PXY d   1       5.007   5.517   1.764  0.00  0.00     0.077 C 
ATOM      3  C1  PXY d   1       4.699   4.054   1.514  0.00  0.00    -0.082 A 
ATOM      4  C2  PXY d   1       4.221   3.309   2.498  0.00  0.00     0.003 A 
ATOM      5  C3  PXY d   1       3.967   1.977   2.299  0.00  0.00     0.003 A 
ATOM      6  C4  PXY d   1       4.154   1.413   1.066  0.00  0.00    -0.082 A 
ATOM      7  C5  PXY d   1       4.631   2.168   0.054  0.00  0.00     0.003 A 
ATOM      8  C6  PXY d   1       4.921   3.509   0.288  0.00  0.00     0.003 A 
ENDROOT
TORSDOF 0
ENDMDL
