MODEL 1
REMARK minimizedAffinity 8.04758263
REMARK minimizedRMSD -1
REMARK  0 active torsions:
REMARK  status: ('A' for Active; 'I' for Inactive)
ROOT
ATOM      1  C4' PXY d   1      -4.846   1.828  -2.272  0.00  0.00     0.077 C 
ATOM      2  C1' PXY d   1      -4.875  -3.140  -5.227  0.00  0.00     0.077 C 
ATOM      3  C1  PXY d   1      -4.855  -1.840  -4.448  0.00  0.00    -0.082 A 
ATOM      4  C2  PXY d   1      -5.997  -1.279  -4.081  0.00  0.00     0.003 A 
ATOM      5  C3  PXY d   1      -5.998  -0.087  -3.404  0.00  0.00     0.003 A 
ATOM      6  C4  PXY d   1      -4.818   0.511  -3.052  0.00  0.00    -0.082 A 
ATOM      7  C5  PXY d   1      -3.649  -0.060  -3.412  0.00  0.00     0.003 A 
ATOM      8  C6  PXY d   1      -3.670  -1.249  -4.135  0.00  0.00     0.003 A 
ENDROOT
TORSDOF 0
ENDMDL
