MODEL 1
REMARK minimizedAffinity 10.3029499
REMARK minimizedRMSD -1
REMARK  0 active torsions:
REMARK  status: ('A' for Active; 'I' for Inactive)
ROOT
ATOM      1  C4' PXY d   1      -4.971   1.660  -2.478  0.00  0.00     0.077 C 
ATOM      2  C1' PXY d   1      -5.055  -2.924  -5.999  0.00  0.00     0.077 C 
ATOM      3  C1  PXY d   1      -5.046  -1.723  -5.073  0.00  0.00    -0.082 A 
ATOM      4  C2  PXY d   1      -4.109  -0.799  -5.211  0.00  0.00     0.003 A 
ATOM      5  C3  PXY d   1      -4.067   0.277  -4.362  0.00  0.00     0.003 A 
ATOM      6  C4  PXY d   1      -5.025   0.436  -3.396  0.00  0.00    -0.082 A 
ATOM      7  C5  PXY d   1      -5.990  -0.498  -3.256  0.00  0.00     0.003 A 
ATOM      8  C6  PXY d   1      -5.991  -1.603  -4.102  0.00  0.00     0.003 A 
ENDROOT
TORSDOF 0
ENDMDL
