MODEL 1
REMARK minimizedAffinity 5.97013903
REMARK minimizedRMSD -1
REMARK  0 active torsions:
REMARK  status: ('A' for Active; 'I' for Inactive)
ROOT
ATOM      1  C4' PXY d   1      -3.100  -0.318   0.452  0.00  0.00     0.077 C 
ATOM      2  C1' PXY d   1       2.281  -2.411   0.733  0.00  0.00     0.077 C 
ATOM      3  C1  PXY d   1       0.866  -1.871   0.650  0.00  0.00    -0.082 A 
ATOM      4  C2  PXY d   1       0.622  -0.620   1.003  0.00  0.00     0.003 A 
ATOM      5  C3  PXY d   1      -0.656  -0.125   0.964  0.00  0.00     0.003 A 
ATOM      6  C4  PXY d   1      -1.687  -0.903   0.510  0.00  0.00    -0.082 A 
ATOM      7  C5  PXY d   1      -1.444  -2.178   0.139  0.00  0.00     0.003 A 
ATOM      8  C6  PXY d   1      -0.146  -2.674   0.224  0.00  0.00     0.003 A 
ENDROOT
TORSDOF 0
ENDMDL
