MODEL 1
REMARK minimizedAffinity 10.1968107
REMARK minimizedRMSD -1
REMARK  0 active torsions:
REMARK  status: ('A' for Active; 'I' for Inactive)
ROOT
ATOM      1  C4' PXY d   1       0.730  -2.401   1.482  0.00  0.00     0.077 C 
ATOM      2  C1' PXY d   1      -3.743   0.812  -0.274  0.00  0.00     0.077 C 
ATOM      3  C1  PXY d   1      -2.576  -0.041   0.183  0.00  0.00    -0.082 A 
ATOM      4  C2  PXY d   1      -1.745   0.424   1.102  0.00  0.00     0.003 A 
ATOM      5  C3  PXY d   1      -0.667  -0.322   1.503  0.00  0.00     0.003 A 
ATOM      6  C4  PXY d   1      -0.466  -1.578   0.997  0.00  0.00    -0.082 A 
ATOM      7  C5  PXY d   1      -1.316  -2.064   0.067  0.00  0.00     0.003 A 
ATOM      8  C6  PXY d   1      -2.381  -1.275  -0.357  0.00  0.00     0.003 A 
ENDROOT
TORSDOF 0
ENDMDL
