MODEL 1
REMARK minimizedAffinity -0.896660686
REMARK minimizedRMSD -1
REMARK  0 active torsions:
REMARK  status: ('A' for Active; 'I' for Inactive)
ROOT
ATOM      1  C4' PXY d   1       0.273   3.066  -0.781  0.00  0.00     0.077 C 
ATOM      2  C1' PXY d   1      -1.740  -2.218   0.419  0.00  0.00     0.077 C 
ATOM      3  C1  PXY d   1      -1.215  -0.834   0.091  0.00  0.00    -0.082 A 
ATOM      4  C2  PXY d   1      -0.333  -0.262   0.895  0.00  0.00     0.003 A 
ATOM      5  C3  PXY d   1       0.128   1.002   0.632  0.00  0.00     0.003 A 
ATOM      6  C4  PXY d   1      -0.278   1.666  -0.495  0.00  0.00    -0.082 A 
ATOM      7  C5  PXY d   1      -1.169   1.085  -1.325  0.00  0.00     0.003 A 
ATOM      8  C6  PXY d   1      -1.656  -0.182  -1.018  0.00  0.00     0.003 A 
ENDROOT
TORSDOF 0
ENDMDL
