MODEL 1
REMARK minimizedAffinity 5.43612432
REMARK minimizedRMSD -1
REMARK  0 active torsions:
REMARK  status: ('A' for Active; 'I' for Inactive)
ROOT
ATOM      1  C4' PXY d   1      -3.610   1.062  -0.295  0.00  0.00     0.077 C 
ATOM      2  C1' PXY d   1       0.563  -2.181   2.046  0.00  0.00     0.077 C 
ATOM      3  C1  PXY d   1      -0.529  -1.322   1.441  0.00  0.00    -0.082 A 
ATOM      4  C2  PXY d   1      -1.458  -1.882   0.683  0.00  0.00     0.003 A 
ATOM      5  C3  PXY d   1      -2.435  -1.115   0.102  0.00  0.00     0.003 A 
ATOM      6  C4  PXY d   1      -2.493   0.232   0.343  0.00  0.00    -0.082 A 
ATOM      7  C5  PXY d   1      -1.555   0.809   1.124  0.00  0.00     0.003 A 
ATOM      8  C6  PXY d   1      -0.548   0.019   1.671  0.00  0.00     0.003 A 
ENDROOT
TORSDOF 0
ENDMDL
