MODEL 1
REMARK minimizedAffinity 21.1324329
REMARK minimizedRMSD -1
REMARK  0 active torsions:
REMARK  status: ('A' for Active; 'I' for Inactive)
ROOT
ATOM      1  C4' PXY d   1       1.115   2.307   0.064  0.00  0.00     0.077 C 
ATOM      2  C1' PXY d   1       5.052  -1.870   0.750  0.00  0.00     0.077 C 
ATOM      3  C1  PXY d   1       4.012  -0.782   0.562  0.00  0.00    -0.082 A 
ATOM      4  C2  PXY d   1       4.361   0.487   0.699  0.00  0.00     0.003 A 
ATOM      5  C3  PXY d   1       3.427   1.481   0.565  0.00  0.00     0.003 A 
ATOM      6  C4  PXY d   1       2.134   1.177   0.234  0.00  0.00    -0.082 A 
ATOM      7  C5  PXY d   1       1.772  -0.115   0.083  0.00  0.00     0.003 A 
ATOM      8  C6  PXY d   1       2.726  -1.112   0.264  0.00  0.00     0.003 A 
ENDROOT
TORSDOF 0
ENDMDL
