MODEL 1
REMARK minimizedAffinity -1.80253553
REMARK minimizedRMSD -1
REMARK  0 active torsions:
REMARK  status: ('A' for Active; 'I' for Inactive)
ROOT
ATOM      1  C4' PXY d   1      -0.675  -0.489   0.943  0.00  0.00     0.077 C 
ATOM      2  C1' PXY d   1       4.406   1.712  -0.713  0.00  0.00     0.077 C 
ATOM      3  C1  PXY d   1       3.069   1.147  -0.278  0.00  0.00    -0.082 A 
ATOM      4  C2  PXY d   1       3.012  -0.065   0.249  0.00  0.00     0.003 A 
ATOM      5  C3  PXY d   1       1.806  -0.605   0.619  0.00  0.00     0.003 A 
ATOM      6  C4  PXY d   1       0.654   0.125   0.498  0.00  0.00    -0.082 A 
ATOM      7  C5  PXY d   1       0.706   1.367  -0.029  0.00  0.00     0.003 A 
ATOM      8  C6  PXY d   1       1.934   1.880  -0.436  0.00  0.00     0.003 A 
ENDROOT
TORSDOF 0
ENDMDL
