MODEL 1
REMARK minimizedAffinity 5.31405115
REMARK minimizedRMSD -1
REMARK  0 active torsions:
REMARK  status: ('A' for Active; 'I' for Inactive)
ROOT
ATOM      1  C4' PXY d   1       0.201  -0.584   0.968  0.00  0.00     0.077 C 
ATOM      2  C1' PXY d   1      -5.175   0.410   2.843  0.00  0.00     0.077 C 
ATOM      3  C1  PXY d   1      -3.770   0.143   2.341  0.00  0.00    -0.082 A 
ATOM      4  C2  PXY d   1      -2.765   0.104   3.200  0.00  0.00     0.003 A 
ATOM      5  C3  PXY d   1      -1.483  -0.104   2.759  0.00  0.00     0.003 A 
ATOM      6  C4  PXY d   1      -1.235  -0.328   1.431  0.00  0.00    -0.082 A 
ATOM      7  C5  PXY d   1      -2.257  -0.301   0.550  0.00  0.00     0.003 A 
ATOM      8  C6  PXY d   1      -3.545  -0.047   1.012  0.00  0.00     0.003 A 
ENDROOT
TORSDOF 0
ENDMDL
