MODEL 1
REMARK minimizedAffinity 8.36602879
REMARK minimizedRMSD -1
REMARK  0 active torsions:
REMARK  status: ('A' for Active; 'I' for Inactive)
ROOT
ATOM      1  C4' PXY d   1       2.898   1.455   0.549  0.00  0.00     0.077 C 
ATOM      2  C1' PXY d   1       3.634  -4.235  -0.152  0.00  0.00     0.077 C 
ATOM      3  C1  PXY d   1       3.430  -2.744   0.025  0.00  0.00    -0.082 A 
ATOM      4  C2  PXY d   1       4.477  -1.959   0.221  0.00  0.00     0.003 A 
ATOM      5  C3  PXY d   1       4.307  -0.612   0.416  0.00  0.00     0.003 A 
ATOM      6  C4  PXY d   1       3.058  -0.055   0.355  0.00  0.00    -0.082 A 
ATOM      7  C5  PXY d   1       1.986  -0.848   0.145  0.00  0.00     0.003 A 
ATOM      8  C6  PXY d   1       2.175  -2.218  -0.009  0.00  0.00     0.003 A 
ENDROOT
TORSDOF 0
ENDMDL
