MODEL 1
REMARK minimizedAffinity 0.290912867
REMARK minimizedRMSD -1
REMARK  0 active torsions:
REMARK  status: ('A' for Active; 'I' for Inactive)
ROOT
ATOM      1  O1  BZF d   1       1.321   3.565  -0.642  0.00  0.00    -0.204 OA
ATOM      2  C2  BZF d   1       1.406   3.673  -2.017  0.00  0.00     0.174 A 
ATOM      3  C3  BZF d   1       1.453   2.453  -2.590  0.00  0.00    -0.012 A 
ATOM      4  C3A BZF d   1       1.301   1.524  -1.512  0.00  0.00    -0.107 A 
ATOM      5  C4  BZF d   1       1.251   0.161  -1.447  0.00  0.00     0.055 A 
ATOM      6  C5  BZF d   1       1.168  -0.439  -0.230  0.00  0.00    -0.016 A 
ATOM      7  C6  BZF d   1       1.139   0.291   0.940  0.00  0.00     0.022 A 
ATOM      8  C7  BZF d   1       1.181   1.646   0.925  0.00  0.00     0.029 A 
ATOM      9  C7A BZF d   1       1.231   2.257  -0.304  0.00  0.00     0.058 A 
ENDROOT
TORSDOF 0
ENDMDL
