MODEL 1
REMARK minimizedAffinity 9.39686775
REMARK minimizedRMSD -1
REMARK  0 active torsions:
REMARK  status: ('A' for Active; 'I' for Inactive)
ROOT
ATOM      1  O1  BZF d   1      -2.101   1.961  -0.649  0.00  0.00    -0.204 OA
ATOM      2  C2  BZF d   1      -2.630   2.597   0.458  0.00  0.00     0.174 A 
ATOM      3  C3  BZF d   1      -1.753   2.582   1.483  0.00  0.00    -0.012 A 
ATOM      4  C3A BZF d   1      -0.569   1.974   0.956  0.00  0.00    -0.107 A 
ATOM      5  C4  BZF d   1       0.657   1.692   1.487  0.00  0.00     0.055 A 
ATOM      6  C5  BZF d   1       1.568   1.028   0.728  0.00  0.00    -0.016 A 
ATOM      7  C6  BZF d   1       1.285   0.626  -0.561  0.00  0.00     0.022 A 
ATOM      8  C7  BZF d   1       0.084   0.888  -1.132  0.00  0.00     0.029 A 
ATOM      9  C7A BZF d   1      -0.827   1.588  -0.380  0.00  0.00     0.058 A 
ENDROOT
TORSDOF 0
ENDMDL
