MODEL 1
REMARK minimizedAffinity 7.61399078
REMARK minimizedRMSD -1
REMARK  0 active torsions:
REMARK  status: ('A' for Active; 'I' for Inactive)
ROOT
ATOM      1  O1  BZF d   1       1.316  -1.161  -0.298  0.00  0.00    -0.204 OA
ATOM      2  C2  BZF d   1       2.110  -0.917   0.807  0.00  0.00     0.174 A 
ATOM      3  C3  BZF d   1       2.575   0.349   0.790  0.00  0.00    -0.012 A 
ATOM      4  C3A BZF d   1       1.965   0.960  -0.351  0.00  0.00    -0.107 A 
ATOM      5  C4  BZF d   1       2.023   2.214  -0.888  0.00  0.00     0.055 A 
ATOM      6  C5  BZF d   1       1.365   2.466  -2.050  0.00  0.00    -0.016 A 
ATOM      7  C6  BZF d   1       0.645   1.488  -2.703  0.00  0.00     0.022 A 
ATOM      8  C7  BZF d   1       0.554   0.230  -2.206  0.00  0.00     0.029 A 
ATOM      9  C7A BZF d   1       1.190  -0.019  -1.015  0.00  0.00     0.058 A 
ENDROOT
TORSDOF 0
ENDMDL
