MODEL 1
REMARK minimizedAffinity 12.9392281
REMARK minimizedRMSD -1
REMARK  0 active torsions:
REMARK  status: ('A' for Active; 'I' for Inactive)
ROOT
ATOM      1  O1  BZF d   1       1.931   4.315   0.325  0.00  0.00    -0.204 OA
ATOM      2  C2  BZF d   1       1.911   5.392  -0.541  0.00  0.00     0.174 A 
ATOM      3  C3  BZF d   1       1.691   4.983  -1.807  0.00  0.00    -0.012 A 
ATOM      4  C3A BZF d   1       1.475   3.572  -1.715  0.00  0.00    -0.107 A 
ATOM      5  C4  BZF d   1       1.192   2.603  -2.635  0.00  0.00     0.055 A 
ATOM      6  C5  BZF d   1       1.113   1.309  -2.229  0.00  0.00    -0.016 A 
ATOM      7  C6  BZF d   1       1.317   0.947  -0.913  0.00  0.00     0.022 A 
ATOM      8  C7  BZF d   1       1.595   1.873   0.037  0.00  0.00     0.029 A 
ATOM      9  C7A BZF d   1       1.642   3.186  -0.365  0.00  0.00     0.058 A 
ENDROOT
TORSDOF 0
ENDMDL
