MODEL 1
REMARK minimizedAffinity -1.33257055
REMARK minimizedRMSD -1
REMARK  0 active torsions:
REMARK  status: ('A' for Active; 'I' for Inactive)
ROOT
ATOM      1  O1  BZF d   1       1.224   2.766  -2.347  0.00  0.00    -0.204 OA
ATOM      2  C2  BZF d   1       1.370   3.974  -1.692  0.00  0.00     0.174 A 
ATOM      3  C3  BZF d   1       1.390   3.793  -0.356  0.00  0.00    -0.012 A 
ATOM      4  C3A BZF d   1       1.340   2.376  -0.166  0.00  0.00    -0.107 A 
ATOM      5  C4  BZF d   1       1.347   1.576   0.940  0.00  0.00     0.055 A 
ATOM      6  C5  BZF d   1       1.213   0.233   0.785  0.00  0.00    -0.016 A 
ATOM      7  C6  BZF d   1       1.066  -0.343  -0.460  0.00  0.00     0.022 A 
ATOM      8  C7  BZF d   1       1.058   0.409  -1.587  0.00  0.00     0.029 A 
ATOM      9  C7A BZF d   1       1.226   1.764  -1.436  0.00  0.00     0.058 A 
ENDROOT
TORSDOF 0
ENDMDL
