MODEL 1
REMARK minimizedAffinity -2.07027364
REMARK minimizedRMSD -1
REMARK  0 active torsions:
REMARK  status: ('A' for Active; 'I' for Inactive)
ROOT
ATOM      1  O1  BZF d   1       1.812   3.910   0.116  0.00  0.00    -0.204 OA
ATOM      2  C2  BZF d   1       1.899   4.537  -1.112  0.00  0.00     0.174 A 
ATOM      3  C3  BZF d   1       1.729   3.651  -2.114  0.00  0.00    -0.012 A 
ATOM      4  C3A BZF d   1       1.429   2.408  -1.471  0.00  0.00    -0.107 A 
ATOM      5  C4  BZF d   1       1.145   1.156  -1.935  0.00  0.00     0.055 A 
ATOM      6  C5  BZF d   1       0.972   0.145  -1.044  0.00  0.00    -0.016 A 
ATOM      7  C6  BZF d   1       1.082   0.349   0.316  0.00  0.00     0.022 A 
ATOM      8  C7  BZF d   1       1.358   1.575   0.824  0.00  0.00     0.029 A 
ATOM      9  C7A BZF d   1       1.500   2.606  -0.073  0.00  0.00     0.058 A 
ENDROOT
TORSDOF 0
ENDMDL
