MODEL 1
REMARK minimizedAffinity 7.25270605
REMARK minimizedRMSD -1
REMARK  0 active torsions:
REMARK  status: ('A' for Active; 'I' for Inactive)
ROOT
ATOM      1  O1  BZF d   1       1.282   5.119   0.680  0.00  0.00    -0.204 OA
ATOM      2  C2  BZF d   1       1.573   5.999  -0.344  0.00  0.00     0.174 A 
ATOM      3  C3  BZF d   1       1.800   5.335  -1.495  0.00  0.00    -0.012 A 
ATOM      4  C3A BZF d   1       1.550   3.960  -1.192  0.00  0.00    -0.107 A 
ATOM      5  C4  BZF d   1       1.592   2.813  -1.932  0.00  0.00     0.055 A 
ATOM      6  C5  BZF d   1       1.364   1.622  -1.318  0.00  0.00    -0.016 A 
ATOM      7  C6  BZF d   1       1.097   1.541   0.033  0.00  0.00     0.022 A 
ATOM      8  C7  BZF d   1       1.040   2.652   0.807  0.00  0.00     0.029 A 
ATOM      9  C7A BZF d   1       1.237   3.859   0.183  0.00  0.00     0.058 A 
ENDROOT
TORSDOF 0
ENDMDL
