MODEL 1
REMARK minimizedAffinity -2.02756858
REMARK minimizedRMSD -1
REMARK  0 active torsions:
REMARK  status: ('A' for Active; 'I' for Inactive)
ROOT
ATOM      1  O1  BZF d   1       1.431   3.804   0.401  0.00  0.00    -0.204 OA
ATOM      2  C2  BZF d   1       1.459   4.572  -0.747  0.00  0.00     0.174 A 
ATOM      3  C3  BZF d   1       1.376   3.794  -1.846  0.00  0.00    -0.012 A 
ATOM      4  C3A BZF d   1       1.198   2.463  -1.352  0.00  0.00    -0.107 A 
ATOM      5  C4  BZF d   1       1.037   1.251  -1.958  0.00  0.00     0.055 A 
ATOM      6  C5  BZF d   1       0.962   0.132  -1.189  0.00  0.00    -0.016 A 
ATOM      7  C6  BZF d   1       1.051   0.190   0.186  0.00  0.00     0.022 A 
ATOM      8  C7  BZF d   1       1.205   1.371   0.833  0.00  0.00     0.029 A 
ATOM      9  C7A BZF d   1       1.248   2.506   0.061  0.00  0.00     0.058 A 
ENDROOT
TORSDOF 0
ENDMDL
