MODEL 1
REMARK minimizedAffinity 4.87943316
REMARK minimizedRMSD -1
REMARK  0 active torsions:
REMARK  status: ('A' for Active; 'I' for Inactive)
ROOT
ATOM      1  O1  BZF d   1       1.797   5.072   0.415  0.00  0.00    -0.204 OA
ATOM      2  C2  BZF d   1       1.993   5.990  -0.599  0.00  0.00     0.174 A 
ATOM      3  C3  BZF d   1       1.977   5.383  -1.803  0.00  0.00    -0.012 A 
ATOM      4  C3A BZF d   1       1.665   4.014  -1.531  0.00  0.00    -0.107 A 
ATOM      5  C4  BZF d   1       1.492   2.915  -2.323  0.00  0.00     0.055 A 
ATOM      6  C5  BZF d   1       1.267   1.709  -1.739  0.00  0.00    -0.016 A 
ATOM      7  C6  BZF d   1       1.214   1.564  -0.368  0.00  0.00     0.022 A 
ATOM      8  C7  BZF d   1       1.374   2.627   0.459  0.00  0.00     0.029 A 
ATOM      9  C7A BZF d   1       1.569   3.852  -0.129  0.00  0.00     0.058 A 
ENDROOT
TORSDOF 0
ENDMDL
