MODEL 1
REMARK minimizedAffinity -2.44534683
REMARK minimizedRMSD -1
REMARK  0 active torsions:
REMARK  status: ('A' for Active; 'I' for Inactive)
ROOT
ATOM      1  O1  BZF d   1       1.519   4.140  -2.114  0.00  0.00    -0.204 OA
ATOM      2  C2  BZF d   1       1.818   5.147  -1.216  0.00  0.00     0.174 A 
ATOM      3  C3  BZF d   1       1.843   4.670   0.045  0.00  0.00    -0.012 A 
ATOM      4  C3A BZF d   1       1.633   3.261  -0.080  0.00  0.00    -0.107 A 
ATOM      5  C4  BZF d   1       1.569   2.237   0.821  0.00  0.00     0.055 A 
ATOM      6  C5  BZF d   1       1.278   0.985   0.379  0.00  0.00    -0.016 A 
ATOM      7  C6  BZF d   1       1.040   0.723  -0.954  0.00  0.00     0.022 A 
ATOM      8  C7  BZF d   1       1.097   1.705  -1.886  0.00  0.00     0.029 A 
ATOM      9  C7A BZF d   1       1.424   2.965  -1.447  0.00  0.00     0.058 A 
ENDROOT
TORSDOF 0
ENDMDL
