MODEL 1
REMARK minimizedAffinity 3.60214329
REMARK minimizedRMSD -1
REMARK  0 active torsions:
REMARK  status: ('A' for Active; 'I' for Inactive)
ROOT
ATOM      1  O1  BZF d   1       1.470   1.791  -2.333  0.00  0.00    -0.204 OA
ATOM      2  C2  BZF d   1       0.788   2.988  -2.236  0.00  0.00     0.174 A 
ATOM      3  C3  BZF d   1       0.808   3.449  -0.968  0.00  0.00    -0.012 A 
ATOM      4  C3A BZF d   1       1.628   2.525  -0.245  0.00  0.00    -0.107 A 
ATOM      5  C4  BZF d   1       2.038   2.453   1.055  0.00  0.00     0.055 A 
ATOM      6  C5  BZF d   1       2.774   1.384   1.457  0.00  0.00    -0.016 A 
ATOM      7  C6  BZF d   1       3.113   0.367   0.588  0.00  0.00     0.022 A 
ATOM      8  C7  BZF d   1       2.733   0.398  -0.713  0.00  0.00     0.029 A 
ATOM      9  C7A BZF d   1       2.017   1.493  -1.130  0.00  0.00     0.058 A 
ENDROOT
TORSDOF 0
ENDMDL
