MODEL 1
REMARK minimizedAffinity 0.815942168
REMARK minimizedRMSD -1
REMARK  0 active torsions:
REMARK  status: ('A' for Active; 'I' for Inactive)
ROOT
ATOM      1  O1  BZF d   1       0.731   3.160  -1.357  0.00  0.00    -0.204 OA
ATOM      2  C2  BZF d   1       0.740   2.677  -2.651  0.00  0.00     0.174 A 
ATOM      3  C3  BZF d   1       1.052   1.365  -2.670  0.00  0.00    -0.012 A 
ATOM      4  C3A BZF d   1       1.161   0.985  -1.295  0.00  0.00    -0.107 A 
ATOM      5  C4  BZF d   1       1.436  -0.196  -0.667  0.00  0.00     0.055 A 
ATOM      6  C5  BZF d   1       1.541  -0.215   0.688  0.00  0.00    -0.016 A 
ATOM      7  C6  BZF d   1       1.382   0.928   1.444  0.00  0.00     0.022 A 
ATOM      8  C7  BZF d   1       1.103   2.122   0.866  0.00  0.00     0.029 A 
ATOM      9  C7A BZF d   1       0.964   2.137  -0.500  0.00  0.00     0.058 A 
ENDROOT
TORSDOF 0
ENDMDL
