MODEL 1
REMARK minimizedAffinity 7.21557331
REMARK minimizedRMSD -1
REMARK  0 active torsions:
REMARK  status: ('A' for Active; 'I' for Inactive)
ROOT
ATOM      1  O1  BZF d   1       0.453   3.521  -2.068  0.00  0.00    -0.204 OA
ATOM      2  C2  BZF d   1       1.106   4.345  -1.171  0.00  0.00     0.174 A 
ATOM      3  C3  BZF d   1       1.685   3.621  -0.192  0.00  0.00    -0.012 A 
ATOM      4  C3A BZF d   1       1.453   2.254  -0.546  0.00  0.00    -0.107 A 
ATOM      5  C4  BZF d   1       1.799   1.064   0.027  0.00  0.00     0.055 A 
ATOM      6  C5  BZF d   1       1.354  -0.092  -0.531  0.00  0.00    -0.016 A 
ATOM      7  C6  BZF d   1       0.558  -0.095  -1.658  0.00  0.00     0.022 A 
ATOM      8  C7  BZF d   1       0.193   1.061  -2.265  0.00  0.00     0.029 A 
ATOM      9  C7A BZF d   1       0.669   2.229  -1.722  0.00  0.00     0.058 A 
ENDROOT
TORSDOF 0
ENDMDL
