MODEL 1
REMARK minimizedAffinity 8.14285946
REMARK minimizedRMSD -1
REMARK  0 active torsions:
REMARK  status: ('A' for Active; 'I' for Inactive)
ROOT
ATOM      1  O1  BZF d   1       2.109   0.355  -0.394  0.00  0.00    -0.204 OA
ATOM      2  C2  BZF d   1       1.707  -0.748  -1.122  0.00  0.00     0.174 A 
ATOM      3  C3  BZF d   1       0.797  -0.399  -2.055  0.00  0.00    -0.012 A 
ATOM      4  C3A BZF d   1       0.689   1.025  -1.961  0.00  0.00    -0.107 A 
ATOM      5  C4  BZF d   1      -0.044   1.957  -2.638  0.00  0.00     0.055 A 
ATOM      6  C5  BZF d   1       0.025   3.258  -2.253  0.00  0.00    -0.016 A 
ATOM      7  C6  BZF d   1       0.811   3.661  -1.194  0.00  0.00     0.022 A 
ATOM      8  C7  BZF d   1       1.560   2.774  -0.495  0.00  0.00     0.029 A 
ATOM      9  C7A BZF d   1       1.518   1.463  -0.903  0.00  0.00     0.058 A 
ENDROOT
TORSDOF 0
ENDMDL
