MODEL 1
REMARK minimizedAffinity -1.75692594
REMARK minimizedRMSD -1
REMARK  2 active torsions:
REMARK  status: ('A' for Active; 'I' for Inactive)
REMARK    1  A    between atoms: C2'_3  and  C1'_4 
REMARK    2  A    between atoms: C1'_4  and  C1_5 
ROOT
ATOM      1  C1  I4B d   1      -0.354  -0.024   0.390  0.00  0.00    -0.075 A 
ATOM      2  C2  I4B d   1       0.153  -1.196   0.894  0.00  0.00     0.003 A 
ATOM      3  C3  I4B d   1       1.153  -1.903   0.184  0.00  0.00     0.002 A 
ATOM      4  C4  I4B d   1       1.578  -1.433  -1.042  0.00  0.00    -0.004 A 
ATOM      5  C5  I4B d   1       1.079  -0.233  -1.540  0.00  0.00     0.002 A 
ATOM      6  C6  I4B d   1       0.116   0.483  -0.814  0.00  0.00     0.003 A 
ENDROOT
BRANCH   1   7
ATOM      7  C1' I4B d   1      -1.433   0.680   1.151  0.00  0.00     0.060 C 
BRANCH   7   8
ATOM      8  C2' I4B d   1      -1.145   0.516   2.629  0.00  0.00    -0.013 C 
ATOM      9  C4' I4B d   1      -0.761   1.830   3.258  0.00  0.00     0.013 C 
ATOM     10  C3' I4B d   1      -2.369  -0.057   3.278  0.00  0.00     0.013 C 
ENDBRANCH   7   8
ENDBRANCH   1   7
TORSDOF 2
ENDMDL
