MODEL 1
REMARK minimizedAffinity -2.03220892
REMARK minimizedRMSD -1
REMARK  2 active torsions:
REMARK  status: ('A' for Active; 'I' for Inactive)
REMARK    1  A    between atoms: C2'_3  and  C1'_4 
REMARK    2  A    between atoms: C1'_4  and  C1_5 
ROOT
ATOM      1  C1  I4B d   1      -0.197   0.012   0.432  0.00  0.00    -0.075 A 
ATOM      2  C2  I4B d   1       0.179  -1.241   0.017  0.00  0.00     0.003 A 
ATOM      3  C3  I4B d   1       1.298  -1.404  -0.835  0.00  0.00     0.002 A 
ATOM      4  C4  I4B d   1       1.977  -0.291  -1.285  0.00  0.00    -0.004 A 
ATOM      5  C5  I4B d   1       1.609   0.977  -0.846  0.00  0.00     0.002 A 
ATOM      6  C6  I4B d   1       0.523   1.129   0.028  0.00  0.00     0.003 A 
ENDROOT
BRANCH   1   7
ATOM      7  C1' I4B d   1      -1.403   0.151   1.305  0.00  0.00     0.060 C 
BRANCH   7   8
ATOM      8  C2' I4B d   1      -0.943   0.638   2.664  0.00  0.00    -0.013 C 
ATOM      9  C4' I4B d   1      -1.247   2.101   2.850  0.00  0.00     0.013 C 
ATOM     10  C3' I4B d   1      -1.624  -0.194   3.709  0.00  0.00     0.013 C 
ENDBRANCH   7   8
ENDBRANCH   1   7
TORSDOF 2
ENDMDL
