MODEL 1
REMARK minimizedAffinity -2.68303585
REMARK minimizedRMSD -1
REMARK  2 active torsions:
REMARK  status: ('A' for Active; 'I' for Inactive)
REMARK    1  A    between atoms: C2'_3  and  C1'_4 
REMARK    2  A    between atoms: C1'_4  and  C1_5 
ROOT
ATOM      1  C1  I4B d   1      -0.932  -0.026   0.400  0.00  0.00    -0.075 A 
ATOM      2  C2  I4B d   1      -0.322  -1.255   0.356  0.00  0.00     0.003 A 
ATOM      3  C3  I4B d   1       0.704  -1.509  -0.586  0.00  0.00     0.002 A 
ATOM      4  C4  I4B d   1       1.051  -0.529  -1.493  0.00  0.00    -0.004 A 
ATOM      5  C5  I4B d   1       0.448   0.724  -1.433  0.00  0.00     0.002 A 
ATOM      6  C6  I4B d   1      -0.541   0.982  -0.473  0.00  0.00     0.003 A 
ENDROOT
BRANCH   1   7
ATOM      7  C1' I4B d   1      -2.034   0.197   1.385  0.00  0.00     0.060 C 
BRANCH   7   8
ATOM      8  C2' I4B d   1      -1.404   0.484   2.733  0.00  0.00    -0.013 C 
ATOM      9  C4' I4B d   1      -1.420   1.959   3.040  0.00  0.00     0.013 C 
ATOM     10  C3' I4B d   1      -2.157  -0.293   3.771  0.00  0.00     0.013 C 
ENDBRANCH   7   8
ENDBRANCH   1   7
TORSDOF 2
ENDMDL
