MODEL 1
REMARK minimizedAffinity -4.13217354
REMARK minimizedRMSD -1
REMARK  2 active torsions:
REMARK  status: ('A' for Active; 'I' for Inactive)
REMARK    1  A    between atoms: C2'_3  and  C1'_4 
REMARK    2  A    between atoms: C1'_4  and  C1_5 
ROOT
ATOM      1  C1  I4B d   1       0.858  -0.088  -0.552  0.00  0.00    -0.075 A 
ATOM      2  C2  I4B d   1       0.434   0.977  -1.308  0.00  0.00     0.003 A 
ATOM      3  C3  I4B d   1      -0.776   1.641  -0.989  0.00  0.00     0.002 A 
ATOM      4  C4  I4B d   1      -1.549   1.179   0.057  0.00  0.00    -0.004 A 
ATOM      5  C5  I4B d   1      -1.106   0.114   0.836  0.00  0.00     0.002 A 
ATOM      6  C6  I4B d   1       0.111  -0.515   0.538  0.00  0.00     0.003 A 
ENDROOT
BRANCH   1   7
ATOM      7  C1' I4B d   1       2.123  -0.786  -0.938  0.00  0.00     0.060 C 
BRANCH   7   8
ATOM      8  C2' I4B d   1       2.311  -0.622  -2.432  0.00  0.00    -0.013 C 
ATOM      9  C4' I4B d   1       3.719  -0.201  -2.762  0.00  0.00     0.013 C 
ATOM     10  C3' I4B d   1       1.967  -1.926  -3.088  0.00  0.00     0.013 C 
ENDBRANCH   7   8
ENDBRANCH   1   7
TORSDOF 2
ENDMDL
