MODEL 1
REMARK minimizedAffinity 10.9274349
REMARK minimizedRMSD -1
REMARK  2 active torsions:
REMARK  status: ('A' for Active; 'I' for Inactive)
REMARK    1  A    between atoms: C2'_3  and  C1'_4 
REMARK    2  A    between atoms: C1'_4  and  C1_5 
ROOT
ATOM      1  C1  I4B d   1      -2.638  -0.614   3.250  0.00  0.00    -0.075 A 
ATOM      2  C2  I4B d   1      -2.617  -1.045   4.553  0.00  0.00     0.003 A 
ATOM      3  C3  I4B d   1      -3.573  -1.985   5.009  0.00  0.00     0.002 A 
ATOM      4  C4  I4B d   1      -4.556  -2.427   4.147  0.00  0.00    -0.004 A 
ATOM      5  C5  I4B d   1      -4.561  -2.007   2.820  0.00  0.00     0.002 A 
ATOM      6  C6  I4B d   1      -3.589  -1.104   2.365  0.00  0.00     0.003 A 
ENDROOT
BRANCH   1   7
ATOM      7  C1' I4B d   1      -1.635   0.405   2.812  0.00  0.00     0.060 C 
BRANCH   7   8
ATOM      8  C2' I4B d   1      -1.907   1.686   3.572  0.00  0.00    -0.013 C 
ATOM      9  C4' I4B d   1      -1.716   1.492   5.054  0.00  0.00     0.013 C 
ATOM     10  C3' I4B d   1      -0.987   2.744   3.042  0.00  0.00     0.013 C 
ENDBRANCH   7   8
ENDBRANCH   1   7
TORSDOF 2
ENDMDL
