MODEL 1
REMARK minimizedAffinity -3.64243412
REMARK minimizedRMSD -1
REMARK  2 active torsions:
REMARK  status: ('A' for Active; 'I' for Inactive)
REMARK    1  A    between atoms: C2'_3  and  C1'_4 
REMARK    2  A    between atoms: C1'_4  and  C1_5 
ROOT
ATOM      1  C1  I4B d   1       1.137  -0.690  -0.753  0.00  0.00    -0.075 A 
ATOM      2  C2  I4B d   1       0.441  -1.349   0.230  0.00  0.00     0.003 A 
ATOM      3  C3  I4B d   1      -0.680  -0.738   0.841  0.00  0.00     0.002 A 
ATOM      4  C4  I4B d   1      -1.038   0.544   0.478  0.00  0.00    -0.004 A 
ATOM      5  C5  I4B d   1      -0.345   1.202  -0.535  0.00  0.00     0.002 A 
ATOM      6  C6  I4B d   1       0.742   0.577  -1.163  0.00  0.00     0.003 A 
ENDROOT
BRANCH   1   7
ATOM      7  C1' I4B d   1       2.337  -1.352  -1.354  0.00  0.00     0.060 C 
BRANCH   7   8
ATOM      8  C2' I4B d   1       2.700  -0.600  -2.618  0.00  0.00    -0.013 C 
ATOM      9  C4' I4B d   1       4.190  -0.408  -2.730  0.00  0.00     0.013 C 
ATOM     10  C3' I4B d   1       2.165  -1.373  -3.786  0.00  0.00     0.013 C 
ENDBRANCH   7   8
ENDBRANCH   1   7
TORSDOF 2
ENDMDL
