MODEL 1
REMARK minimizedAffinity -4.99667931
REMARK minimizedRMSD -1
REMARK  2 active torsions:
REMARK  status: ('A' for Active; 'I' for Inactive)
REMARK    1  A    between atoms: C2'_3  and  C1'_4 
REMARK    2  A    between atoms: C1'_4  and  C1_5 
ROOT
ATOM      1  C1  I4B d   1      -0.846   0.690   0.091  0.00  0.00    -0.075 A 
ATOM      2  C2  I4B d   1       0.181   1.281  -0.603  0.00  0.00     0.003 A 
ATOM      3  C3  I4B d   1       1.155   0.482  -1.250  0.00  0.00     0.002 A 
ATOM      4  C4  I4B d   1       1.093  -0.891  -1.137  0.00  0.00    -0.004 A 
ATOM      5  C5  I4B d   1       0.038  -1.489  -0.453  0.00  0.00     0.002 A 
ATOM      6  C6  I4B d   1      -0.944  -0.693   0.155  0.00  0.00     0.003 A 
ENDROOT
BRANCH   1   7
ATOM      7  C1' I4B d   1      -1.838   1.564   0.791  0.00  0.00     0.060 C 
BRANCH   7   8
ATOM      8  C2' I4B d   1      -1.754   1.270   2.275  0.00  0.00    -0.013 C 
ATOM      9  C4' I4B d   1      -1.489   2.524   3.065  0.00  0.00     0.013 C 
ATOM     10  C3' I4B d   1      -3.043   0.628   2.694  0.00  0.00     0.013 C 
ENDBRANCH   7   8
ENDBRANCH   1   7
TORSDOF 2
ENDMDL
