MODEL 1
REMARK minimizedAffinity -5.33740282
REMARK minimizedRMSD -1
REMARK  2 active torsions:
REMARK  status: ('A' for Active; 'I' for Inactive)
REMARK    1  A    between atoms: C2'_3  and  C1'_4 
REMARK    2  A    between atoms: C1'_4  and  C1_5 
ROOT
ATOM      1  C1  I4B d   1      -0.459   0.009   0.057  0.00  0.00    -0.075 A 
ATOM      2  C2  I4B d   1       0.554   0.778  -0.460  0.00  0.00     0.003 A 
ATOM      3  C3  I4B d   1       1.726   0.165  -0.967  0.00  0.00     0.002 A 
ATOM      4  C4  I4B d   1       1.863  -1.206  -0.891  0.00  0.00    -0.004 A 
ATOM      5  C5  I4B d   1       0.826  -1.985  -0.387  0.00  0.00     0.002 A 
ATOM      6  C6  I4B d   1      -0.348  -1.375   0.079  0.00  0.00     0.003 A 
ENDROOT
BRANCH   1   7
ATOM      7  C1' I4B d   1      -1.669   0.691   0.613  0.00  0.00     0.060 C 
BRANCH   7   8
ATOM      8  C2' I4B d   1      -1.672   0.485   2.114  0.00  0.00    -0.013 C 
ATOM      9  C4' I4B d   1      -1.502   1.792   2.844  0.00  0.00     0.013 C 
ATOM     10  C3' I4B d   1      -2.963  -0.180   2.488  0.00  0.00     0.013 C 
ENDBRANCH   7   8
ENDBRANCH   1   7
TORSDOF 2
ENDMDL
