MODEL 1
REMARK minimizedAffinity -2.07307577
REMARK minimizedRMSD -1
REMARK  2 active torsions:
REMARK  status: ('A' for Active; 'I' for Inactive)
REMARK    1  A    between atoms: C2'_3  and  C1'_4 
REMARK    2  A    between atoms: C1'_4  and  C1_5 
ROOT
ATOM      1  C1  I4B d   1      -0.682   0.254   0.438  0.00  0.00    -0.075 A 
ATOM      2  C2  I4B d   1       0.055  -0.903   0.387  0.00  0.00     0.003 A 
ATOM      3  C3  I4B d   1       1.034  -1.081  -0.621  0.00  0.00     0.002 A 
ATOM      4  C4  I4B d   1       1.207  -0.104  -1.580  0.00  0.00    -0.004 A 
ATOM      5  C5  I4B d   1       0.475   1.078  -1.513  0.00  0.00     0.002 A 
ATOM      6  C6  I4B d   1      -0.467   1.264  -0.491  0.00  0.00     0.003 A 
ENDROOT
BRANCH   1   7
ATOM      7  C1' I4B d   1      -1.731   0.394   1.495  0.00  0.00     0.060 C 
BRANCH   7   8
ATOM      8  C2' I4B d   1      -1.039   0.762   2.792  0.00  0.00    -0.013 C 
ATOM      9  C4' I4B d   1      -1.031   2.254   3.002  0.00  0.00     0.013 C 
ATOM     10  C3' I4B d   1      -1.751   0.062   3.911  0.00  0.00     0.013 C 
ENDBRANCH   7   8
ENDBRANCH   1   7
TORSDOF 2
ENDMDL
