MODEL 1
REMARK minimizedAffinity -4.18468809
REMARK minimizedRMSD -1
REMARK  2 active torsions:
REMARK  status: ('A' for Active; 'I' for Inactive)
REMARK    1  A    between atoms: C2'_3  and  C1'_4 
REMARK    2  A    between atoms: C1'_4  and  C1_5 
ROOT
ATOM      1  C1  I4B d   1       0.820   1.010  -0.896  0.00  0.00    -0.075 A 
ATOM      2  C2  I4B d   1       1.555  -0.043  -0.412  0.00  0.00     0.003 A 
ATOM      3  C3  I4B d   1       2.857  -0.292  -0.910  0.00  0.00     0.002 A 
ATOM      4  C4  I4B d   1       3.362   0.501  -1.920  0.00  0.00    -0.004 A 
ATOM      5  C5  I4B d   1       2.624   1.582  -2.393  0.00  0.00     0.002 A 
ATOM      6  C6  I4B d   1       1.350   1.846  -1.870  0.00  0.00     0.003 A 
ENDROOT
BRANCH   1   7
ATOM      7  C1' I4B d   1      -0.565   1.224  -0.372  0.00  0.00     0.060 C 
BRANCH   7   8
ATOM      8  C2' I4B d   1      -0.869   0.111   0.611  0.00  0.00    -0.013 C 
ATOM      9  C4' I4B d   1      -1.919   0.533   1.604  0.00  0.00     0.013 C 
ATOM     10  C3' I4B d   1      -1.314  -1.088  -0.172  0.00  0.00     0.013 C 
ENDBRANCH   7   8
ENDBRANCH   1   7
TORSDOF 2
ENDMDL
