MODEL 1
REMARK minimizedAffinity -3.93898225
REMARK minimizedRMSD -1
REMARK  2 active torsions:
REMARK  status: ('A' for Active; 'I' for Inactive)
REMARK    1  A    between atoms: C2'_3  and  C1'_4 
REMARK    2  A    between atoms: C1'_4  and  C1_5 
ROOT
ATOM      1  C1  I4B d   1      -1.060   0.324   0.566  0.00  0.00    -0.075 A 
ATOM      2  C2  I4B d   1      -1.013   1.299  -0.399  0.00  0.00     0.003 A 
ATOM      3  C3  I4B d   1       0.016   1.290  -1.371  0.00  0.00     0.002 A 
ATOM      4  C4  I4B d   1       1.000   0.324  -1.310  0.00  0.00    -0.004 A 
ATOM      5  C5  I4B d   1       0.938  -0.676  -0.344  0.00  0.00     0.002 A 
ATOM      6  C6  I4B d   1      -0.105  -0.684   0.592  0.00  0.00     0.003 A 
ENDROOT
BRANCH   1   7
ATOM      7  C1' I4B d   1      -2.143   0.382   1.597  0.00  0.00     0.060 C 
BRANCH   7   8
ATOM      8  C2' I4B d   1      -1.496   0.660   2.939  0.00  0.00    -0.013 C 
ATOM      9  C4' I4B d   1      -1.522   2.130   3.263  0.00  0.00     0.013 C 
ATOM     10  C3' I4B d   1      -2.225  -0.137   3.978  0.00  0.00     0.013 C 
ENDBRANCH   7   8
ENDBRANCH   1   7
TORSDOF 2
ENDMDL
