MODEL 1
REMARK minimizedAffinity 0.652108312
REMARK minimizedRMSD -1
REMARK  0 active torsions:
REMARK  status: ('A' for Active; 'I' for Inactive)
ROOT
ATOM      1  C   UNL d   1       1.590   2.185   0.047  0.00  0.00     0.077 C 
ATOM      2  C1  UNL d   1       2.218   0.898   0.495  0.00  0.00    -0.074 A 
ATOM      3  C2  UNL d   1       3.308   0.897   1.371  0.00  0.00    -0.005 A 
ATOM      4  C3  UNL d   1       3.875  -0.307   1.787  0.00  0.00     0.006 A 
ATOM      5  C4  UNL d   1       3.358  -1.521   1.331  0.00  0.00    -0.005 A 
ATOM      6  C5  UNL d   1       2.268  -1.540   0.456  0.00  0.00    -0.074 A 
ATOM      7  C6  UNL d   1       1.695  -2.836  -0.036  0.00  0.00     0.077 C 
ATOM      8  C7  UNL d   1       1.700  -0.325   0.048  0.00  0.00    -0.001 A 
ENDROOT
TORSDOF 0
ENDMDL
