MODEL 1
REMARK minimizedAffinity -1.77004695
REMARK minimizedRMSD -1
REMARK  0 active torsions:
REMARK  status: ('A' for Active; 'I' for Inactive)
ROOT
ATOM      1  C   UNL d   1      -0.014   2.180  -0.078  0.00  0.00     0.077 C 
ATOM      2  C1  UNL d   1       0.154   0.690  -0.095  0.00  0.00    -0.074 A 
ATOM      3  C2  UNL d   1      -0.792  -0.133  -0.714  0.00  0.00    -0.005 A 
ATOM      4  C3  UNL d   1      -0.617  -1.517  -0.731  0.00  0.00     0.006 A 
ATOM      5  C4  UNL d   1       0.503  -2.091  -0.129  0.00  0.00    -0.005 A 
ATOM      6  C5  UNL d   1       1.460  -1.284   0.495  0.00  0.00    -0.074 A 
ATOM      7  C6  UNL d   1       2.675  -1.883   1.138  0.00  0.00     0.077 C 
ATOM      8  C7  UNL d   1       1.281   0.107   0.501  0.00  0.00    -0.001 A 
ENDROOT
TORSDOF 0
ENDMDL
