MODEL 1
REMARK minimizedAffinity -4.10912037
REMARK minimizedRMSD -1
REMARK  0 active torsions:
REMARK  status: ('A' for Active; 'I' for Inactive)
ROOT
ATOM      1  C   UNL d   1      -0.368   2.268  -0.910  0.00  0.00     0.077 C 
ATOM      2  C1  UNL d   1       0.016   0.867  -0.534  0.00  0.00    -0.074 A 
ATOM      3  C2  UNL d   1      -0.916  -0.174  -0.594  0.00  0.00    -0.005 A 
ATOM      4  C3  UNL d   1      -0.542  -1.473  -0.251  0.00  0.00     0.006 A 
ATOM      5  C4  UNL d   1       0.766  -1.744   0.155  0.00  0.00    -0.005 A 
ATOM      6  C5  UNL d   1       1.711  -0.715   0.220  0.00  0.00    -0.074 A 
ATOM      7  C6  UNL d   1       3.123  -0.991   0.645  0.00  0.00     0.077 C 
ATOM      8  C7  UNL d   1       1.330   0.586  -0.133  0.00  0.00    -0.001 A 
ENDROOT
TORSDOF 0
ENDMDL
