MODEL 1
REMARK minimizedAffinity -4.56051254
REMARK minimizedRMSD -1
REMARK  0 active torsions:
REMARK  status: ('A' for Active; 'I' for Inactive)
ROOT
ATOM      1  C   UNL d   1       1.743  -1.357   0.324  0.00  0.00     0.077 C 
ATOM      2  C1  UNL d   1       0.774  -0.233   0.105  0.00  0.00    -0.074 A 
ATOM      3  C2  UNL d   1       1.226   1.058  -0.189  0.00  0.00    -0.005 A 
ATOM      4  C3  UNL d   1       0.313   2.091  -0.399  0.00  0.00     0.006 A 
ATOM      5  C4  UNL d   1      -1.058   1.845  -0.318  0.00  0.00    -0.005 A 
ATOM      6  C5  UNL d   1      -1.528   0.561  -0.026  0.00  0.00    -0.074 A 
ATOM      7  C6  UNL d   1      -2.999   0.277   0.056  0.00  0.00     0.077 C 
ATOM      8  C7  UNL d   1      -0.605  -0.474   0.178  0.00  0.00    -0.001 A 
ENDROOT
TORSDOF 0
ENDMDL
