MODEL 1
REMARK minimizedAffinity -5.04906702
REMARK minimizedRMSD -1
REMARK  0 active torsions:
REMARK  status: ('A' for Active; 'I' for Inactive)
ROOT
ATOM      1  C   UNL d   1      -1.458   1.508  -0.487  0.00  0.00     0.077 C 
ATOM      2  C1  UNL d   1      -2.897   1.185  -0.215  0.00  0.00    -0.074 A 
ATOM      3  C2  UNL d   1      -3.460   1.417   1.044  0.00  0.00    -0.005 A 
ATOM      4  C3  UNL d   1      -4.802   1.120   1.279  0.00  0.00     0.006 A 
ATOM      5  C4  UNL d   1      -5.594   0.590   0.260  0.00  0.00    -0.005 A 
ATOM      6  C5  UNL d   1      -5.048   0.352  -1.006  0.00  0.00    -0.074 A 
ATOM      7  C6  UNL d   1      -5.888  -0.209  -2.116  0.00  0.00     0.077 C 
ATOM      8  C7  UNL d   1      -3.700   0.659  -1.237  0.00  0.00    -0.001 A 
ENDROOT
TORSDOF 0
ENDMDL
