MODEL 1
REMARK minimizedAffinity -3.84441137
REMARK minimizedRMSD -1
REMARK  0 active torsions:
REMARK  status: ('A' for Active; 'I' for Inactive)
ROOT
ATOM      1  C   UNL d   1      -1.841   0.311  -0.479  0.00  0.00     0.077 C 
ATOM      2  C1  UNL d   1      -0.411   0.638  -0.164  0.00  0.00    -0.074 A 
ATOM      3  C2  UNL d   1       0.021   1.966  -0.085  0.00  0.00    -0.005 A 
ATOM      4  C3  UNL d   1       1.351   2.255   0.218  0.00  0.00     0.006 A 
ATOM      5  C4  UNL d   1       2.261   1.222   0.444  0.00  0.00    -0.005 A 
ATOM      6  C5  UNL d   1       1.847  -0.112   0.369  0.00  0.00    -0.074 A 
ATOM      7  C6  UNL d   1       2.810  -1.234   0.619  0.00  0.00     0.077 C 
ATOM      8  C7  UNL d   1       0.507  -0.394   0.072  0.00  0.00    -0.001 A 
ENDROOT
TORSDOF 0
ENDMDL
