MODEL 1
REMARK minimizedAffinity -3.60167909
REMARK minimizedRMSD -1
REMARK  0 active torsions:
REMARK  status: ('A' for Active; 'I' for Inactive)
ROOT
ATOM      1  C   UNL d   1       3.015  -1.255   1.576  0.00  0.00     0.077 C 
ATOM      2  C1  UNL d   1       1.850  -0.805   0.746  0.00  0.00    -0.074 A 
ATOM      3  C2  UNL d   1       1.447   0.534   0.739  0.00  0.00    -0.005 A 
ATOM      4  C3  UNL d   1       0.367   0.939  -0.046  0.00  0.00     0.006 A 
ATOM      5  C4  UNL d   1      -0.319   0.011  -0.831  0.00  0.00    -0.005 A 
ATOM      6  C5  UNL d   1       0.071  -1.332  -0.837  0.00  0.00    -0.074 A 
ATOM      7  C6  UNL d   1      -0.649  -2.341  -1.682  0.00  0.00     0.077 C 
ATOM      8  C7  UNL d   1       1.161  -1.730  -0.051  0.00  0.00    -0.001 A 
ENDROOT
TORSDOF 0
ENDMDL
