MODEL 1
REMARK minimizedAffinity 3.98265839
REMARK minimizedRMSD -1
REMARK  1 active torsions:
REMARK  status: ('A' for Active; 'I' for Inactive)
REMARK    1  A    between atoms: C1_2  and  C2_3 
ROOT
ATOM      1  C2  UNL d   1       2.309   3.002   0.326  0.00  0.00    -0.073 A 
ATOM      2  C3  UNL d   1       2.876   2.637  -0.900  0.00  0.00    -0.002 A 
ATOM      3  C4  UNL d   1       2.739   1.333  -1.379  0.00  0.00     0.004 A 
ATOM      4  C5  UNL d   1       2.029   0.385  -0.643  0.00  0.00    -0.004 A 
ATOM      5  C6  UNL d   1       1.445   0.734   0.579  0.00  0.00    -0.075 A 
ATOM      6  C7  UNL d   1       0.680  -0.274   1.385  0.00  0.00     0.076 C 
ATOM      7  C8  UNL d   1       1.590   2.045   1.055  0.00  0.00     0.001 A 
ENDROOT
BRANCH   1   8
ATOM      8  C1  UNL d   1       2.449   4.410   0.845  0.00  0.00     0.053 C 
ATOM      9  C   UNL d   1       2.825   4.440   2.318  0.00  0.00     0.018 C 
ENDBRANCH   1   8
TORSDOF 1
ENDMDL
