MODEL 1
REMARK minimizedAffinity -5.25480318
REMARK minimizedRMSD -1
REMARK  1 active torsions:
REMARK  status: ('A' for Active; 'I' for Inactive)
REMARK    1  A    between atoms: C1_2  and  C2_3 
ROOT
ATOM      1  C2  UNL d   1       1.284  -0.303  -1.882  0.00  0.00    -0.073 A 
ATOM      2  C3  UNL d   1       0.461  -1.129  -1.107  0.00  0.00    -0.002 A 
ATOM      3  C4  UNL d   1      -0.105  -0.650   0.075  0.00  0.00     0.004 A 
ATOM      4  C5  UNL d   1       0.140   0.659   0.491  0.00  0.00    -0.004 A 
ATOM      5  C6  UNL d   1       0.950   1.503  -0.276  0.00  0.00    -0.075 A 
ATOM      6  C7  UNL d   1       1.224   2.913   0.158  0.00  0.00     0.076 C 
ATOM      7  C8  UNL d   1       1.517   1.014  -1.461  0.00  0.00     0.001 A 
ENDROOT
BRANCH   1   8
ATOM      8  C1  UNL d   1       1.892  -0.814  -3.163  0.00  0.00     0.053 C 
ATOM      9  C   UNL d   1       2.249  -2.289  -3.076  0.00  0.00     0.018 C 
ENDBRANCH   1   8
TORSDOF 1
ENDMDL
