MODEL 1
REMARK minimizedAffinity -2.85875535
REMARK minimizedRMSD -1
REMARK  1 active torsions:
REMARK  status: ('A' for Active; 'I' for Inactive)
REMARK    1  A    between atoms: C1_2  and  C2_3 
ROOT
ATOM      1  C2  UNL d   1       0.646   0.054  -0.345  0.00  0.00    -0.073 A 
ATOM      2  C3  UNL d   1       0.618  -1.343  -0.423  0.00  0.00    -0.002 A 
ATOM      3  C4  UNL d   1      -0.234  -2.078   0.404  0.00  0.00     0.004 A 
ATOM      4  C5  UNL d   1      -1.069  -1.424   1.310  0.00  0.00    -0.004 A 
ATOM      5  C6  UNL d   1      -1.063  -0.028   1.394  0.00  0.00    -0.075 A 
ATOM      6  C7  UNL d   1      -1.954   0.690   2.365  0.00  0.00     0.076 C 
ATOM      7  C8  UNL d   1      -0.204   0.702   0.563  0.00  0.00     0.001 A 
ENDROOT
BRANCH   1   8
ATOM      8  C1  UNL d   1       1.559   0.852  -1.240  0.00  0.00     0.053 C 
ATOM      9  C   UNL d   1       2.554  -0.033  -1.973  0.00  0.00     0.018 C 
ENDBRANCH   1   8
TORSDOF 1
ENDMDL
