MODEL 1
REMARK minimizedAffinity -6.13669395
REMARK minimizedRMSD -1
REMARK  1 active torsions:
REMARK  status: ('A' for Active; 'I' for Inactive)
REMARK    1  A    between atoms: C1_2  and  C2_3 
ROOT
ATOM      1  C2  UNL d   1       1.159  -1.250  -1.441  0.00  0.00    -0.073 A 
ATOM      2  C3  UNL d   1       1.767  -0.067  -1.876  0.00  0.00    -0.002 A 
ATOM      3  C4  UNL d   1       1.506   1.140  -1.225  0.00  0.00     0.004 A 
ATOM      4  C5  UNL d   1       0.642   1.175  -0.131  0.00  0.00    -0.004 A 
ATOM      5  C6  UNL d   1       0.034   0.002   0.325  0.00  0.00    -0.075 A 
ATOM      6  C7  UNL d   1      -0.900   0.023   1.499  0.00  0.00     0.076 C 
ATOM      7  C8  UNL d   1       0.298  -1.206  -0.335  0.00  0.00     0.001 A 
ENDROOT
BRANCH   1   8
ATOM      8  C1  UNL d   1       1.442  -2.556  -2.137  0.00  0.00     0.053 C 
ATOM      9  C   UNL d   1       1.556  -3.712  -1.155  0.00  0.00     0.018 C 
ENDBRANCH   1   8
TORSDOF 1
ENDMDL
