MODEL 1
REMARK minimizedAffinity -4.71886635
REMARK minimizedRMSD -1
REMARK  1 active torsions:
REMARK  status: ('A' for Active; 'I' for Inactive)
REMARK    1  A    between atoms: C1_2  and  C2_3 
ROOT
ATOM      1  C2  UNL d   1       1.134  -1.673  -1.558  0.00  0.00    -0.073 A 
ATOM      2  C3  UNL d   1       1.957  -1.521  -2.679  0.00  0.00    -0.002 A 
ATOM      3  C4  UNL d   1       2.293  -0.248  -3.140  0.00  0.00     0.004 A 
ATOM      4  C5  UNL d   1       1.816   0.885  -2.482  0.00  0.00    -0.004 A 
ATOM      5  C6  UNL d   1       1.001   0.754  -1.352  0.00  0.00    -0.075 A 
ATOM      6  C7  UNL d   1       0.478   1.963  -0.634  0.00  0.00     0.076 C 
ATOM      7  C8  UNL d   1       0.666  -0.528  -0.898  0.00  0.00     0.001 A 
ENDROOT
BRANCH   1   8
ATOM      8  C1  UNL d   1       0.773  -3.047  -1.053  0.00  0.00     0.053 C 
ATOM      9  C   UNL d   1       2.000  -3.838  -0.630  0.00  0.00     0.018 C 
ENDBRANCH   1   8
TORSDOF 1
ENDMDL
