MODEL 1
REMARK minimizedAffinity -3.20491982
REMARK minimizedRMSD -1
REMARK  1 active torsions:
REMARK  status: ('A' for Active; 'I' for Inactive)
REMARK    1  A    between atoms: C1_2  and  C2_3 
ROOT
ATOM      1  C2  UNL d   1      -0.325   0.203   0.343  0.00  0.00    -0.073 A 
ATOM      2  C3  UNL d   1       0.140   1.388  -0.239  0.00  0.00    -0.002 A 
ATOM      3  C4  UNL d   1       1.190   1.358  -1.158  0.00  0.00     0.004 A 
ATOM      4  C5  UNL d   1       1.780   0.144  -1.509  0.00  0.00    -0.004 A 
ATOM      5  C6  UNL d   1       1.322  -1.052  -0.947  0.00  0.00    -0.075 A 
ATOM      6  C7  UNL d   1       1.948  -2.366  -1.313  0.00  0.00     0.076 C 
ATOM      7  C8  UNL d   1       0.269  -1.013  -0.023  0.00  0.00     0.001 A 
ENDROOT
BRANCH   1   8
ATOM      8  C1  UNL d   1      -1.463   0.230   1.330  0.00  0.00     0.053 C 
ATOM      9  C   UNL d   1      -2.810   0.039   0.653  0.00  0.00     0.018 C 
ENDBRANCH   1   8
TORSDOF 1
ENDMDL
