MODEL 1
REMARK minimizedAffinity -3.23442984
REMARK minimizedRMSD -1
REMARK  1 active torsions:
REMARK  status: ('A' for Active; 'I' for Inactive)
REMARK    1  A    between atoms: C1_2  and  C2_3 
ROOT
ATOM      1  C2  UNL d   1       0.247   0.215  -0.126  0.00  0.00    -0.073 A 
ATOM      2  C3  UNL d   1       0.627  -1.128  -0.014  0.00  0.00    -0.002 A 
ATOM      3  C4  UNL d   1      -0.066  -1.987   0.840  0.00  0.00     0.004 A 
ATOM      4  C5  UNL d   1      -1.148  -1.516   1.584  0.00  0.00    -0.004 A 
ATOM      5  C6  UNL d   1      -1.550  -0.181   1.477  0.00  0.00    -0.075 A 
ATOM      6  C7  UNL d   1      -2.710   0.342   2.272  0.00  0.00     0.076 C 
ATOM      7  C8  UNL d   1      -0.848   0.677   0.619  0.00  0.00     0.001 A 
ENDROOT
BRANCH   1   8
ATOM      8  C1  UNL d   1       0.987   1.145  -1.052  0.00  0.00     0.053 C 
ATOM      9  C   UNL d   1       2.136   0.447  -1.762  0.00  0.00     0.018 C 
ENDBRANCH   1   8
TORSDOF 1
ENDMDL
