MODEL 1
REMARK minimizedAffinity -5.02237177
REMARK minimizedRMSD -1
REMARK  1 active torsions:
REMARK  status: ('A' for Active; 'I' for Inactive)
REMARK    1  A    between atoms: C1_2  and  C2_3 
ROOT
ATOM      1  C2  UNL d   1       0.402  -0.103  -0.956  0.00  0.00    -0.073 A 
ATOM      2  C3  UNL d   1       0.557   0.390  -2.257  0.00  0.00    -0.002 A 
ATOM      3  C4  UNL d   1       1.362  -0.285  -3.175  0.00  0.00     0.004 A 
ATOM      4  C5  UNL d   1       2.013  -1.462  -2.805  0.00  0.00    -0.004 A 
ATOM      5  C6  UNL d   1       1.861  -1.977  -1.514  0.00  0.00    -0.075 A 
ATOM      6  C7  UNL d   1       2.557  -3.240  -1.100  0.00  0.00     0.076 C 
ATOM      7  C8  UNL d   1       1.053  -1.291  -0.596  0.00  0.00     0.001 A 
ENDROOT
BRANCH   1   8
ATOM      8  C1  UNL d   1      -0.472   0.619   0.037  0.00  0.00     0.053 C 
ATOM      9  C   UNL d   1      -0.640  -0.168   1.327  0.00  0.00     0.018 C 
ENDBRANCH   1   8
TORSDOF 1
ENDMDL
