MODEL 1
REMARK minimizedAffinity -3.54925823
REMARK minimizedRMSD -1
REMARK  1 active torsions:
REMARK  status: ('A' for Active; 'I' for Inactive)
REMARK    1  A    between atoms: C1_2  and  C2_3 
ROOT
ATOM      1  C2  UNL d   1      -0.918  -0.063   0.339  0.00  0.00    -0.073 A 
ATOM      2  C3  UNL d   1      -0.765  -0.216   1.722  0.00  0.00    -0.002 A 
ATOM      3  C4  UNL d   1      -1.846  -0.008   2.579  0.00  0.00     0.004 A 
ATOM      4  C5  UNL d   1      -3.093   0.347   2.063  0.00  0.00    -0.004 A 
ATOM      5  C6  UNL d   1      -3.269   0.493   0.683  0.00  0.00    -0.075 A 
ATOM      6  C7  UNL d   1      -4.603   0.877   0.112  0.00  0.00     0.076 C 
ATOM      7  C8  UNL d   1      -2.177   0.286  -0.171  0.00  0.00     0.001 A 
ENDROOT
BRANCH   1   8
ATOM      8  C1  UNL d   1       0.245  -0.292  -0.590  0.00  0.00     0.053 C 
ATOM      9  C   UNL d   1       0.675   0.987  -1.291  0.00  0.00     0.018 C 
ENDBRANCH   1   8
TORSDOF 1
ENDMDL
