MODEL 1
REMARK minimizedAffinity -1.14529669
REMARK minimizedRMSD -1
REMARK  1 active torsions:
REMARK  status: ('A' for Active; 'I' for Inactive)
REMARK    1  A    between atoms: C1_2  and  C2_3 
ROOT
ATOM      1  C2  UNL d   1      -1.662   0.739   0.357  0.00  0.00    -0.073 A 
ATOM      2  C3  UNL d   1      -0.783   1.677  -0.196  0.00  0.00    -0.002 A 
ATOM      3  C4  UNL d   1       0.476   1.281  -0.651  0.00  0.00     0.004 A 
ATOM      4  C5  UNL d   1       0.865  -0.055  -0.564  0.00  0.00    -0.004 A 
ATOM      5  C6  UNL d   1      -0.003  -1.009  -0.025  0.00  0.00    -0.075 A 
ATOM      6  C7  UNL d   1       0.402  -2.451   0.078  0.00  0.00     0.076 C 
ATOM      7  C8  UNL d   1      -1.264  -0.604   0.432  0.00  0.00     0.001 A 
ENDROOT
BRANCH   1   8
ATOM      8  C1  UNL d   1      -3.024   1.160   0.844  0.00  0.00     0.053 C 
ATOM      9  C   UNL d   1      -4.075   0.091   0.592  0.00  0.00     0.018 C 
ENDBRANCH   1   8
TORSDOF 1
ENDMDL
