MODEL 1
REMARK minimizedAffinity -3.56239057
REMARK minimizedRMSD -1
REMARK  1 active torsions:
REMARK  status: ('A' for Active; 'I' for Inactive)
REMARK    1  A    between atoms: C1_2  and  C2_3 
ROOT
ATOM      1  C2  UNL d   1       0.293   0.009  -0.000  0.00  0.00    -0.073 A 
ATOM      2  C3  UNL d   1       0.112  -1.280   0.515  0.00  0.00    -0.002 A 
ATOM      3  C4  UNL d   1       0.514  -2.396  -0.221  0.00  0.00     0.004 A 
ATOM      4  C5  UNL d   1       1.105  -2.234  -1.474  0.00  0.00    -0.004 A 
ATOM      5  C6  UNL d   1       1.305  -0.954  -2.000  0.00  0.00    -0.075 A 
ATOM      6  C7  UNL d   1       1.938  -0.764  -3.347  0.00  0.00     0.076 C 
ATOM      7  C8  UNL d   1       0.897   0.161  -1.256  0.00  0.00     0.001 A 
ENDROOT
BRANCH   1   8
ATOM      8  C1  UNL d   1      -0.133   1.217   0.794  0.00  0.00     0.053 C 
ATOM      9  C   UNL d   1      -1.573   1.109   1.267  0.00  0.00     0.018 C 
ENDBRANCH   1   8
TORSDOF 1
ENDMDL
