MODEL 1
REMARK minimizedAffinity 1.49886847
REMARK minimizedRMSD -1
REMARK  1 active torsions:
REMARK  status: ('A' for Active; 'I' for Inactive)
REMARK    1  A    between atoms: C1_2  and  C2_3 
ROOT
ATOM      1  C2  UNL d   1       1.227   0.523  -0.425  0.00  0.00    -0.073 A 
ATOM      2  C3  UNL d   1       1.489  -0.843  -0.270  0.00  0.00    -0.002 A 
ATOM      3  C4  UNL d   1       0.597  -1.656   0.431  0.00  0.00     0.004 A 
ATOM      4  C5  UNL d   1      -0.567  -1.115   0.976  0.00  0.00    -0.004 A 
ATOM      5  C6  UNL d   1      -0.852   0.246   0.822  0.00  0.00    -0.075 A 
ATOM      6  C7  UNL d   1      -2.098   0.844   1.405  0.00  0.00     0.076 C 
ATOM      7  C8  UNL d   1       0.050   1.057   0.120  0.00  0.00     0.001 A 
ENDROOT
BRANCH   1   8
ATOM      8  C1  UNL d   1       2.184   1.404  -1.186  0.00  0.00     0.053 C 
ATOM      9  C   UNL d   1       1.924   2.881  -0.931  0.00  0.00     0.018 C 
ENDBRANCH   1   8
TORSDOF 1
ENDMDL
