MODEL 1
REMARK minimizedAffinity -4.27720165
REMARK minimizedRMSD -1
REMARK  2 active torsions:
REMARK  status: ('A' for Active; 'I' for Inactive)
REMARK    1  A    between atoms: C2'_3  and  C1'_4 
REMARK    2  A    between atoms: C1'_4  and  C1_5 
ROOT
ATOM      1  C1  I4B d   1       0.281   0.325  -0.043  0.00  0.00    -0.075 A 
ATOM      2  C2  I4B d   1       1.294  -0.308   0.634  0.00  0.00     0.003 A 
ATOM      3  C3  I4B d   1       1.060  -1.555   1.263  0.00  0.00     0.002 A 
ATOM      4  C4  I4B d   1      -0.206  -2.103   1.235  0.00  0.00    -0.004 A 
ATOM      5  C5  I4B d   1      -1.226  -1.471   0.529  0.00  0.00     0.002 A 
ATOM      6  C6  I4B d   1      -0.978  -0.255  -0.124  0.00  0.00     0.003 A 
ENDROOT
BRANCH   1   7
ATOM      7  C1' I4B d   1       0.555   1.656  -0.668  0.00  0.00     0.060 C 
BRANCH   7   8
ATOM      8  C2' I4B d   1       0.973   1.420  -2.105  0.00  0.00    -0.013 C 
ATOM      9  C4' I4B d   1       0.084   2.171  -3.062  0.00  0.00     0.013 C 
ATOM     10  C3' I4B d   1       2.404   1.846  -2.247  0.00  0.00     0.013 C 
ENDBRANCH   7   8
ENDBRANCH   1   7
TORSDOF 2
ENDMDL
