MODEL 1
REMARK minimizedAffinity -4.51685476
REMARK minimizedRMSD -1
REMARK  2 active torsions:
REMARK  status: ('A' for Active; 'I' for Inactive)
REMARK    1  A    between atoms: C2'_3  and  C1'_4 
REMARK    2  A    between atoms: C1'_4  and  C1_5 
ROOT
ATOM      1  C1  I4B d   1      -0.881  -1.131   0.121  0.00  0.00    -0.075 A 
ATOM      2  C2  I4B d   1      -1.653  -0.139   0.673  0.00  0.00     0.003 A 
ATOM      3  C3  I4B d   1      -2.535  -0.434   1.742  0.00  0.00     0.002 A 
ATOM      4  C4  I4B d   1      -2.648  -1.734   2.190  0.00  0.00    -0.004 A 
ATOM      5  C5  I4B d   1      -1.848  -2.734   1.644  0.00  0.00     0.002 A 
ATOM      6  C6  I4B d   1      -0.949  -2.428   0.612  0.00  0.00     0.003 A 
ENDROOT
BRANCH   1   7
ATOM      7  C1' I4B d   1       0.015  -0.791  -1.028  0.00  0.00     0.060 C 
BRANCH   7   8
ATOM      8  C2' I4B d   1       0.454   0.650  -0.867  0.00  0.00    -0.013 C 
ATOM      9  C4' I4B d   1       1.479   0.788   0.228  0.00  0.00     0.013 C 
ATOM     10  C3' I4B d   1       1.001   1.118  -2.182  0.00  0.00     0.013 C 
ENDBRANCH   7   8
ENDBRANCH   1   7
TORSDOF 2
ENDMDL
