MODEL 1
REMARK minimizedAffinity -4.12425995
REMARK minimizedRMSD -1
REMARK  2 active torsions:
REMARK  status: ('A' for Active; 'I' for Inactive)
REMARK    1  A    between atoms: C2'_3  and  C1'_4 
REMARK    2  A    between atoms: C1'_4  and  C1_5 
ROOT
ATOM      1  C1  I4B d   1       0.007   0.329  -0.119  0.00  0.00    -0.075 A 
ATOM      2  C2  I4B d   1      -1.276  -0.146  -0.010  0.00  0.00     0.003 A 
ATOM      3  C3  I4B d   1      -1.510  -1.476   0.417  0.00  0.00     0.002 A 
ATOM      4  C4  I4B d   1      -0.437  -2.306   0.674  0.00  0.00    -0.004 A 
ATOM      5  C5  I4B d   1       0.862  -1.815   0.584  0.00  0.00     0.002 A 
ATOM      6  C6  I4B d   1       1.086  -0.486   0.197  0.00  0.00     0.003 A 
ENDROOT
BRANCH   1   7
ATOM      7  C1' I4B d   1       0.218   1.728  -0.605  0.00  0.00     0.060 C 
BRANCH   7   8
ATOM      8  C2' I4B d   1       0.876   1.655  -1.968  0.00  0.00    -0.013 C 
ATOM      9  C4' I4B d   1       0.108   2.454  -2.987  0.00  0.00     0.013 C 
ATOM     10  C3' I4B d   1       2.282   2.160  -1.831  0.00  0.00     0.013 C 
ENDBRANCH   7   8
ENDBRANCH   1   7
TORSDOF 2
ENDMDL
