MODEL 1
REMARK minimizedAffinity -2.90359378
REMARK minimizedRMSD -1
REMARK  2 active torsions:
REMARK  status: ('A' for Active; 'I' for Inactive)
REMARK    1  A    between atoms: C2'_3  and  C1'_4 
REMARK    2  A    between atoms: C1'_4  and  C1_5 
ROOT
ATOM      1  C1  I4B d   1       0.134   0.150  -0.079  0.00  0.00    -0.075 A 
ATOM      2  C2  I4B d   1       0.913  -0.965  -0.261  0.00  0.00     0.003 A 
ATOM      3  C3  I4B d   1       0.463  -2.230   0.191  0.00  0.00     0.002 A 
ATOM      4  C4  I4B d   1      -0.740  -2.325   0.860  0.00  0.00    -0.004 A 
ATOM      5  C5  I4B d   1      -1.539  -1.196   1.023  0.00  0.00     0.002 A 
ATOM      6  C6  I4B d   1      -1.105   0.047   0.540  0.00  0.00     0.003 A 
ENDROOT
BRANCH   1   7
ATOM      7  C1' I4B d   1       0.653   1.475  -0.539  0.00  0.00     0.060 C 
BRANCH   7   8
ATOM      8  C2' I4B d   1       1.001   1.355  -2.008  0.00  0.00    -0.013 C 
ATOM      9  C4' I4B d   1      -0.050   2.000  -2.872  0.00  0.00     0.013 C 
ATOM     10  C3' I4B d   1       2.342   1.993  -2.220  0.00  0.00     0.013 C 
ENDBRANCH   7   8
ENDBRANCH   1   7
TORSDOF 2
ENDMDL
