MODEL 1
REMARK minimizedAffinity -4.00008726
REMARK minimizedRMSD -1
REMARK  2 active torsions:
REMARK  status: ('A' for Active; 'I' for Inactive)
REMARK    1  A    between atoms: C2'_3  and  C1'_4 
REMARK    2  A    between atoms: C1'_4  and  C1_5 
ROOT
ATOM      1  C1  I4B d   1       0.237   0.631  -0.093  0.00  0.00    -0.075 A 
ATOM      2  C2  I4B d   1      -1.088   0.482   0.235  0.00  0.00     0.003 A 
ATOM      3  C3  I4B d   1      -1.580  -0.776   0.657  0.00  0.00     0.002 A 
ATOM      4  C4  I4B d   1      -0.731  -1.863   0.689  0.00  0.00    -0.004 A 
ATOM      5  C5  I4B d   1       0.617  -1.705   0.379  0.00  0.00     0.002 A 
ATOM      6  C6  I4B d   1       1.107  -0.448  -0.003  0.00  0.00     0.003 A 
ENDROOT
BRANCH   1   7
ATOM      7  C1' I4B d   1       0.717   1.966  -0.566  0.00  0.00     0.060 C 
BRANCH   7   8
ATOM      8  C2' I4B d   1       1.144   1.822  -2.013  0.00  0.00    -0.013 C 
ATOM      9  C4' I4B d   1      -0.014   2.050  -2.949  0.00  0.00     0.013 C 
ATOM     10  C3' I4B d   1       2.248   2.804  -2.269  0.00  0.00     0.013 C 
ENDBRANCH   7   8
ENDBRANCH   1   7
TORSDOF 2
ENDMDL
