MODEL 1
REMARK minimizedAffinity -3.90753984
REMARK minimizedRMSD -1
REMARK  2 active torsions:
REMARK  status: ('A' for Active; 'I' for Inactive)
REMARK    1  A    between atoms: C2'_3  and  C1'_4 
REMARK    2  A    between atoms: C1'_4  and  C1_5 
ROOT
ATOM      1  C1  I4B d   1       0.939   0.892  -0.491  0.00  0.00    -0.075 A 
ATOM      2  C2  I4B d   1      -0.146   1.731  -0.546  0.00  0.00     0.003 A 
ATOM      3  C3  I4B d   1      -0.202   2.762  -1.516  0.00  0.00     0.002 A 
ATOM      4  C4  I4B d   1       0.864   2.947  -2.373  0.00  0.00    -0.004 A 
ATOM      5  C5  I4B d   1       1.953   2.081  -2.331  0.00  0.00     0.002 A 
ATOM      6  C6  I4B d   1       1.986   1.040  -1.392  0.00  0.00     0.003 A 
ENDROOT
BRANCH   1   7
ATOM      7  C1' I4B d   1       0.980  -0.164   0.567  0.00  0.00     0.060 C 
BRANCH   7   8
ATOM      8  C2' I4B d   1       0.302  -1.402   0.017  0.00  0.00    -0.013 C 
ATOM      9  C4' I4B d   1       1.311  -2.443  -0.389  0.00  0.00     0.013 C 
ATOM     10  C3' I4B d   1      -0.625  -1.929   1.072  0.00  0.00     0.013 C 
ENDBRANCH   7   8
ENDBRANCH   1   7
TORSDOF 2
ENDMDL
