MODEL 1
REMARK minimizedAffinity -3.94734192
REMARK minimizedRMSD -1
REMARK  2 active torsions:
REMARK  status: ('A' for Active; 'I' for Inactive)
REMARK    1  A    between atoms: C2'_3  and  C1'_4 
REMARK    2  A    between atoms: C1'_4  and  C1_5 
ROOT
ATOM      1  C1  I4B d   1       0.765   0.883  -0.656  0.00  0.00    -0.075 A 
ATOM      2  C2  I4B d   1       1.545  -0.220  -0.411  0.00  0.00     0.003 A 
ATOM      3  C3  I4B d   1       0.970  -1.393   0.135  0.00  0.00     0.002 A 
ATOM      4  C4  I4B d   1      -0.370  -1.403   0.466  0.00  0.00    -0.004 A 
ATOM      5  C5  I4B d   1      -1.164  -0.292   0.196  0.00  0.00     0.002 A 
ATOM      6  C6  I4B d   1      -0.596   0.854  -0.380  0.00  0.00     0.003 A 
ENDROOT
BRANCH   1   7
ATOM      7  C1' I4B d   1       1.411   2.116  -1.202  0.00  0.00     0.060 C 
BRANCH   7   8
ATOM      8  C2' I4B d   1       0.947   2.291  -2.634  0.00  0.00    -0.013 C 
ATOM      9  C4' I4B d   1       1.488   1.200  -3.520  0.00  0.00     0.013 C 
ATOM     10  C3' I4B d   1      -0.553   2.297  -2.636  0.00  0.00     0.013 C 
ENDBRANCH   7   8
ENDBRANCH   1   7
TORSDOF 2
ENDMDL
