MODEL 1
REMARK minimizedAffinity -4.7764287
REMARK minimizedRMSD -1
REMARK  2 active torsions:
REMARK  status: ('A' for Active; 'I' for Inactive)
REMARK    1  A    between atoms: C2'_3  and  C1'_4 
REMARK    2  A    between atoms: C1'_4  and  C1_5 
ROOT
ATOM      1  C1  I4B d   1      -0.106  -0.061   0.198  0.00  0.00    -0.075 A 
ATOM      2  C2  I4B d   1      -1.307   0.074   0.849  0.00  0.00     0.003 A 
ATOM      3  C3  I4B d   1      -2.068  -1.072   1.186  0.00  0.00     0.002 A 
ATOM      4  C4  I4B d   1      -1.617  -2.321   0.813  0.00  0.00    -0.004 A 
ATOM      5  C5  I4B d   1      -0.388  -2.458   0.174  0.00  0.00     0.002 A 
ATOM      6  C6  I4B d   1       0.379  -1.322  -0.124  0.00  0.00     0.003 A 
ENDROOT
BRANCH   1   7
ATOM      7  C1' I4B d   1       0.656   1.172  -0.172  0.00  0.00     0.060 C 
BRANCH   7   8
ATOM      8  C2' I4B d   1       0.982   1.092  -1.650  0.00  0.00    -0.013 C 
ATOM      9  C4' I4B d   1      -0.153   1.616  -2.489  0.00  0.00     0.013 C 
ATOM     10  C3' I4B d   1       2.239   1.875  -1.889  0.00  0.00     0.013 C 
ENDBRANCH   7   8
ENDBRANCH   1   7
TORSDOF 2
ENDMDL
