MODEL 1
REMARK minimizedAffinity 1.34638119
REMARK minimizedRMSD -1
REMARK  2 active torsions:
REMARK  status: ('A' for Active; 'I' for Inactive)
REMARK    1  A    between atoms: C2'_3  and  C1'_4 
REMARK    2  A    between atoms: C1'_4  and  C1_5 
ROOT
ATOM      1  C1  I4B d   1      -0.010  -1.524   0.297  0.00  0.00    -0.075 A 
ATOM      2  C2  I4B d   1      -0.565  -0.269   0.305  0.00  0.00     0.003 A 
ATOM      3  C3  I4B d   1      -1.958  -0.107   0.497  0.00  0.00     0.002 A 
ATOM      4  C4  I4B d   1      -2.761  -1.222   0.625  0.00  0.00    -0.004 A 
ATOM      5  C5  I4B d   1      -2.194  -2.493   0.640  0.00  0.00     0.002 A 
ATOM      6  C6  I4B d   1      -0.808  -2.645   0.487  0.00  0.00     0.003 A 
ENDROOT
BRANCH   1   7
ATOM      7  C1' I4B d   1       1.461  -1.661   0.060  0.00  0.00     0.060 C 
BRANCH   7   8
ATOM      8  C2' I4B d   1       2.160  -0.547   0.811  0.00  0.00    -0.013 C 
ATOM      9  C4' I4B d   1       3.534  -0.971   1.261  0.00  0.00     0.013 C 
ATOM     10  C3' I4B d   1       2.232   0.648  -0.093  0.00  0.00     0.013 C 
ENDBRANCH   7   8
ENDBRANCH   1   7
TORSDOF 2
ENDMDL
