MODEL 1
REMARK minimizedAffinity -5.90043831
REMARK minimizedRMSD -1
REMARK  2 active torsions:
REMARK  status: ('A' for Active; 'I' for Inactive)
REMARK    1  A    between atoms: C2'_3  and  C1'_4 
REMARK    2  A    between atoms: C1'_4  and  C1_5 
ROOT
ATOM      1  C1  I4B d   1      -0.034   0.104   0.102  0.00  0.00    -0.075 A 
ATOM      2  C2  I4B d   1      -1.353  -0.062   0.445  0.00  0.00     0.003 A 
ATOM      3  C3  I4B d   1      -1.838  -1.340   0.814  0.00  0.00     0.002 A 
ATOM      4  C4  I4B d   1      -0.988  -2.426   0.778  0.00  0.00    -0.004 A 
ATOM      5  C5  I4B d   1       0.354  -2.252   0.452  0.00  0.00     0.002 A 
ATOM      6  C6  I4B d   1       0.838  -0.977   0.124  0.00  0.00     0.003 A 
ENDROOT
BRANCH   1   7
ATOM      7  C1' I4B d   1       0.437   1.461  -0.315  0.00  0.00     0.060 C 
BRANCH   7   8
ATOM      8  C2' I4B d   1       1.099   1.329  -1.671  0.00  0.00    -0.013 C 
ATOM      9  C4' I4B d   1       0.259   1.956  -2.752  0.00  0.00     0.013 C 
ATOM     10  C3' I4B d   1       2.450   1.976  -1.592  0.00  0.00     0.013 C 
ENDBRANCH   7   8
ENDBRANCH   1   7
TORSDOF 2
ENDMDL
