MODEL 1
REMARK minimizedAffinity -4.25302505
REMARK minimizedRMSD -1
REMARK  2 active torsions:
REMARK  status: ('A' for Active; 'I' for Inactive)
REMARK    1  A    between atoms: C2'_3  and  C1'_4 
REMARK    2  A    between atoms: C1'_4  and  C1_5 
ROOT
ATOM      1  C1  I4B d   1       0.333   0.548  -0.493  0.00  0.00    -0.075 A 
ATOM      2  C2  I4B d   1       1.483  -0.120  -0.153  0.00  0.00     0.003 A 
ATOM      3  C3  I4B d   1       1.412  -1.392   0.466  0.00  0.00     0.002 A 
ATOM      4  C4  I4B d   1       0.179  -1.931   0.770  0.00  0.00    -0.004 A 
ATOM      5  C5  I4B d   1      -0.986  -1.262   0.405  0.00  0.00     0.002 A 
ATOM      6  C6  I4B d   1      -0.909  -0.020  -0.242  0.00  0.00     0.003 A 
ENDROOT
BRANCH   1   7
ATOM      7  C1' I4B d   1       0.445   1.904  -1.115  0.00  0.00     0.060 C 
BRANCH   7   8
ATOM      8  C2' I4B d   1       1.457   1.819  -2.240  0.00  0.00    -0.013 C 
ATOM      9  C4' I4B d   1       0.869   2.300  -3.540  0.00  0.00     0.013 C 
ATOM     10  C3' I4B d   1       2.651   2.638  -1.850  0.00  0.00     0.013 C 
ENDBRANCH   7   8
ENDBRANCH   1   7
TORSDOF 2
ENDMDL
