MODEL 1
REMARK minimizedAffinity 17.4988937
REMARK minimizedRMSD -1
REMARK  0 active torsions:
REMARK  status: ('A' for Active; 'I' for Inactive)
ROOT
ATOM      1  C2' OXE d   1      -5.990  -0.577   1.739  0.00  0.00     0.078 C 
ATOM      2  C1' OXE d   1      -6.000   2.041   2.752  0.00  0.00     0.078 C 
ATOM      3  C1  OXE d   1      -5.817   0.909   3.731  0.00  0.00    -0.078 A 
ATOM      4  C2  OXE d   1      -5.860  -0.371   3.233  0.00  0.00    -0.078 A 
ATOM      5  C3  OXE d   1      -5.642  -1.450   4.085  0.00  0.00     0.003 A 
ATOM      6  C4  OXE d   1      -5.533  -1.252   5.466  0.00  0.00    -0.002 A 
ATOM      7  C5  OXE d   1      -5.527   0.041   6.000  0.00  0.00    -0.002 A 
ATOM      8  C6  OXE d   1      -5.625   1.132   5.143  0.00  0.00     0.003 A 
ENDROOT
TORSDOF 0
ENDMDL
