MODEL 1
REMARK minimizedAffinity 4.1285038
REMARK minimizedRMSD -1
REMARK  0 active torsions:
REMARK  status: ('A' for Active; 'I' for Inactive)
ROOT
ATOM      1  C2' OXE d   1       5.573  -1.864  -3.369  0.00  0.00     0.078 C 
ATOM      2  C1' OXE d   1       5.424  -3.563  -5.598  0.00  0.00     0.078 C 
ATOM      3  C1  OXE d   1       4.193  -2.773  -5.233  0.00  0.00    -0.078 A 
ATOM      4  C2  OXE d   1       4.260  -1.980  -4.113  0.00  0.00    -0.078 A 
ATOM      5  C3  OXE d   1       3.169  -1.188  -3.762  0.00  0.00     0.003 A 
ATOM      6  C4  OXE d   1       1.956  -1.309  -4.450  0.00  0.00    -0.002 A 
ATOM      7  C5  OXE d   1       1.854  -2.142  -5.569  0.00  0.00    -0.002 A 
ATOM      8  C6  OXE d   1       2.973  -2.847  -5.999  0.00  0.00     0.003 A 
ENDROOT
TORSDOF 0
ENDMDL
