MODEL 1
REMARK minimizedAffinity 7.53021908
REMARK minimizedRMSD -1
REMARK  0 active torsions:
REMARK  status: ('A' for Active; 'I' for Inactive)
ROOT
ATOM      1  C2' OXE d   1      -2.765  -2.508   1.576  0.00  0.00     0.078 C 
ATOM      2  C1' OXE d   1      -1.245  -1.883  -0.700  0.00  0.00     0.078 C 
ATOM      3  C1  OXE d   1      -1.523  -3.339  -0.418  0.00  0.00    -0.078 A 
ATOM      4  C2  OXE d   1      -2.228  -3.637   0.723  0.00  0.00    -0.078 A 
ATOM      5  C3  OXE d   1      -2.559  -4.960   1.003  0.00  0.00     0.003 A 
ATOM      6  C4  OXE d   1      -2.050  -6.000   0.215  0.00  0.00    -0.002 A 
ATOM      7  C5  OXE d   1      -1.296  -5.719  -0.930  0.00  0.00    -0.002 A 
ATOM      8  C6  OXE d   1      -1.060  -4.395  -1.283  0.00  0.00     0.003 A 
ENDROOT
TORSDOF 0
ENDMDL
