MODEL 1
REMARK minimizedAffinity 7.6473732
REMARK minimizedRMSD -1
REMARK  0 active torsions:
REMARK  status: ('A' for Active; 'I' for Inactive)
ROOT
ATOM      1  C2' OXE d   1      -0.021  -2.566   3.729  0.00  0.00     0.078 C 
ATOM      2  C1' OXE d   1       0.248  -4.935   2.247  0.00  0.00     0.078 C 
ATOM      3  C1  OXE d   1      -0.960  -4.072   1.981  0.00  0.00    -0.078 A 
ATOM      4  C2  OXE d   1      -1.108  -2.938   2.744  0.00  0.00    -0.078 A 
ATOM      5  C3  OXE d   1      -2.176  -2.079   2.502  0.00  0.00     0.003 A 
ATOM      6  C4  OXE d   1      -3.182  -2.436   1.596  0.00  0.00    -0.002 A 
ATOM      7  C5  OXE d   1      -3.071  -3.606   0.837  0.00  0.00    -0.002 A 
ATOM      8  C6  OXE d   1      -1.948  -4.411   0.987  0.00  0.00     0.003 A 
ENDROOT
TORSDOF 0
ENDMDL
