MODEL 1
REMARK minimizedAffinity 4.26687527
REMARK minimizedRMSD -1
REMARK  0 active torsions:
REMARK  status: ('A' for Active; 'I' for Inactive)
ROOT
ATOM      1  C2' OXE d   1      -2.692  -5.951   3.969  0.00  0.00     0.078 C 
ATOM      2  C1' OXE d   1      -1.175  -6.000   1.608  0.00  0.00     0.078 C 
ATOM      3  C1  OXE d   1      -2.677  -5.976   1.478  0.00  0.00    -0.078 A 
ATOM      4  C2  OXE d   1      -3.412  -6.000   2.639  0.00  0.00    -0.078 A 
ATOM      5  C3  OXE d   1      -4.801  -5.925   2.577  0.00  0.00     0.003 A 
ATOM      6  C4  OXE d   1      -5.460  -5.980   1.343  0.00  0.00    -0.002 A 
ATOM      7  C5  OXE d   1      -4.731  -5.997   0.149  0.00  0.00    -0.002 A 
ATOM      8  C6  OXE d   1      -3.342  -5.952   0.199  0.00  0.00     0.003 A 
ENDROOT
TORSDOF 0
ENDMDL
