MODEL 1
REMARK minimizedAffinity 10.1226597
REMARK minimizedRMSD -1
REMARK  0 active torsions:
REMARK  status: ('A' for Active; 'I' for Inactive)
ROOT
ATOM      1  C2' OXE d   1      -5.249  -2.288   5.735  0.00  0.00     0.078 C 
ATOM      2  C1' OXE d   1      -4.519  -1.888   3.054  0.00  0.00     0.078 C 
ATOM      3  C1  OXE d   1      -4.856  -0.672   3.880  0.00  0.00    -0.078 A 
ATOM      4  C2  OXE d   1      -5.257  -0.881   5.178  0.00  0.00    -0.078 A 
ATOM      5  C3  OXE d   1      -5.526   0.210   6.000  0.00  0.00     0.003 A 
ATOM      6  C4  OXE d   1      -5.541   1.508   5.474  0.00  0.00    -0.002 A 
ATOM      7  C5  OXE d   1      -5.174   1.739   4.144  0.00  0.00    -0.002 A 
ATOM      8  C6  OXE d   1      -4.788   0.666   3.347  0.00  0.00     0.003 A 
ENDROOT
TORSDOF 0
ENDMDL
