MODEL 1
REMARK minimizedAffinity 14.4352961
REMARK minimizedRMSD -1
REMARK  0 active torsions:
REMARK  status: ('A' for Active; 'I' for Inactive)
ROOT
ATOM      1  C2' OXE d   1       0.551  -5.826   2.785  0.00  0.00     0.078 C 
ATOM      2  C1' OXE d   1      -0.014  -5.862   0.035  0.00  0.00     0.078 C 
ATOM      3  C1  OXE d   1      -1.178  -5.890   0.993  0.00  0.00    -0.078 A 
ATOM      4  C2  OXE d   1      -0.892  -5.919   2.337  0.00  0.00    -0.078 A 
ATOM      5  C3  OXE d   1      -1.930  -5.891   3.264  0.00  0.00     0.003 A 
ATOM      6  C4  OXE d   1      -3.261  -5.988   2.841  0.00  0.00    -0.002 A 
ATOM      7  C5  OXE d   1      -3.573  -5.999   1.477  0.00  0.00    -0.002 A 
ATOM      8  C6  OXE d   1      -2.548  -5.908   0.542  0.00  0.00     0.003 A 
ENDROOT
TORSDOF 0
ENDMDL
