MODEL 1
REMARK minimizedAffinity 18.8930626
REMARK minimizedRMSD -1
REMARK  0 active torsions:
REMARK  status: ('A' for Active; 'I' for Inactive)
ROOT
ATOM      1  C2' OXE d   1       5.136  -4.473   3.524  0.00  0.00     0.078 C 
ATOM      2  C1' OXE d   1       2.741  -5.393   2.387  0.00  0.00     0.078 C 
ATOM      3  C1  OXE d   1       3.326  -4.110   1.852  0.00  0.00    -0.078 A 
ATOM      4  C2  OXE d   1       4.473  -3.642   2.446  0.00  0.00    -0.078 A 
ATOM      5  C3  OXE d   1       5.085  -2.492   1.955  0.00  0.00     0.003 A 
ATOM      6  C4  OXE d   1       4.459  -1.725   0.965  0.00  0.00    -0.002 A 
ATOM      7  C5  OXE d   1       3.269  -2.162   0.374  0.00  0.00    -0.002 A 
ATOM      8  C6  OXE d   1       2.713  -3.371   0.776  0.00  0.00     0.003 A 
ENDROOT
TORSDOF 0
ENDMDL
