MODEL 1
REMARK minimizedAffinity 1.14047098
REMARK minimizedRMSD -1
REMARK  0 active torsions:
REMARK  status: ('A' for Active; 'I' for Inactive)
ROOT
ATOM      1  C2' OXE d   1      -1.893  -3.174  -1.361  0.00  0.00     0.078 C 
ATOM      2  C1' OXE d   1      -3.023  -1.374  -3.195  0.00  0.00     0.078 C 
ATOM      3  C1  OXE d   1      -1.960  -0.852  -2.261  0.00  0.00    -0.078 A 
ATOM      4  C2  OXE d   1      -1.446  -1.728  -1.336  0.00  0.00    -0.078 A 
ATOM      5  C3  OXE d   1      -0.424  -1.313  -0.486  0.00  0.00     0.003 A 
ATOM      6  C4  OXE d   1      -0.023   0.028  -0.462  0.00  0.00    -0.002 A 
ATOM      7  C5  OXE d   1      -0.562   0.947  -1.370  0.00  0.00    -0.002 A 
ATOM      8  C6  OXE d   1      -1.499   0.514  -2.302  0.00  0.00     0.003 A 
ENDROOT
TORSDOF 0
ENDMDL
