MODEL 1
REMARK minimizedAffinity 2.90652037
REMARK minimizedRMSD -1
REMARK  0 active torsions:
REMARK  status: ('A' for Active; 'I' for Inactive)
ROOT
ATOM      1  C2' OXE d   1       0.257   0.651   1.490  0.00  0.00     0.078 C 
ATOM      2  C1' OXE d   1      -1.295  -1.235   2.875  0.00  0.00     0.078 C 
ATOM      3  C1  OXE d   1      -1.297  -1.292   1.367  0.00  0.00    -0.078 A 
ATOM      4  C2  OXE d   1      -0.572  -0.337   0.697  0.00  0.00    -0.078 A 
ATOM      5  C3  OXE d   1      -0.496  -0.377  -0.692  0.00  0.00     0.003 A 
ATOM      6  C4  OXE d   1      -1.274  -1.288  -1.418  0.00  0.00    -0.002 A 
ATOM      7  C5  OXE d   1      -2.050  -2.244  -0.756  0.00  0.00    -0.002 A 
ATOM      8  C6  OXE d   1      -2.040  -2.287   0.634  0.00  0.00     0.003 A 
ENDROOT
TORSDOF 0
ENDMDL
