MODEL 1
REMARK minimizedAffinity 6.24990511
REMARK minimizedRMSD -1
REMARK  0 active torsions:
REMARK  status: ('A' for Active; 'I' for Inactive)
ROOT
ATOM      1  C2' OXE d   1      -2.116  -3.005  -3.447  0.00  0.00     0.078 C 
ATOM      2  C1' OXE d   1       0.162  -1.378  -3.655  0.00  0.00     0.078 C 
ATOM      3  C1  OXE d   1      -0.550  -1.425  -2.326  0.00  0.00    -0.078 A 
ATOM      4  C2  OXE d   1      -1.690  -2.187  -2.247  0.00  0.00    -0.078 A 
ATOM      5  C3  OXE d   1      -2.354  -2.309  -1.029  0.00  0.00     0.003 A 
ATOM      6  C4  OXE d   1      -1.960  -1.542   0.073  0.00  0.00    -0.002 A 
ATOM      7  C5  OXE d   1      -0.824  -0.728   0.002  0.00  0.00    -0.002 A 
ATOM      8  C6  OXE d   1      -0.084  -0.692  -1.175  0.00  0.00     0.003 A 
ENDROOT
TORSDOF 0
ENDMDL
