MODEL 1
REMARK minimizedAffinity 4.25482178
REMARK minimizedRMSD -1
REMARK  0 active torsions:
REMARK  status: ('A' for Active; 'I' for Inactive)
ROOT
ATOM      1  C2' OXE d   1      -2.030  -3.178  -0.552  0.00  0.00     0.078 C 
ATOM      2  C1' OXE d   1      -3.190  -1.632  -2.587  0.00  0.00     0.078 C 
ATOM      3  C1  OXE d   1      -2.011  -1.051  -1.848  0.00  0.00    -0.078 A 
ATOM      4  C2  OXE d   1      -1.479  -1.794  -0.822  0.00  0.00    -0.078 A 
ATOM      5  C3  OXE d   1      -0.356  -1.329  -0.144  0.00  0.00     0.003 A 
ATOM      6  C4  OXE d   1       0.142  -0.045  -0.394  0.00  0.00    -0.002 A 
ATOM      7  C5  OXE d   1      -0.411   0.746  -1.408  0.00  0.00    -0.002 A 
ATOM      8  C6  OXE d   1      -1.458   0.241  -2.171  0.00  0.00     0.003 A 
ENDROOT
TORSDOF 0
ENDMDL
