MODEL 1
REMARK minimizedAffinity 3.06667423
REMARK minimizedRMSD -1
REMARK  0 active torsions:
REMARK  status: ('A' for Active; 'I' for Inactive)
ROOT
ATOM      1  C2' OXE d   1      -0.577   0.384  -0.706  0.00  0.00     0.078 C 
ATOM      2  C1' OXE d   1      -2.096   0.212  -3.059  0.00  0.00     0.078 C 
ATOM      3  C1  OXE d   1      -2.096  -0.979  -2.133  0.00  0.00    -0.078 A 
ATOM      4  C2  OXE d   1      -1.313  -0.904  -1.007  0.00  0.00    -0.078 A 
ATOM      5  C3  OXE d   1      -1.319  -1.952  -0.092  0.00  0.00     0.003 A 
ATOM      6  C4  OXE d   1      -1.995  -3.143  -0.383  0.00  0.00    -0.002 A 
ATOM      7  C5  OXE d   1      -2.767  -3.256  -1.544  0.00  0.00    -0.002 A 
ATOM      8  C6  OXE d   1      -2.862  -2.170  -2.407  0.00  0.00     0.003 A 
ENDROOT
TORSDOF 0
ENDMDL
