MODEL 1
REMARK minimizedAffinity 10.0877514
REMARK minimizedRMSD -1
REMARK  0 active torsions:
REMARK  status: ('A' for Active; 'I' for Inactive)
ROOT
ATOM      1  C2' OXE d   1       4.676  -1.012  -2.264  0.00  0.00     0.078 C 
ATOM      2  C1' OXE d   1       3.361   1.373  -1.582  0.00  0.00     0.078 C 
ATOM      3  C1  OXE d   1       3.543   1.064  -3.047  0.00  0.00    -0.078 A 
ATOM      4  C2  OXE d   1       4.229  -0.082  -3.371  0.00  0.00    -0.078 A 
ATOM      5  C3  OXE d   1       4.377  -0.442  -4.708  0.00  0.00     0.003 A 
ATOM      6  C4  OXE d   1       3.969   0.429  -5.726  0.00  0.00    -0.002 A 
ATOM      7  C5  OXE d   1       3.304   1.620  -5.417  0.00  0.00    -0.002 A 
ATOM      8  C6  OXE d   1       3.046   1.931  -4.086  0.00  0.00     0.003 A 
ENDROOT
TORSDOF 0
ENDMDL
