MODEL 1
REMARK minimizedAffinity 13.360465
REMARK minimizedRMSD -1
REMARK  0 active torsions:
REMARK  status: ('A' for Active; 'I' for Inactive)
ROOT
ATOM      1  C2' OXE d   1      -1.088   0.699   1.517  0.00  0.00     0.078 C 
ATOM      2  C1' OXE d   1      -1.200  -1.499  -0.225  0.00  0.00     0.078 C 
ATOM      3  C1  OXE d   1       0.004  -0.595  -0.310  0.00  0.00    -0.078 A 
ATOM      4  C2  OXE d   1       0.028   0.504   0.514  0.00  0.00    -0.078 A 
ATOM      5  C3  OXE d   1       1.141   1.340   0.515  0.00  0.00     0.003 A 
ATOM      6  C4  OXE d   1       2.165   1.159  -0.422  0.00  0.00    -0.002 A 
ATOM      7  C5  OXE d   1       2.141   0.068  -1.298  0.00  0.00    -0.002 A 
ATOM      8  C6  OXE d   1       1.091  -0.840  -1.226  0.00  0.00     0.003 A 
ENDROOT
TORSDOF 0
ENDMDL
