MODEL 1
REMARK minimizedAffinity 4.82637358
REMARK minimizedRMSD -1
REMARK  0 active torsions:
REMARK  status: ('A' for Active; 'I' for Inactive)
ROOT
ATOM      1  C2' OXE d   1       4.464  -3.050   1.965  0.00  0.00     0.078 C 
ATOM      2  C1' OXE d   1       5.344  -0.547   2.882  0.00  0.00     0.078 C 
ATOM      3  C1  OXE d   1       5.445  -1.718   3.828  0.00  0.00    -0.078 A 
ATOM      4  C2  OXE d   1       4.969  -2.929   3.387  0.00  0.00    -0.078 A 
ATOM      5  C3  OXE d   1       5.088  -4.053   4.199  0.00  0.00     0.003 A 
ATOM      6  C4  OXE d   1       5.547  -3.931   5.516  0.00  0.00    -0.002 A 
ATOM      7  C5  OXE d   1       6.000  -2.698   5.998  0.00  0.00    -0.002 A 
ATOM      8  C6  OXE d   1       5.995  -1.593   5.155  0.00  0.00     0.003 A 
ENDROOT
TORSDOF 0
ENDMDL
