MODEL 1
REMARK minimizedAffinity 13.4768171
REMARK minimizedRMSD -1
REMARK  0 active torsions:
REMARK  status: ('A' for Active; 'I' for Inactive)
ROOT
ATOM      1  C2' OXE d   1      -2.068  -5.167  -1.973  0.00  0.00     0.078 C 
ATOM      2  C1' OXE d   1      -2.509  -3.253   0.033  0.00  0.00     0.078 C 
ATOM      3  C1  OXE d   1      -2.711  -2.829  -1.400  0.00  0.00    -0.078 A 
ATOM      4  C2  OXE d   1      -2.448  -3.759  -2.377  0.00  0.00    -0.078 A 
ATOM      5  C3  OXE d   1      -2.671  -3.437  -3.713  0.00  0.00     0.003 A 
ATOM      6  C4  OXE d   1      -3.014  -2.130  -4.080  0.00  0.00    -0.002 A 
ATOM      7  C5  OXE d   1      -3.248  -1.157  -3.102  0.00  0.00    -0.002 A 
ATOM      8  C6  OXE d   1      -3.143  -1.501  -1.759  0.00  0.00     0.003 A 
ENDROOT
TORSDOF 0
ENDMDL
