MODEL 1
REMARK minimizedAffinity 2.27382231
REMARK minimizedRMSD -1
REMARK  0 active torsions:
REMARK  status: ('A' for Active; 'I' for Inactive)
ROOT
ATOM      1  C2' OXE d   1      -2.083  -2.269  -0.610  0.00  0.00     0.078 C 
ATOM      2  C1' OXE d   1      -1.460   0.018  -2.113  0.00  0.00     0.078 C 
ATOM      3  C1  OXE d   1      -0.950  -0.053  -0.695  0.00  0.00    -0.078 A 
ATOM      4  C2  OXE d   1      -1.299  -1.155   0.048  0.00  0.00    -0.078 A 
ATOM      5  C3  OXE d   1      -0.809  -1.296   1.343  0.00  0.00     0.003 A 
ATOM      6  C4  OXE d   1      -0.093  -0.256   1.948  0.00  0.00    -0.002 A 
ATOM      7  C5  OXE d   1       0.239   0.893   1.222  0.00  0.00    -0.002 A 
ATOM      8  C6  OXE d   1      -0.144   0.991  -0.111  0.00  0.00     0.003 A 
ENDROOT
TORSDOF 0
ENDMDL
