MODEL 1
REMARK minimizedAffinity 11.821825
REMARK minimizedRMSD -1
REMARK  0 active torsions:
REMARK  status: ('A' for Active; 'I' for Inactive)
ROOT
ATOM      1  C2' OXE d   1      -5.077  -1.111   3.199  0.00  0.00     0.078 C 
ATOM      2  C1' OXE d   1      -6.000  -2.334   0.846  0.00  0.00     0.078 C 
ATOM      3  C1  OXE d   1      -4.541  -2.492   1.196  0.00  0.00    -0.078 A 
ATOM      4  C2  OXE d   1      -4.088  -1.852   2.324  0.00  0.00    -0.078 A 
ATOM      5  C3  OXE d   1      -2.763  -2.010   2.722  0.00  0.00     0.003 A 
ATOM      6  C4  OXE d   1      -1.853  -2.688   1.902  0.00  0.00    -0.002 A 
ATOM      7  C5  OXE d   1      -2.286  -3.315   0.728  0.00  0.00    -0.002 A 
ATOM      8  C6  OXE d   1      -3.632  -3.262   0.383  0.00  0.00     0.003 A 
ENDROOT
TORSDOF 0
ENDMDL
