MODEL 1
REMARK minimizedAffinity -2.3062048
REMARK minimizedRMSD -1
REMARK  0 active torsions:
REMARK  status: ('A' for Active; 'I' for Inactive)
ROOT
ATOM      1  C   UNL d   1       1.044   0.604   2.763  0.00  0.00    -0.002 A 
ATOM      2  C1  UNL d   1      -0.239   0.179   3.082  0.00  0.00     0.010 A 
ATOM      3  C2  UNL d   1      -1.165  -0.100   2.075  0.00  0.00     0.041 A 
ATOM      4  C3  UNL d   1      -0.776   0.054   0.729  0.00  0.00    -0.075 A 
ATOM      5  S   UNL d   1      -1.741  -0.231  -0.671  0.00  0.00     0.015 SA
ATOM      6  C4  UNL d   1      -0.474   0.203  -1.724  0.00  0.00     0.022 A 
ATOM      7  C5  UNL d   1       0.665   0.559  -1.041  0.00  0.00     0.026 A 
ATOM      8  C6  UNL d   1       0.510   0.479   0.384  0.00  0.00    -0.082 A 
ATOM      9  C7  UNL d   1       1.426   0.755   1.428  0.00  0.00     0.045 A 
ENDROOT
TORSDOF 0
ENDMDL
