MODEL 1
REMARK minimizedAffinity -2.49190617
REMARK minimizedRMSD -1
REMARK  0 active torsions:
REMARK  status: ('A' for Active; 'I' for Inactive)
ROOT
ATOM      1  C   UNL d   1      -1.271  -1.163   0.757  0.00  0.00    -0.002 A 
ATOM      2  C1  UNL d   1      -1.424  -1.083   2.134  0.00  0.00     0.010 A 
ATOM      3  C2  UNL d   1      -0.611  -0.238   2.891  0.00  0.00     0.041 A 
ATOM      4  C3  UNL d   1       0.368   0.534   2.235  0.00  0.00    -0.075 A 
ATOM      5  S   UNL d   1       1.477   1.639   2.957  0.00  0.00     0.015 SA
ATOM      6  C4  UNL d   1       2.180   2.031   1.455  0.00  0.00     0.022 A 
ATOM      7  C5  UNL d   1       1.595   1.345   0.417  0.00  0.00     0.026 A 
ATOM      8  C6  UNL d   1       0.541   0.471   0.849  0.00  0.00    -0.082 A 
ATOM      9  C7  UNL d   1      -0.299  -0.396   0.110  0.00  0.00     0.045 A 
ENDROOT
TORSDOF 0
ENDMDL
