MODEL 1
REMARK minimizedAffinity -4.48436356
REMARK minimizedRMSD -1
REMARK  0 active torsions:
REMARK  status: ('A' for Active; 'I' for Inactive)
ROOT
ATOM      1  C   UNL d   1       0.195   0.275  -0.859  0.00  0.00    -0.002 A 
ATOM      2  C1  UNL d   1       1.216   1.136  -0.482  0.00  0.00     0.010 A 
ATOM      3  C2  UNL d   1       1.495   1.359   0.867  0.00  0.00     0.041 A 
ATOM      4  C3  UNL d   1       0.725   0.693   1.842  0.00  0.00    -0.075 A 
ATOM      5  S   UNL d   1       0.888   0.811   3.554  0.00  0.00     0.015 SA
ATOM      6  C4  UNL d   1      -0.393  -0.280   3.826  0.00  0.00     0.022 A 
ATOM      7  C5  UNL d   1      -0.943  -0.732   2.650  0.00  0.00     0.026 A 
ATOM      8  C6  UNL d   1      -0.307  -0.179   1.487  0.00  0.00    -0.082 A 
ATOM      9  C7  UNL d   1      -0.567  -0.383   0.110  0.00  0.00     0.045 A 
ENDROOT
TORSDOF 0
ENDMDL
