MODEL 1
REMARK minimizedAffinity -3.82676339
REMARK minimizedRMSD -1
REMARK  0 active torsions:
REMARK  status: ('A' for Active; 'I' for Inactive)
ROOT
ATOM      1  C   UNL d   1       0.246  -0.747   3.506  0.00  0.00    -0.002 A 
ATOM      2  C1  UNL d   1      -1.034  -1.088   3.090  0.00  0.00     0.010 A 
ATOM      3  C2  UNL d   1      -1.428  -0.884   1.766  0.00  0.00     0.041 A 
ATOM      4  C3  UNL d   1      -0.506  -0.328   0.858  0.00  0.00    -0.075 A 
ATOM      5  S   UNL d   1      -0.767   0.011  -0.812  0.00  0.00     0.015 SA
ATOM      6  C4  UNL d   1       0.813   0.616  -1.013  0.00  0.00     0.022 A 
ATOM      7  C5  UNL d   1       1.536   0.568   0.155  0.00  0.00     0.026 A 
ATOM      8  C6  UNL d   1       0.788   0.023   1.253  0.00  0.00    -0.082 A 
ATOM      9  C7  UNL d   1       1.158  -0.196   2.602  0.00  0.00     0.045 A 
ENDROOT
TORSDOF 0
ENDMDL
