MODEL 1
REMARK minimizedAffinity -3.07849813
REMARK minimizedRMSD -1
REMARK  0 active torsions:
REMARK  status: ('A' for Active; 'I' for Inactive)
ROOT
ATOM      1  C   UNL d   1       0.618  -0.414   2.826  0.00  0.00    -0.002 A 
ATOM      2  C1  UNL d   1      -0.745  -0.632   2.676  0.00  0.00     0.010 A 
ATOM      3  C2  UNL d   1      -1.362  -0.447   1.438  0.00  0.00     0.041 A 
ATOM      4  C3  UNL d   1      -0.579  -0.037   0.340  0.00  0.00    -0.075 A 
ATOM      5  S   UNL d   1      -1.119   0.252  -1.271  0.00  0.00     0.015 SA
ATOM      6  C4  UNL d   1       0.447   0.670  -1.800  0.00  0.00     0.022 A 
ATOM      7  C5  UNL d   1       1.371   0.596  -0.785  0.00  0.00     0.026 A 
ATOM      8  C6  UNL d   1       0.795   0.187   0.466  0.00  0.00    -0.082 A 
ATOM      9  C7  UNL d   1       1.391  -0.008   1.735  0.00  0.00     0.045 A 
ENDROOT
TORSDOF 0
ENDMDL
