MODEL 1
REMARK minimizedAffinity -4.03546047
REMARK minimizedRMSD -1
REMARK  0 active torsions:
REMARK  status: ('A' for Active; 'I' for Inactive)
ROOT
ATOM      1  C   UNL d   1       0.376  -0.664   2.225  0.00  0.00    -0.002 A 
ATOM      2  C1  UNL d   1      -1.011  -0.701   2.235  0.00  0.00     0.010 A 
ATOM      3  C2  UNL d   1      -1.741  -0.297   1.115  0.00  0.00     0.041 A 
ATOM      4  C3  UNL d   1      -1.045   0.147  -0.027  0.00  0.00    -0.075 A 
ATOM      5  S   UNL d   1      -1.729   0.689  -1.514  0.00  0.00     0.015 SA
ATOM      6  C4  UNL d   1      -0.195   0.981  -2.199  0.00  0.00     0.022 A 
ATOM      7  C5  UNL d   1       0.824   0.679  -1.328  0.00  0.00     0.026 A 
ATOM      8  C6  UNL d   1       0.351   0.192  -0.062  0.00  0.00    -0.082 A 
ATOM      9  C7  UNL d   1       1.062  -0.223   1.090  0.00  0.00     0.045 A 
ENDROOT
TORSDOF 0
ENDMDL
