MODEL 1
REMARK minimizedAffinity -2.86561728
REMARK minimizedRMSD -1
REMARK  0 active torsions:
REMARK  status: ('A' for Active; 'I' for Inactive)
ROOT
ATOM      1  C   UNL d   1       0.430  -0.402   3.015  0.00  0.00    -0.002 A 
ATOM      2  C1  UNL d   1      -0.793  -0.990   2.722  0.00  0.00     0.010 A 
ATOM      3  C2  UNL d   1      -1.224  -1.111   1.400  0.00  0.00     0.041 A 
ATOM      4  C3  UNL d   1      -0.398  -0.629   0.366  0.00  0.00    -0.075 A 
ATOM      5  S   UNL d   1      -0.720  -0.670  -1.327  0.00  0.00     0.015 SA
ATOM      6  C4  UNL d   1       0.758   0.091  -1.702  0.00  0.00     0.022 A 
ATOM      7  C5  UNL d   1       1.492   0.377  -0.575  0.00  0.00     0.026 A 
ATOM      8  C6  UNL d   1       0.838  -0.033   0.635  0.00  0.00    -0.082 A 
ATOM      9  C7  UNL d   1       1.247   0.076   1.986  0.00  0.00     0.045 A 
ENDROOT
TORSDOF 0
ENDMDL
