MODEL 1
REMARK minimizedAffinity -2.05165458
REMARK minimizedRMSD -1
REMARK  0 active torsions:
REMARK  status: ('A' for Active; 'I' for Inactive)
ROOT
ATOM      1  C   UNL d   1       1.331   0.098   3.111  0.00  0.00    -0.002 A 
ATOM      2  C1  UNL d   1      -0.055   0.073   3.184  0.00  0.00     0.010 A 
ATOM      3  C2  UNL d   1      -0.825  -0.023   2.023  0.00  0.00     0.041 A 
ATOM      4  C3  UNL d   1      -0.173  -0.096   0.776  0.00  0.00    -0.075 A 
ATOM      5  S   UNL d   1      -0.910  -0.220  -0.777  0.00  0.00     0.015 SA
ATOM      6  C4  UNL d   1       0.597  -0.243  -1.573  0.00  0.00     0.022 A 
ATOM      7  C5  UNL d   1       1.647  -0.159  -0.691  0.00  0.00     0.026 A 
ATOM      8  C6  UNL d   1       1.221  -0.074   0.678  0.00  0.00    -0.082 A 
ATOM      9  C7  UNL d   1       1.974   0.025   1.873  0.00  0.00     0.045 A 
ENDROOT
TORSDOF 0
ENDMDL
