MODEL 1
REMARK minimizedAffinity 9.0850153
REMARK minimizedRMSD -1
REMARK  1 active torsions:
REMARK  status: ('A' for Active; 'I' for Inactive)
REMARK    1  A    between atoms: C3_4  and  O_7 
ROOT
ATOM      1  C   UNL d   1      -3.970   1.105  -3.613  0.00  0.00    -0.033 A 
ATOM      2  C1  UNL d   1      -5.300   1.498  -3.448  0.00  0.00     0.039 A 
ATOM      3  C2  UNL d   1      -5.999   1.135  -2.295  0.00  0.00    -0.080 A 
ATOM      4  C3  UNL d   1      -5.357   0.380  -1.316  0.00  0.00     0.150 A 
ATOM      5  C4  UNL d   1      -4.032  -0.012  -1.473  0.00  0.00    -0.007 A 
ATOM      6  C5  UNL d   1      -3.336   0.351  -2.626  0.00  0.00     0.039 A 
ENDROOT
BRANCH   4   7
ATOM      7  O   UNL d   1      -5.999  -0.003  -0.176  0.00  0.00    -0.526 OA
ATOM      8  H5  UNL d   1      -6.917   0.315  -0.219  0.00  0.00     0.418 HD
ENDBRANCH   4   7
TORSDOF 1
ENDMDL
