MODEL 1
REMARK minimizedAffinity 5.8649888
REMARK minimizedRMSD -1
REMARK  1 active torsions:
REMARK  status: ('A' for Active; 'I' for Inactive)
REMARK    1  A    between atoms: C3_4  and  O_7 
ROOT
ATOM      1  C   UNL d   1      -5.973   3.527  -3.460  0.00  0.00    -0.033 A 
ATOM      2  C1  UNL d   1      -5.962   3.783  -2.088  0.00  0.00     0.039 A 
ATOM      3  C2  UNL d   1      -5.970   2.724  -1.178  0.00  0.00    -0.080 A 
ATOM      4  C3  UNL d   1      -5.987   1.416  -1.653  0.00  0.00     0.150 A 
ATOM      5  C4  UNL d   1      -5.994   1.153  -3.019  0.00  0.00    -0.007 A 
ATOM      6  C5  UNL d   1      -5.987   2.212  -3.926  0.00  0.00     0.039 A 
ENDROOT
BRANCH   4   7
ATOM      7  O   UNL d   1      -6.000   0.349  -0.803  0.00  0.00    -0.526 OA
ATOM      8  H5  UNL d   1      -6.023   0.683   0.109  0.00  0.00     0.418 HD
ENDBRANCH   4   7
TORSDOF 1
ENDMDL
