MODEL 1
REMARK minimizedAffinity 4.6424036
REMARK minimizedRMSD -1
REMARK  1 active torsions:
REMARK  status: ('A' for Active; 'I' for Inactive)
REMARK    1  A    between atoms: C3_4  and  O_7 
ROOT
ATOM      1  C   UNL d   1       5.049   1.084  -0.223  0.00  0.00    -0.033 A 
ATOM      2  C1  UNL d   1       3.845   1.076  -0.930  0.00  0.00     0.039 A 
ATOM      3  C2  UNL d   1       2.953   0.012  -0.780  0.00  0.00    -0.080 A 
ATOM      4  C3  UNL d   1       3.276  -1.035   0.079  0.00  0.00     0.150 A 
ATOM      5  C4  UNL d   1       4.472  -1.031   0.789  0.00  0.00    -0.007 A 
ATOM      6  C5  UNL d   1       5.362   0.031   0.637  0.00  0.00     0.039 A 
ENDROOT
BRANCH   4   7
ATOM      7  O   UNL d   1       2.439  -2.097   0.254  0.00  0.00    -0.526 OA
ATOM      8  H5  UNL d   1       1.665  -1.977  -0.322  0.00  0.00     0.418 HD
ENDBRANCH   4   7
TORSDOF 1
ENDMDL
