MODEL 1
REMARK minimizedAffinity 3.13473535
REMARK minimizedRMSD -1
REMARK  1 active torsions:
REMARK  status: ('A' for Active; 'I' for Inactive)
REMARK    1  A    between atoms: C3_4  and  O_7 
ROOT
ATOM      1  C   UNL d   1       5.492   0.965  -0.372  0.00  0.00    -0.033 A 
ATOM      2  C1  UNL d   1       4.278   1.029  -1.057  0.00  0.00     0.039 A 
ATOM      3  C2  UNL d   1       3.315   0.036  -0.870  0.00  0.00    -0.080 A 
ATOM      4  C3  UNL d   1       3.578  -1.015   0.005  0.00  0.00     0.150 A 
ATOM      5  C4  UNL d   1       4.785  -1.083   0.694  0.00  0.00    -0.007 A 
ATOM      6  C5  UNL d   1       5.745  -0.090   0.505  0.00  0.00     0.039 A 
ENDROOT
BRANCH   4   7
ATOM      7  O   UNL d   1       2.672  -2.010   0.217  0.00  0.00    -0.526 OA
ATOM      8  H5  UNL d   1       1.898  -1.847  -0.348  0.00  0.00     0.418 HD
ENDBRANCH   4   7
TORSDOF 1
ENDMDL
