MODEL 1
REMARK minimizedAffinity -2.29233742
REMARK minimizedRMSD -1
REMARK  0 active torsions:
REMARK  status: ('A' for Active; 'I' for Inactive)
ROOT
ATOM      1  C   UNL d   1       1.730   0.490  -0.610  0.00  0.00     0.077 C 
ATOM      2  C1  UNL d   1       3.062   0.533  -1.299  0.00  0.00    -0.074 A 
ATOM      3  C2  UNL d   1       4.167   1.135  -0.689  0.00  0.00    -0.005 A 
ATOM      4  C3  UNL d   1       5.402   1.159  -1.338  0.00  0.00     0.006 A 
ATOM      5  C4  UNL d   1       5.543   0.582  -2.601  0.00  0.00    -0.005 A 
ATOM      6  C5  UNL d   1       4.449  -0.025  -3.225  0.00  0.00    -0.074 A 
ATOM      7  C6  UNL d   1       4.586  -0.658  -4.578  0.00  0.00     0.077 C 
ATOM      8  C7  UNL d   1       3.214  -0.051  -2.564  0.00  0.00    -0.001 A 
ENDROOT
TORSDOF 0
ENDMDL
