MODEL 1
REMARK minimizedAffinity 2.87619066
REMARK minimizedRMSD -1
REMARK  0 active torsions:
REMARK  status: ('A' for Active; 'I' for Inactive)
ROOT
ATOM      1  C   UNL d   1       2.946   0.577   1.577  0.00  0.00     0.077 C 
ATOM      2  C1  UNL d   1       3.052   0.645   0.083  0.00  0.00    -0.074 A 
ATOM      3  C2  UNL d   1       2.048   0.114  -0.734  0.00  0.00    -0.005 A 
ATOM      4  C3  UNL d   1       2.156   0.193  -2.122  0.00  0.00     0.006 A 
ATOM      5  C4  UNL d   1       3.266   0.803  -2.707  0.00  0.00    -0.005 A 
ATOM      6  C5  UNL d   1       4.280   1.340  -1.907  0.00  0.00    -0.074 A 
ATOM      7  C6  UNL d   1       5.475   2.007  -2.519  0.00  0.00     0.077 C 
ATOM      8  C7  UNL d   1       4.161   1.263  -0.512  0.00  0.00    -0.001 A 
ENDROOT
TORSDOF 0
ENDMDL
