MODEL 1
REMARK minimizedAffinity 1.82260811
REMARK minimizedRMSD -1
REMARK  0 active torsions:
REMARK  status: ('A' for Active; 'I' for Inactive)
ROOT
ATOM      1  C   UNL d   1       2.163   0.310  -1.107  0.00  0.00     0.077 C 
ATOM      2  C1  UNL d   1       0.838   0.980  -0.901  0.00  0.00    -0.074 A 
ATOM      3  C2  UNL d   1      -0.347   0.380  -1.340  0.00  0.00    -0.005 A 
ATOM      4  C3  UNL d   1      -1.574   1.012  -1.133  0.00  0.00     0.006 A 
ATOM      5  C4  UNL d   1      -1.628   2.247  -0.487  0.00  0.00    -0.005 A 
ATOM      6  C5  UNL d   1      -0.454   2.862  -0.041  0.00  0.00    -0.074 A 
ATOM      7  C6  UNL d   1      -0.495   4.186   0.663  0.00  0.00     0.077 C 
ATOM      8  C7  UNL d   1       0.774   2.218  -0.246  0.00  0.00    -0.001 A 
ENDROOT
TORSDOF 0
ENDMDL
