MODEL 1
REMARK minimizedAffinity 3.59299397
REMARK minimizedRMSD -1
REMARK  0 active torsions:
REMARK  status: ('A' for Active; 'I' for Inactive)
ROOT
ATOM      1  C   UNL d   1       5.272   2.132   1.688  0.00  0.00     0.077 C 
ATOM      2  C1  UNL d   1       4.851   1.823   0.282  0.00  0.00    -0.074 A 
ATOM      3  C2  UNL d   1       3.865   0.866   0.021  0.00  0.00    -0.005 A 
ATOM      4  C3  UNL d   1       3.477   0.596  -1.292  0.00  0.00     0.006 A 
ATOM      5  C4  UNL d   1       4.070   1.279  -2.354  0.00  0.00    -0.005 A 
ATOM      6  C5  UNL d   1       5.057   2.240  -2.113  0.00  0.00    -0.074 A 
ATOM      7  C6  UNL d   1       5.697   2.990  -3.243  0.00  0.00     0.077 C 
ATOM      8  C7  UNL d   1       5.436   2.511  -0.791  0.00  0.00    -0.001 A 
ENDROOT
TORSDOF 0
ENDMDL
