MODEL 1
REMARK minimizedAffinity 9.06907463
REMARK minimizedRMSD -1
REMARK  0 active torsions:
REMARK  status: ('A' for Active; 'I' for Inactive)
ROOT
ATOM      1  C   UNL d   1       2.174  -0.002  -1.713  0.00  0.00     0.077 C 
ATOM      2  C1  UNL d   1       3.387   0.805  -1.355  0.00  0.00    -0.074 A 
ATOM      3  C2  UNL d   1       3.825   0.894  -0.030  0.00  0.00    -0.005 A 
ATOM      4  C3  UNL d   1       4.960   1.640   0.287  0.00  0.00     0.006 A 
ATOM      5  C4  UNL d   1       5.668   2.303  -0.716  0.00  0.00    -0.005 A 
ATOM      6  C5  UNL d   1       5.245   2.225  -2.047  0.00  0.00    -0.074 A 
ATOM      7  C6  UNL d   1       6.000   2.924  -3.139  0.00  0.00     0.077 C 
ATOM      8  C7  UNL d   1       4.108   1.467  -2.358  0.00  0.00    -0.001 A 
ENDROOT
TORSDOF 0
ENDMDL
