MODEL 1
REMARK minimizedAffinity -3.76173568
REMARK minimizedRMSD -1
REMARK  0 active torsions:
REMARK  status: ('A' for Active; 'I' for Inactive)
ROOT
ATOM      1  C   UNL d   1       0.352   3.263  -0.080  0.00  0.00     0.078 C 
ATOM      2  C1  UNL d   1      -0.013   1.819   0.091  0.00  0.00    -0.077 A 
ATOM      3  C2  UNL d   1      -1.259   1.446   0.611  0.00  0.00    -0.001 A 
ATOM      4  C3  UNL d   1      -1.581   0.098   0.773  0.00  0.00     0.003 A 
ATOM      5  C4  UNL d   1      -0.663  -0.888   0.419  0.00  0.00    -0.005 A 
ATOM      6  C5  UNL d   1       0.579  -0.527  -0.098  0.00  0.00     0.003 A 
ATOM      7  C6  UNL d   1       0.904   0.820  -0.261  0.00  0.00    -0.001 A 
ENDROOT
TORSDOF 0
ENDMDL
