MODEL 1
REMARK minimizedAffinity -5.83797121
REMARK minimizedRMSD -1
REMARK  0 active torsions:
REMARK  status: ('A' for Active; 'I' for Inactive)
ROOT
ATOM      1  C   UNL d   1      -0.023  -0.710   0.026  0.00  0.00     0.078 C 
ATOM      2  C1  UNL d   1       0.442   0.716   0.049  0.00  0.00    -0.077 A 
ATOM      3  C2  UNL d   1       1.792   1.031   0.243  0.00  0.00    -0.001 A 
ATOM      4  C3  UNL d   1       2.209   2.363   0.272  0.00  0.00     0.003 A 
ATOM      5  C4  UNL d   1       1.282   3.390   0.109  0.00  0.00    -0.005 A 
ATOM      6  C5  UNL d   1      -0.064   3.086  -0.082  0.00  0.00     0.003 A 
ATOM      7  C6  UNL d   1      -0.483   1.755  -0.111  0.00  0.00    -0.001 A 
ENDROOT
TORSDOF 0
ENDMDL
