MODEL 1
REMARK minimizedAffinity -4.4119339
REMARK minimizedRMSD -1
REMARK  0 active torsions:
REMARK  status: ('A' for Active; 'I' for Inactive)
ROOT
ATOM      1  C   UNL d   1       0.112  -1.323   0.565  0.00  0.00     0.078 C 
ATOM      2  C1  UNL d   1       0.122   0.154   0.307  0.00  0.00    -0.077 A 
ATOM      3  C2  UNL d   1       1.309   0.819  -0.026  0.00  0.00    -0.001 A 
ATOM      4  C3  UNL d   1       1.306   2.196  -0.254  0.00  0.00     0.003 A 
ATOM      5  C4  UNL d   1       0.120   2.920  -0.149  0.00  0.00    -0.005 A 
ATOM      6  C5  UNL d   1      -1.065   2.267   0.184  0.00  0.00     0.003 A 
ATOM      7  C6  UNL d   1      -1.064   0.890   0.413  0.00  0.00    -0.001 A 
ENDROOT
TORSDOF 0
ENDMDL
