MODEL 1
REMARK minimizedAffinity -3.949265
REMARK minimizedRMSD -1
REMARK  0 active torsions:
REMARK  status: ('A' for Active; 'I' for Inactive)
ROOT
ATOM      1  C   UNL d   1      -0.127   3.200  -0.034  0.00  0.00     0.078 C 
ATOM      2  C1  UNL d   1      -0.074   1.707   0.091  0.00  0.00    -0.077 A 
ATOM      3  C2  UNL d   1      -1.200   0.977   0.492  0.00  0.00    -0.001 A 
ATOM      4  C3  UNL d   1      -1.134  -0.412   0.614  0.00  0.00     0.003 A 
ATOM      5  C4  UNL d   1       0.056  -1.083   0.337  0.00  0.00    -0.005 A 
ATOM      6  C5  UNL d   1       1.181  -0.365  -0.061  0.00  0.00     0.003 A 
ATOM      7  C6  UNL d   1       1.117   1.024  -0.183  0.00  0.00    -0.001 A 
ENDROOT
TORSDOF 0
ENDMDL
