MODEL 1
REMARK minimizedAffinity -4.78432608
REMARK minimizedRMSD -1
REMARK  0 active torsions:
REMARK  status: ('A' for Active; 'I' for Inactive)
ROOT
ATOM      1  C   UNL d   1       0.032  -1.173   0.115  0.00  0.00     0.078 C 
ATOM      2  C1  UNL d   1      -0.069   0.319   0.220  0.00  0.00    -0.077 A 
ATOM      3  C2  UNL d   1      -1.256   0.935   0.636  0.00  0.00    -0.001 A 
ATOM      4  C3  UNL d   1      -1.339   2.325   0.719  0.00  0.00     0.003 A 
ATOM      5  C4  UNL d   1      -0.238   3.113   0.388  0.00  0.00    -0.005 A 
ATOM      6  C5  UNL d   1       0.947   2.510  -0.029  0.00  0.00     0.003 A 
ATOM      7  C6  UNL d   1       1.032   1.119  -0.113  0.00  0.00    -0.001 A 
ENDROOT
TORSDOF 0
ENDMDL
