MODEL 1
REMARK minimizedAffinity -2.50404716
REMARK minimizedRMSD -1
REMARK  0 active torsions:
REMARK  status: ('A' for Active; 'I' for Inactive)
ROOT
ATOM      1  C   UNL d   1      -3.692  -5.125  -0.445  0.00  0.00     0.078 C 
ATOM      2  C1  UNL d   1      -2.399  -4.488  -0.859  0.00  0.00    -0.077 A 
ATOM      3  C2  UNL d   1      -1.444  -5.205  -1.591  0.00  0.00    -0.001 A 
ATOM      4  C3  UNL d   1      -0.241  -4.602  -1.961  0.00  0.00     0.003 A 
ATOM      5  C4  UNL d   1       0.019  -3.281  -1.603  0.00  0.00    -0.005 A 
ATOM      6  C5  UNL d   1      -0.924  -2.560  -0.873  0.00  0.00     0.003 A 
ATOM      7  C6  UNL d   1      -2.128  -3.161  -0.502  0.00  0.00    -0.001 A 
ENDROOT
TORSDOF 0
ENDMDL
