MODEL 1
REMARK minimizedAffinity -5.17160273
REMARK minimizedRMSD -1
REMARK  0 active torsions:
REMARK  status: ('A' for Active; 'I' for Inactive)
ROOT
ATOM      1  C   UNL d   1      -0.184  -1.142   0.465  0.00  0.00     0.078 C 
ATOM      2  C1  UNL d   1      -0.313   0.343   0.302  0.00  0.00    -0.077 A 
ATOM      3  C2  UNL d   1      -1.440   1.026   0.776  0.00  0.00    -0.001 A 
ATOM      4  C3  UNL d   1      -1.551   2.407   0.610  0.00  0.00     0.003 A 
ATOM      5  C4  UNL d   1      -0.539   3.118  -0.033  0.00  0.00    -0.005 A 
ATOM      6  C5  UNL d   1       0.585   2.447  -0.510  0.00  0.00     0.003 A 
ATOM      7  C6  UNL d   1       0.698   1.066  -0.344  0.00  0.00    -0.001 A 
ENDROOT
TORSDOF 0
ENDMDL
