MODEL 1
REMARK minimizedAffinity -0.341668367
REMARK minimizedRMSD -1
REMARK  0 active torsions:
REMARK  status: ('A' for Active; 'I' for Inactive)
ROOT
ATOM      1  C   UNL d   1      -4.121  -5.351   0.167  0.00  0.00     0.078 C 
ATOM      2  C1  UNL d   1      -3.066  -4.713  -0.687  0.00  0.00    -0.077 A 
ATOM      3  C2  UNL d   1      -2.888  -5.099  -2.021  0.00  0.00    -0.001 A 
ATOM      4  C3  UNL d   1      -1.896  -4.503  -2.801  0.00  0.00     0.003 A 
ATOM      5  C4  UNL d   1      -1.073  -3.520  -2.256  0.00  0.00    -0.005 A 
ATOM      6  C5  UNL d   1      -1.241  -3.132  -0.928  0.00  0.00     0.003 A 
ATOM      7  C6  UNL d   1      -2.233  -3.726  -0.147  0.00  0.00    -0.001 A 
ENDROOT
TORSDOF 0
ENDMDL
