MODEL 1
REMARK minimizedAffinity -4.06902027
REMARK minimizedRMSD -1
REMARK  0 active torsions:
REMARK  status: ('A' for Active; 'I' for Inactive)
ROOT
ATOM      1  C   UNL d   1      -0.044   3.171  -0.178  0.00  0.00     0.078 C 
ATOM      2  C1  UNL d   1      -0.254   1.711   0.089  0.00  0.00    -0.077 A 
ATOM      3  C2  UNL d   1       0.722   0.767  -0.254  0.00  0.00    -0.001 A 
ATOM      4  C3  UNL d   1       0.509  -0.590  -0.009  0.00  0.00     0.003 A 
ATOM      5  C4  UNL d   1      -0.681  -1.017   0.579  0.00  0.00    -0.005 A 
ATOM      6  C5  UNL d   1      -1.659  -0.085   0.921  0.00  0.00     0.003 A 
ATOM      7  C6  UNL d   1      -1.447   1.273   0.677  0.00  0.00    -0.001 A 
ENDROOT
TORSDOF 0
ENDMDL
