MODEL 1
REMARK minimizedAffinity -5.49357414
REMARK minimizedRMSD -1
REMARK  0 active torsions:
REMARK  status: ('A' for Active; 'I' for Inactive)
ROOT
ATOM      1  C   UNL d   1       0.015  -0.851  -0.074  0.00  0.00     0.078 C 
ATOM      2  C1  UNL d   1       0.418   0.579   0.125  0.00  0.00    -0.077 A 
ATOM      3  C2  UNL d   1       1.765   0.937   0.259  0.00  0.00    -0.001 A 
ATOM      4  C3  UNL d   1       2.126   2.271   0.454  0.00  0.00     0.003 A 
ATOM      5  C4  UNL d   1       1.145   3.259   0.517  0.00  0.00    -0.005 A 
ATOM      6  C5  UNL d   1      -0.199   2.912   0.388  0.00  0.00     0.003 A 
ATOM      7  C6  UNL d   1      -0.561   1.578   0.193  0.00  0.00    -0.001 A 
ENDROOT
TORSDOF 0
ENDMDL
