MODEL 1
REMARK minimizedAffinity -4.21988201
REMARK minimizedRMSD -1
REMARK  0 active torsions:
REMARK  status: ('A' for Active; 'I' for Inactive)
ROOT
ATOM      1  C   UNL d   1       1.556   3.817   3.767  0.00  0.00     0.078 C 
ATOM      2  C1  UNL d   1       1.571   3.379   2.333  0.00  0.00    -0.077 A 
ATOM      3  C2  UNL d   1       0.783   4.026   1.373  0.00  0.00    -0.001 A 
ATOM      4  C3  UNL d   1       0.800   3.601   0.044  0.00  0.00     0.003 A 
ATOM      5  C4  UNL d   1       1.602   2.528  -0.338  0.00  0.00    -0.005 A 
ATOM      6  C5  UNL d   1       2.388   1.877   0.611  0.00  0.00     0.003 A 
ATOM      7  C6  UNL d   1       2.373   2.300   1.941  0.00  0.00    -0.001 A 
ENDROOT
TORSDOF 0
ENDMDL
