MODEL 1
REMARK minimizedAffinity -3.66245508
REMARK minimizedRMSD -1
REMARK  0 active torsions:
REMARK  status: ('A' for Active; 'I' for Inactive)
ROOT
ATOM      1  C   UNL d   1       0.087   2.895  -0.038  0.00  0.00     0.078 C 
ATOM      2  C1  UNL d   1       0.293   1.420   0.137  0.00  0.00    -0.077 A 
ATOM      3  C2  UNL d   1      -0.793   0.536   0.135  0.00  0.00    -0.001 A 
ATOM      4  C3  UNL d   1      -0.587  -0.834   0.308  0.00  0.00     0.003 A 
ATOM      5  C4  UNL d   1       0.702  -1.331   0.487  0.00  0.00    -0.005 A 
ATOM      6  C5  UNL d   1       1.788  -0.458   0.493  0.00  0.00     0.003 A 
ATOM      7  C6  UNL d   1       1.585   0.912   0.320  0.00  0.00    -0.001 A 
ENDROOT
TORSDOF 0
ENDMDL
