MODEL 1
REMARK minimizedAffinity -4.21038675
REMARK minimizedRMSD -1
REMARK  0 active torsions:
REMARK  status: ('A' for Active; 'I' for Inactive)
ROOT
ATOM      1  C   UNL d   1      -0.039  -1.169   0.066  0.00  0.00     0.078 C 
ATOM      2  C1  UNL d   1       0.027   0.328   0.041  0.00  0.00    -0.077 A 
ATOM      3  C2  UNL d   1       1.191   0.992  -0.366  0.00  0.00    -0.001 A 
ATOM      4  C3  UNL d   1       1.242   2.387  -0.376  0.00  0.00     0.003 A 
ATOM      5  C4  UNL d   1       0.132   3.130   0.022  0.00  0.00    -0.005 A 
ATOM      6  C5  UNL d   1      -1.030   2.478   0.431  0.00  0.00     0.003 A 
ATOM      7  C6  UNL d   1      -1.082   1.084   0.441  0.00  0.00    -0.001 A 
ENDROOT
TORSDOF 0
ENDMDL
