MODEL 1
REMARK minimizedAffinity -4.50499868
REMARK minimizedRMSD -1
REMARK  0 active torsions:
REMARK  status: ('A' for Active; 'I' for Inactive)
ROOT
ATOM      1  C   UNL d   1       0.337   2.774  -1.204  0.00  0.00     0.078 C 
ATOM      2  C1  UNL d   1       0.342   1.441  -0.516  0.00  0.00    -0.077 A 
ATOM      3  C2  UNL d   1       1.486   0.633  -0.516  0.00  0.00    -0.001 A 
ATOM      4  C3  UNL d   1       1.473  -0.609   0.119  0.00  0.00     0.003 A 
ATOM      5  C4  UNL d   1       0.318  -1.056   0.759  0.00  0.00    -0.005 A 
ATOM      6  C5  UNL d   1      -0.826  -0.260   0.762  0.00  0.00     0.003 A 
ATOM      7  C6  UNL d   1      -0.815   0.983   0.127  0.00  0.00    -0.001 A 
ENDROOT
TORSDOF 0
ENDMDL
