MODEL 1
REMARK minimizedAffinity 1.8025074
REMARK minimizedRMSD -1
REMARK  0 active torsions:
REMARK  status: ('A' for Active; 'I' for Inactive)
ROOT
ATOM      1  C   UNL d   1      -0.581  -0.150   1.587  0.00  0.00     0.124 A 
ATOM      2  C1  UNL d   1       0.718  -0.489   1.234  0.00  0.00     0.062 A 
ATOM      3  C2  UNL d   1       0.979  -1.060  -0.009  0.00  0.00     0.162 A 
ATOM      4  C3  UNL d   1      -0.061  -1.295  -0.908  0.00  0.00    -0.034 A 
ATOM      5  C4  UNL d   1      -1.365  -0.952  -0.545  0.00  0.00     0.162 A 
ATOM      6  C5  UNL d   1      -1.621  -0.382   0.698  0.00  0.00     0.062 A 
ATOM      7  F   UNL d   1      -2.876  -0.056   1.038  0.00  0.00    -0.097 F 
ATOM      8  F1  UNL d   1      -2.388  -1.164  -1.385  0.00  0.00    -0.096 F 
ATOM      9  I   UNL d   1       0.325  -2.148  -2.767  0.00  0.00    -0.060 I 
ATOM     10  F2  UNL d   1       2.244  -1.377  -0.324  0.00  0.00    -0.096 F 
ATOM     11  F3  UNL d   1       1.724  -0.267   2.091  0.00  0.00    -0.097 F 
ATOM     12  F4  UNL d   1      -0.829   0.398   2.783  0.00  0.00    -0.092 F 
ENDROOT
TORSDOF 0
ENDMDL
