MODEL 1
REMARK minimizedAffinity 15.1214819
REMARK minimizedRMSD -1
REMARK  0 active torsions:
REMARK  status: ('A' for Active; 'I' for Inactive)
ROOT
ATOM      1  C   UNL d   1       1.019   0.215   1.221  0.00  0.00     0.124 A 
ATOM      2  C1  UNL d   1      -0.164   0.731   1.730  0.00  0.00     0.062 A 
ATOM      3  C2  UNL d   1      -1.388   0.312   1.217  0.00  0.00     0.162 A 
ATOM      4  C3  UNL d   1      -1.435  -0.630   0.189  0.00  0.00    -0.034 A 
ATOM      5  C4  UNL d   1      -0.241  -1.144  -0.318  0.00  0.00     0.162 A 
ATOM      6  C5  UNL d   1       0.980  -0.722   0.198  0.00  0.00     0.062 A 
ATOM      7  F   UNL d   1       2.123  -1.221  -0.295  0.00  0.00    -0.097 F 
ATOM      8  F1  UNL d   1      -0.249  -2.051  -1.307  0.00  0.00    -0.096 F 
ATOM      9  I   UNL d   1      -3.264  -1.259  -0.581  0.00  0.00    -0.060 I 
ATOM     10  F2  UNL d   1      -2.517   0.827   1.728  0.00  0.00    -0.096 F 
ATOM     11  F3  UNL d   1      -0.129   1.637   2.718  0.00  0.00    -0.097 F 
ATOM     12  F4  UNL d   1       2.196   0.621   1.716  0.00  0.00    -0.092 F 
ENDROOT
TORSDOF 0
ENDMDL
