MODEL 1
REMARK minimizedAffinity 6.75938177
REMARK minimizedRMSD -1
REMARK  0 active torsions:
REMARK  status: ('A' for Active; 'I' for Inactive)
ROOT
ATOM      1  C   UNL d   1      -2.329  -1.416   3.203  0.00  0.00     0.124 A 
ATOM      2  C1  UNL d   1      -2.347  -0.210   2.516  0.00  0.00     0.062 A 
ATOM      3  C2  UNL d   1      -1.168   0.504   2.325  0.00  0.00     0.162 A 
ATOM      4  C3  UNL d   1       0.041   0.014   2.820  0.00  0.00    -0.034 A 
ATOM      5  C4  UNL d   1       0.051  -1.199   3.511  0.00  0.00     0.162 A 
ATOM      6  C5  UNL d   1      -1.130  -1.909   3.700  0.00  0.00     0.062 A 
ATOM      7  F   UNL d   1      -1.111  -3.074   4.364  0.00  0.00    -0.097 F 
ATOM      8  F1  UNL d   1       1.195  -1.700   4.001  0.00  0.00    -0.096 F 
ATOM      9  I   UNL d   1       1.806   1.079   2.536  0.00  0.00    -0.060 I 
ATOM     10  F2  UNL d   1      -1.215   1.666   1.657  0.00  0.00    -0.096 F 
ATOM     11  F3  UNL d   1      -3.503   0.269   2.036  0.00  0.00    -0.097 F 
ATOM     12  F4  UNL d   1      -3.465  -2.101   3.387  0.00  0.00    -0.092 F 
ENDROOT
TORSDOF 0
ENDMDL
