MODEL 1
REMARK minimizedAffinity 1.39488792
REMARK minimizedRMSD -1
REMARK  0 active torsions:
REMARK  status: ('A' for Active; 'I' for Inactive)
ROOT
ATOM      1  C   UNL d   1       0.392  -0.226   1.689  0.00  0.00     0.124 A 
ATOM      2  C1  UNL d   1       0.445  -0.858   0.454  0.00  0.00     0.062 A 
ATOM      3  C2  UNL d   1      -0.727  -1.118  -0.250  0.00  0.00     0.162 A 
ATOM      4  C3  UNL d   1      -1.963  -0.745   0.278  0.00  0.00    -0.034 A 
ATOM      5  C4  UNL d   1      -2.008  -0.111   1.521  0.00  0.00     0.162 A 
ATOM      6  C5  UNL d   1      -0.834   0.147   2.221  0.00  0.00     0.062 A 
ATOM      7  F   UNL d   1      -0.887   0.758   3.414  0.00  0.00    -0.097 F 
ATOM      8  F1  UNL d   1      -3.180   0.261   2.058  0.00  0.00    -0.096 F 
ATOM      9  I   UNL d   1      -3.717  -1.132  -0.772  0.00  0.00    -0.060 I 
ATOM     10  F2  UNL d   1      -0.645  -1.730  -1.441  0.00  0.00    -0.096 F 
ATOM     11  F3  UNL d   1       1.629  -1.220  -0.062  0.00  0.00    -0.097 F 
ATOM     12  F4  UNL d   1       1.521   0.022   2.365  0.00  0.00    -0.092 F 
ENDROOT
TORSDOF 0
ENDMDL
