MODEL 1
REMARK minimizedAffinity 16.6782455
REMARK minimizedRMSD -1
REMARK  0 active torsions:
REMARK  status: ('A' for Active; 'I' for Inactive)
ROOT
ATOM      1  C   UNL d   1      -1.785  -0.670  -0.233  0.00  0.00     0.124 A 
ATOM      2  C1  UNL d   1      -0.570  -1.093  -0.755  0.00  0.00     0.062 A 
ATOM      3  C2  UNL d   1       0.623  -0.588  -0.248  0.00  0.00     0.162 A 
ATOM      4  C3  UNL d   1       0.609   0.345   0.789  0.00  0.00    -0.034 A 
ATOM      5  C4  UNL d   1      -0.617   0.766   1.309  0.00  0.00     0.162 A 
ATOM      6  C5  UNL d   1      -1.807   0.258   0.798  0.00  0.00     0.062 A 
ATOM      7  F   UNL d   1      -2.980   0.668   1.304  0.00  0.00    -0.097 F 
ATOM      8  F1  UNL d   1      -0.667   1.661   2.306  0.00  0.00    -0.096 F 
ATOM      9  I   UNL d   1       2.391   1.102   1.551  0.00  0.00    -0.060 I 
ATOM     10  F2  UNL d   1       1.782  -1.014  -0.772  0.00  0.00    -0.096 F 
ATOM     11  F3  UNL d   1      -0.546  -1.989  -1.752  0.00  0.00    -0.097 F 
ATOM     12  F4  UNL d   1      -2.932  -1.157  -0.723  0.00  0.00    -0.092 F 
ENDROOT
TORSDOF 0
ENDMDL
