MODEL 1
REMARK minimizedAffinity 15.2307014
REMARK minimizedRMSD -1
REMARK  0 active torsions:
REMARK  status: ('A' for Active; 'I' for Inactive)
ROOT
ATOM      1  C   UNL d   1      -0.343  -1.868  -4.714  0.00  0.00     0.124 A 
ATOM      2  C1  UNL d   1      -0.669  -0.540  -4.475  0.00  0.00     0.062 A 
ATOM      3  C2  UNL d   1      -0.966  -0.113  -3.185  0.00  0.00     0.162 A 
ATOM      4  C3  UNL d   1      -0.938  -1.015  -2.121  0.00  0.00    -0.034 A 
ATOM      5  C4  UNL d   1      -0.611  -2.349  -2.368  0.00  0.00     0.162 A 
ATOM      6  C5  UNL d   1      -0.314  -2.771  -3.660  0.00  0.00     0.062 A 
ATOM      7  F   UNL d   1       0.000  -4.055  -3.888  0.00  0.00    -0.097 F 
ATOM      8  F1  UNL d   1      -0.574  -3.243  -1.369  0.00  0.00    -0.096 F 
ATOM      9  I   UNL d   1      -1.382  -0.380  -0.189  0.00  0.00    -0.060 I 
ATOM     10  F2  UNL d   1      -1.278   1.176  -2.984  0.00  0.00    -0.096 F 
ATOM     11  F3  UNL d   1      -0.698   0.334  -5.492  0.00  0.00    -0.097 F 
ATOM     12  F4  UNL d   1      -0.058  -2.277  -5.957  0.00  0.00    -0.092 F 
ENDROOT
TORSDOF 0
ENDMDL
