MODEL 1
REMARK minimizedAffinity 20.8945541
REMARK minimizedRMSD -1
REMARK  0 active torsions:
REMARK  status: ('A' for Active; 'I' for Inactive)
ROOT
ATOM      1  C   UNL d   1      -2.582   0.480  -0.645  0.00  0.00     0.124 A 
ATOM      2  C1  UNL d   1      -1.999   0.223   0.588  0.00  0.00     0.062 A 
ATOM      3  C2  UNL d   1      -0.619   0.312   0.743  0.00  0.00     0.162 A 
ATOM      4  C3  UNL d   1       0.190   0.659  -0.340  0.00  0.00    -0.034 A 
ATOM      5  C4  UNL d   1      -0.403   0.914  -1.578  0.00  0.00     0.162 A 
ATOM      6  C5  UNL d   1      -1.783   0.825  -1.727  0.00  0.00     0.062 A 
ATOM      7  F   UNL d   1      -2.344   1.073  -2.919  0.00  0.00    -0.097 F 
ATOM      8  F1  UNL d   1       0.344   1.251  -2.639  0.00  0.00    -0.096 F 
ATOM      9  I   UNL d   1       2.254   0.792  -0.113  0.00  0.00    -0.060 I 
ATOM     10  F2  UNL d   1      -0.083   0.059   1.946  0.00  0.00    -0.096 F 
ATOM     11  F3  UNL d   1      -2.768  -0.111   1.635  0.00  0.00    -0.097 F 
ATOM     12  F4  UNL d   1      -3.910   0.393  -0.791  0.00  0.00    -0.092 F 
ENDROOT
TORSDOF 0
ENDMDL
