MODEL 1
REMARK minimizedAffinity 7.52408266
REMARK minimizedRMSD -1
REMARK  0 active torsions:
REMARK  status: ('A' for Active; 'I' for Inactive)
ROOT
ATOM      1  C   UNL d   1      -1.675  -0.871   0.240  0.00  0.00     0.124 A 
ATOM      2  C1  UNL d   1      -0.444  -1.258  -0.272  0.00  0.00     0.062 A 
ATOM      3  C2  UNL d   1       0.706  -0.548   0.060  0.00  0.00     0.162 A 
ATOM      4  C3  UNL d   1       0.631   0.556   0.909  0.00  0.00    -0.034 A 
ATOM      5  C4  UNL d   1      -0.611   0.940   1.419  0.00  0.00     0.162 A 
ATOM      6  C5  UNL d   1      -1.758   0.227   1.085  0.00  0.00     0.062 A 
ATOM      7  F   UNL d   1      -2.946   0.602   1.580  0.00  0.00    -0.097 F 
ATOM      8  F1  UNL d   1      -0.719   1.996   2.239  0.00  0.00    -0.096 F 
ATOM      9  I   UNL d   1       2.348   1.621   1.408  0.00  0.00    -0.060 I 
ATOM     10  F2  UNL d   1       1.882  -0.944  -0.449  0.00  0.00    -0.096 F 
ATOM     11  F3  UNL d   1      -0.363  -2.318  -1.089  0.00  0.00    -0.097 F 
ATOM     12  F4  UNL d   1      -2.781  -1.556  -0.082  0.00  0.00    -0.092 F 
ENDROOT
TORSDOF 0
ENDMDL
