MODEL 1
REMARK minimizedAffinity 7.92617559
REMARK minimizedRMSD -1
REMARK  0 active torsions:
REMARK  status: ('A' for Active; 'I' for Inactive)
ROOT
ATOM      1  C   UNL d   1       1.675   5.997  -1.140  0.00  0.00     0.124 A 
ATOM      2  C1  UNL d   1       0.957   5.995   0.048  0.00  0.00     0.062 A 
ATOM      3  C2  UNL d   1       1.626   5.995   1.269  0.00  0.00     0.162 A 
ATOM      4  C3  UNL d   1       3.020   5.997   1.309  0.00  0.00    -0.034 A 
ATOM      5  C4  UNL d   1       3.734   5.998   0.109  0.00  0.00     0.162 A 
ATOM      6  C5  UNL d   1       3.062   5.998  -1.108  0.00  0.00     0.062 A 
ATOM      7  F   UNL d   1       3.757   6.000  -2.255  0.00  0.00    -0.097 F 
ATOM      8  F1  UNL d   1       5.076   5.999   0.111  0.00  0.00    -0.096 F 
ATOM      9  I   UNL d   1       4.023   5.996   3.132  0.00  0.00    -0.060 I 
ATOM     10  F2  UNL d   1       0.907   5.993   2.402  0.00  0.00    -0.096 F 
ATOM     11  F3  UNL d   1      -0.383   5.993   0.021  0.00  0.00    -0.097 F 
ATOM     12  F4  UNL d   1       1.029   5.997  -2.313  0.00  0.00    -0.092 F 
ENDROOT
TORSDOF 0
ENDMDL
