MODEL 1
REMARK minimizedAffinity 4.41951799
REMARK minimizedRMSD -1
REMARK  3 active torsions:
REMARK  status: ('A' for Active; 'I' for Inactive)
REMARK    1  A    between atoms: C3'_2  and  C2'_3 
REMARK    2  A    between atoms: C2'_3  and  C1'_4 
REMARK    3  A    between atoms: C1'_4  and  C1_5 
ROOT
ATOM      1  C1  N4B d   1       4.803  -4.348   3.682  0.00  0.00    -0.075 A 
ATOM      2  C2  N4B d   1       4.041  -4.706   4.816  0.00  0.00     0.002 A 
ATOM      3  C3  N4B d   1       4.105  -3.943   5.955  0.00  0.00     0.002 A 
ATOM      4  C4  N4B d   1       4.935  -2.832   5.991  0.00  0.00    -0.004 A 
ATOM      5  C5  N4B d   1       5.648  -2.478   4.883  0.00  0.00     0.002 A 
ATOM      6  C6  N4B d   1       5.590  -3.234   3.730  0.00  0.00     0.002 A 
ENDROOT
BRANCH   1   7
ATOM      7  C1' N4B d   1       4.832  -5.200   2.443  0.00  0.00     0.057 C 
BRANCH   7   8
ATOM      8  C2' N4B d   1       5.519  -4.429   1.320  0.00  0.00     0.009 C 
BRANCH   8   9
ATOM      9  C3' N4B d   1       4.882  -4.702  -0.031  0.00  0.00     0.004 C 
ATOM     10  C4' N4B d   1       5.679  -5.658  -0.867  0.00  0.00     0.003 C 
ENDBRANCH   8   9
ENDBRANCH   7   8
ENDBRANCH   1   7
TORSDOF 3
ENDMDL
