MODEL 1
REMARK minimizedAffinity 2.04250455
REMARK minimizedRMSD -1
REMARK  3 active torsions:
REMARK  status: ('A' for Active; 'I' for Inactive)
REMARK    1  A    between atoms: C3'_2  and  C2'_3 
REMARK    2  A    between atoms: C2'_3  and  C1'_4 
REMARK    3  A    between atoms: C1'_4  and  C1_5 
ROOT
ATOM      1  C1  N4B d   1      -0.438  -0.598   1.717  0.00  0.00    -0.075 A 
ATOM      2  C2  N4B d   1       0.388  -0.462   0.579  0.00  0.00     0.002 A 
ATOM      3  C3  N4B d   1      -0.060   0.238  -0.514  0.00  0.00     0.002 A 
ATOM      4  C4  N4B d   1      -1.330   0.793  -0.500  0.00  0.00    -0.004 A 
ATOM      5  C5  N4B d   1      -2.112   0.679   0.612  0.00  0.00     0.002 A 
ATOM      6  C6  N4B d   1      -1.674  -0.019   1.719  0.00  0.00     0.002 A 
ENDROOT
BRANCH   1   7
ATOM      7  C1' N4B d   1      -0.027  -1.428   2.902  0.00  0.00     0.057 C 
BRANCH   7   8
ATOM      8  C2' N4B d   1      -0.876  -2.695   2.946  0.00  0.00     0.009 C 
BRANCH   8   9
ATOM      9  C3' N4B d   1      -0.182  -3.867   2.273  0.00  0.00     0.004 C 
ATOM     10  C4' N4B d   1       1.244  -3.570   1.915  0.00  0.00     0.003 C 
ENDBRANCH   8   9
ENDBRANCH   7   8
ENDBRANCH   1   7
TORSDOF 3
ENDMDL
