MODEL 1
REMARK minimizedAffinity -1.44435489
REMARK minimizedRMSD -1
REMARK  3 active torsions:
REMARK  status: ('A' for Active; 'I' for Inactive)
REMARK    1  A    between atoms: C3'_2  and  C2'_3 
REMARK    2  A    between atoms: C2'_3  and  C1'_4 
REMARK    3  A    between atoms: C1'_4  and  C1_5 
ROOT
ATOM      1  C1  N4B d   1       3.109  -4.489   1.006  0.00  0.00    -0.075 A 
ATOM      2  C2  N4B d   1       3.730  -5.210  -0.038  0.00  0.00     0.002 A 
ATOM      3  C3  N4B d   1       4.961  -5.784   0.161  0.00  0.00     0.002 A 
ATOM      4  C4  N4B d   1       5.598  -5.634   1.385  0.00  0.00    -0.004 A 
ATOM      5  C5  N4B d   1       4.980  -4.958   2.396  0.00  0.00     0.002 A 
ATOM      6  C6  N4B d   1       3.741  -4.380   2.211  0.00  0.00     0.002 A 
ENDROOT
BRANCH   1   7
ATOM      7  C1' N4B d   1       1.802  -3.772   0.808  0.00  0.00     0.057 C 
BRANCH   7   8
ATOM      8  C2' N4B d   1       1.730  -2.588   1.768  0.00  0.00     0.009 C 
BRANCH   8   9
ATOM      9  C3' N4B d   1       0.711  -1.554   1.320  0.00  0.00     0.004 C 
ATOM     10  C4' N4B d   1      -0.009  -0.913   2.468  0.00  0.00     0.003 C 
ENDBRANCH   8   9
ENDBRANCH   7   8
ENDBRANCH   1   7
TORSDOF 3
ENDMDL
