MODEL 1
REMARK minimizedAffinity -0.457830638
REMARK minimizedRMSD -1
REMARK  3 active torsions:
REMARK  status: ('A' for Active; 'I' for Inactive)
REMARK    1  A    between atoms: C3'_2  and  C2'_3 
REMARK    2  A    between atoms: C2'_3  and  C1'_4 
REMARK    3  A    between atoms: C1'_4  and  C1_5 
ROOT
ATOM      1  C1  N4B d   1       0.229  -1.220   1.795  0.00  0.00    -0.075 A 
ATOM      2  C2  N4B d   1       0.697  -1.059   0.472  0.00  0.00     0.002 A 
ATOM      3  C3  N4B d   1      -0.164  -0.646  -0.515  0.00  0.00     0.002 A 
ATOM      4  C4  N4B d   1      -1.495  -0.406  -0.209  0.00  0.00    -0.004 A 
ATOM      5  C5  N4B d   1      -1.933  -0.539   1.076  0.00  0.00     0.002 A 
ATOM      6  C6  N4B d   1      -1.079  -0.950   2.079  0.00  0.00     0.002 A 
ENDROOT
BRANCH   1   7
ATOM      7  C1' N4B d   1       1.111  -1.752   2.890  0.00  0.00     0.057 C 
BRANCH   7   8
ATOM      8  C2' N4B d   1       2.173  -2.663   2.280  0.00  0.00     0.009 C 
BRANCH   8   9
ATOM      9  C3' N4B d   1       1.557  -3.829   1.527  0.00  0.00     0.004 C 
ATOM     10  C4' N4B d   1       2.568  -4.861   1.126  0.00  0.00     0.003 C 
ENDBRANCH   8   9
ENDBRANCH   7   8
ENDBRANCH   1   7
TORSDOF 3
ENDMDL
