MODEL 1
REMARK minimizedAffinity -0.36837247
REMARK minimizedRMSD -1
REMARK  3 active torsions:
REMARK  status: ('A' for Active; 'I' for Inactive)
REMARK    1  A    between atoms: C3'_2  and  C2'_3 
REMARK    2  A    between atoms: C2'_3  and  C1'_4 
REMARK    3  A    between atoms: C1'_4  and  C1_5 
ROOT
ATOM      1  C1  N4B d   1       0.283  -1.056   0.030  0.00  0.00    -0.075 A 
ATOM      2  C2  N4B d   1       0.830  -2.006   0.920  0.00  0.00     0.002 A 
ATOM      3  C3  N4B d   1       0.345  -2.104   2.201  0.00  0.00     0.002 A 
ATOM      4  C4  N4B d   1      -0.669  -1.255   2.618  0.00  0.00    -0.004 A 
ATOM      5  C5  N4B d   1      -1.209  -0.357   1.744  0.00  0.00     0.002 A 
ATOM      6  C6  N4B d   1      -0.734  -0.249   0.453  0.00  0.00     0.002 A 
ENDROOT
BRANCH   1   7
ATOM      7  C1' N4B d   1       0.839  -0.852  -1.353  0.00  0.00     0.057 C 
BRANCH   7   8
ATOM      8  C2' N4B d   1       1.558   0.492  -1.411  0.00  0.00     0.009 C 
BRANCH   8   9
ATOM      9  C3' N4B d   1       2.514   0.575  -2.589  0.00  0.00     0.004 C 
ATOM     10  C4' N4B d   1       2.832   1.987  -2.981  0.00  0.00     0.003 C 
ENDBRANCH   8   9
ENDBRANCH   7   8
ENDBRANCH   1   7
TORSDOF 3
ENDMDL
