MODEL 1
REMARK minimizedAffinity 5.50523472
REMARK minimizedRMSD -1
REMARK  1 active torsions:
REMARK  status: ('A' for Active; 'I' for Inactive)
REMARK    1  A    between atoms: C1_2  and  C2_3 
ROOT
ATOM      1  C2  UNL d   1       1.342   4.340  -4.361  0.00  0.00    -0.081 A 
ATOM      2  C3  UNL d   1       2.538   4.199  -5.075  0.00  0.00     0.006 A 
ATOM      3  C4  UNL d   1       3.328   3.059  -4.916  0.00  0.00     0.002 A 
ATOM      4  C5  UNL d   1       2.933   2.037  -4.045  0.00  0.00    -0.080 A 
ATOM      5  C6  UNL d   1       3.757   0.794  -3.887  0.00  0.00     0.076 C 
ATOM      6  C7  UNL d   1       1.747   2.186  -3.318  0.00  0.00     0.002 A 
ATOM      7  C8  UNL d   1       0.957   3.326  -3.477  0.00  0.00     0.006 A 
ENDROOT
BRANCH   1   8
ATOM      8  C1  UNL d   1       0.455   5.539  -4.579  0.00  0.00     0.054 C 
ATOM      9  C   UNL d   1      -0.959   5.279  -4.080  0.00  0.00     0.018 C 
ENDBRANCH   1   8
TORSDOF 1
ENDMDL
