MODEL 1
REMARK minimizedAffinity 3.7507112
REMARK minimizedRMSD -1
REMARK  1 active torsions:
REMARK  status: ('A' for Active; 'I' for Inactive)
REMARK    1  A    between atoms: C1_2  and  C2_3 
ROOT
ATOM      1  C2  UNL d   1      -3.765  -2.923  -2.053  0.00  0.00    -0.081 A 
ATOM      2  C3  UNL d   1      -5.121  -3.269  -2.006  0.00  0.00     0.006 A 
ATOM      3  C4  UNL d   1      -5.567  -4.270  -1.140  0.00  0.00     0.002 A 
ATOM      4  C5  UNL d   1      -4.667  -4.935  -0.300  0.00  0.00    -0.080 A 
ATOM      5  C6  UNL d   1      -5.138  -5.990   0.656  0.00  0.00     0.076 C 
ATOM      6  C7  UNL d   1      -3.310  -4.602  -0.359  0.00  0.00     0.002 A 
ATOM      7  C8  UNL d   1      -2.863  -3.602  -1.226  0.00  0.00     0.006 A 
ENDROOT
BRANCH   1   8
ATOM      8  C1  UNL d   1      -3.290  -1.800  -2.939  0.00  0.00     0.054 C 
ATOM      9  C   UNL d   1      -2.199  -2.270  -3.891  0.00  0.00     0.018 C 
ENDBRANCH   1   8
TORSDOF 1
ENDMDL
