MODEL 1
REMARK minimizedAffinity -0.495307446
REMARK minimizedRMSD -1
REMARK  1 active torsions:
REMARK  status: ('A' for Active; 'I' for Inactive)
REMARK    1  A    between atoms: C1_2  and  C2_3 
ROOT
ATOM      1  C2  UNL d   1      -0.733   0.852   1.202  0.00  0.00    -0.081 A 
ATOM      2  C3  UNL d   1      -1.010   2.203   1.447  0.00  0.00     0.006 A 
ATOM      3  C4  UNL d   1      -2.145   2.573   2.173  0.00  0.00     0.002 A 
ATOM      4  C5  UNL d   1      -3.016   1.599   2.673  0.00  0.00    -0.080 A 
ATOM      5  C6  UNL d   1      -4.222   1.982   3.479  0.00  0.00     0.076 C 
ATOM      6  C7  UNL d   1      -2.749   0.251   2.413  0.00  0.00     0.002 A 
ATOM      7  C8  UNL d   1      -1.615  -0.120   1.687  0.00  0.00     0.006 A 
ENDROOT
BRANCH   1   8
ATOM      8  C1  UNL d   1       0.524   0.447   0.476  0.00  0.00     0.054 C 
ATOM      9  C   UNL d   1       1.007   1.552  -0.452  0.00  0.00     0.018 C 
ENDBRANCH   1   8
TORSDOF 1
ENDMDL
