MODEL 1
REMARK minimizedAffinity 11.7279139
REMARK minimizedRMSD -1
REMARK  1 active torsions:
REMARK  status: ('A' for Active; 'I' for Inactive)
REMARK    1  A    between atoms: C1_2  and  C2_3 
ROOT
ATOM      1  C2  UNL d   1       2.178   0.799  -0.689  0.00  0.00    -0.081 A 
ATOM      2  C3  UNL d   1       2.532  -0.452  -0.169  0.00  0.00     0.006 A 
ATOM      3  C4  UNL d   1       2.063  -0.856   1.084  0.00  0.00     0.002 A 
ATOM      4  C5  UNL d   1       1.227  -0.020   1.832  0.00  0.00    -0.080 A 
ATOM      5  C6  UNL d   1       0.692  -0.454   3.164  0.00  0.00     0.076 C 
ATOM      6  C7  UNL d   1       0.888   1.237   1.319  0.00  0.00     0.002 A 
ATOM      7  C8  UNL d   1       1.357   1.641   0.068  0.00  0.00     0.006 A 
ENDROOT
BRANCH   1   8
ATOM      8  C1  UNL d   1       2.630   1.211  -2.067  0.00  0.00     0.054 C 
ATOM      9  C   UNL d   1       3.278   0.049  -2.807  0.00  0.00     0.018 C 
ENDBRANCH   1   8
TORSDOF 1
ENDMDL
