MODEL 1
REMARK minimizedAffinity 2.01566577
REMARK minimizedRMSD -1
REMARK  1 active torsions:
REMARK  status: ('A' for Active; 'I' for Inactive)
REMARK    1  A    between atoms: C1_2  and  C2_3 
ROOT
ATOM      1  C2  UNL d   1       1.955   1.073  -0.089  0.00  0.00    -0.081 A 
ATOM      2  C3  UNL d   1       2.497  -0.087   0.478  0.00  0.00     0.006 A 
ATOM      3  C4  UNL d   1       1.780  -0.809   1.436  0.00  0.00     0.002 A 
ATOM      4  C5  UNL d   1       0.507  -0.388   1.836  0.00  0.00    -0.080 A 
ATOM      5  C6  UNL d   1      -0.285  -1.170   2.841  0.00  0.00     0.076 C 
ATOM      6  C7  UNL d   1      -0.027   0.781   1.283  0.00  0.00     0.002 A 
ATOM      7  C8  UNL d   1       0.689   1.503   0.326  0.00  0.00     0.006 A 
ENDROOT
BRANCH   1   8
ATOM      8  C1  UNL d   1       2.697   1.817  -1.169  0.00  0.00     0.054 C 
ATOM      9  C   UNL d   1       3.273   0.862  -2.204  0.00  0.00     0.018 C 
ENDBRANCH   1   8
TORSDOF 1
ENDMDL
