MODEL 1
REMARK minimizedAffinity 2.85084844
REMARK minimizedRMSD -1
REMARK  1 active torsions:
REMARK  status: ('A' for Active; 'I' for Inactive)
REMARK    1  A    between atoms: C1_2  and  C2_3 
ROOT
ATOM      1  C2  UNL d   1      -0.738   0.924   1.443  0.00  0.00    -0.081 A 
ATOM      2  C3  UNL d   1      -0.847   2.282   1.765  0.00  0.00     0.006 A 
ATOM      3  C4  UNL d   1      -1.916   2.744   2.535  0.00  0.00     0.002 A 
ATOM      4  C5  UNL d   1      -2.890   1.855   3.004  0.00  0.00    -0.080 A 
ATOM      5  C6  UNL d   1      -4.027   2.334   3.858  0.00  0.00     0.076 C 
ATOM      6  C7  UNL d   1      -2.791   0.501   2.668  0.00  0.00     0.002 A 
ATOM      7  C8  UNL d   1      -1.722   0.039   1.897  0.00  0.00     0.006 A 
ENDROOT
BRANCH   1   8
ATOM      8  C1  UNL d   1       0.449   0.413   0.667  0.00  0.00     0.054 C 
ATOM      9  C   UNL d   1       1.628   0.125   1.585  0.00  0.00     0.018 C 
ENDBRANCH   1   8
TORSDOF 1
ENDMDL
