MODEL 1
REMARK minimizedAffinity 0.949755251
REMARK minimizedRMSD -1
REMARK  1 active torsions:
REMARK  status: ('A' for Active; 'I' for Inactive)
REMARK    1  A    between atoms: C1_2  and  C2_3 
ROOT
ATOM      1  C2  UNL d   1      -1.178  -0.527   1.523  0.00  0.00    -0.081 A 
ATOM      2  C3  UNL d   1       0.068  -0.962   1.055  0.00  0.00     0.006 A 
ATOM      3  C4  UNL d   1       1.018  -0.040   0.609  0.00  0.00     0.002 A 
ATOM      4  C5  UNL d   1       0.742   1.331   0.631  0.00  0.00    -0.080 A 
ATOM      5  C6  UNL d   1       1.764   2.333   0.184  0.00  0.00     0.076 C 
ATOM      6  C7  UNL d   1      -0.509   1.764   1.083  0.00  0.00     0.002 A 
ATOM      7  C8  UNL d   1      -1.460   0.843   1.528  0.00  0.00     0.006 A 
ENDROOT
BRANCH   1   8
ATOM      8  C1  UNL d   1      -2.180  -1.514   2.065  0.00  0.00     0.054 C 
ATOM      9  C   UNL d   1      -1.815  -1.955   3.475  0.00  0.00     0.018 C 
ENDBRANCH   1   8
TORSDOF 1
ENDMDL
