MODEL 1
REMARK minimizedAffinity 1.7099607
REMARK minimizedRMSD -1
REMARK  1 active torsions:
REMARK  status: ('A' for Active; 'I' for Inactive)
REMARK    1  A    between atoms: C1_2  and  C2_3 
ROOT
ATOM      1  C2  UNL d   1      -3.180   1.421   2.568  0.00  0.00    -0.081 A 
ATOM      2  C3  UNL d   1      -2.453   0.250   2.322  0.00  0.00     0.006 A 
ATOM      3  C4  UNL d   1      -1.314   0.280   1.514  0.00  0.00     0.002 A 
ATOM      4  C5  UNL d   1      -0.879   1.481   0.944  0.00  0.00    -0.080 A 
ATOM      5  C6  UNL d   1       0.359   1.533   0.099  0.00  0.00     0.076 C 
ATOM      6  C7  UNL d   1      -1.616   2.648   1.175  0.00  0.00     0.002 A 
ATOM      7  C8  UNL d   1      -2.754   2.619   1.983  0.00  0.00     0.006 A 
ENDROOT
BRANCH   1   8
ATOM      8  C1  UNL d   1      -4.371   1.404   3.492  0.00  0.00     0.054 C 
ATOM      9  C   UNL d   1      -4.525   2.732   4.220  0.00  0.00     0.018 C 
ENDBRANCH   1   8
TORSDOF 1
ENDMDL
