MODEL 1
REMARK minimizedAffinity 6.98258781
REMARK minimizedRMSD -1
REMARK  1 active torsions:
REMARK  status: ('A' for Active; 'I' for Inactive)
REMARK    1  A    between atoms: C1_2  and  C2_3 
ROOT
ATOM      1  C2  UNL d   1       0.907   1.826   0.588  0.00  0.00    -0.081 A 
ATOM      2  C3  UNL d   1       0.773   0.884   1.615  0.00  0.00     0.006 A 
ATOM      3  C4  UNL d   1      -0.430   0.766   2.316  0.00  0.00     0.002 A 
ATOM      4  C5  UNL d   1      -1.520   1.581   1.996  0.00  0.00    -0.080 A 
ATOM      5  C6  UNL d   1      -2.827   1.444   2.719  0.00  0.00     0.076 C 
ATOM      6  C7  UNL d   1      -1.381   2.534   0.981  0.00  0.00     0.002 A 
ATOM      7  C8  UNL d   1      -0.178   2.653   0.281  0.00  0.00     0.006 A 
ENDROOT
BRANCH   1   8
ATOM      8  C1  UNL d   1       2.182   1.911  -0.212  0.00  0.00     0.054 C 
ATOM      9  C   UNL d   1       2.890   0.565  -0.270  0.00  0.00     0.018 C 
ENDBRANCH   1   8
TORSDOF 1
ENDMDL
