MODEL 1
REMARK minimizedAffinity 2.05760694
REMARK minimizedRMSD -1
REMARK  1 active torsions:
REMARK  status: ('A' for Active; 'I' for Inactive)
REMARK    1  A    between atoms: C1_2  and  C2_3 
ROOT
ATOM      1  C2  UNL d   1      -2.583   1.185   3.029  0.00  0.00    -0.081 A 
ATOM      2  C3  UNL d   1      -2.038  -0.009   2.542  0.00  0.00     0.006 A 
ATOM      3  C4  UNL d   1      -0.728  -0.044   2.057  0.00  0.00     0.002 A 
ATOM      4  C5  UNL d   1       0.060   1.112   2.057  0.00  0.00    -0.080 A 
ATOM      5  C6  UNL d   1       1.477   1.081   1.567  0.00  0.00     0.076 C 
ATOM      6  C7  UNL d   1      -0.490   2.309   2.527  0.00  0.00     0.002 A 
ATOM      7  C8  UNL d   1      -1.800   2.345   3.012  0.00  0.00     0.006 A 
ENDROOT
BRANCH   1   8
ATOM      8  C1  UNL d   1      -3.972   1.212   3.613  0.00  0.00     0.054 C 
ATOM      9  C   UNL d   1      -4.083   2.239   4.730  0.00  0.00     0.018 C 
ENDBRANCH   1   8
TORSDOF 1
ENDMDL
