MODEL 1
REMARK minimizedAffinity 11.4783516
REMARK minimizedRMSD -1
REMARK  1 active torsions:
REMARK  status: ('A' for Active; 'I' for Inactive)
REMARK    1  A    between atoms: C1_2  and  C2_3 
ROOT
ATOM      1  C2  UNL d   1       2.259   0.060   1.169  0.00  0.00    -0.081 A 
ATOM      2  C3  UNL d   1       1.761  -0.038   2.473  0.00  0.00     0.006 A 
ATOM      3  C4  UNL d   1       0.580   0.617   2.832  0.00  0.00     0.002 A 
ATOM      4  C5  UNL d   1      -0.125   1.374   1.891  0.00  0.00    -0.080 A 
ATOM      5  C6  UNL d   1      -1.410   2.057   2.254  0.00  0.00     0.076 C 
ATOM      6  C7  UNL d   1       0.382   1.487   0.592  0.00  0.00     0.002 A 
ATOM      7  C8  UNL d   1       1.562   0.833   0.233  0.00  0.00     0.006 A 
ENDROOT
BRANCH   1   8
ATOM      8  C1  UNL d   1       3.497  -0.698   0.762  0.00  0.00     0.054 C 
ATOM      9  C   UNL d   1       4.660  -0.400   1.698  0.00  0.00     0.018 C 
ENDBRANCH   1   8
TORSDOF 1
ENDMDL
