MODEL 1
REMARK minimizedAffinity 4.70526743
REMARK minimizedRMSD -1
REMARK  1 active torsions:
REMARK  status: ('A' for Active; 'I' for Inactive)
REMARK    1  A    between atoms: C1_2  and  C2_3 
ROOT
ATOM      1  C2  UNL d   1       2.197   4.489   5.957  0.00  0.00    -0.073 A 
ATOM      2  C3  UNL d   1       1.845   3.134   5.980  0.00  0.00    -0.002 A 
ATOM      3  C4  UNL d   1       2.833   2.149   5.998  0.00  0.00     0.004 A 
ATOM      4  C5  UNL d   1       4.181   2.508   6.000  0.00  0.00    -0.004 A 
ATOM      5  C6  UNL d   1       4.553   3.856   5.988  0.00  0.00    -0.075 A 
ATOM      6  C7  UNL d   1       5.999   4.258   5.987  0.00  0.00     0.076 C 
ATOM      7  C8  UNL d   1       3.554   4.839   5.967  0.00  0.00     0.001 A 
ENDROOT
BRANCH   1   8
ATOM      8  C1  UNL d   1       1.133   5.556   5.944  0.00  0.00     0.053 C 
ATOM      9  C   UNL d   1       0.752   5.964   4.529  0.00  0.00     0.018 C 
ENDBRANCH   1   8
TORSDOF 1
ENDMDL
