MODEL 1
REMARK minimizedAffinity 5.06492853
REMARK minimizedRMSD -1
REMARK  1 active torsions:
REMARK  status: ('A' for Active; 'I' for Inactive)
REMARK    1  A    between atoms: C1_2  and  C2_3 
ROOT
ATOM      1  C2  UNL d   1       3.799   2.264   5.301  0.00  0.00    -0.073 A 
ATOM      2  C3  UNL d   1       4.185   3.415   5.997  0.00  0.00    -0.002 A 
ATOM      3  C4  UNL d   1       4.898   4.425   5.349  0.00  0.00     0.004 A 
ATOM      4  C5  UNL d   1       5.226   4.297   3.999  0.00  0.00    -0.004 A 
ATOM      5  C6  UNL d   1       4.839   3.159   3.284  0.00  0.00    -0.075 A 
ATOM      6  C7  UNL d   1       5.186   3.005   1.832  0.00  0.00     0.076 C 
ATOM      7  C8  UNL d   1       4.126   2.149   3.942  0.00  0.00     0.001 A 
ENDROOT
BRANCH   1   8
ATOM      8  C1  UNL d   1       3.024   1.174   5.995  0.00  0.00     0.053 C 
ATOM      9  C   UNL d   1       1.529   1.453   5.999  0.00  0.00     0.018 C 
ENDBRANCH   1   8
TORSDOF 1
ENDMDL
