MODEL 1
REMARK minimizedAffinity -2.18866038
REMARK minimizedRMSD -1
REMARK  1 active torsions:
REMARK  status: ('A' for Active; 'I' for Inactive)
REMARK    1  A    between atoms: C1_2  and  C2_3 
ROOT
ATOM      1  C2  UNL d   1       2.977  -1.074   0.048  0.00  0.00    -0.073 A 
ATOM      2  C3  UNL d   1       2.527  -0.310   1.131  0.00  0.00    -0.002 A 
ATOM      3  C4  UNL d   1       2.863   1.041   1.228  0.00  0.00     0.004 A 
ATOM      4  C5  UNL d   1       3.644   1.643   0.242  0.00  0.00    -0.004 A 
ATOM      5  C6  UNL d   1       4.093   0.899  -0.854  0.00  0.00    -0.075 A 
ATOM      6  C7  UNL d   1       4.936   1.531  -1.923  0.00  0.00     0.076 C 
ATOM      7  C8  UNL d   1       3.754  -0.458  -0.943  0.00  0.00     0.001 A 
ENDROOT
BRANCH   1   8
ATOM      8  C1  UNL d   1       2.611  -2.532  -0.064  0.00  0.00     0.053 C 
ATOM      9  C   UNL d   1       1.164  -2.726  -0.488  0.00  0.00     0.018 C 
ENDBRANCH   1   8
TORSDOF 1
ENDMDL
