MODEL 1
REMARK minimizedAffinity -5.34163904
REMARK minimizedRMSD -1
REMARK  1 active torsions:
REMARK  status: ('A' for Active; 'I' for Inactive)
REMARK    1  A    between atoms: C1_2  and  C2_3 
ROOT
ATOM      1  C2  UNL d   1       2.109   4.337   4.230  0.00  0.00    -0.073 A 
ATOM      2  C3  UNL d   1       2.197   2.973   4.533  0.00  0.00    -0.002 A 
ATOM      3  C4  UNL d   1       3.344   2.460   5.141  0.00  0.00     0.004 A 
ATOM      4  C5  UNL d   1       4.409   3.303   5.457  0.00  0.00    -0.004 A 
ATOM      5  C6  UNL d   1       4.334   4.670   5.172  0.00  0.00    -0.075 A 
ATOM      6  C7  UNL d   1       5.472   5.591   5.504  0.00  0.00     0.076 C 
ATOM      7  C8  UNL d   1       3.181   5.178   4.560  0.00  0.00     0.001 A 
ENDROOT
BRANCH   1   8
ATOM      8  C1  UNL d   1       0.870   4.897   3.580  0.00  0.00     0.053 C 
ATOM      9  C   UNL d   1      -0.101   5.467   4.601  0.00  0.00     0.018 C 
ENDBRANCH   1   8
TORSDOF 1
ENDMDL
