MODEL 1
REMARK minimizedAffinity -5.15405369
REMARK minimizedRMSD -1
REMARK  1 active torsions:
REMARK  status: ('A' for Active; 'I' for Inactive)
REMARK    1  A    between atoms: C1_2  and  C2_3 
ROOT
ATOM      1  C2  UNL d   1       2.225   4.719   3.698  0.00  0.00    -0.073 A 
ATOM      2  C3  UNL d   1       2.637   3.398   3.494  0.00  0.00    -0.002 A 
ATOM      3  C4  UNL d   1       3.805   2.923   4.091  0.00  0.00     0.004 A 
ATOM      4  C5  UNL d   1       4.568   3.761   4.904  0.00  0.00    -0.004 A 
ATOM      5  C6  UNL d   1       4.167   5.082   5.130  0.00  0.00    -0.075 A 
ATOM      6  C7  UNL d   1       4.978   5.997   6.000  0.00  0.00     0.076 C 
ATOM      7  C8  UNL d   1       2.994   5.552   4.524  0.00  0.00     0.001 A 
ENDROOT
BRANCH   1   8
ATOM      8  C1  UNL d   1       0.961   5.234   3.060  0.00  0.00     0.053 C 
ATOM      9  C   UNL d   1      -0.109   5.555   4.092  0.00  0.00     0.018 C 
ENDBRANCH   1   8
TORSDOF 1
ENDMDL
