MODEL 1
REMARK minimizedAffinity -3.01806974
REMARK minimizedRMSD -1
REMARK  1 active torsions:
REMARK  status: ('A' for Active; 'I' for Inactive)
REMARK    1  A    between atoms: C1_2  and  C2_3 
ROOT
ATOM      1  C2  UNL d   1       1.987   4.797   5.769  0.00  0.00    -0.073 A 
ATOM      2  C3  UNL d   1       2.148   3.468   5.362  0.00  0.00    -0.002 A 
ATOM      3  C4  UNL d   1       3.425   2.944   5.155  0.00  0.00     0.004 A 
ATOM      4  C5  UNL d   1       4.552   3.740   5.360  0.00  0.00    -0.004 A 
ATOM      5  C6  UNL d   1       4.412   5.067   5.778  0.00  0.00    -0.075 A 
ATOM      6  C7  UNL d   1       5.614   5.937   6.000  0.00  0.00     0.076 C 
ATOM      7  C8  UNL d   1       3.126   5.587   5.981  0.00  0.00     0.001 A 
ENDROOT
BRANCH   1   8
ATOM      8  C1  UNL d   1       0.611   5.365   6.000  0.00  0.00     0.053 C 
ATOM      9  C   UNL d   1      -0.024   5.863   4.711  0.00  0.00     0.018 C 
ENDBRANCH   1   8
TORSDOF 1
ENDMDL
