MODEL 1
REMARK minimizedAffinity -4.88744497
REMARK minimizedRMSD -1
REMARK  0 active torsions:
REMARK  status: ('A' for Active; 'I' for Inactive)
ROOT
ATOM      1  C4' PXY d   1      -1.595   0.053  -1.320  0.00  0.00     0.077 C 
ATOM      2  C1' PXY d   1       3.670  -0.360   1.031  0.00  0.00     0.077 C 
ATOM      3  C1  PXY d   1       2.287  -0.241   0.421  0.00  0.00    -0.082 A 
ATOM      4  C2  PXY d   1       1.663  -1.328  -0.002  0.00  0.00     0.003 A 
ATOM      5  C3  PXY d   1       0.426  -1.234  -0.586  0.00  0.00     0.003 A 
ATOM      6  C4  PXY d   1      -0.202  -0.021  -0.689  0.00  0.00    -0.082 A 
ATOM      7  C5  PXY d   1       0.424   1.091  -0.250  0.00  0.00     0.003 A 
ATOM      8  C6  PXY d   1       1.697   0.980   0.302  0.00  0.00     0.003 A 
ENDROOT
TORSDOF 0
ENDMDL
