MODEL 1
REMARK minimizedAffinity -3.69003177
REMARK minimizedRMSD -1
REMARK  0 active torsions:
REMARK  status: ('A' for Active; 'I' for Inactive)
ROOT
ATOM      1  C4' PXY d   1       3.950  -0.856   0.637  0.00  0.00     0.077 C 
ATOM      2  C1' PXY d   1      -1.582   0.651  -0.102  0.00  0.00     0.077 C 
ATOM      3  C1  PXY d   1      -0.127   0.268   0.088  0.00  0.00    -0.082 A 
ATOM      4  C2  PXY d   1       0.227  -1.005   0.029  0.00  0.00     0.003 A 
ATOM      5  C3  PXY d   1       1.532  -1.372   0.230  0.00  0.00     0.003 A 
ATOM      6  C4  PXY d   1       2.495  -0.422   0.442  0.00  0.00    -0.082 A 
ATOM      7  C5  PXY d   1       2.143   0.881   0.493  0.00  0.00     0.003 A 
ATOM      8  C6  PXY d   1       0.806   1.229   0.327  0.00  0.00     0.003 A 
ENDROOT
TORSDOF 0
ENDMDL
