MODEL 1
REMARK minimizedAffinity -4.90599251
REMARK minimizedRMSD -1
REMARK  0 active torsions:
REMARK  status: ('A' for Active; 'I' for Inactive)
ROOT
ATOM      1  C4' PXY d   1      -2.081   0.356  -1.139  0.00  0.00     0.077 C 
ATOM      2  C1' PXY d   1       2.999   0.020   1.598  0.00  0.00     0.077 C 
ATOM      3  C1  PXY d   1       1.666   0.096   0.880  0.00  0.00    -0.082 A 
ATOM      4  C2  PXY d   1       1.353   1.184   0.196  0.00  0.00     0.003 A 
ATOM      5  C3  PXY d   1       0.138   1.281  -0.433  0.00  0.00     0.003 A 
ATOM      6  C4  PXY d   1      -0.742   0.233  -0.406  0.00  0.00    -0.082 A 
ATOM      7  C5  PXY d   1      -0.425  -0.885   0.281  0.00  0.00     0.003 A 
ATOM      8  C6  PXY d   1       0.796  -0.948   0.947  0.00  0.00     0.003 A 
ENDROOT
TORSDOF 0
ENDMDL
