MODEL 1
REMARK minimizedAffinity -4.92047215
REMARK minimizedRMSD -1
REMARK  0 active torsions:
REMARK  status: ('A' for Active; 'I' for Inactive)
ROOT
ATOM      1  C4' PXY d   1      -1.715  -0.067  -0.702  0.00  0.00     0.077 C 
ATOM      2  C1' PXY d   1       3.362  -0.932   1.923  0.00  0.00     0.077 C 
ATOM      3  C1  PXY d   1       2.032  -0.692   1.236  0.00  0.00    -0.082 A 
ATOM      4  C2  PXY d   1       1.114  -1.645   1.237  0.00  0.00     0.003 A 
ATOM      5  C3  PXY d   1      -0.081  -1.457   0.593  0.00  0.00     0.003 A 
ATOM      6  C4  PXY d   1      -0.361  -0.262  -0.012  0.00  0.00    -0.082 A 
ATOM      7  C5  PXY d   1       0.566   0.719  -0.009  0.00  0.00     0.003 A 
ATOM      8  C6  PXY d   1       1.789   0.494   0.615  0.00  0.00     0.003 A 
ENDROOT
TORSDOF 0
ENDMDL
