MODEL 1
REMARK minimizedAffinity -2.75661254
REMARK minimizedRMSD -1
REMARK  0 active torsions:
REMARK  status: ('A' for Active; 'I' for Inactive)
ROOT
ATOM      1  C4' PXY d   1       2.892   0.249   1.440  0.00  0.00     0.077 C 
ATOM      2  C1' PXY d   1      -2.380  -0.411  -0.836  0.00  0.00     0.077 C 
ATOM      3  C1  PXY d   1      -0.996  -0.227  -0.246  0.00  0.00    -0.082 A 
ATOM      4  C2  PXY d   1      -0.347  -1.274   0.237  0.00  0.00     0.003 A 
ATOM      5  C3  PXY d   1       0.893  -1.120   0.803  0.00  0.00     0.003 A 
ATOM      6  C4  PXY d   1       1.496   0.109   0.827  0.00  0.00    -0.082 A 
ATOM      7  C5  PXY d   1       0.845   1.180   0.326  0.00  0.00     0.003 A 
ATOM      8  C6  PXY d   1      -0.430   1.010  -0.207  0.00  0.00     0.003 A 
ENDROOT
TORSDOF 0
ENDMDL
