MODEL 1
REMARK minimizedAffinity -3.21913409
REMARK minimizedRMSD -1
REMARK  0 active torsions:
REMARK  status: ('A' for Active; 'I' for Inactive)
ROOT
ATOM      1  C4' PXY d   1       3.509  -0.136   0.714  0.00  0.00     0.077 C 
ATOM      2  C1' PXY d   1      -2.268  -0.331   0.598  0.00  0.00     0.077 C 
ATOM      3  C1  PXY d   1      -0.753  -0.269   0.621  0.00  0.00    -0.082 A 
ATOM      4  C2  PXY d   1      -0.057  -1.371   0.848  0.00  0.00     0.003 A 
ATOM      5  C3  PXY d   1       1.313  -1.327   0.904  0.00  0.00     0.003 A 
ATOM      6  C4  PXY d   1       1.978  -0.153   0.672  0.00  0.00    -0.082 A 
ATOM      7  C5  PXY d   1       1.275   0.974   0.429  0.00  0.00     0.003 A 
ATOM      8  C6  PXY d   1      -0.116   0.916   0.418  0.00  0.00     0.003 A 
ENDROOT
TORSDOF 0
ENDMDL
