MODEL 1
REMARK minimizedAffinity -4.55049276
REMARK minimizedRMSD -1
REMARK  0 active torsions:
REMARK  status: ('A' for Active; 'I' for Inactive)
ROOT
ATOM      1  C4' PXY d   1      -1.974   0.175  -1.212  0.00  0.00     0.077 C 
ATOM      2  C1' PXY d   1       3.258  -0.177   1.221  0.00  0.00     0.077 C 
ATOM      3  C1  PXY d   1       1.887  -0.098   0.579  0.00  0.00    -0.082 A 
ATOM      4  C2  PXY d   1       1.416   1.075   0.186  0.00  0.00     0.003 A 
ATOM      5  C3  PXY d   1       0.164   1.169  -0.367  0.00  0.00     0.003 A 
ATOM      6  C4  PXY d   1      -0.591   0.045  -0.568  0.00  0.00    -0.082 A 
ATOM      7  C5  PXY d   1      -0.113  -1.156  -0.180  0.00  0.00     0.003 A 
ATOM      8  C6  PXY d   1       1.142  -1.225   0.417  0.00  0.00     0.003 A 
ENDROOT
TORSDOF 0
ENDMDL
