MODEL 1
REMARK minimizedAffinity -4.20357466
REMARK minimizedRMSD -1
REMARK  0 active torsions:
REMARK  status: ('A' for Active; 'I' for Inactive)
ROOT
ATOM      1  C4' PXY d   1      -2.135   0.110  -1.400  0.00  0.00     0.077 C 
ATOM      2  C1' PXY d   1       2.945   0.078   1.358  0.00  0.00     0.077 C 
ATOM      3  C1  PXY d   1       1.613   0.073   0.635  0.00  0.00    -0.082 A 
ATOM      4  C2  PXY d   1       1.235   1.143  -0.045  0.00  0.00     0.003 A 
ATOM      5  C3  PXY d   1       0.019   1.168  -0.679  0.00  0.00     0.003 A 
ATOM      6  C4  PXY d   1      -0.794   0.067  -0.661  0.00  0.00    -0.082 A 
ATOM      7  C5  PXY d   1      -0.410  -1.033   0.021  0.00  0.00     0.003 A 
ATOM      8  C6  PXY d   1       0.809  -1.023   0.692  0.00  0.00     0.003 A 
ENDROOT
TORSDOF 0
ENDMDL
