MODEL 1
REMARK minimizedAffinity -0.937454939
REMARK minimizedRMSD -1
REMARK  0 active torsions:
REMARK  status: ('A' for Active; 'I' for Inactive)
ROOT
ATOM      1  C4' PXY d   1      -1.852   0.375   0.373  0.00  0.00     0.077 C 
ATOM      2  C1' PXY d   1       3.741  -0.958   0.970  0.00  0.00     0.077 C 
ATOM      3  C1  PXY d   1       2.273  -0.619   0.805  0.00  0.00    -0.082 A 
ATOM      4  C2  PXY d   1       1.858   0.617   1.030  0.00  0.00     0.003 A 
ATOM      5  C3  PXY d   1       0.529   0.935   0.917  0.00  0.00     0.003 A 
ATOM      6  C4  PXY d   1      -0.377  -0.011   0.518  0.00  0.00    -0.082 A 
ATOM      7  C5  PXY d   1       0.039  -1.272   0.276  0.00  0.00     0.003 A 
ATOM      8  C6  PXY d   1       1.387  -1.583   0.436  0.00  0.00     0.003 A 
ENDROOT
TORSDOF 0
ENDMDL
