MODEL 1
REMARK minimizedAffinity -5.4565587
REMARK minimizedRMSD -1
REMARK  0 active torsions:
REMARK  status: ('A' for Active; 'I' for Inactive)
ROOT
ATOM      1  C4' PXY d   1      -2.176   0.065   0.183  0.00  0.00     0.077 C 
ATOM      2  C1' PXY d   1       3.523  -0.696   0.780  0.00  0.00     0.077 C 
ATOM      3  C1  PXY d   1       2.030  -0.484   0.626  0.00  0.00    -0.082 A 
ATOM      4  C2  PXY d   1       1.202  -1.499   0.811  0.00  0.00     0.003 A 
ATOM      5  C3  PXY d   1      -0.148  -1.333   0.644  0.00  0.00     0.003 A 
ATOM      6  C4  PXY d   1      -0.662  -0.101   0.337  0.00  0.00    -0.082 A 
ATOM      7  C5  PXY d   1       0.175   0.943   0.157  0.00  0.00     0.003 A 
ATOM      8  C6  PXY d   1       1.546   0.743   0.290  0.00  0.00     0.003 A 
ENDROOT
TORSDOF 0
ENDMDL
