MODEL 1
REMARK minimizedAffinity -4.68578005
REMARK minimizedRMSD -1
REMARK  0 active torsions:
REMARK  status: ('A' for Active; 'I' for Inactive)
ROOT
ATOM      1  C4' PXY d   1       2.040  -0.453   0.758  0.00  0.00     0.077 C 
ATOM      2  C1' PXY d   1      -2.678   0.744  -2.361  0.00  0.00     0.077 C 
ATOM      3  C1  PXY d   1      -1.448   0.430  -1.532  0.00  0.00    -0.082 A 
ATOM      4  C2  PXY d   1      -0.248   0.733  -2.001  0.00  0.00     0.003 A 
ATOM      5  C3  PXY d   1       0.877   0.427  -1.279  0.00  0.00     0.003 A 
ATOM      6  C4  PXY d   1       0.770  -0.146  -0.040  0.00  0.00    -0.082 A 
ATOM      7  C5  PXY d   1      -0.451  -0.448   0.450  0.00  0.00     0.003 A 
ATOM      8  C6  PXY d   1      -1.578  -0.168  -0.317  0.00  0.00     0.003 A 
ENDROOT
TORSDOF 0
ENDMDL
