MODEL 1
REMARK minimizedAffinity 4.96065569
REMARK minimizedRMSD -1
REMARK  0 active torsions:
REMARK  status: ('A' for Active; 'I' for Inactive)
ROOT
ATOM      1  C2' OXE d   1       1.268   2.948   1.237  0.00  0.00     0.078 C 
ATOM      2  C1' OXE d   1       1.145   3.122  -1.562  0.00  0.00     0.078 C 
ATOM      3  C1  OXE d   1       1.215   1.748  -0.945  0.00  0.00    -0.078 A 
ATOM      4  C2  OXE d   1       1.322   1.674   0.423  0.00  0.00    -0.078 A 
ATOM      5  C3  OXE d   1       1.335   0.430   1.047  0.00  0.00     0.003 A 
ATOM      6  C4  OXE d   1       1.395  -0.744   0.286  0.00  0.00    -0.002 A 
ATOM      7  C5  OXE d   1       1.328  -0.690  -1.110  0.00  0.00    -0.002 A 
ATOM      8  C6  OXE d   1       1.195   0.543  -1.738  0.00  0.00     0.003 A 
ENDROOT
TORSDOF 0
ENDMDL
