MODEL 1
REMARK minimizedAffinity 6.01259565
REMARK minimizedRMSD -1
REMARK  0 active torsions:
REMARK  status: ('A' for Active; 'I' for Inactive)
ROOT
ATOM      1  C2' OXE d   1       0.328   3.569  -1.723  0.00  0.00     0.078 C 
ATOM      2  C1' OXE d   1       0.876   3.322   1.019  0.00  0.00     0.078 C 
ATOM      3  C1  OXE d   1       1.256   2.173   0.119  0.00  0.00    -0.078 A 
ATOM      4  C2  OXE d   1       0.942   2.283  -1.214  0.00  0.00    -0.078 A 
ATOM      5  C3  OXE d   1       1.320   1.275  -2.097  0.00  0.00     0.003 A 
ATOM      6  C4  OXE d   1       1.878   0.085  -1.616  0.00  0.00    -0.002 A 
ATOM      7  C5  OXE d   1       2.170  -0.064  -0.256  0.00  0.00    -0.002 A 
ATOM      8  C6  OXE d   1       1.906   0.985   0.617  0.00  0.00     0.003 A 
ENDROOT
TORSDOF 0
ENDMDL
