MODEL 1
REMARK minimizedAffinity -1.51913691
REMARK minimizedRMSD -1
REMARK  0 active torsions:
REMARK  status: ('A' for Active; 'I' for Inactive)
ROOT
ATOM      1  C2' OXE d   1       1.027   0.393   1.599  0.00  0.00     0.078 C 
ATOM      2  C1' OXE d   1       1.621  -0.907  -0.817  0.00  0.00     0.078 C 
ATOM      3  C1  OXE d   1       1.383   0.582  -0.859  0.00  0.00    -0.078 A 
ATOM      4  C2  OXE d   1       1.047   1.202   0.321  0.00  0.00    -0.078 A 
ATOM      5  C3  OXE d   1       0.871   2.583   0.348  0.00  0.00     0.003 A 
ATOM      6  C4  OXE d   1       0.882   3.322  -0.841  0.00  0.00    -0.002 A 
ATOM      7  C5  OXE d   1       1.183   2.704  -2.059  0.00  0.00    -0.002 A 
ATOM      8  C6  OXE d   1       1.477   1.345  -2.079  0.00  0.00     0.003 A 
ENDROOT
TORSDOF 0
ENDMDL
