MODEL 1
REMARK minimizedAffinity -0.636831641
REMARK minimizedRMSD -1
REMARK  0 active torsions:
REMARK  status: ('A' for Active; 'I' for Inactive)
ROOT
ATOM      1  C2' OXE d   1       0.511  -2.319  -2.204  0.00  0.00     0.078 C 
ATOM      2  C1' OXE d   1       1.840  -2.784   0.225  0.00  0.00     0.078 C 
ATOM      3  C1  OXE d   1       1.424  -1.369  -0.090  0.00  0.00    -0.078 A 
ATOM      4  C2  OXE d   1       0.816  -1.143  -1.301  0.00  0.00    -0.078 A 
ATOM      5  C3  OXE d   1       0.363   0.135  -1.617  0.00  0.00     0.003 A 
ATOM      6  C4  OXE d   1       0.658   1.218  -0.781  0.00  0.00    -0.002 A 
ATOM      7  C5  OXE d   1       1.312   1.016   0.439  0.00  0.00    -0.002 A 
ATOM      8  C6  OXE d   1       1.663  -0.275   0.818  0.00  0.00     0.003 A 
ENDROOT
TORSDOF 0
ENDMDL
