MODEL 1
REMARK minimizedAffinity 5.06432772
REMARK minimizedRMSD -1
REMARK  0 active torsions:
REMARK  status: ('A' for Active; 'I' for Inactive)
ROOT
ATOM      1  C2' OXE d   1       1.028  -0.651  -2.597  0.00  0.00     0.078 C 
ATOM      2  C1' OXE d   1       2.087  -0.077  -0.061  0.00  0.00     0.078 C 
ATOM      3  C1  OXE d   1       1.409   1.043  -0.810  0.00  0.00    -0.078 A 
ATOM      4  C2  OXE d   1       0.934   0.764  -2.070  0.00  0.00    -0.078 A 
ATOM      5  C3  OXE d   1       0.251   1.746  -2.781  0.00  0.00     0.003 A 
ATOM      6  C4  OXE d   1       0.178   3.056  -2.291  0.00  0.00    -0.002 A 
ATOM      7  C5  OXE d   1       0.690   3.370  -1.027  0.00  0.00    -0.002 A 
ATOM      8  C6  OXE d   1       1.269   2.367  -0.258  0.00  0.00     0.003 A 
ENDROOT
TORSDOF 0
ENDMDL
