MODEL 1
REMARK minimizedAffinity -3.9644618
REMARK minimizedRMSD -1
REMARK  0 active torsions:
REMARK  status: ('A' for Active; 'I' for Inactive)
ROOT
ATOM      1  C2' OXE d   1       1.207  -0.806  -0.910  0.00  0.00     0.078 C 
ATOM      2  C1' OXE d   1       0.822   0.557   1.514  0.00  0.00     0.078 C 
ATOM      3  C1  OXE d   1       0.887   1.376   0.250  0.00  0.00    -0.078 A 
ATOM      4  C2  OXE d   1       1.122   0.705  -0.927  0.00  0.00    -0.078 A 
ATOM      5  C3  OXE d   1       1.136   1.406  -2.129  0.00  0.00     0.003 A 
ATOM      6  C4  OXE d   1       1.067   2.805  -2.135  0.00  0.00    -0.002 A 
ATOM      7  C5  OXE d   1       0.867   3.511  -0.944  0.00  0.00    -0.002 A 
ATOM      8  C6  OXE d   1       0.733   2.810   0.250  0.00  0.00     0.003 A 
ENDROOT
TORSDOF 0
ENDMDL
