MODEL 1
REMARK minimizedAffinity -1.42972863
REMARK minimizedRMSD -1
REMARK  0 active torsions:
REMARK  status: ('A' for Active; 'I' for Inactive)
ROOT
ATOM      1  C2' OXE d   1       1.649   4.340  -1.119  0.00  0.00     0.078 C 
ATOM      2  C1' OXE d   1       0.653   2.574  -3.061  0.00  0.00     0.078 C 
ATOM      3  C1  OXE d   1       0.788   2.063  -1.648  0.00  0.00    -0.078 A 
ATOM      4  C2  OXE d   1       1.320   2.919  -0.714  0.00  0.00    -0.078 A 
ATOM      5  C3  OXE d   1       1.415   2.517   0.615  0.00  0.00     0.003 A 
ATOM      6  C4  OXE d   1       1.118   1.198   0.980  0.00  0.00    -0.002 A 
ATOM      7  C5  OXE d   1       0.612   0.298   0.036  0.00  0.00    -0.002 A 
ATOM      8  C6  OXE d   1       0.401   0.726  -1.270  0.00  0.00     0.003 A 
ENDROOT
TORSDOF 0
ENDMDL
