MODEL 1
REMARK minimizedAffinity -3.68916893
REMARK minimizedRMSD -1
REMARK  0 active torsions:
REMARK  status: ('A' for Active; 'I' for Inactive)
ROOT
ATOM      1  C2' OXE d   1       0.819   3.784  -1.374  0.00  0.00     0.078 C 
ATOM      2  C1' OXE d   1       0.987   3.556   1.419  0.00  0.00     0.078 C 
ATOM      3  C1  OXE d   1       1.058   2.289   0.604  0.00  0.00    -0.078 A 
ATOM      4  C2  OXE d   1       0.928   2.405  -0.759  0.00  0.00    -0.078 A 
ATOM      5  C3  OXE d   1       1.041   1.274  -1.561  0.00  0.00     0.003 A 
ATOM      6  C4  OXE d   1       1.132   0.002  -0.984  0.00  0.00    -0.002 A 
ATOM      7  C5  OXE d   1       1.226  -0.143   0.404  0.00  0.00    -0.002 A 
ATOM      8  C6  OXE d   1       1.234   0.991   1.209  0.00  0.00     0.003 A 
ENDROOT
TORSDOF 0
ENDMDL
