MODEL 1
REMARK minimizedAffinity -1.78607512
REMARK minimizedRMSD -1
REMARK  0 active torsions:
REMARK  status: ('A' for Active; 'I' for Inactive)
ROOT
ATOM      1  C2' OXE d   1      -1.095   1.199   5.699  0.00  0.00     0.078 C 
ATOM      2  C1' OXE d   1      -2.329   3.720   5.713  0.00  0.00     0.078 C 
ATOM      3  C1  OXE d   1      -2.750   2.736   4.650  0.00  0.00    -0.078 A 
ATOM      4  C2  OXE d   1      -2.108   1.522   4.622  0.00  0.00    -0.078 A 
ATOM      5  C3  OXE d   1      -2.497   0.557   3.697  0.00  0.00     0.003 A 
ATOM      6  C4  OXE d   1      -3.427   0.868   2.698  0.00  0.00    -0.002 A 
ATOM      7  C5  OXE d   1      -4.065   2.113   2.684  0.00  0.00    -0.002 A 
ATOM      8  C6  OXE d   1      -3.770   3.041   3.677  0.00  0.00     0.003 A 
ENDROOT
TORSDOF 0
ENDMDL
