MODEL 1
REMARK minimizedAffinity -2.34886289
REMARK minimizedRMSD -1
REMARK  0 active torsions:
REMARK  status: ('A' for Active; 'I' for Inactive)
ROOT
ATOM      1  C2' OXE d   1       1.099   0.889  -0.559  0.00  0.00     0.078 C 
ATOM      2  C1' OXE d   1       3.829   0.464  -0.058  0.00  0.00     0.078 C 
ATOM      3  C1  OXE d   1       2.921  -0.740  -0.074  0.00  0.00    -0.078 A 
ATOM      4  C2  OXE d   1       1.579  -0.518  -0.273  0.00  0.00    -0.078 A 
ATOM      5  C3  OXE d   1       0.706  -1.599  -0.351  0.00  0.00     0.003 A 
ATOM      6  C4  OXE d   1       1.156  -2.895  -0.076  0.00  0.00    -0.002 A 
ATOM      7  C5  OXE d   1       2.512  -3.139   0.169  0.00  0.00    -0.002 A 
ATOM      8  C6  OXE d   1       3.412  -2.080   0.132  0.00  0.00     0.003 A 
ENDROOT
TORSDOF 0
ENDMDL
