MODEL 1
REMARK minimizedAffinity 1.89229822
REMARK minimizedRMSD -1
REMARK  0 active torsions:
REMARK  status: ('A' for Active; 'I' for Inactive)
ROOT
ATOM      1  C2' OXE d   1       1.133   3.325   1.690  0.00  0.00     0.078 C 
ATOM      2  C1' OXE d   1       1.992   0.893   2.798  0.00  0.00     0.078 C 
ATOM      3  C1  OXE d   1       1.610   0.905   1.339  0.00  0.00    -0.078 A 
ATOM      4  C2  OXE d   1       1.146   2.089   0.817  0.00  0.00    -0.078 A 
ATOM      5  C3  OXE d   1       0.833   2.169  -0.537  0.00  0.00     0.003 A 
ATOM      6  C4  OXE d   1       0.839   1.019  -1.336  0.00  0.00    -0.002 A 
ATOM      7  C5  OXE d   1       1.270  -0.205  -0.814  0.00  0.00    -0.002 A 
ATOM      8  C6  OXE d   1       1.698  -0.270   0.507  0.00  0.00     0.003 A 
ENDROOT
TORSDOF 0
ENDMDL
