MODEL 1
REMARK minimizedAffinity 0.631205618
REMARK minimizedRMSD -1
REMARK  0 active torsions:
REMARK  status: ('A' for Active; 'I' for Inactive)
ROOT
ATOM      1  C2' OXE d   1       1.087  -0.820  -0.777  0.00  0.00     0.078 C 
ATOM      2  C1' OXE d   1       1.593   1.235  -2.622  0.00  0.00     0.078 C 
ATOM      3  C1  OXE d   1       1.321   1.626  -1.191  0.00  0.00    -0.078 A 
ATOM      4  C2  OXE d   1       1.028   0.617  -0.305  0.00  0.00    -0.078 A 
ATOM      5  C3  OXE d   1       0.823   0.918   1.039  0.00  0.00     0.003 A 
ATOM      6  C4  OXE d   1       0.760   2.250   1.466  0.00  0.00    -0.002 A 
ATOM      7  C5  OXE d   1       1.016   3.295   0.571  0.00  0.00    -0.002 A 
ATOM      8  C6  OXE d   1       1.339   2.998  -0.748  0.00  0.00     0.003 A 
ENDROOT
TORSDOF 0
ENDMDL
