MODEL 1
REMARK minimizedAffinity -4.0185051
REMARK minimizedRMSD -1
REMARK  0 active torsions:
REMARK  status: ('A' for Active; 'I' for Inactive)
ROOT
ATOM      1  C2' OXE d   1       1.143   3.090   1.420  0.00  0.00     0.078 C 
ATOM      2  C1' OXE d   1       1.391   3.813  -1.281  0.00  0.00     0.078 C 
ATOM      3  C1  OXE d   1       1.189   2.353  -0.959  0.00  0.00    -0.078 A 
ATOM      4  C2  OXE d   1       1.116   2.002   0.368  0.00  0.00    -0.078 A 
ATOM      5  C3  OXE d   1       0.876   0.677   0.718  0.00  0.00     0.003 A 
ATOM      6  C4  OXE d   1       0.862  -0.324  -0.261  0.00  0.00    -0.002 A 
ATOM      7  C5  OXE d   1       0.974   0.007  -1.615  0.00  0.00    -0.002 A 
ATOM      8  C6  OXE d   1       1.095   1.342  -1.983  0.00  0.00     0.003 A 
ENDROOT
TORSDOF 0
ENDMDL
