MODEL 1
REMARK minimizedAffinity -4.36801624
REMARK minimizedRMSD -1
REMARK  0 active torsions:
REMARK  status: ('A' for Active; 'I' for Inactive)
ROOT
ATOM      1  C2' OXE d   1       0.486   3.324  -1.375  0.00  0.00     0.078 C 
ATOM      2  C1' OXE d   1       0.240   2.353   1.248  0.00  0.00     0.078 C 
ATOM      3  C1  OXE d   1       0.655   1.380   0.173  0.00  0.00    -0.078 A 
ATOM      4  C2  OXE d   1       0.728   1.853  -1.115  0.00  0.00    -0.078 A 
ATOM      5  C3  OXE d   1       1.159   1.010  -2.136  0.00  0.00     0.003 A 
ATOM      6  C4  OXE d   1       1.370  -0.352  -1.889  0.00  0.00    -0.002 A 
ATOM      7  C5  OXE d   1       1.263  -0.863  -0.591  0.00  0.00    -0.002 A 
ATOM      8  C6  OXE d   1       0.949  -0.004   0.456  0.00  0.00     0.003 A 
ENDROOT
TORSDOF 0
ENDMDL
