MODEL 1
REMARK minimizedAffinity -0.72424233
REMARK minimizedRMSD -1
REMARK  0 active torsions:
REMARK  status: ('A' for Active; 'I' for Inactive)
ROOT
ATOM      1  C2' OXE d   1       0.924   2.476  -1.309  0.00  0.00     0.078 C 
ATOM      2  C1' OXE d   1       1.595   1.795   1.330  0.00  0.00     0.078 C 
ATOM      3  C1  OXE d   1       1.397   0.672   0.343  0.00  0.00    -0.078 A 
ATOM      4  C2  OXE d   1       1.023   1.013  -0.935  0.00  0.00    -0.078 A 
ATOM      5  C3  OXE d   1       0.881   0.020  -1.900  0.00  0.00     0.003 A 
ATOM      6  C4  OXE d   1       0.964  -1.332  -1.543  0.00  0.00    -0.002 A 
ATOM      7  C5  OXE d   1       1.305  -1.702  -0.238  0.00  0.00    -0.002 A 
ATOM      8  C6  OXE d   1       1.566  -0.713   0.705  0.00  0.00     0.003 A 
ENDROOT
TORSDOF 0
ENDMDL
