MODEL 1
REMARK minimizedAffinity 1.44283164
REMARK minimizedRMSD -1
REMARK  0 active torsions:
REMARK  status: ('A' for Active; 'I' for Inactive)
ROOT
ATOM      1  C2' OXE d   1       1.147   2.981  -2.295  0.00  0.00     0.078 C 
ATOM      2  C1' OXE d   1       0.501   3.431   0.400  0.00  0.00     0.078 C 
ATOM      3  C1  OXE d   1       0.785   2.013  -0.028  0.00  0.00    -0.078 A 
ATOM      4  C2  OXE d   1       1.054   1.796  -1.358  0.00  0.00    -0.078 A 
ATOM      5  C3  OXE d   1       1.376   0.515  -1.796  0.00  0.00     0.003 A 
ATOM      6  C4  OXE d   1       1.278  -0.578  -0.926  0.00  0.00    -0.002 A 
ATOM      7  C5  OXE d   1       0.967  -0.384   0.424  0.00  0.00    -0.002 A 
ATOM      8  C6  OXE d   1       0.760   0.907   0.897  0.00  0.00     0.003 A 
ENDROOT
TORSDOF 0
ENDMDL
