MODEL 1
REMARK minimizedAffinity 13.4027176
REMARK minimizedRMSD -1
REMARK  0 active torsions:
REMARK  status: ('A' for Active; 'I' for Inactive)
ROOT
ATOM      1  N1  IND d   1      -3.736   4.493   2.466  0.00  0.00    -0.196 N 
ATOM      2  C2  IND d   1      -4.906   4.112   1.871  0.00  0.00     0.054 A 
ATOM      3  C3  IND d   1      -5.953   4.365   2.688  0.00  0.00    -0.031 A 
ATOM      4  C4  IND d   1      -5.986   5.492   5.003  0.00  0.00     0.051 A 
ATOM      5  C5  IND d   1      -5.159   5.979   5.975  0.00  0.00    -0.031 A 
ATOM      6  C6  IND d   1      -3.788   5.999   5.824  0.00  0.00     0.015 A 
ATOM      7  C7  IND d   1      -3.190   5.541   4.684  0.00  0.00    -0.016 A 
ATOM      8  C8  IND d   1      -4.027   5.038   3.697  0.00  0.00    -0.047 A 
ATOM      9  C9  IND d   1      -5.416   4.976   3.863  0.00  0.00    -0.096 A 
ATOM     10  HN1 IND d   1      -2.950   4.406   2.128  0.00  0.00     0.298 HD
ENDROOT
TORSDOF 0
ENDMDL
