MODEL 1
REMARK minimizedAffinity 11.9601173
REMARK minimizedRMSD -1
REMARK  0 active torsions:
REMARK  status: ('A' for Active; 'I' for Inactive)
ROOT
ATOM      1  N1  IND d   1      -5.540  -3.641  -1.809  0.00  0.00    -0.196 N 
ATOM      2  C2  IND d   1      -5.759  -2.715  -2.791  0.00  0.00     0.054 A 
ATOM      3  C3  IND d   1      -5.999  -1.501  -2.247  0.00  0.00    -0.031 A 
ATOM      4  C4  IND d   1      -5.981  -0.783   0.225  0.00  0.00     0.051 A 
ATOM      5  C5  IND d   1      -5.867  -1.284   1.492  0.00  0.00    -0.031 A 
ATOM      6  C6  IND d   1      -5.630  -2.623   1.727  0.00  0.00     0.015 A 
ATOM      7  C7  IND d   1      -5.487  -3.513   0.700  0.00  0.00    -0.016 A 
ATOM      8  C8  IND d   1      -5.610  -3.009  -0.587  0.00  0.00    -0.047 A 
ATOM      9  C9  IND d   1      -5.892  -1.658  -0.831  0.00  0.00    -0.096 A 
ATOM     10  HN1 IND d   1      -5.385  -4.477  -1.934  0.00  0.00     0.298 HD
ENDROOT
TORSDOF 0
ENDMDL
