MODEL 1
REMARK minimizedAffinity 3.23511267
REMARK minimizedRMSD -1
REMARK  0 active torsions:
REMARK  status: ('A' for Active; 'I' for Inactive)
ROOT
ATOM      1  N1  IND d   1      -5.223   2.518   1.565  0.00  0.00    -0.196 N 
ATOM      2  C2  IND d   1      -4.663   3.741   1.811  0.00  0.00     0.054 A 
ATOM      3  C3  IND d   1      -3.367   3.601   2.171  0.00  0.00    -0.031 A 
ATOM      4  C4  IND d   1      -1.933   1.468   2.325  0.00  0.00     0.051 A 
ATOM      5  C5  IND d   1      -2.013   0.107   2.230  0.00  0.00    -0.031 A 
ATOM      6  C6  IND d   1      -3.190  -0.533   1.900  0.00  0.00     0.015 A 
ATOM      7  C7  IND d   1      -4.334   0.169   1.639  0.00  0.00    -0.016 A 
ATOM      8  C8  IND d   1      -4.258   1.551   1.741  0.00  0.00    -0.047 A 
ATOM      9  C9  IND d   1      -3.077   2.203   2.118  0.00  0.00    -0.096 A 
ATOM     10  HN1 IND d   1      -6.040   2.377   1.339  0.00  0.00     0.298 HD
ENDROOT
TORSDOF 0
ENDMDL
