MODEL 1
REMARK minimizedAffinity 14.0806074
REMARK minimizedRMSD -1
REMARK  0 active torsions:
REMARK  status: ('A' for Active; 'I' for Inactive)
ROOT
ATOM      1  N1  IND d   1      -4.781  -3.357  -2.202  0.00  0.00    -0.196 N 
ATOM      2  C2  IND d   1      -5.402  -2.403  -2.959  0.00  0.00     0.054 A 
ATOM      3  C3  IND d   1      -5.999  -1.487  -2.164  0.00  0.00    -0.031 A 
ATOM      4  C4  IND d   1      -6.000  -1.302   0.403  0.00  0.00     0.051 A 
ATOM      5  C5  IND d   1      -5.598  -1.961   1.531  0.00  0.00    -0.031 A 
ATOM      6  C6  IND d   1      -4.886  -3.142   1.471  0.00  0.00     0.015 A 
ATOM      7  C7  IND d   1      -4.539  -3.704   0.275  0.00  0.00    -0.016 A 
ATOM      8  C8  IND d   1      -4.952  -3.041  -0.872  0.00  0.00    -0.047 A 
ATOM      9  C9  IND d   1      -5.711  -1.865  -0.817  0.00  0.00    -0.096 A 
ATOM     10  HN1 IND d   1      -4.356  -4.040  -2.506  0.00  0.00     0.298 HD
ENDROOT
TORSDOF 0
ENDMDL
