MODEL 1
REMARK minimizedAffinity 12.4281902
REMARK minimizedRMSD -1
REMARK  0 active torsions:
REMARK  status: ('A' for Active; 'I' for Inactive)
ROOT
ATOM      1  N1  IND d   1      -5.263  -4.929  -4.775  0.00  0.00    -0.196 N 
ATOM      2  C2  IND d   1      -5.130  -4.337  -6.000  0.00  0.00     0.054 A 
ATOM      3  C3  IND d   1      -5.319  -3.002  -5.900  0.00  0.00    -0.031 A 
ATOM      4  C4  IND d   1      -5.756  -1.564  -3.809  0.00  0.00     0.051 A 
ATOM      5  C5  IND d   1      -5.995  -1.660  -2.467  0.00  0.00    -0.031 A 
ATOM      6  C6  IND d   1      -6.000  -2.874  -1.812  0.00  0.00     0.015 A 
ATOM      7  C7  IND d   1      -5.753  -4.042  -2.475  0.00  0.00    -0.016 A 
ATOM      8  C8  IND d   1      -5.517  -3.950  -3.840  0.00  0.00    -0.047 A 
ATOM      9  C9  IND d   1      -5.552  -2.725  -4.518  0.00  0.00    -0.096 A 
ATOM     10  HN1 IND d   1      -5.198  -5.772  -4.615  0.00  0.00     0.298 HD
ENDROOT
TORSDOF 0
ENDMDL
