MODEL 1
REMARK minimizedAffinity 11.2328663
REMARK minimizedRMSD -1
REMARK  0 active torsions:
REMARK  status: ('A' for Active; 'I' for Inactive)
ROOT
ATOM      1  N1  IND d   1      -5.268  -4.633  -4.833  0.00  0.00    -0.196 N 
ATOM      2  C2  IND d   1      -5.582  -3.934  -5.964  0.00  0.00     0.054 A 
ATOM      3  C3  IND d   1      -5.946  -2.670  -5.650  0.00  0.00    -0.031 A 
ATOM      4  C4  IND d   1      -6.000  -1.506  -3.354  0.00  0.00     0.051 A 
ATOM      5  C5  IND d   1      -5.833  -1.749  -2.020  0.00  0.00    -0.031 A 
ATOM      6  C6  IND d   1      -5.459  -2.989  -1.545  0.00  0.00     0.015 A 
ATOM      7  C7  IND d   1      -5.226  -4.035  -2.392  0.00  0.00    -0.016 A 
ATOM      8  C8  IND d   1      -5.401  -3.795  -3.748  0.00  0.00    -0.047 A 
ATOM      9  C9  IND d   1      -5.822  -2.550  -4.232  0.00  0.00    -0.096 A 
ATOM     10  HN1 IND d   1      -5.028  -5.458  -4.803  0.00  0.00     0.298 HD
ENDROOT
TORSDOF 0
ENDMDL
