MODEL 1
REMARK minimizedAffinity 25.6818581
REMARK minimizedRMSD -1
REMARK  0 active torsions:
REMARK  status: ('A' for Active; 'I' for Inactive)
ROOT
ATOM      1  N1  IND d   1      -0.292   1.204   1.563  0.00  0.00    -0.196 N 
ATOM      2  C2  IND d   1      -0.288   0.697   2.833  0.00  0.00     0.054 A 
ATOM      3  C3  IND d   1      -1.312  -0.171   2.996  0.00  0.00    -0.031 A 
ATOM      4  C4  IND d   1      -3.053  -0.985   1.284  0.00  0.00     0.051 A 
ATOM      5  C5  IND d   1      -3.483  -0.779   0.003  0.00  0.00    -0.031 A 
ATOM      6  C6  IND d   1      -2.857   0.115  -0.841  0.00  0.00     0.015 A 
ATOM      7  C7  IND d   1      -1.766   0.831  -0.437  0.00  0.00    -0.016 A 
ATOM      8  C8  IND d   1      -1.331   0.629   0.865  0.00  0.00    -0.047 A 
ATOM      9  C9  IND d   1      -1.988  -0.245   1.740  0.00  0.00    -0.096 A 
ATOM     10  HN1 IND d   1       0.262   1.785   1.253  0.00  0.00     0.298 HD
ENDROOT
TORSDOF 0
ENDMDL
