MODEL 1
REMARK minimizedAffinity 7.29323721
REMARK minimizedRMSD -1
REMARK  0 active torsions:
REMARK  status: ('A' for Active; 'I' for Inactive)
ROOT
ATOM      1  N1  IND d   1      -5.844  -4.445  -4.682  0.00  0.00    -0.196 N 
ATOM      2  C2  IND d   1      -5.966  -3.748  -5.851  0.00  0.00     0.054 A 
ATOM      3  C3  IND d   1      -6.000  -2.419  -5.606  0.00  0.00    -0.031 A 
ATOM      4  C4  IND d   1      -5.768  -1.162  -3.370  0.00  0.00     0.051 A 
ATOM      5  C5  IND d   1      -5.674  -1.370  -2.023  0.00  0.00    -0.031 A 
ATOM      6  C6  IND d   1      -5.627  -2.639  -1.482  0.00  0.00     0.015 A 
ATOM      7  C7  IND d   1      -5.663  -3.752  -2.273  0.00  0.00    -0.016 A 
ATOM      8  C8  IND d   1      -5.766  -3.545  -3.641  0.00  0.00    -0.047 A 
ATOM      9  C9  IND d   1      -5.856  -2.261  -4.193  0.00  0.00    -0.096 A 
ATOM     10  HN1 IND d   1      -5.820  -5.301  -4.608  0.00  0.00     0.298 HD
ENDROOT
TORSDOF 0
ENDMDL
