MODEL 1
REMARK minimizedAffinity 16.9039688
REMARK minimizedRMSD -1
REMARK  0 active torsions:
REMARK  status: ('A' for Active; 'I' for Inactive)
ROOT
ATOM      1  N1  IND d   1       3.247   0.002  -4.200  0.00  0.00    -0.196 N 
ATOM      2  C2  IND d   1       2.265  -0.720  -4.818  0.00  0.00     0.054 A 
ATOM      3  C3  IND d   1       1.115  -0.653  -4.109  0.00  0.00    -0.031 A 
ATOM      4  C4  IND d   1       0.593   0.666  -1.961  0.00  0.00     0.051 A 
ATOM      5  C5  IND d   1       1.182   1.444  -1.005  0.00  0.00    -0.031 A 
ATOM      6  C6  IND d   1       2.517   1.791  -1.068  0.00  0.00     0.015 A 
ATOM      7  C7  IND d   1       3.312   1.379  -2.100  0.00  0.00    -0.016 A 
ATOM      8  C8  IND d   1       2.718   0.583  -3.069  0.00  0.00    -0.047 A 
ATOM      9  C9  IND d   1       1.375   0.193  -2.988  0.00  0.00    -0.096 A 
ATOM     10  HN1 IND d   1       4.059   0.080  -4.472  0.00  0.00     0.298 HD
ENDROOT
TORSDOF 0
ENDMDL
