MODEL 1
REMARK minimizedAffinity 7.71901655
REMARK minimizedRMSD -1
REMARK  0 active torsions:
REMARK  status: ('A' for Active; 'I' for Inactive)
ROOT
ATOM      1  N1  IND d   1      -3.171  -2.376   0.217  0.00  0.00    -0.196 N 
ATOM      2  C2  IND d   1      -3.217  -2.207  -1.139  0.00  0.00     0.054 A 
ATOM      3  C3  IND d   1      -2.684  -1.013  -1.482  0.00  0.00    -0.031 A 
ATOM      4  C4  IND d   1      -1.584   0.776   0.006  0.00  0.00     0.051 A 
ATOM      5  C5  IND d   1      -1.340   1.088   1.314  0.00  0.00    -0.031 A 
ATOM      6  C6  IND d   1      -1.698   0.242   2.344  0.00  0.00     0.015 A 
ATOM      7  C7  IND d   1      -2.307  -0.957   2.102  0.00  0.00    -0.016 A 
ATOM      8  C8  IND d   1      -2.563  -1.273   0.776  0.00  0.00    -0.047 A 
ATOM      9  C9  IND d   1      -2.240  -0.400  -0.271  0.00  0.00    -0.096 A 
ATOM     10  HN1 IND d   1      -3.472  -3.056   0.648  0.00  0.00     0.298 HD
ENDROOT
TORSDOF 0
ENDMDL
