MODEL 1
REMARK minimizedAffinity 14.355484
REMARK minimizedRMSD -1
REMARK  0 active torsions:
REMARK  status: ('A' for Active; 'I' for Inactive)
ROOT
ATOM      1  N1  IND d   1      -0.655   0.393   1.187  0.00  0.00    -0.196 N 
ATOM      2  C2  IND d   1      -1.686   1.119   0.659  0.00  0.00     0.054 A 
ATOM      3  C3  IND d   1      -2.793   0.989   1.423  0.00  0.00    -0.031 A 
ATOM      4  C4  IND d   1      -3.111  -0.285   3.638  0.00  0.00     0.051 A 
ATOM      5  C5  IND d   1      -2.465  -1.130   4.497  0.00  0.00    -0.031 A 
ATOM      6  C6  IND d   1      -1.156  -1.516   4.294  0.00  0.00     0.015 A 
ATOM      7  C7  IND d   1      -0.437  -1.060   3.225  0.00  0.00    -0.016 A 
ATOM      8  C8  IND d   1      -1.091  -0.208   2.347  0.00  0.00    -0.047 A 
ATOM      9  C9  IND d   1      -2.433   0.153   2.525  0.00  0.00    -0.096 A 
ATOM     10  HN1 IND d   1       0.133   0.323   0.850  0.00  0.00     0.298 HD
ENDROOT
TORSDOF 0
ENDMDL
