MODEL 1
REMARK minimizedAffinity -1.27311707
REMARK minimizedRMSD -1
REMARK  0 active torsions:
REMARK  status: ('A' for Active; 'I' for Inactive)
ROOT
ATOM      1  N1  IND d   1      -2.606  -0.106  -0.079  0.00  0.00    -0.196 N 
ATOM      2  C2  IND d   1      -1.629   0.742   0.363  0.00  0.00     0.054 A 
ATOM      3  C3  IND d   1      -2.020   1.357   1.502  0.00  0.00    -0.031 A 
ATOM      4  C4  IND d   1      -4.178   1.048   2.870  0.00  0.00     0.051 A 
ATOM      5  C5  IND d   1      -5.386   0.409   2.846  0.00  0.00    -0.031 A 
ATOM      6  C6  IND d   1      -5.735  -0.454   1.828  0.00  0.00     0.015 A 
ATOM      7  C7  IND d   1      -4.881  -0.720   0.795  0.00  0.00    -0.016 A 
ATOM      8  C8  IND d   1      -3.656  -0.067   0.812  0.00  0.00    -0.047 A 
ATOM      9  C9  IND d   1      -3.313   0.842   1.821  0.00  0.00    -0.096 A 
ATOM     10  HN1 IND d   1      -2.571  -0.583  -0.793  0.00  0.00     0.298 HD
ENDROOT
TORSDOF 0
ENDMDL
