MODEL 1
REMARK minimizedAffinity 15.2177172
REMARK minimizedRMSD -1
REMARK  0 active torsions:
REMARK  status: ('A' for Active; 'I' for Inactive)
ROOT
ATOM      1  N1  IND d   1       4.883   0.156  -3.687  0.00  0.00    -0.196 N 
ATOM      2  C2  IND d   1       3.953  -0.426  -4.504  0.00  0.00     0.054 A 
ATOM      3  C3  IND d   1       3.566   0.441  -5.467  0.00  0.00    -0.031 A 
ATOM      4  C4  IND d   1       4.401   2.827  -5.952  0.00  0.00     0.051 A 
ATOM      5  C5  IND d   1       5.219   3.804  -5.457  0.00  0.00    -0.031 A 
ATOM      6  C6  IND d   1       5.984   3.609  -4.325  0.00  0.00     0.015 A 
ATOM      7  C7  IND d   1       5.968   2.422  -3.650  0.00  0.00    -0.016 A 
ATOM      8  C8  IND d   1       5.133   1.430  -4.146  0.00  0.00    -0.047 A 
ATOM      9  C9  IND d   1       4.322   1.636  -5.269  0.00  0.00    -0.096 A 
ATOM     10  HN1 IND d   1       5.249  -0.213  -3.002  0.00  0.00     0.298 HD
ENDROOT
TORSDOF 0
ENDMDL
