MODEL 1
REMARK minimizedAffinity 7.5001564
REMARK minimizedRMSD -1
REMARK  0 active torsions:
REMARK  status: ('A' for Active; 'I' for Inactive)
ROOT
ATOM      1  N1  IND d   1      -1.410   2.064  -2.397  0.00  0.00    -0.196 N 
ATOM      2  C2  IND d   1      -2.130   1.362  -3.323  0.00  0.00     0.054 A 
ATOM      3  C3  IND d   1      -1.342   0.455  -3.943  0.00  0.00    -0.031 A 
ATOM      4  C4  IND d   1       1.132  -0.118  -3.525  0.00  0.00     0.051 A 
ATOM      5  C5  IND d   1       2.223   0.279  -2.804  0.00  0.00    -0.031 A 
ATOM      6  C6  IND d   1       2.157   1.310  -1.890  0.00  0.00     0.015 A 
ATOM      7  C7  IND d   1       0.989   1.978  -1.654  0.00  0.00    -0.016 A 
ATOM      8  C8  IND d   1      -0.119   1.582  -2.389  0.00  0.00    -0.047 A 
ATOM      9  C9  IND d   1      -0.048   0.565  -3.349  0.00  0.00    -0.096 A 
ATOM     10  HN1 IND d   1      -1.713   2.699  -1.903  0.00  0.00     0.298 HD
ENDROOT
TORSDOF 0
ENDMDL
