MODEL 1
REMARK minimizedAffinity 9.50032234
REMARK minimizedRMSD -1
REMARK  0 active torsions:
REMARK  status: ('A' for Active; 'I' for Inactive)
ROOT
ATOM      1  N1  IND d   1      -3.803  -0.604   3.947  0.00  0.00    -0.196 N 
ATOM      2  C2  IND d   1      -5.003   0.010   3.720  0.00  0.00     0.054 A 
ATOM      3  C3  IND d   1      -4.895   0.891   2.700  0.00  0.00    -0.031 A 
ATOM      4  C4  IND d   1      -2.872   1.413   1.197  0.00  0.00     0.051 A 
ATOM      5  C5  IND d   1      -1.544   1.131   1.042  0.00  0.00    -0.031 A 
ATOM      6  C6  IND d   1      -0.888   0.236   1.862  0.00  0.00     0.015 A 
ATOM      7  C7  IND d   1      -1.542  -0.422   2.865  0.00  0.00    -0.016 A 
ATOM      8  C8  IND d   1      -2.889  -0.132   3.030  0.00  0.00    -0.047 A 
ATOM      9  C9  IND d   1      -3.550   0.807   2.228  0.00  0.00    -0.096 A 
ATOM     10  HN1 IND d   1      -3.645  -1.186   4.560  0.00  0.00     0.298 HD
ENDROOT
TORSDOF 0
ENDMDL
