MODEL 1
REMARK minimizedAffinity 4.18489075
REMARK minimizedRMSD -1
REMARK  0 active torsions:
REMARK  status: ('A' for Active; 'I' for Inactive)
ROOT
ATOM      1  N1  IND d   1      -0.481  -0.452   3.492  0.00  0.00    -0.196 N 
ATOM      2  C2  IND d   1       0.638  -0.279   2.725  0.00  0.00     0.054 A 
ATOM      3  C3  IND d   1       0.327   0.370   1.580  0.00  0.00    -0.031 A 
ATOM      4  C4  IND d   1      -1.932   1.332   0.806  0.00  0.00     0.051 A 
ATOM      5  C5  IND d   1      -3.253   1.391   1.152  0.00  0.00    -0.031 A 
ATOM      6  C6  IND d   1      -3.726   0.830   2.321  0.00  0.00     0.015 A 
ATOM      7  C7  IND d   1      -2.891   0.196   3.196  0.00  0.00    -0.016 A 
ATOM      8  C8  IND d   1      -1.550   0.128   2.845  0.00  0.00    -0.047 A 
ATOM      9  C9  IND d   1      -1.071   0.658   1.640  0.00  0.00    -0.096 A 
ATOM     10  HN1 IND d   1      -0.511  -0.854   4.251  0.00  0.00     0.298 HD
ENDROOT
TORSDOF 0
ENDMDL
