MODEL 1
REMARK minimizedAffinity 4.49467993
REMARK minimizedRMSD -1
REMARK  0 active torsions:
REMARK  status: ('A' for Active; 'I' for Inactive)
ROOT
ATOM      1  N1  IND d   1      -0.942  -0.670  -4.598  0.00  0.00    -0.196 N 
ATOM      2  C2  IND d   1      -1.610   0.462  -4.224  0.00  0.00     0.054 A 
ATOM      3  C3  IND d   1      -0.755   1.350  -3.668  0.00  0.00    -0.031 A 
ATOM      4  C4  IND d   1       1.797   1.194  -3.365  0.00  0.00     0.051 A 
ATOM      5  C5  IND d   1       2.850   0.337  -3.519  0.00  0.00    -0.031 A 
ATOM      6  C6  IND d   1       2.690  -0.925  -4.054  0.00  0.00     0.015 A 
ATOM      7  C7  IND d   1       1.467  -1.374  -4.467  0.00  0.00    -0.016 A 
ATOM      8  C8  IND d   1       0.395  -0.508  -4.306  0.00  0.00    -0.047 A 
ATOM      9  C9  IND d   1       0.544   0.757  -3.724  0.00  0.00    -0.096 A 
ATOM     10  HN1 IND d   1      -1.297  -1.367  -4.955  0.00  0.00     0.298 HD
ENDROOT
TORSDOF 0
ENDMDL
