MODEL 1
REMARK minimizedAffinity 6.00525379
REMARK minimizedRMSD -1
REMARK  0 active torsions:
REMARK  status: ('A' for Active; 'I' for Inactive)
ROOT
ATOM      1  N1  IND d   1       2.621  -2.695  -4.977  0.00  0.00    -0.196 N 
ATOM      2  C2  IND d   1       1.581  -2.838  -5.853  0.00  0.00     0.054 A 
ATOM      3  C3  IND d   1       0.923  -1.666  -5.997  0.00  0.00    -0.031 A 
ATOM      4  C4  IND d   1       1.442   0.638  -4.973  0.00  0.00     0.051 A 
ATOM      5  C5  IND d   1       2.272   1.259  -4.081  0.00  0.00    -0.031 A 
ATOM      6  C6  IND d   1       3.283   0.580  -3.432  0.00  0.00     0.015 A 
ATOM      7  C7  IND d   1       3.509  -0.748  -3.660  0.00  0.00    -0.016 A 
ATOM      8  C8  IND d   1       2.664  -1.383  -4.559  0.00  0.00    -0.047 A 
ATOM      9  C9  IND d   1       1.610  -0.709  -5.189  0.00  0.00    -0.096 A 
ATOM     10  HN1 IND d   1       3.158  -3.319  -4.730  0.00  0.00     0.298 HD
ENDROOT
TORSDOF 0
ENDMDL
