MODEL 1
REMARK minimizedAffinity 8.85234165
REMARK minimizedRMSD -1
REMARK  0 active torsions:
REMARK  status: ('A' for Active; 'I' for Inactive)
ROOT
ATOM      1  N1  IND d   1      -2.848   0.479   0.603  0.00  0.00    -0.196 N 
ATOM      2  C2  IND d   1      -1.710   0.994   1.157  0.00  0.00     0.054 A 
ATOM      3  C3  IND d   1      -1.915   1.297   2.458  0.00  0.00    -0.031 A 
ATOM      4  C4  IND d   1      -4.011   0.936   3.910  0.00  0.00     0.051 A 
ATOM      5  C5  IND d   1      -5.313   0.529   3.839  0.00  0.00    -0.031 A 
ATOM      6  C6  IND d   1      -5.872   0.074   2.662  0.00  0.00     0.015 A 
ATOM      7  C7  IND d   1      -5.141  -0.004   1.510  0.00  0.00    -0.016 A 
ATOM      8  C8  IND d   1      -3.820   0.415   1.577  0.00  0.00    -0.047 A 
ATOM      9  C9  IND d   1      -3.260   0.919   2.758  0.00  0.00    -0.096 A 
ATOM     10  HN1 IND d   1      -2.942   0.236  -0.217  0.00  0.00     0.298 HD
ENDROOT
TORSDOF 0
ENDMDL
