MODEL 1
REMARK minimizedAffinity 3.97242546
REMARK minimizedRMSD -1
REMARK  0 active torsions:
REMARK  status: ('A' for Active; 'I' for Inactive)
ROOT
ATOM      1  C   UNL d   1       2.117  -3.073   0.465  0.00  0.00     0.172 C 
ATOM      2  N   UNL d   1       3.250  -3.968   0.474  0.00  0.00    -0.070 N 
ATOM      3  C1  UNL d   1       3.744  -4.641  -0.611  0.00  0.00    -0.004 A 
ATOM      4  C2  UNL d   1       4.825  -5.385  -0.190  0.00  0.00    -0.047 A 
ATOM      5  C3  UNL d   1       4.985  -5.152   1.197  0.00  0.00    -0.047 A 
ATOM      6  C4  UNL d   1       3.997  -4.271   1.582  0.00  0.00    -0.004 A 
ENDROOT
TORSDOF 0
ENDMDL
