MODEL 1
REMARK minimizedAffinity 3.50813532
REMARK minimizedRMSD -1
REMARK  0 active torsions:
REMARK  status: ('A' for Active; 'I' for Inactive)
ROOT
ATOM      1  C   UNL d   1       5.937   5.994   5.994  0.00  0.00     0.172 C 
ATOM      2  N   UNL d   1       4.656   5.359   5.790  0.00  0.00    -0.070 N 
ATOM      3  C1  UNL d   1       3.489   6.000   5.473  0.00  0.00    -0.004 A 
ATOM      4  C2  UNL d   1       2.500   5.046   5.364  0.00  0.00    -0.047 A 
ATOM      5  C3  UNL d   1       3.093   3.788   5.627  0.00  0.00    -0.047 A 
ATOM      6  C4  UNL d   1       4.429   4.011   5.887  0.00  0.00    -0.004 A 
ENDROOT
TORSDOF 0
ENDMDL
