MODEL 1
REMARK minimizedAffinity 0.228142127
REMARK minimizedRMSD -1
REMARK  0 active torsions:
REMARK  status: ('A' for Active; 'I' for Inactive)
ROOT
ATOM      1  C   UNL d   1       0.002  -0.745   2.919  0.00  0.00     0.172 C 
ATOM      2  N   UNL d   1       0.783  -1.483   1.954  0.00  0.00    -0.070 N 
ATOM      3  C1  UNL d   1       1.557  -2.580   2.225  0.00  0.00    -0.004 A 
ATOM      4  C2  UNL d   1       2.137  -2.989   1.044  0.00  0.00    -0.047 A 
ATOM      5  C3  UNL d   1       1.697  -2.108   0.028  0.00  0.00    -0.047 A 
ATOM      6  C4  UNL d   1       0.860  -1.185   0.619  0.00  0.00    -0.004 A 
ENDROOT
TORSDOF 0
ENDMDL
