MODEL 1
REMARK minimizedAffinity 4.56947947
REMARK minimizedRMSD -1
REMARK  0 active torsions:
REMARK  status: ('A' for Active; 'I' for Inactive)
ROOT
ATOM      1  C   UNL d   1       5.045  -6.000   5.999  0.00  0.00     0.172 C 
ATOM      2  N   UNL d   1       4.767  -4.758   5.317  0.00  0.00    -0.070 N 
ATOM      3  C1  UNL d   1       4.806  -3.511   5.881  0.00  0.00    -0.004 A 
ATOM      4  C2  UNL d   1       4.482  -2.595   4.903  0.00  0.00    -0.047 A 
ATOM      5  C3  UNL d   1       4.238  -3.317   3.711  0.00  0.00    -0.047 A 
ATOM      6  C4  UNL d   1       4.422  -4.654   3.995  0.00  0.00    -0.004 A 
ENDROOT
TORSDOF 0
ENDMDL
