MODEL 1
REMARK minimizedAffinity 4.21786213
REMARK minimizedRMSD -1
REMARK  0 active torsions:
REMARK  status: ('A' for Active; 'I' for Inactive)
ROOT
ATOM      1  C   UNL d   1       4.729  -1.515   0.026  0.00  0.00     0.172 C 
ATOM      2  N   UNL d   1       3.405  -2.055   0.223  0.00  0.00    -0.070 N 
ATOM      3  C1  UNL d   1       2.490  -1.611   1.140  0.00  0.00    -0.004 A 
ATOM      4  C2  UNL d   1       1.356  -2.383   1.012  0.00  0.00    -0.047 A 
ATOM      5  C3  UNL d   1       1.597  -3.324  -0.017  0.00  0.00    -0.047 A 
ATOM      6  C4  UNL d   1       2.873  -3.099  -0.488  0.00  0.00    -0.004 A 
ENDROOT
TORSDOF 0
ENDMDL
