MODEL 1
REMARK minimizedAffinity -1.58782542
REMARK minimizedRMSD -1
REMARK  0 active torsions:
REMARK  status: ('A' for Active; 'I' for Inactive)
ROOT
ATOM      1  C   UNL d   1       4.830  -2.932   0.829  0.00  0.00     0.172 C 
ATOM      2  N   UNL d   1       3.395  -2.906   0.988  0.00  0.00    -0.070 N 
ATOM      3  C1  UNL d   1       2.499  -3.654   0.273  0.00  0.00    -0.004 A 
ATOM      4  C2  UNL d   1       1.234  -3.341   0.723  0.00  0.00    -0.047 A 
ATOM      5  C3  UNL d   1       1.376  -2.370   1.743  0.00  0.00    -0.047 A 
ATOM      6  C4  UNL d   1       2.724  -2.119   1.887  0.00  0.00    -0.004 A 
ENDROOT
TORSDOF 0
ENDMDL
