MODEL 1
REMARK minimizedAffinity 5.81897306
REMARK minimizedRMSD -1
REMARK  0 active torsions:
REMARK  status: ('A' for Active; 'I' for Inactive)
ROOT
ATOM      1  C   UNL d   1      -3.753   0.004   2.231  0.00  0.00     0.078 C 
ATOM      2  C1  UNL d   1      -4.539  -0.740   3.269  0.00  0.00    -0.077 A 
ATOM      3  C2  UNL d   1      -4.545  -0.322   4.606  0.00  0.00    -0.001 A 
ATOM      4  C3  UNL d   1      -5.273  -1.030   5.563  0.00  0.00     0.003 A 
ATOM      5  C4  UNL d   1      -6.000  -2.160   5.195  0.00  0.00    -0.005 A 
ATOM      6  C5  UNL d   1      -5.998  -2.585   3.868  0.00  0.00     0.003 A 
ATOM      7  C6  UNL d   1      -5.271  -1.878   2.909  0.00  0.00    -0.001 A 
ENDROOT
TORSDOF 0
ENDMDL
