MODEL 1
REMARK minimizedAffinity -0.0175609477
REMARK minimizedRMSD -1
REMARK  0 active torsions:
REMARK  status: ('A' for Active; 'I' for Inactive)
ROOT
ATOM      1  C   UNL d   1      -2.328   5.365  -3.173  0.00  0.00     0.078 C 
ATOM      2  C1  UNL d   1      -3.601   4.979  -3.866  0.00  0.00    -0.077 A 
ATOM      3  C2  UNL d   1      -3.609   4.645  -5.225  0.00  0.00    -0.001 A 
ATOM      4  C3  UNL d   1      -4.803   4.297  -5.860  0.00  0.00     0.003 A 
ATOM      5  C4  UNL d   1      -5.997   4.282  -5.143  0.00  0.00    -0.005 A 
ATOM      6  C5  UNL d   1      -6.000   4.615  -3.790  0.00  0.00     0.003 A 
ATOM      7  C6  UNL d   1      -4.807   4.963  -3.154  0.00  0.00    -0.001 A 
ENDROOT
TORSDOF 0
ENDMDL
