MODEL 1
REMARK minimizedAffinity 2.30730033
REMARK minimizedRMSD -1
REMARK  0 active torsions:
REMARK  status: ('A' for Active; 'I' for Inactive)
ROOT
ATOM      1  C   UNL d   1      -0.087   3.691  -1.160  0.00  0.00     0.078 C 
ATOM      2  C1  UNL d   1      -0.556   2.300  -1.467  0.00  0.00    -0.077 A 
ATOM      3  C2  UNL d   1      -1.909   2.034  -1.712  0.00  0.00    -0.001 A 
ATOM      4  C3  UNL d   1      -2.333   0.733  -1.987  0.00  0.00     0.003 A 
ATOM      5  C4  UNL d   1      -1.412  -0.312  -2.018  0.00  0.00    -0.005 A 
ATOM      6  C5  UNL d   1      -0.064  -0.057  -1.774  0.00  0.00     0.003 A 
ATOM      7  C6  UNL d   1       0.362   1.244  -1.499  0.00  0.00    -0.001 A 
ENDROOT
TORSDOF 0
ENDMDL
