MODEL 1
REMARK minimizedAffinity 0.470710397
REMARK minimizedRMSD -1
REMARK  0 active torsions:
REMARK  status: ('A' for Active; 'I' for Inactive)
ROOT
ATOM      1  C   UNL d   1      -4.102   3.812  -3.169  0.00  0.00     0.078 C 
ATOM      2  C1  UNL d   1      -3.404   2.621  -2.584  0.00  0.00    -0.077 A 
ATOM      3  C2  UNL d   1      -2.034   2.658  -2.296  0.00  0.00    -0.001 A 
ATOM      4  C3  UNL d   1      -1.394   1.538  -1.761  0.00  0.00     0.003 A 
ATOM      5  C4  UNL d   1      -2.116   0.373  -1.510  0.00  0.00    -0.005 A 
ATOM      6  C5  UNL d   1      -3.479   0.326  -1.796  0.00  0.00     0.003 A 
ATOM      7  C6  UNL d   1      -4.121   1.444  -2.331  0.00  0.00    -0.001 A 
ENDROOT
TORSDOF 0
ENDMDL
