MODEL 1
REMARK minimizedAffinity 0.313512146
REMARK minimizedRMSD -1
REMARK  0 active torsions:
REMARK  status: ('A' for Active; 'I' for Inactive)
ROOT
ATOM      1  C   UNL d   1      -6.000  -1.706   0.463  0.00  0.00     0.078 C 
ATOM      2  C1  UNL d   1      -5.985  -1.702   1.962  0.00  0.00    -0.077 A 
ATOM      3  C2  UNL d   1      -6.000  -2.900   2.687  0.00  0.00    -0.001 A 
ATOM      4  C3  UNL d   1      -5.995  -2.881   4.083  0.00  0.00     0.003 A 
ATOM      5  C4  UNL d   1      -5.978  -1.667   4.766  0.00  0.00    -0.005 A 
ATOM      6  C5  UNL d   1      -5.965  -0.470   4.053  0.00  0.00     0.003 A 
ATOM      7  C6  UNL d   1      -5.970  -0.487   2.658  0.00  0.00    -0.001 A 
ENDROOT
TORSDOF 0
ENDMDL
