MODEL 1
REMARK minimizedAffinity 1.92110062
REMARK minimizedRMSD -1
REMARK  0 active torsions:
REMARK  status: ('A' for Active; 'I' for Inactive)
ROOT
ATOM      1  C   UNL d   1       0.201   4.409  -1.448  0.00  0.00     0.078 C 
ATOM      2  C1  UNL d   1       0.088   3.176  -0.602  0.00  0.00    -0.077 A 
ATOM      3  C2  UNL d   1      -0.360   1.966  -1.147  0.00  0.00    -0.001 A 
ATOM      4  C3  UNL d   1      -0.470   0.829  -0.345  0.00  0.00     0.003 A 
ATOM      5  C4  UNL d   1      -0.136   0.890   1.006  0.00  0.00    -0.005 A 
ATOM      6  C5  UNL d   1       0.309   2.090   1.558  0.00  0.00     0.003 A 
ATOM      7  C6  UNL d   1       0.419   3.228   0.758  0.00  0.00    -0.001 A 
ENDROOT
TORSDOF 0
ENDMDL
