MODEL 1
REMARK minimizedAffinity -3.89183855
REMARK minimizedRMSD -1
REMARK  0 active torsions:
REMARK  status: ('A' for Active; 'I' for Inactive)
ROOT
ATOM      1  C   UNL d   1      -0.046   4.684  -0.834  0.00  0.00     0.078 C 
ATOM      2  C1  UNL d   1      -0.138   3.314  -0.232  0.00  0.00    -0.077 A 
ATOM      3  C2  UNL d   1      -0.027   3.125   1.151  0.00  0.00    -0.001 A 
ATOM      4  C3  UNL d   1      -0.105   1.842   1.697  0.00  0.00     0.003 A 
ATOM      5  C4  UNL d   1      -0.293   0.739   0.867  0.00  0.00    -0.005 A 
ATOM      6  C5  UNL d   1      -0.402   0.917  -0.511  0.00  0.00     0.003 A 
ATOM      7  C6  UNL d   1      -0.325   2.199  -1.058  0.00  0.00    -0.001 A 
ENDROOT
TORSDOF 0
ENDMDL
