MODEL 1
REMARK minimizedAffinity -0.976329505
REMARK minimizedRMSD -1
REMARK  0 active torsions:
REMARK  status: ('A' for Active; 'I' for Inactive)
ROOT
ATOM      1  C   UNL d   1      -3.270   1.342   0.484  0.00  0.00     0.023 A 
ATOM      2  C1  UNL d   1      -2.570   1.174  -0.711  0.00  0.00     0.003 A 
ATOM      3  C2  UNL d   1      -1.296   0.602  -0.701  0.00  0.00     0.048 A 
ATOM      4  C3  UNL d   1      -0.729   0.198   0.508  0.00  0.00     0.023 A 
ATOM      5  C4  UNL d   1      -1.427   0.363   1.706  0.00  0.00     0.048 A 
ATOM      6  C5  UNL d   1      -2.700   0.937   1.690  0.00  0.00     0.003 A 
ATOM      7  I   UNL d   1       1.166  -0.654   0.526  0.00  0.00    -0.146 I 
ENDROOT
TORSDOF 0
ENDMDL
