MODEL 1
REMARK minimizedAffinity -4.83132267
REMARK minimizedRMSD -1
REMARK  0 active torsions:
REMARK  status: ('A' for Active; 'I' for Inactive)
ROOT
ATOM      1  C   UNL d   1       3.626  -0.848   0.467  0.00  0.00     0.023 A 
ATOM      2  C1  UNL d   1       2.735  -1.910   0.313  0.00  0.00     0.003 A 
ATOM      3  C2  UNL d   1       1.391  -1.659   0.031  0.00  0.00     0.048 A 
ATOM      4  C3  UNL d   1       0.944  -0.344  -0.097  0.00  0.00     0.023 A 
ATOM      5  C4  UNL d   1       1.832   0.721   0.055  0.00  0.00     0.048 A 
ATOM      6  C5  UNL d   1       3.176   0.466   0.338  0.00  0.00     0.003 A 
ATOM      7  I   UNL d   1      -1.056   0.031  -0.517  0.00  0.00    -0.146 I 
ENDROOT
TORSDOF 0
ENDMDL
