MODEL 1
REMARK minimizedAffinity -3.078264
REMARK minimizedRMSD -1
REMARK  0 active torsions:
REMARK  status: ('A' for Active; 'I' for Inactive)
ROOT
ATOM      1  C   UNL d   1       2.623  -1.721   1.225  0.00  0.00     0.023 A 
ATOM      2  C1  UNL d   1       1.988  -2.077   0.035  0.00  0.00     0.003 A 
ATOM      3  C2  UNL d   1       1.028  -1.232  -0.526  0.00  0.00     0.048 A 
ATOM      4  C3  UNL d   1       0.709  -0.032   0.108  0.00  0.00     0.023 A 
ATOM      5  C4  UNL d   1       1.343   0.329   1.299  0.00  0.00     0.048 A 
ATOM      6  C5  UNL d   1       2.301  -0.520   1.856  0.00  0.00     0.003 A 
ATOM      7  I   UNL d   1      -0.719   1.228  -0.724  0.00  0.00    -0.146 I 
ENDROOT
TORSDOF 0
ENDMDL
