MODEL 1
REMARK minimizedAffinity 1.33025587
REMARK minimizedRMSD -1
REMARK  0 active torsions:
REMARK  status: ('A' for Active; 'I' for Inactive)
ROOT
ATOM      1  C   UNL d   1       1.833   0.610  -0.097  0.00  0.00     0.023 A 
ATOM      2  C1  UNL d   1       1.000  -0.499  -0.243  0.00  0.00     0.003 A 
ATOM      3  C2  UNL d   1      -0.387  -0.345  -0.188  0.00  0.00     0.048 A 
ATOM      4  C3  UNL d   1      -0.934   0.921   0.013  0.00  0.00     0.023 A 
ATOM      5  C4  UNL d   1      -0.105   2.035   0.159  0.00  0.00     0.048 A 
ATOM      6  C5  UNL d   1       1.281   1.876   0.104  0.00  0.00     0.003 A 
ATOM      7  I   UNL d   1      -2.998   1.153   0.096  0.00  0.00    -0.146 I 
ENDROOT
TORSDOF 0
ENDMDL
