MODEL 1
REMARK minimizedAffinity 6.64134693
REMARK minimizedRMSD -1
REMARK  0 active torsions:
REMARK  status: ('A' for Active; 'I' for Inactive)
ROOT
ATOM      1  C   UNL d   1       2.075   2.406  -0.387  0.00  0.00    -0.002 A 
ATOM      2  C1  UNL d   1       1.389   3.063   0.625  0.00  0.00     0.010 A 
ATOM      3  C2  UNL d   1       0.376   2.413   1.334  0.00  0.00     0.041 A 
ATOM      4  C3  UNL d   1       0.064   1.079   1.007  0.00  0.00    -0.075 A 
ATOM      5  S   UNL d   1      -1.137   0.083   1.741  0.00  0.00     0.015 SA
ATOM      6  C4  UNL d   1      -0.767  -1.238   0.729  0.00  0.00     0.022 A 
ATOM      7  C5  UNL d   1       0.245  -0.943  -0.153  0.00  0.00     0.026 A 
ATOM      8  C6  UNL d   1       0.741   0.397  -0.007  0.00  0.00    -0.082 A 
ATOM      9  C7  UNL d   1       1.762   1.083  -0.709  0.00  0.00     0.045 A 
ENDROOT
TORSDOF 0
ENDMDL
