MODEL 1
REMARK minimizedAffinity 3.43338537
REMARK minimizedRMSD -1
REMARK  0 active torsions:
REMARK  status: ('A' for Active; 'I' for Inactive)
ROOT
ATOM      1  C   UNL d   1       1.572  -0.475  -0.164  0.00  0.00    -0.002 A 
ATOM      2  C1  UNL d   1       1.114   0.487   0.725  0.00  0.00     0.010 A 
ATOM      3  C2  UNL d   1      -0.024   0.253   1.500  0.00  0.00     0.041 A 
ATOM      4  C3  UNL d   1      -0.699  -0.976   1.366  0.00  0.00    -0.075 A 
ATOM      5  S   UNL d   1      -2.113  -1.483   2.213  0.00  0.00     0.015 SA
ATOM      6  C4  UNL d   1      -2.141  -2.989   1.414  0.00  0.00     0.022 A 
ATOM      7  C5  UNL d   1      -1.105  -3.118   0.521  0.00  0.00     0.026 A 
ATOM      8  C6  UNL d   1      -0.256  -1.961   0.478  0.00  0.00    -0.082 A 
ATOM      9  C7  UNL d   1       0.900  -1.693  -0.294  0.00  0.00     0.045 A 
ENDROOT
TORSDOF 0
ENDMDL
