MODEL 1
REMARK minimizedAffinity 22.4826355
REMARK minimizedRMSD -1
REMARK  0 active torsions:
REMARK  status: ('A' for Active; 'I' for Inactive)
ROOT
ATOM      1  C   UNL d   1       2.786   0.425  -0.535  0.00  0.00    -0.002 A 
ATOM      2  C1  UNL d   1       2.094   1.243   0.347  0.00  0.00     0.010 A 
ATOM      3  C2  UNL d   1       1.221   2.223  -0.129  0.00  0.00     0.041 A 
ATOM      4  C3  UNL d   1       1.053   2.368  -1.520  0.00  0.00    -0.075 A 
ATOM      5  S   UNL d   1       0.036   3.499  -2.332  0.00  0.00     0.015 SA
ATOM      6  C4  UNL d   1       0.496   2.924  -3.869  0.00  0.00     0.022 A 
ATOM      7  C5  UNL d   1       1.403   1.894  -3.783  0.00  0.00     0.026 A 
ATOM      8  C6  UNL d   1       1.738   1.556  -2.428  0.00  0.00    -0.082 A 
ATOM      9  C7  UNL d   1       2.617   0.572  -1.914  0.00  0.00     0.045 A 
ENDROOT
TORSDOF 0
ENDMDL
