MODEL 1
REMARK minimizedAffinity 1.54631221
REMARK minimizedRMSD -1
REMARK  0 active torsions:
REMARK  status: ('A' for Active; 'I' for Inactive)
ROOT
ATOM      1  C   UNL d   1       0.655   1.956   1.717  0.00  0.00    -0.002 A 
ATOM      2  C1  UNL d   1      -0.019   0.760   1.913  0.00  0.00     0.010 A 
ATOM      3  C2  UNL d   1      -0.236  -0.117   0.848  0.00  0.00     0.041 A 
ATOM      4  C3  UNL d   1       0.244   0.231  -0.430  0.00  0.00    -0.075 A 
ATOM      5  S   UNL d   1       0.097  -0.687  -1.881  0.00  0.00     0.015 SA
ATOM      6  C4  UNL d   1       0.926   0.487  -2.797  0.00  0.00     0.022 A 
ATOM      7  C5  UNL d   1       1.313   1.561  -2.029  0.00  0.00     0.026 A 
ATOM      8  C6  UNL d   1       0.927   1.431  -0.652  0.00  0.00    -0.082 A 
ATOM      9  C7  UNL d   1       1.129   2.299   0.447  0.00  0.00     0.045 A 
ENDROOT
TORSDOF 0
ENDMDL
