MODEL 1
REMARK minimizedAffinity 2.92498326
REMARK minimizedRMSD -1
REMARK  0 active torsions:
REMARK  status: ('A' for Active; 'I' for Inactive)
ROOT
ATOM      1  C   UNL d   1       2.046   2.067  -1.105  0.00  0.00    -0.002 A 
ATOM      2  C1  UNL d   1       1.821   2.986  -0.089  0.00  0.00     0.010 A 
ATOM      3  C2  UNL d   1       1.050   2.640   1.022  0.00  0.00     0.041 A 
ATOM      4  C3  UNL d   1       0.505   1.343   1.097  0.00  0.00    -0.075 A 
ATOM      5  S   UNL d   1      -0.470   0.697   2.364  0.00  0.00     0.015 SA
ATOM      6  C4  UNL d   1      -0.610  -0.814   1.587  0.00  0.00     0.022 A 
ATOM      7  C5  UNL d   1       0.065  -0.842   0.389  0.00  0.00     0.026 A 
ATOM      8  C6  UNL d   1       0.719   0.400   0.087  0.00  0.00    -0.082 A 
ATOM      9  C7  UNL d   1       1.504   0.782  -1.027  0.00  0.00     0.045 A 
ENDROOT
TORSDOF 0
ENDMDL
