MODEL 1
REMARK minimizedAffinity 10.2817497
REMARK minimizedRMSD -1
REMARK  0 active torsions:
REMARK  status: ('A' for Active; 'I' for Inactive)
ROOT
ATOM      1  C   UNL d   1       1.997   1.891   1.053  0.00  0.00    -0.002 A 
ATOM      2  C1  UNL d   1       1.344   2.229  -0.124  0.00  0.00     0.010 A 
ATOM      3  C2  UNL d   1       0.071   1.727  -0.400  0.00  0.00     0.041 A 
ATOM      4  C3  UNL d   1      -0.542   0.872   0.537  0.00  0.00    -0.075 A 
ATOM      5  S   UNL d   1      -2.097   0.138   0.413  0.00  0.00     0.015 SA
ATOM      6  C4  UNL d   1      -1.932  -0.641   1.920  0.00  0.00     0.022 A 
ATOM      7  C5  UNL d   1      -0.727  -0.360   2.517  0.00  0.00     0.026 A 
ATOM      8  C6  UNL d   1       0.094   0.518   1.730  0.00  0.00    -0.082 A 
ATOM      9  C7  UNL d   1       1.385   1.043   1.980  0.00  0.00     0.045 A 
ENDROOT
TORSDOF 0
ENDMDL
