MODEL 1
REMARK minimizedAffinity 7.25996304
REMARK minimizedRMSD -1
REMARK  0 active torsions:
REMARK  status: ('A' for Active; 'I' for Inactive)
ROOT
ATOM      1  C   UNL d   1       2.081   2.908  -0.685  0.00  0.00    -0.002 A 
ATOM      2  C1  UNL d   1       1.467   3.690   0.282  0.00  0.00     0.010 A 
ATOM      3  C2  UNL d   1       0.553   3.128   1.176  0.00  0.00     0.041 A 
ATOM      4  C3  UNL d   1       0.266   1.752   1.081  0.00  0.00    -0.075 A 
ATOM      5  S   UNL d   1      -0.819   0.846   2.068  0.00  0.00     0.015 SA
ATOM      6  C4  UNL d   1      -0.492  -0.601   1.230  0.00  0.00     0.022 A 
ATOM      7  C5  UNL d   1       0.420  -0.416   0.218  0.00  0.00     0.026 A 
ATOM      8  C6  UNL d   1       0.872   0.943   0.116  0.00  0.00    -0.082 A 
ATOM      9  C7  UNL d   1       1.794   1.543  -0.776  0.00  0.00     0.045 A 
ENDROOT
TORSDOF 0
ENDMDL
