MODEL 1
REMARK minimizedAffinity 5.2352891
REMARK minimizedRMSD -1
REMARK  0 active torsions:
REMARK  status: ('A' for Active; 'I' for Inactive)
ROOT
ATOM      1  C   UNL d   1       1.522   1.792  -0.975  0.00  0.00    -0.002 A 
ATOM      2  C1  UNL d   1       1.915   2.634   0.057  0.00  0.00     0.010 A 
ATOM      3  C2  UNL d   1       1.353   2.508   1.329  0.00  0.00     0.041 A 
ATOM      4  C3  UNL d   1       0.383   1.511   1.550  0.00  0.00    -0.075 A 
ATOM      5  S   UNL d   1      -0.441   1.171   3.026  0.00  0.00     0.015 SA
ATOM      6  C4  UNL d   1      -1.333  -0.100   2.323  0.00  0.00     0.022 A 
ATOM      7  C5  UNL d   1      -1.022  -0.274   0.995  0.00  0.00     0.026 A 
ATOM      8  C6  UNL d   1      -0.028   0.651   0.527  0.00  0.00    -0.082 A 
ATOM      9  C7  UNL d   1       0.559   0.805  -0.752  0.00  0.00     0.045 A 
ENDROOT
TORSDOF 0
ENDMDL
