MODEL 1
REMARK minimizedAffinity 3.77970576
REMARK minimizedRMSD -1
REMARK  0 active torsions:
REMARK  status: ('A' for Active; 'I' for Inactive)
ROOT
ATOM      1  C   UNL d   1       1.518   3.291   0.797  0.00  0.00    -0.002 A 
ATOM      2  C1  UNL d   1       1.249   2.500   1.905  0.00  0.00     0.010 A 
ATOM      3  C2  UNL d   1       0.843   1.173   1.748  0.00  0.00     0.041 A 
ATOM      4  C3  UNL d   1       0.712   0.650   0.447  0.00  0.00    -0.075 A 
ATOM      5  S   UNL d   1       0.230  -0.948   0.012  0.00  0.00     0.015 SA
ATOM      6  C4  UNL d   1       0.371  -0.617  -1.654  0.00  0.00     0.022 A 
ATOM      7  C5  UNL d   1       0.774   0.675  -1.891  0.00  0.00     0.026 A 
ATOM      8  C6  UNL d   1       0.978   1.427  -0.684  0.00  0.00    -0.082 A 
ATOM      9  C7  UNL d   1       1.387   2.769  -0.492  0.00  0.00     0.045 A 
ENDROOT
TORSDOF 0
ENDMDL
