MODEL 1
REMARK minimizedAffinity 9.36463642
REMARK minimizedRMSD -1
REMARK  0 active torsions:
REMARK  status: ('A' for Active; 'I' for Inactive)
ROOT
ATOM      1  C   UNL d   1      -0.525   1.607   3.465  0.00  0.00    -0.002 A 
ATOM      2  C1  UNL d   1      -1.566   0.948   2.827  0.00  0.00     0.010 A 
ATOM      3  C2  UNL d   1      -1.392   0.416   1.548  0.00  0.00     0.041 A 
ATOM      4  C3  UNL d   1      -0.142   0.557   0.915  0.00  0.00    -0.075 A 
ATOM      5  S   UNL d   1       0.302  -0.015  -0.649  0.00  0.00     0.015 SA
ATOM      6  C4  UNL d   1       1.885   0.601  -0.508  0.00  0.00     0.022 A 
ATOM      7  C5  UNL d   1       2.087   1.231   0.698  0.00  0.00     0.026 A 
ATOM      8  C6  UNL d   1       0.923   1.216   1.538  0.00  0.00    -0.082 A 
ATOM      9  C7  UNL d   1       0.714   1.745   2.834  0.00  0.00     0.045 A 
ENDROOT
TORSDOF 0
ENDMDL
