MODEL 1
REMARK minimizedAffinity -1.62995505
REMARK minimizedRMSD -1
REMARK  0 active torsions:
REMARK  status: ('A' for Active; 'I' for Inactive)
ROOT
ATOM      1  O1  BZF d   1       1.749  -0.654  -0.316  0.00  0.00    -0.204 OA
ATOM      2  C2  BZF d   1       2.646   0.094   0.423  0.00  0.00     0.174 A 
ATOM      3  C3  BZF d   1       1.997   0.958   1.230  0.00  0.00    -0.012 A 
ATOM      4  C3A BZF d   1       0.607   0.672   1.047  0.00  0.00    -0.107 A 
ATOM      5  C4  BZF d   1      -0.537   1.187   1.588  0.00  0.00     0.055 A 
ATOM      6  C5  BZF d   1      -1.739   0.737   1.142  0.00  0.00    -0.016 A 
ATOM      7  C6  BZF d   1      -1.835  -0.221   0.154  0.00  0.00     0.022 A 
ATOM      8  C7  BZF d   1      -0.728  -0.765  -0.409  0.00  0.00     0.029 A 
ATOM      9  C7A BZF d   1       0.488  -0.337   0.063  0.00  0.00     0.058 A 
ENDROOT
TORSDOF 0
ENDMDL
