MODEL 1
REMARK minimizedAffinity 1.83116508
REMARK minimizedRMSD -1
REMARK  0 active torsions:
REMARK  status: ('A' for Active; 'I' for Inactive)
ROOT
ATOM      1  O1  BZF d   1       1.121  -1.085  -0.430  0.00  0.00    -0.204 OA
ATOM      2  C2  BZF d   1       2.041  -0.696   0.524  0.00  0.00     0.174 A 
ATOM      3  C3  BZF d   1       1.443   0.014   1.503  0.00  0.00    -0.012 A 
ATOM      4  C3A BZF d   1       0.048  -0.007   1.185  0.00  0.00    -0.107 A 
ATOM      5  C4  BZF d   1      -1.061   0.512   1.789  0.00  0.00     0.055 A 
ATOM      6  C5  BZF d   1      -2.269   0.376   1.182  0.00  0.00    -0.016 A 
ATOM      7  C6  BZF d   1      -2.404  -0.267  -0.031  0.00  0.00     0.022 A 
ATOM      8  C7  BZF d   1      -1.333  -0.802  -0.667  0.00  0.00     0.029 A 
ATOM      9  C7A BZF d   1      -0.116  -0.695  -0.039  0.00  0.00     0.058 A 
ENDROOT
TORSDOF 0
ENDMDL
