MODEL 1
REMARK minimizedAffinity -5.96421432
REMARK minimizedRMSD -1
REMARK  0 active torsions:
REMARK  status: ('A' for Active; 'I' for Inactive)
ROOT
ATOM      1  O1  BZF d   1      -1.491   0.515   2.138  0.00  0.00    -0.204 OA
ATOM      2  C2  BZF d   1      -0.688   0.908   3.191  0.00  0.00     0.174 A 
ATOM      3  C3  BZF d   1       0.616   0.794   2.865  0.00  0.00    -0.012 A 
ATOM      4  C3A BZF d   1       0.628   0.387   1.494  0.00  0.00    -0.107 A 
ATOM      5  C4  BZF d   1       1.627   0.124   0.601  0.00  0.00     0.055 A 
ATOM      6  C5  BZF d   1       1.303  -0.323  -0.641  0.00  0.00    -0.016 A 
ATOM      7  C6  BZF d   1      -0.008  -0.523  -1.021  0.00  0.00     0.022 A 
ATOM      8  C7  BZF d   1      -1.034  -0.271  -0.172  0.00  0.00     0.029 A 
ATOM      9  C7A BZF d   1      -0.711   0.212   1.073  0.00  0.00     0.058 A 
ENDROOT
TORSDOF 0
ENDMDL
