MODEL 1
REMARK minimizedAffinity -6.27460194
REMARK minimizedRMSD -1
REMARK  0 active torsions:
REMARK  status: ('A' for Active; 'I' for Inactive)
ROOT
ATOM      1  O1  BZF d   1      -0.450   0.797   2.107  0.00  0.00    -0.204 OA
ATOM      2  C2  BZF d   1       0.366   0.975   3.207  0.00  0.00     0.174 A 
ATOM      3  C3  BZF d   1       1.617   0.540   2.951  0.00  0.00    -0.012 A 
ATOM      4  C3A BZF d   1       1.603   0.145   1.576  0.00  0.00    -0.107 A 
ATOM      5  C4  BZF d   1       2.554  -0.357   0.734  0.00  0.00     0.055 A 
ATOM      6  C5  BZF d   1       2.198  -0.707  -0.530  0.00  0.00    -0.016 A 
ATOM      7  C6  BZF d   1       0.902  -0.573  -0.983  0.00  0.00     0.022 A 
ATOM      8  C7  BZF d   1      -0.074  -0.075  -0.187  0.00  0.00     0.029 A 
ATOM      9  C7A BZF d   1       0.289   0.311   1.081  0.00  0.00     0.058 A 
ENDROOT
TORSDOF 0
ENDMDL
