MODEL 1
REMARK minimizedAffinity -5.9065218
REMARK minimizedRMSD -1
REMARK  0 active torsions:
REMARK  status: ('A' for Active; 'I' for Inactive)
ROOT
ATOM      1  O1  BZF d   1       1.971   0.061   0.714  0.00  0.00    -0.204 OA
ATOM      2  C2  BZF d   1       2.171  -0.840  -0.314  0.00  0.00     0.174 A 
ATOM      3  C3  BZF d   1       0.993  -1.267  -0.812  0.00  0.00    -0.012 A 
ATOM      4  C3A BZF d   1      -0.005  -0.521  -0.109  0.00  0.00    -0.107 A 
ATOM      5  C4  BZF d   1      -1.369  -0.487  -0.171  0.00  0.00     0.055 A 
ATOM      6  C5  BZF d   1      -2.050   0.300   0.703  0.00  0.00    -0.016 A 
ATOM      7  C6  BZF d   1      -1.401   1.061   1.653  0.00  0.00     0.022 A 
ATOM      8  C7  BZF d   1      -0.049   1.064   1.749  0.00  0.00     0.029 A 
ATOM      9  C7A BZF d   1       0.643   0.295   0.846  0.00  0.00     0.058 A 
ENDROOT
TORSDOF 0
ENDMDL
