MODEL 1
REMARK minimizedAffinity -4.11682892
REMARK minimizedRMSD -1
REMARK  0 active torsions:
REMARK  status: ('A' for Active; 'I' for Inactive)
ROOT
ATOM      1  O1  BZF d   1       1.153   0.541   0.975  0.00  0.00    -0.204 OA
ATOM      2  C2  BZF d   1       1.672  -0.340   0.046  0.00  0.00     0.174 A 
ATOM      3  C3  BZF d   1       0.691  -1.077  -0.514  0.00  0.00    -0.012 A 
ATOM      4  C3A BZF d   1      -0.526  -0.565   0.037  0.00  0.00    -0.107 A 
ATOM      5  C4  BZF d   1      -1.843  -0.877  -0.143  0.00  0.00     0.055 A 
ATOM      6  C5  BZF d   1      -2.782  -0.236   0.601  0.00  0.00    -0.016 A 
ATOM      7  C6  BZF d   1      -2.439   0.717   1.538  0.00  0.00     0.022 A 
ATOM      8  C7  BZF d   1      -1.146   1.064   1.748  0.00  0.00     0.029 A 
ATOM      9  C7A BZF d   1      -0.198   0.442   0.974  0.00  0.00     0.058 A 
ENDROOT
TORSDOF 0
ENDMDL
