MODEL 1
REMARK minimizedAffinity -3.31147337
REMARK minimizedRMSD -1
REMARK  0 active torsions:
REMARK  status: ('A' for Active; 'I' for Inactive)
ROOT
ATOM      1  O1  BZF d   1       2.382  -0.768   1.822  0.00  0.00    -0.204 OA
ATOM      2  C2  BZF d   1       2.175  -0.587   3.176  0.00  0.00     0.174 A 
ATOM      3  C3  BZF d   1       0.918  -0.161   3.415  0.00  0.00    -0.012 A 
ATOM      4  C3A BZF d   1       0.272  -0.158   2.139  0.00  0.00    -0.107 A 
ATOM      5  C4  BZF d   1      -0.992   0.154   1.727  0.00  0.00     0.055 A 
ATOM      6  C5  BZF d   1      -1.281   0.122   0.399  0.00  0.00    -0.016 A 
ATOM      7  C6  BZF d   1      -0.330  -0.212  -0.543  0.00  0.00     0.022 A 
ATOM      8  C7  BZF d   1       0.936  -0.534  -0.182  0.00  0.00     0.029 A 
ATOM      9  C7A BZF d   1       1.222  -0.535   1.162  0.00  0.00     0.058 A 
ENDROOT
TORSDOF 0
ENDMDL
