MODEL 1
REMARK minimizedAffinity 0.448262483
REMARK minimizedRMSD -1
REMARK  0 active torsions:
REMARK  status: ('A' for Active; 'I' for Inactive)
ROOT
ATOM      1  O1  BZF d   1      -0.853  -0.503   0.244  0.00  0.00    -0.204 OA
ATOM      2  C2  BZF d   1       0.442  -0.511  -0.236  0.00  0.00     0.174 A 
ATOM      3  C3  BZF d   1       1.308  -0.112   0.718  0.00  0.00    -0.012 A 
ATOM      4  C3A BZF d   1       0.514   0.074   1.893  0.00  0.00    -0.107 A 
ATOM      5  C4  BZF d   1       0.805   0.451   3.173  0.00  0.00     0.055 A 
ATOM      6  C5  BZF d   1      -0.210   0.607   4.063  0.00  0.00    -0.016 A 
ATOM      7  C6  BZF d   1      -1.526   0.400   3.706  0.00  0.00     0.022 A 
ATOM      8  C7  BZF d   1      -1.864   0.021   2.450  0.00  0.00     0.029 A 
ATOM      9  C7A BZF d   1      -0.838  -0.170   1.557  0.00  0.00     0.058 A 
ENDROOT
TORSDOF 0
ENDMDL
