MODEL 1
REMARK minimizedAffinity -5.25243235
REMARK minimizedRMSD -1
REMARK  0 active torsions:
REMARK  status: ('A' for Active; 'I' for Inactive)
ROOT
ATOM      1  O1  BZF d   1       1.692  -0.406   0.080  0.00  0.00    -0.204 OA
ATOM      2  C2  BZF d   1       1.412  -0.370  -1.272  0.00  0.00     0.174 A 
ATOM      3  C3  BZF d   1       0.115  -0.068  -1.484  0.00  0.00    -0.012 A 
ATOM      4  C3A BZF d   1      -0.430   0.186  -0.186  0.00  0.00    -0.107 A 
ATOM      5  C4  BZF d   1      -1.669   0.549   0.258  0.00  0.00     0.055 A 
ATOM      6  C5  BZF d   1      -1.890   0.643   1.596  0.00  0.00    -0.016 A 
ATOM      7  C6  BZF d   1      -0.898   0.377   2.516  0.00  0.00     0.022 A 
ATOM      8  C7  BZF d   1       0.349   0.019   2.124  0.00  0.00     0.029 A 
ATOM      9  C7A BZF d   1       0.584  -0.046   0.772  0.00  0.00     0.058 A 
ENDROOT
TORSDOF 0
ENDMDL
