MODEL 1
REMARK minimizedAffinity -6.29763746
REMARK minimizedRMSD -1
REMARK  0 active torsions:
REMARK  status: ('A' for Active; 'I' for Inactive)
ROOT
ATOM      1  C2' OXE d   1      -0.665   2.541   0.521  0.00  0.00     0.078 C 
ATOM      2  C1' OXE d   1      -0.491   5.051   1.766  0.00  0.00     0.078 C 
ATOM      3  C1  OXE d   1      -1.436   4.909   0.599  0.00  0.00    -0.078 A 
ATOM      4  C2  OXE d   1      -1.480   3.689  -0.033  0.00  0.00    -0.078 A 
ATOM      5  C3  OXE d   1      -2.375   3.488  -1.080  0.00  0.00     0.003 A 
ATOM      6  C4  OXE d   1      -3.118   4.558  -1.594  0.00  0.00    -0.002 A 
ATOM      7  C5  OXE d   1      -3.058   5.818  -0.990  0.00  0.00    -0.002 A 
ATOM      8  C6  OXE d   1      -2.256   5.999   0.132  0.00  0.00     0.003 A 
ENDROOT
TORSDOF 0
ENDMDL
