MODEL 1
REMARK minimizedAffinity -5.52757835
REMARK minimizedRMSD -1
REMARK  0 active torsions:
REMARK  status: ('A' for Active; 'I' for Inactive)
ROOT
ATOM      1  C2' OXE d   1       2.079  -0.520   2.178  0.00  0.00     0.078 C 
ATOM      2  C1' OXE d   1      -0.020   1.204   1.469  0.00  0.00     0.078 C 
ATOM      3  C1  OXE d   1      -0.135  -0.246   1.069  0.00  0.00    -0.078 A 
ATOM      4  C2  OXE d   1       0.919  -1.073   1.379  0.00  0.00    -0.078 A 
ATOM      5  C3  OXE d   1       0.840  -2.430   1.081  0.00  0.00     0.003 A 
ATOM      6  C4  OXE d   1      -0.232  -2.931   0.334  0.00  0.00    -0.002 A 
ATOM      7  C5  OXE d   1      -1.297  -2.098  -0.027  0.00  0.00    -0.002 A 
ATOM      8  C6  OXE d   1      -1.284  -0.765   0.369  0.00  0.00     0.003 A 
ENDROOT
TORSDOF 0
ENDMDL
