MODEL 1
REMARK minimizedAffinity -2.69892192
REMARK minimizedRMSD -1
REMARK  0 active torsions:
REMARK  status: ('A' for Active; 'I' for Inactive)
ROOT
ATOM      1  C2' OXE d   1      -0.645  -1.544  -0.063  0.00  0.00     0.078 C 
ATOM      2  C1' OXE d   1       0.932  -0.422   1.970  0.00  0.00     0.078 C 
ATOM      3  C1  OXE d   1       0.603   0.441   0.778  0.00  0.00    -0.078 A 
ATOM      4  C2  OXE d   1      -0.130  -0.132  -0.234  0.00  0.00    -0.078 A 
ATOM      5  C3  OXE d   1      -0.507   0.637  -1.332  0.00  0.00     0.003 A 
ATOM      6  C4  OXE d   1      -0.018   1.940  -1.487  0.00  0.00    -0.002 A 
ATOM      7  C5  OXE d   1       0.763   2.529  -0.487  0.00  0.00    -0.002 A 
ATOM      8  C6  OXE d   1       1.046   1.809   0.669  0.00  0.00     0.003 A 
ENDROOT
TORSDOF 0
ENDMDL
