MODEL 1
REMARK minimizedAffinity -0.282671392
REMARK minimizedRMSD -1
REMARK  0 active torsions:
REMARK  status: ('A' for Active; 'I' for Inactive)
ROOT
ATOM      1  C2' OXE d   1       3.335   3.810   0.622  0.00  0.00     0.078 C 
ATOM      2  C1' OXE d   1       1.286   2.156  -0.351  0.00  0.00     0.078 C 
ATOM      3  C1  OXE d   1       0.926   3.182   0.695  0.00  0.00    -0.078 A 
ATOM      4  C2  OXE d   1       1.944   3.956   1.199  0.00  0.00    -0.078 A 
ATOM      5  C3  OXE d   1       1.657   4.955   2.125  0.00  0.00     0.003 A 
ATOM      6  C4  OXE d   1       0.369   5.076   2.660  0.00  0.00    -0.002 A 
ATOM      7  C5  OXE d   1      -0.675   4.272   2.190  0.00  0.00    -0.002 A 
ATOM      8  C6  OXE d   1      -0.422   3.351   1.179  0.00  0.00     0.003 A 
ENDROOT
TORSDOF 0
ENDMDL
