MODEL 1
REMARK minimizedAffinity -4.16598368
REMARK minimizedRMSD -1
REMARK  0 active torsions:
REMARK  status: ('A' for Active; 'I' for Inactive)
ROOT
ATOM      1  C2' OXE d   1       1.103   3.256  -0.773  0.00  0.00     0.078 C 
ATOM      2  C1' OXE d   1      -1.208   3.706   0.755  0.00  0.00     0.078 C 
ATOM      3  C1  OXE d   1      -0.841   2.277   0.439  0.00  0.00    -0.078 A 
ATOM      4  C2  OXE d   1       0.265   2.069  -0.349  0.00  0.00    -0.078 A 
ATOM      5  C3  OXE d   1       0.680   0.769  -0.625  0.00  0.00     0.003 A 
ATOM      6  C4  OXE d   1      -0.106  -0.323  -0.237  0.00  0.00    -0.002 A 
ATOM      7  C5  OXE d   1      -1.258  -0.131   0.532  0.00  0.00    -0.002 A 
ATOM      8  C6  OXE d   1      -1.616   1.158   0.914  0.00  0.00     0.003 A 
ENDROOT
TORSDOF 0
ENDMDL
