MODEL 1
REMARK minimizedAffinity -5.01079321
REMARK minimizedRMSD -1
REMARK  0 active torsions:
REMARK  status: ('A' for Active; 'I' for Inactive)
ROOT
ATOM      1  C2' OXE d   1      -1.740   3.395   0.194  0.00  0.00     0.078 C 
ATOM      2  C1' OXE d   1       0.360   3.115  -1.648  0.00  0.00     0.078 C 
ATOM      3  C1  OXE d   1      -0.222   1.860  -1.048  0.00  0.00    -0.078 A 
ATOM      4  C2  OXE d   1      -1.217   2.008  -0.113  0.00  0.00    -0.078 A 
ATOM      5  C3  OXE d   1      -1.826   0.881   0.431  0.00  0.00     0.003 A 
ATOM      6  C4  OXE d   1      -1.330  -0.398   0.149  0.00  0.00    -0.002 A 
ATOM      7  C5  OXE d   1      -0.290  -0.570  -0.771  0.00  0.00    -0.002 A 
ATOM      8  C6  OXE d   1       0.245   0.544  -1.409  0.00  0.00     0.003 A 
ENDROOT
TORSDOF 0
ENDMDL
