MODEL 1
REMARK minimizedAffinity -4.80829716
REMARK minimizedRMSD -1
REMARK  0 active torsions:
REMARK  status: ('A' for Active; 'I' for Inactive)
ROOT
ATOM      1  C2' OXE d   1       0.769   2.471  -0.972  0.00  0.00     0.078 C 
ATOM      2  C1' OXE d   1       2.738   3.704   0.603  0.00  0.00     0.078 C 
ATOM      3  C1  OXE d   1       1.295   4.004   0.919  0.00  0.00    -0.078 A 
ATOM      4  C2  OXE d   1       0.339   3.433   0.113  0.00  0.00    -0.078 A 
ATOM      5  C3  OXE d   1      -1.009   3.634   0.395  0.00  0.00     0.003 A 
ATOM      6  C4  OXE d   1      -1.399   4.534   1.395  0.00  0.00    -0.002 A 
ATOM      7  C5  OXE d   1      -0.440   5.157   2.201  0.00  0.00    -0.002 A 
ATOM      8  C6  OXE d   1       0.906   4.871   2.004  0.00  0.00     0.003 A 
ENDROOT
TORSDOF 0
ENDMDL
