MODEL 1
REMARK minimizedAffinity -2.45717645
REMARK minimizedRMSD -1
REMARK  0 active torsions:
REMARK  status: ('A' for Active; 'I' for Inactive)
ROOT
ATOM      1  C2' OXE d   1      -1.513   2.599   0.000  0.00  0.00     0.078 C 
ATOM      2  C1' OXE d   1       0.319   1.915  -2.014  0.00  0.00     0.078 C 
ATOM      3  C1  OXE d   1      -0.104   0.834  -1.051  0.00  0.00    -0.078 A 
ATOM      4  C2  OXE d   1      -0.965   1.189  -0.041  0.00  0.00    -0.078 A 
ATOM      5  C3  OXE d   1      -1.429   0.218   0.842  0.00  0.00     0.003 A 
ATOM      6  C4  OXE d   1      -0.910  -1.082   0.803  0.00  0.00    -0.002 A 
ATOM      7  C5  OXE d   1      -0.002  -1.454  -0.194  0.00  0.00    -0.002 A 
ATOM      8  C6  OXE d   1       0.377  -0.521  -1.152  0.00  0.00     0.003 A 
ENDROOT
TORSDOF 0
ENDMDL
