MODEL 1
REMARK minimizedAffinity -0.394699931
REMARK minimizedRMSD -1
REMARK  0 active torsions:
REMARK  status: ('A' for Active; 'I' for Inactive)
ROOT
ATOM      1  C2' OXE d   1       0.593  -1.426  -2.089  0.00  0.00     0.078 C 
ATOM      2  C1' OXE d   1      -0.514  -2.192   0.374  0.00  0.00     0.078 C 
ATOM      3  C1  OXE d   1      -0.588  -0.735  -0.007  0.00  0.00    -0.078 A 
ATOM      4  C2  OXE d   1      -0.002  -0.361  -1.193  0.00  0.00    -0.078 A 
ATOM      5  C3  OXE d   1      -0.090   0.961  -1.619  0.00  0.00     0.003 A 
ATOM      6  C4  OXE d   1      -0.633   1.941  -0.780  0.00  0.00    -0.002 A 
ATOM      7  C5  OXE d   1      -1.199   1.589   0.450  0.00  0.00    -0.002 A 
ATOM      8  C6  OXE d   1      -1.223   0.252   0.831  0.00  0.00     0.003 A 
ENDROOT
TORSDOF 0
ENDMDL
