MODEL 1
REMARK minimizedAffinity -3.24813151
REMARK minimizedRMSD -1
REMARK  0 active torsions:
REMARK  status: ('A' for Active; 'I' for Inactive)
ROOT
ATOM      1  C2' OXE d   1      -1.926   2.636   0.355  0.00  0.00     0.078 C 
ATOM      2  C1' OXE d   1      -2.325   0.032   1.325  0.00  0.00     0.078 C 
ATOM      3  C1  OXE d   1      -1.312   0.225   0.224  0.00  0.00    -0.078 A 
ATOM      4  C2  OXE d   1      -1.157   1.496  -0.276  0.00  0.00    -0.078 A 
ATOM      5  C3  OXE d   1      -0.197   1.739  -1.254  0.00  0.00     0.003 A 
ATOM      6  C4  OXE d   1       0.503   0.677  -1.840  0.00  0.00    -0.002 A 
ATOM      7  C5  OXE d   1       0.332  -0.630  -1.372  0.00  0.00    -0.002 A 
ATOM      8  C6  OXE d   1      -0.539  -0.867  -0.314  0.00  0.00     0.003 A 
ENDROOT
TORSDOF 0
ENDMDL
