MODEL 1
REMARK minimizedAffinity -3.7883954
REMARK minimizedRMSD -1
REMARK  0 active torsions:
REMARK  status: ('A' for Active; 'I' for Inactive)
ROOT
ATOM      1  C2' OXE d   1      -1.584  -0.402   1.900  0.00  0.00     0.078 C 
ATOM      2  C1' OXE d   1      -0.335  -2.571   0.629  0.00  0.00     0.078 C 
ATOM      3  C1  OXE d   1      -0.446  -1.276  -0.136  0.00  0.00    -0.078 A 
ATOM      4  C2  OXE d   1      -1.100  -0.234   0.476  0.00  0.00    -0.078 A 
ATOM      5  C3  OXE d   1      -1.182   0.999  -0.164  0.00  0.00     0.003 A 
ATOM      6  C4  OXE d   1      -0.741   1.143  -1.485  0.00  0.00    -0.002 A 
ATOM      7  C5  OXE d   1      -0.107   0.083  -2.142  0.00  0.00    -0.002 A 
ATOM      8  C6  OXE d   1       0.086  -1.118  -1.468  0.00  0.00     0.003 A 
ENDROOT
TORSDOF 0
ENDMDL
