MODEL 1
REMARK minimizedAffinity -4.23068953
REMARK minimizedRMSD -1
REMARK  0 active torsions:
REMARK  status: ('A' for Active; 'I' for Inactive)
ROOT
ATOM      1  C2' OXE d   1      -1.298   5.263   1.887  0.00  0.00     0.078 C 
ATOM      2  C1' OXE d   1      -1.386   3.130   0.064  0.00  0.00     0.078 C 
ATOM      3  C1  OXE d   1      -0.032   3.600   0.533  0.00  0.00    -0.078 A 
ATOM      4  C2  OXE d   1       0.004   4.674   1.388  0.00  0.00    -0.078 A 
ATOM      5  C3  OXE d   1       1.224   5.113   1.894  0.00  0.00     0.003 A 
ATOM      6  C4  OXE d   1       2.424   4.569   1.420  0.00  0.00    -0.002 A 
ATOM      7  C5  OXE d   1       2.412   3.500   0.517  0.00  0.00    -0.002 A 
ATOM      8  C6  OXE d   1       1.194   2.977   0.098  0.00  0.00     0.003 A 
ENDROOT
TORSDOF 0
ENDMDL
