MODEL 1
REMARK minimizedAffinity -2.85162854
REMARK minimizedRMSD -1
REMARK  0 active torsions:
REMARK  status: ('A' for Active; 'I' for Inactive)
ROOT
ATOM      1  C2' OXE d   1       0.976   1.126  -1.080  0.00  0.00     0.078 C 
ATOM      2  C1' OXE d   1       3.241   0.446   0.432  0.00  0.00     0.078 C 
ATOM      3  C1  OXE d   1       3.078   1.888   0.018  0.00  0.00    -0.078 A 
ATOM      4  C2  OXE d   1       1.990   2.203  -0.760  0.00  0.00    -0.078 A 
ATOM      5  C3  OXE d   1       1.763   3.527  -1.123  0.00  0.00     0.003 A 
ATOM      6  C4  OXE d   1       2.711   4.515  -0.833  0.00  0.00    -0.002 A 
ATOM      7  C5  OXE d   1       3.846   4.208  -0.074  0.00  0.00    -0.002 A 
ATOM      8  C6  OXE d   1       4.022   2.911   0.394  0.00  0.00     0.003 A 
ENDROOT
TORSDOF 0
ENDMDL
