MODEL 1
REMARK minimizedAffinity -5.30601311
REMARK minimizedRMSD -1
REMARK  0 active torsions:
REMARK  status: ('A' for Active; 'I' for Inactive)
ROOT
ATOM      1  C2' OXE d   1      -1.112   3.018   0.483  0.00  0.00     0.078 C 
ATOM      2  C1' OXE d   1       0.680   2.497  -1.615  0.00  0.00     0.078 C 
ATOM      3  C1  OXE d   1      -0.004   1.320  -0.965  0.00  0.00    -0.078 A 
ATOM      4  C2  OXE d   1      -0.843   1.580   0.092  0.00  0.00    -0.078 A 
ATOM      5  C3  OXE d   1      -1.541   0.536   0.692  0.00  0.00     0.003 A 
ATOM      6  C4  OXE d   1      -1.279  -0.791   0.331  0.00  0.00    -0.002 A 
ATOM      7  C5  OXE d   1      -0.397  -1.081  -0.716  0.00  0.00    -0.002 A 
ATOM      8  C6  OXE d   1       0.215  -0.037  -1.401  0.00  0.00     0.003 A 
ENDROOT
TORSDOF 0
ENDMDL
