MODEL 1
REMARK minimizedAffinity -4.61101055
REMARK minimizedRMSD -1
REMARK  0 active torsions:
REMARK  status: ('A' for Active; 'I' for Inactive)
ROOT
ATOM      1  C2' OXE d   1      -1.201   2.863   0.688  0.00  0.00     0.078 C 
ATOM      2  C1' OXE d   1       0.685   2.467  -1.353  0.00  0.00     0.078 C 
ATOM      3  C1  OXE d   1      -0.018   1.253  -0.800  0.00  0.00    -0.078 A 
ATOM      4  C2  OXE d   1      -0.905   1.451   0.231  0.00  0.00    -0.078 A 
ATOM      5  C3  OXE d   1      -1.621   0.371   0.741  0.00  0.00     0.003 A 
ATOM      6  C4  OXE d   1      -1.335  -0.932   0.320  0.00  0.00    -0.002 A 
ATOM      7  C5  OXE d   1      -0.406  -1.160  -0.702  0.00  0.00    -0.002 A 
ATOM      8  C6  OXE d   1       0.228  -0.077  -1.300  0.00  0.00     0.003 A 
ENDROOT
TORSDOF 0
ENDMDL
