MODEL 1
REMARK minimizedAffinity -2.82120204
REMARK minimizedRMSD -1
REMARK  0 active torsions:
REMARK  status: ('A' for Active; 'I' for Inactive)
ROOT
ATOM      1  C2' OXE d   1      -2.067  -0.289   1.878  0.00  0.00     0.078 C 
ATOM      2  C1' OXE d   1      -0.920  -2.616   0.807  0.00  0.00     0.078 C 
ATOM      3  C1  OXE d   1      -0.755  -1.331   0.035  0.00  0.00    -0.078 A 
ATOM      4  C2  OXE d   1      -1.359  -0.206   0.543  0.00  0.00    -0.078 A 
ATOM      5  C3  OXE d   1      -1.192   1.016  -0.101  0.00  0.00     0.003 A 
ATOM      6  C4  OXE d   1      -0.544   1.082  -1.340  0.00  0.00    -0.002 A 
ATOM      7  C5  OXE d   1       0.045  -0.060  -1.895  0.00  0.00    -0.002 A 
ATOM      8  C6  OXE d   1      -0.015  -1.263  -1.201  0.00  0.00     0.003 A 
ENDROOT
TORSDOF 0
ENDMDL
