MODEL 1
REMARK minimizedAffinity -4.4623065
REMARK minimizedRMSD -1
REMARK  0 active torsions:
REMARK  status: ('A' for Active; 'I' for Inactive)
ROOT
ATOM      1  C2' OXE d   1       0.389  -1.302  -2.172  0.00  0.00     0.078 C 
ATOM      2  C1' OXE d   1      -0.616  -2.026   0.347  0.00  0.00     0.078 C 
ATOM      3  C1  OXE d   1      -0.608  -0.561  -0.012  0.00  0.00    -0.078 A 
ATOM      4  C2  OXE d   1      -0.071  -0.211  -1.228  0.00  0.00    -0.078 A 
ATOM      5  C3  OXE d   1      -0.089   1.120  -1.632  0.00  0.00     0.003 A 
ATOM      6  C4  OXE d   1      -0.507   2.124  -0.750  0.00  0.00    -0.002 A 
ATOM      7  C5  OXE d   1      -1.020   1.793   0.509  0.00  0.00    -0.002 A 
ATOM      8  C6  OXE d   1      -1.117   0.455   0.875  0.00  0.00     0.003 A 
ENDROOT
TORSDOF 0
ENDMDL
