MODEL 1
REMARK minimizedAffinity -4.28484201
REMARK minimizedRMSD -1
REMARK  0 active torsions:
REMARK  status: ('A' for Active; 'I' for Inactive)
ROOT
ATOM      1  C2' OXE d   1       0.798  -1.536  -1.970  0.00  0.00     0.078 C 
ATOM      2  C1' OXE d   1      -0.365  -2.526   0.385  0.00  0.00     0.078 C 
ATOM      3  C1  OXE d   1      -0.576  -1.070   0.054  0.00  0.00    -0.078 A 
ATOM      4  C2  OXE d   1       0.035  -0.583  -1.076  0.00  0.00    -0.078 A 
ATOM      5  C3  OXE d   1      -0.173   0.740  -1.457  0.00  0.00     0.003 A 
ATOM      6  C4  OXE d   1      -0.872   1.617  -0.619  0.00  0.00    -0.002 A 
ATOM      7  C5  OXE d   1      -1.469   1.151   0.557  0.00  0.00    -0.002 A 
ATOM      8  C6  OXE d   1      -1.367  -0.196   0.886  0.00  0.00     0.003 A 
ENDROOT
TORSDOF 0
ENDMDL
