MODEL 1
REMARK minimizedAffinity -2.96643543
REMARK minimizedRMSD -1
REMARK  0 active torsions:
REMARK  status: ('A' for Active; 'I' for Inactive)
ROOT
ATOM      1  C2' OXE d   1      -0.764  -0.103   0.684  0.00  0.00     0.078 C 
ATOM      2  C1' OXE d   1      -0.248   1.202  -1.747  0.00  0.00     0.078 C 
ATOM      3  C1  OXE d   1       0.269   1.841  -0.483  0.00  0.00    -0.078 A 
ATOM      4  C2  OXE d   1      -0.028   1.220   0.707  0.00  0.00    -0.078 A 
ATOM      5  C3  OXE d   1       0.471   1.737   1.898  0.00  0.00     0.003 A 
ATOM      6  C4  OXE d   1       1.142   2.966   1.911  0.00  0.00    -0.002 A 
ATOM      7  C5  OXE d   1       1.421   3.635   0.715  0.00  0.00    -0.002 A 
ATOM      8  C6  OXE d   1       1.029   3.066  -0.492  0.00  0.00     0.003 A 
ENDROOT
TORSDOF 0
ENDMDL
