MODEL 1
REMARK minimizedAffinity 0.34549582
REMARK minimizedRMSD -1
REMARK  1 active torsions:
REMARK  status: ('A' for Active; 'I' for Inactive)
REMARK    1  A    between atoms: C1_2  and  C2_3 
ROOT
ATOM      1  C2  UNL d   1       0.537   0.282   0.704  0.00  0.00    -0.077 A 
ATOM      2  C3  UNL d   1       1.530   0.088   1.675  0.00  0.00     0.002 A 
ATOM      3  C4  UNL d   1       2.680   0.879   1.677  0.00  0.00     0.002 A 
ATOM      4  C5  UNL d   1       2.847   1.872   0.714  0.00  0.00    -0.004 A 
ATOM      5  C6  UNL d   1       1.866   2.071  -0.257  0.00  0.00     0.002 A 
ATOM      6  C7  UNL d   1       0.716   1.281  -0.261  0.00  0.00     0.002 A 
ENDROOT
BRANCH   1   7
ATOM      7  C1  UNL d   1      -0.727  -0.537   0.730  0.00  0.00     0.055 C 
ATOM      8  C   UNL d   1      -0.424  -2.016   0.922  0.00  0.00     0.019 C 
ENDBRANCH   1   7
TORSDOF 1
ENDMDL
