MODEL 1
REMARK minimizedAffinity 5.51210213
REMARK minimizedRMSD -1
REMARK  1 active torsions:
REMARK  status: ('A' for Active; 'I' for Inactive)
REMARK    1  A    between atoms: C1_2  and  C2_3 
ROOT
ATOM      1  C2  UNL d   1      -0.784  -2.761  -0.215  0.00  0.00    -0.077 A 
ATOM      2  C3  UNL d   1       0.126  -2.966  -1.262  0.00  0.00     0.002 A 
ATOM      3  C4  UNL d   1      -0.326  -3.072  -2.579  0.00  0.00     0.002 A 
ATOM      4  C5  UNL d   1      -1.686  -2.970  -2.861  0.00  0.00    -0.004 A 
ATOM      5  C6  UNL d   1      -2.599  -2.769  -1.827  0.00  0.00     0.002 A 
ATOM      6  C7  UNL d   1      -2.150  -2.663  -0.510  0.00  0.00     0.002 A 
ENDROOT
BRANCH   1   7
ATOM      7  C1  UNL d   1      -0.295  -2.596   1.200  0.00  0.00     0.055 C 
ATOM      8  C   UNL d   1       0.853  -1.600   1.277  0.00  0.00     0.019 C 
ENDBRANCH   1   7
TORSDOF 1
ENDMDL
