MODEL 1
REMARK minimizedAffinity 9.84244156
REMARK minimizedRMSD -1
REMARK  1 active torsions:
REMARK  status: ('A' for Active; 'I' for Inactive)
REMARK    1  A    between atoms: C1_2  and  C2_3 
ROOT
ATOM      1  C2  UNL d   1       1.036  -3.521   0.970  0.00  0.00    -0.077 A 
ATOM      2  C3  UNL d   1      -0.232  -4.074   0.740  0.00  0.00     0.002 A 
ATOM      3  C4  UNL d   1      -1.375  -3.275   0.814  0.00  0.00     0.002 A 
ATOM      4  C5  UNL d   1      -1.260  -1.919   1.113  0.00  0.00    -0.004 A 
ATOM      5  C6  UNL d   1      -0.004  -1.361   1.346  0.00  0.00     0.002 A 
ATOM      6  C7  UNL d   1       1.139  -2.158   1.273  0.00  0.00     0.002 A 
ENDROOT
BRANCH   1   7
ATOM      7  C1  UNL d   1       2.273  -4.371   0.842  0.00  0.00     0.055 C 
ATOM      8  C   UNL d   1       2.210  -5.583   1.760  0.00  0.00     0.019 C 
ENDBRANCH   1   7
TORSDOF 1
ENDMDL
