MODEL 1
REMARK minimizedAffinity 0.614031672
REMARK minimizedRMSD -1
REMARK  1 active torsions:
REMARK  status: ('A' for Active; 'I' for Inactive)
REMARK    1  A    between atoms: C1_2  and  C2_3 
ROOT
ATOM      1  C2  UNL d   1       2.425   1.972   0.722  0.00  0.00    -0.077 A 
ATOM      2  C3  UNL d   1       3.335   1.490  -0.230  0.00  0.00     0.002 A 
ATOM      3  C4  UNL d   1       3.998   0.279  -0.024  0.00  0.00     0.002 A 
ATOM      4  C5  UNL d   1       3.756  -0.462   1.131  0.00  0.00    -0.004 A 
ATOM      5  C6  UNL d   1       2.855   0.009   2.085  0.00  0.00     0.002 A 
ATOM      6  C7  UNL d   1       2.192   1.220   1.881  0.00  0.00     0.002 A 
ENDROOT
BRANCH   1   7
ATOM      7  C1  UNL d   1       1.672   3.253   0.479  0.00  0.00     0.055 C 
ATOM      8  C   UNL d   1       1.994   3.833  -0.891  0.00  0.00     0.019 C 
ENDBRANCH   1   7
TORSDOF 1
ENDMDL
