MODEL 1
REMARK minimizedAffinity -2.79615617
REMARK minimizedRMSD -1
REMARK  1 active torsions:
REMARK  status: ('A' for Active; 'I' for Inactive)
REMARK    1  A    between atoms: C1_2  and  C2_3 
ROOT
ATOM      1  C2  UNL d   1       1.906   1.993   0.323  0.00  0.00    -0.077 A 
ATOM      2  C3  UNL d   1       2.124   3.039  -0.584  0.00  0.00     0.002 A 
ATOM      3  C4  UNL d   1       1.062   3.839  -1.009  0.00  0.00     0.002 A 
ATOM      4  C5  UNL d   1      -0.225   3.604  -0.528  0.00  0.00    -0.004 A 
ATOM      5  C6  UNL d   1      -0.452   2.565   0.373  0.00  0.00     0.002 A 
ATOM      6  C7  UNL d   1       0.608   1.763   0.797  0.00  0.00     0.002 A 
ENDROOT
BRANCH   1   7
ATOM      7  C1  UNL d   1       3.059   1.160   0.820  0.00  0.00     0.055 C 
ATOM      8  C   UNL d   1       2.684   0.390   2.078  0.00  0.00     0.019 C 
ENDBRANCH   1   7
TORSDOF 1
ENDMDL
