MODEL 1
REMARK minimizedAffinity 1.19188583
REMARK minimizedRMSD -1
REMARK  1 active torsions:
REMARK  status: ('A' for Active; 'I' for Inactive)
REMARK    1  A    between atoms: C1_2  and  C2_3 
ROOT
ATOM      1  C2  UNL d   1       1.795   1.484   0.883  0.00  0.00    -0.077 A 
ATOM      2  C3  UNL d   1       0.424   1.773   0.825  0.00  0.00     0.002 A 
ATOM      3  C4  UNL d   1      -0.043   2.830   0.042  0.00  0.00     0.002 A 
ATOM      4  C5  UNL d   1       0.854   3.604  -0.692  0.00  0.00    -0.004 A 
ATOM      5  C6  UNL d   1       2.219   3.327  -0.639  0.00  0.00     0.002 A 
ATOM      6  C7  UNL d   1       2.687   2.271   0.144  0.00  0.00     0.002 A 
ENDROOT
BRANCH   1   7
ATOM      7  C1  UNL d   1       2.295   0.313   1.688  0.00  0.00     0.055 C 
ATOM      8  C   UNL d   1       1.367  -0.886   1.557  0.00  0.00     0.019 C 
ENDBRANCH   1   7
TORSDOF 1
ENDMDL
