MODEL 1
REMARK minimizedAffinity 6.52970648
REMARK minimizedRMSD -1
REMARK  1 active torsions:
REMARK  status: ('A' for Active; 'I' for Inactive)
REMARK    1  A    between atoms: C1_2  and  C2_3 
ROOT
ATOM      1  C2  UNL d   1      -1.613  -2.443  -2.239  0.00  0.00    -0.077 A 
ATOM      2  C3  UNL d   1      -1.853  -1.274  -2.975  0.00  0.00     0.002 A 
ATOM      3  C4  UNL d   1      -3.096  -1.061  -3.576  0.00  0.00     0.002 A 
ATOM      4  C5  UNL d   1      -4.107  -2.010  -3.443  0.00  0.00    -0.004 A 
ATOM      5  C6  UNL d   1      -3.877  -3.176  -2.714  0.00  0.00     0.002 A 
ATOM      6  C7  UNL d   1      -2.636  -3.391  -2.114  0.00  0.00     0.002 A 
ENDROOT
BRANCH   1   7
ATOM      7  C1  UNL d   1      -0.290  -2.652  -1.549  0.00  0.00     0.055 C 
ATOM      8  C   UNL d   1       0.856  -2.695  -2.550  0.00  0.00     0.019 C 
ENDBRANCH   1   7
TORSDOF 1
ENDMDL
