MODEL 1
REMARK minimizedAffinity 10.0390749
REMARK minimizedRMSD -1
REMARK  1 active torsions:
REMARK  status: ('A' for Active; 'I' for Inactive)
REMARK    1  A    between atoms: C1_2  and  C2_3 
ROOT
ATOM      1  C2  UNL d   1       2.708   2.245   0.122  0.00  0.00    -0.077 A 
ATOM      2  C3  UNL d   1       2.318   2.248   1.469  0.00  0.00     0.002 A 
ATOM      3  C4  UNL d   1       2.422   1.086   2.237  0.00  0.00     0.002 A 
ATOM      4  C5  UNL d   1       2.919  -0.085   1.668  0.00  0.00    -0.004 A 
ATOM      5  C6  UNL d   1       3.308  -0.098   0.329  0.00  0.00     0.002 A 
ATOM      6  C7  UNL d   1       3.203   1.061  -0.440  0.00  0.00     0.002 A 
ENDROOT
BRANCH   1   7
ATOM      7  C1  UNL d   1       2.643   3.509  -0.694  0.00  0.00     0.055 C 
ATOM      8  C   UNL d   1       1.464   4.376  -0.279  0.00  0.00     0.019 C 
ENDBRANCH   1   7
TORSDOF 1
ENDMDL
