MODEL 1
REMARK minimizedAffinity 2.33484674
REMARK minimizedRMSD -1
REMARK  1 active torsions:
REMARK  status: ('A' for Active; 'I' for Inactive)
REMARK    1  A    between atoms: C1_2  and  C2_3 
ROOT
ATOM      1  C2  UNL d   1       1.574  -0.572   1.928  0.00  0.00    -0.077 A 
ATOM      2  C3  UNL d   1       0.695  -1.410   1.228  0.00  0.00     0.002 A 
ATOM      3  C4  UNL d   1       0.240  -2.597   1.805  0.00  0.00     0.002 A 
ATOM      4  C5  UNL d   1       0.655  -2.954   3.087  0.00  0.00    -0.004 A 
ATOM      5  C6  UNL d   1       1.530  -2.128   3.791  0.00  0.00     0.002 A 
ATOM      6  C7  UNL d   1       1.987  -0.942   3.214  0.00  0.00     0.002 A 
ENDROOT
BRANCH   1   7
ATOM      7  C1  UNL d   1       2.026   0.733   1.326  0.00  0.00     0.055 C 
ATOM      8  C   UNL d   1       2.299   0.590  -0.164  0.00  0.00     0.019 C 
ENDBRANCH   1   7
TORSDOF 1
ENDMDL
