MODEL 1
REMARK minimizedAffinity 2.97585845
REMARK minimizedRMSD -1
REMARK  1 active torsions:
REMARK  status: ('A' for Active; 'I' for Inactive)
REMARK    1  A    between atoms: C1_2  and  C2_3 
ROOT
ATOM      1  C2  UNL d   1       1.195  -2.004   4.554  0.00  0.00    -0.077 A 
ATOM      2  C3  UNL d   1       0.414  -3.122   4.226  0.00  0.00     0.002 A 
ATOM      3  C4  UNL d   1       0.790  -4.396   4.656  0.00  0.00     0.002 A 
ATOM      4  C5  UNL d   1       1.943  -4.564   5.419  0.00  0.00    -0.004 A 
ATOM      5  C6  UNL d   1       2.727  -3.459   5.748  0.00  0.00     0.002 A 
ATOM      6  C7  UNL d   1       2.354  -2.185   5.319  0.00  0.00     0.002 A 
ENDROOT
BRANCH   1   7
ATOM      7  C1  UNL d   1       0.765  -0.623   4.133  0.00  0.00     0.055 C 
ATOM      8  C   UNL d   1       1.293  -0.277   2.748  0.00  0.00     0.019 C 
ENDBRANCH   1   7
TORSDOF 1
ENDMDL
