MODEL 1
REMARK minimizedAffinity 17.0595245
REMARK minimizedRMSD -1
REMARK  2 active torsions:
REMARK  status: ('A' for Active; 'I' for Inactive)
REMARK    1  A    between atoms: C2'_3  and  C1'_4 
REMARK    2  A    between atoms: C1'_4  and  C1_5 
ROOT
ATOM      1  C1  I4B d   1      -1.158   1.451   0.277  0.00  0.00    -0.075 A 
ATOM      2  C2  I4B d   1      -0.545   2.427  -0.468  0.00  0.00     0.003 A 
ATOM      3  C3  I4B d   1       0.757   2.219  -0.983  0.00  0.00     0.002 A 
ATOM      4  C4  I4B d   1       1.426   1.049  -0.689  0.00  0.00    -0.004 A 
ATOM      5  C5  I4B d   1       0.795   0.050   0.048  0.00  0.00     0.002 A 
ATOM      6  C6  I4B d   1      -0.510   0.247   0.524  0.00  0.00     0.003 A 
ENDROOT
BRANCH   1   7
ATOM      7  C1' I4B d   1      -2.520   1.716   0.834  0.00  0.00     0.060 C 
BRANCH   7   8
ATOM      8  C2' I4B d   1      -2.454   1.538   2.337  0.00  0.00    -0.013 C 
ATOM      9  C4' I4B d   1      -2.807   2.814   3.054  0.00  0.00     0.013 C 
ATOM     10  C3' I4B d   1      -3.389   0.428   2.713  0.00  0.00     0.013 C 
ENDBRANCH   7   8
ENDBRANCH   1   7
TORSDOF 2
ENDMDL
