MODEL 1
REMARK minimizedAffinity 2.73608327
REMARK minimizedRMSD -1
REMARK  2 active torsions:
REMARK  status: ('A' for Active; 'I' for Inactive)
REMARK    1  A    between atoms: C2'_3  and  C1'_4 
REMARK    2  A    between atoms: C1'_4  and  C1_5 
ROOT
ATOM      1  C1  I4B d   1      -3.186   4.543  -5.940  0.00  0.00    -0.075 A 
ATOM      2  C2  I4B d   1      -3.718   5.807  -5.886  0.00  0.00     0.003 A 
ATOM      3  C3  I4B d   1      -5.122   5.990  -5.860  0.00  0.00     0.002 A 
ATOM      4  C4  I4B d   1      -5.952   4.890  -5.940  0.00  0.00    -0.004 A 
ATOM      5  C5  I4B d   1      -5.411   3.608  -5.971  0.00  0.00     0.002 A 
ATOM      6  C6  I4B d   1      -4.020   3.432  -5.959  0.00  0.00     0.003 A 
ENDROOT
BRANCH   1   7
ATOM      7  C1' I4B d   1      -1.700   4.388  -5.999  0.00  0.00     0.060 C 
BRANCH   7   8
ATOM      8  C2' I4B d   1      -1.342   3.066  -5.351  0.00  0.00    -0.013 C 
ATOM      9  C4' I4B d   1      -0.070   2.502  -5.928  0.00  0.00     0.013 C 
ATOM     10  C3' I4B d   1      -1.212   3.295  -3.875  0.00  0.00     0.013 C 
ENDBRANCH   7   8
ENDBRANCH   1   7
TORSDOF 2
ENDMDL
