MODEL 1
REMARK minimizedAffinity 5.6482954
REMARK minimizedRMSD -1
REMARK  2 active torsions:
REMARK  status: ('A' for Active; 'I' for Inactive)
REMARK    1  A    between atoms: C2'_3  and  C1'_4 
REMARK    2  A    between atoms: C1'_4  and  C1_5 
ROOT
ATOM      1  C1  I4B d   1       1.410   0.187  -0.367  0.00  0.00    -0.075 A 
ATOM      2  C2  I4B d   1       2.234   1.130  -0.930  0.00  0.00     0.003 A 
ATOM      3  C3  I4B d   1       2.961   0.830  -2.107  0.00  0.00     0.002 A 
ATOM      4  C4  I4B d   1       2.875  -0.433  -2.656  0.00  0.00    -0.004 A 
ATOM      5  C5  I4B d   1       2.022  -1.381  -2.097  0.00  0.00     0.002 A 
ATOM      6  C6  I4B d   1       1.275  -1.065  -0.953  0.00  0.00     0.003 A 
ENDROOT
BRANCH   1   7
ATOM      7  C1' I4B d   1       0.682   0.527   0.895  0.00  0.00     0.060 C 
BRANCH   7   8
ATOM      8  C2' I4B d   1      -0.795   0.279   0.663  0.00  0.00    -0.013 C 
ATOM      9  C4' I4B d   1      -1.295  -0.863   1.509  0.00  0.00     0.013 C 
ATOM     10  C3' I4B d   1      -1.532   1.547   0.974  0.00  0.00     0.013 C 
ENDBRANCH   7   8
ENDBRANCH   1   7
TORSDOF 2
ENDMDL
