MODEL 1
REMARK minimizedAffinity 12.2885675
REMARK minimizedRMSD -1
REMARK  2 active torsions:
REMARK  status: ('A' for Active; 'I' for Inactive)
REMARK    1  A    between atoms: C2'_3  and  C1'_4 
REMARK    2  A    between atoms: C1'_4  and  C1_5 
ROOT
ATOM      1  C1  I4B d   1      -1.843  -3.046  -0.969  0.00  0.00    -0.075 A 
ATOM      2  C2  I4B d   1      -0.799  -3.294  -1.825  0.00  0.00     0.003 A 
ATOM      3  C3  I4B d   1      -0.472  -4.624  -2.183  0.00  0.00     0.002 A 
ATOM      4  C4  I4B d   1      -1.178  -5.671  -1.627  0.00  0.00    -0.004 A 
ATOM      5  C5  I4B d   1      -2.251  -5.416  -0.777  0.00  0.00     0.002 A 
ATOM      6  C6  I4B d   1      -2.594  -4.095  -0.456  0.00  0.00     0.003 A 
ENDROOT
BRANCH   1   7
ATOM      7  C1' I4B d   1      -2.140  -1.630  -0.586  0.00  0.00     0.060 C 
BRANCH   7   8
ATOM      8  C2' I4B d   1      -1.074  -1.178   0.391  0.00  0.00    -0.013 C 
ATOM      9  C4' I4B d   1      -1.259   0.269   0.768  0.00  0.00     0.013 C 
ATOM     10  C3' I4B d   1      -1.145  -2.065   1.597  0.00  0.00     0.013 C 
ENDBRANCH   7   8
ENDBRANCH   1   7
TORSDOF 2
ENDMDL
