MODEL 1
REMARK minimizedAffinity 6.95798397
REMARK minimizedRMSD -1
REMARK  2 active torsions:
REMARK  status: ('A' for Active; 'I' for Inactive)
REMARK    1  A    between atoms: C2'_3  and  C1'_4 
REMARK    2  A    between atoms: C1'_4  and  C1_5 
ROOT
ATOM      1  C1  I4B d   1       0.924   1.283  -0.321  0.00  0.00    -0.075 A 
ATOM      2  C2  I4B d   1       0.030   0.453   0.309  0.00  0.00     0.003 A 
ATOM      3  C3  I4B d   1      -1.283   0.902   0.590  0.00  0.00     0.002 A 
ATOM      4  C4  I4B d   1      -1.642   2.196   0.273  0.00  0.00    -0.004 A 
ATOM      5  C5  I4B d   1      -0.741   3.028  -0.386  0.00  0.00     0.002 A 
ATOM      6  C6  I4B d   1       0.546   2.565  -0.696  0.00  0.00     0.003 A 
ENDROOT
BRANCH   1   7
ATOM      7  C1' I4B d   1       2.312   0.787  -0.574  0.00  0.00     0.060 C 
BRANCH   7   8
ATOM      8  C2' I4B d   1       2.238  -0.287  -1.639  0.00  0.00    -0.013 C 
ATOM      9  C4' I4B d   1       2.740   0.223  -2.964  0.00  0.00     0.013 C 
ATOM     10  C3' I4B d   1       3.045  -1.461  -1.171  0.00  0.00     0.013 C 
ENDBRANCH   7   8
ENDBRANCH   1   7
TORSDOF 2
ENDMDL
