MODEL 1
REMARK minimizedAffinity 12.6750603
REMARK minimizedRMSD -1
REMARK  2 active torsions:
REMARK  status: ('A' for Active; 'I' for Inactive)
REMARK    1  A    between atoms: C2'_3  and  C1'_4 
REMARK    2  A    between atoms: C1'_4  and  C1_5 
ROOT
ATOM      1  C1  I4B d   1       1.020   2.773   2.300  0.00  0.00    -0.075 A 
ATOM      2  C2  I4B d   1      -0.157   2.802   1.595  0.00  0.00     0.003 A 
ATOM      3  C3  I4B d   1      -1.374   3.107   2.252  0.00  0.00     0.002 A 
ATOM      4  C4  I4B d   1      -1.375   3.325   3.615  0.00  0.00    -0.004 A 
ATOM      5  C5  I4B d   1      -0.177   3.317   4.324  0.00  0.00     0.002 A 
ATOM      6  C6  I4B d   1       1.030   3.052   3.661  0.00  0.00     0.003 A 
ENDROOT
BRANCH   1   7
ATOM      7  C1' I4B d   1       2.282   2.415   1.581  0.00  0.00     0.060 C 
BRANCH   7   8
ATOM      8  C2' I4B d   1       3.449   2.905   2.414  0.00  0.00    -0.013 C 
ATOM      9  C4' I4B d   1       4.663   2.035   2.217  0.00  0.00     0.013 C 
ATOM     10  C3' I4B d   1       3.731   4.325   2.025  0.00  0.00     0.013 C 
ENDBRANCH   7   8
ENDBRANCH   1   7
TORSDOF 2
ENDMDL
