MODEL 1
REMARK minimizedAffinity 7.61725569
REMARK minimizedRMSD -1
REMARK  2 active torsions:
REMARK  status: ('A' for Active; 'I' for Inactive)
REMARK    1  A    between atoms: C2'_3  and  C1'_4 
REMARK    2  A    between atoms: C1'_4  and  C1_5 
ROOT
ATOM      1  C1  I4B d   1      -1.546   3.561  -5.999  0.00  0.00    -0.075 A 
ATOM      2  C2  I4B d   1      -2.902   3.347  -5.996  0.00  0.00     0.003 A 
ATOM      3  C3  I4B d   1      -3.796   4.445  -5.981  0.00  0.00     0.002 A 
ATOM      4  C4  I4B d   1      -3.295   5.729  -5.919  0.00  0.00    -0.004 A 
ATOM      5  C5  I4B d   1      -1.920   5.944  -5.946  0.00  0.00     0.002 A 
ATOM      6  C6  I4B d   1      -1.039   4.854  -5.999  0.00  0.00     0.003 A 
ENDROOT
BRANCH   1   7
ATOM      7  C1' I4B d   1      -0.630   2.378  -5.982  0.00  0.00     0.060 C 
BRANCH   7   8
ATOM      8  C2' I4B d   1       0.704   2.829  -5.423  0.00  0.00    -0.013 C 
ATOM      9  C4' I4B d   1       0.702   2.799  -3.917  0.00  0.00     0.013 C 
ATOM     10  C3' I4B d   1       1.767   1.931  -5.981  0.00  0.00     0.013 C 
ENDBRANCH   7   8
ENDBRANCH   1   7
TORSDOF 2
ENDMDL
