MODEL 1
REMARK minimizedAffinity 5.24193239
REMARK minimizedRMSD -1
REMARK  2 active torsions:
REMARK  status: ('A' for Active; 'I' for Inactive)
REMARK    1  A    between atoms: C2'_3  and  C1'_4 
REMARK    2  A    between atoms: C1'_4  and  C1_5 
ROOT
ATOM      1  C1  I4B d   1      -1.767   3.548  -5.959  0.00  0.00    -0.075 A 
ATOM      2  C2  I4B d   1      -1.214   4.805  -5.978  0.00  0.00     0.003 A 
ATOM      3  C3  I4B d   1      -2.047   5.950  -5.972  0.00  0.00     0.002 A 
ATOM      4  C4  I4B d   1      -3.418   5.793  -5.999  0.00  0.00    -0.004 A 
ATOM      5  C5  I4B d   1      -3.976   4.519  -5.957  0.00  0.00     0.002 A 
ATOM      6  C6  I4B d   1      -3.146   3.389  -5.924  0.00  0.00     0.003 A 
ENDROOT
BRANCH   1   7
ATOM      7  C1' I4B d   1      -0.858   2.361  -5.999  0.00  0.00     0.060 C 
BRANCH   7   8
ATOM      8  C2' I4B d   1       0.486   2.782  -5.440  0.00  0.00    -0.013 C 
ATOM      9  C4' I4B d   1       0.434   2.917  -3.941  0.00  0.00     0.013 C 
ATOM     10  C3' I4B d   1       1.502   1.761  -5.857  0.00  0.00     0.013 C 
ENDBRANCH   7   8
ENDBRANCH   1   7
TORSDOF 2
ENDMDL
