MODEL 1
REMARK minimizedAffinity -1.47907412
REMARK minimizedRMSD -1
REMARK  2 active torsions:
REMARK  status: ('A' for Active; 'I' for Inactive)
REMARK    1  A    between atoms: C2'_3  and  C1'_4 
REMARK    2  A    between atoms: C1'_4  and  C1_5 
ROOT
ATOM      1  C1  I4B d   1      -3.277   3.622  -5.931  0.00  0.00    -0.075 A 
ATOM      2  C2  I4B d   1      -2.892   4.935  -5.835  0.00  0.00     0.003 A 
ATOM      3  C3  I4B d   1      -3.865   5.963  -5.800  0.00  0.00     0.002 A 
ATOM      4  C4  I4B d   1      -5.201   5.637  -5.912  0.00  0.00    -0.004 A 
ATOM      5  C5  I4B d   1      -5.591   4.303  -5.986  0.00  0.00     0.002 A 
ATOM      6  C6  I4B d   1      -4.624   3.288  -5.983  0.00  0.00     0.003 A 
ENDROOT
BRANCH   1   7
ATOM      7  C1' I4B d   1      -2.221   2.564  -6.000  0.00  0.00     0.060 C 
BRANCH   7   8
ATOM      8  C2' I4B d   1      -0.953   3.131  -5.395  0.00  0.00    -0.013 C 
ATOM      9  C4' I4B d   1      -0.958   2.999  -3.895  0.00  0.00     0.013 C 
ATOM     10  C3' I4B d   1       0.212   2.405  -5.999  0.00  0.00     0.013 C 
ENDBRANCH   7   8
ENDBRANCH   1   7
TORSDOF 2
ENDMDL
