MODEL 1
REMARK minimizedAffinity 9.78114796
REMARK minimizedRMSD -1
REMARK  2 active torsions:
REMARK  status: ('A' for Active; 'I' for Inactive)
REMARK    1  A    between atoms: C2'_3  and  C1'_4 
REMARK    2  A    between atoms: C1'_4  and  C1_5 
ROOT
ATOM      1  C1  I4B d   1      -2.911  -4.869  -0.716  0.00  0.00    -0.075 A 
ATOM      2  C2  I4B d   1      -1.963  -5.349  -1.584  0.00  0.00     0.003 A 
ATOM      3  C3  I4B d   1      -1.058  -4.460  -2.215  0.00  0.00     0.002 A 
ATOM      4  C4  I4B d   1      -1.171  -3.104  -1.990  0.00  0.00    -0.004 A 
ATOM      5  C5  I4B d   1      -2.118  -2.620  -1.092  0.00  0.00     0.002 A 
ATOM      6  C6  I4B d   1      -2.986  -3.509  -0.442  0.00  0.00     0.003 A 
ENDROOT
BRANCH   1   7
ATOM      7  C1' I4B d   1      -3.872  -5.831  -0.093  0.00  0.00     0.060 C 
BRANCH   7   8
ATOM      8  C2' I4B d   1      -5.059  -5.042   0.418  0.00  0.00    -0.013 C 
ATOM      9  C4' I4B d   1      -5.743  -4.300  -0.700  0.00  0.00     0.013 C 
ATOM     10  C3' I4B d   1      -6.000  -6.000   1.086  0.00  0.00     0.013 C 
ENDBRANCH   7   8
ENDBRANCH   1   7
TORSDOF 2
ENDMDL
