MODEL 1
REMARK minimizedAffinity 9.16852856
REMARK minimizedRMSD -1
REMARK  2 active torsions:
REMARK  status: ('A' for Active; 'I' for Inactive)
REMARK    1  A    between atoms: C2'_3  and  C1'_4 
REMARK    2  A    between atoms: C1'_4  and  C1_5 
ROOT
ATOM      1  C1  I4B d   1      -1.152   3.874  -5.957  0.00  0.00    -0.075 A 
ATOM      2  C2  I4B d   1      -2.360   4.526  -5.969  0.00  0.00     0.003 A 
ATOM      3  C3  I4B d   1      -3.568   3.788  -5.963  0.00  0.00     0.002 A 
ATOM      4  C4  I4B d   1      -3.522   2.409  -5.996  0.00  0.00    -0.004 A 
ATOM      5  C5  I4B d   1      -2.297   1.750  -5.960  0.00  0.00     0.002 A 
ATOM      6  C6  I4B d   1      -1.104   2.487  -5.928  0.00  0.00     0.003 A 
ENDROOT
BRANCH   1   7
ATOM      7  C1' I4B d   1       0.105   4.685  -5.996  0.00  0.00     0.060 C 
BRANCH   7   8
ATOM      8  C2' I4B d   1       1.279   3.727  -5.973  0.00  0.00    -0.013 C 
ATOM      9  C4' I4B d   1       2.589   4.470  -5.993  0.00  0.00     0.013 C 
ATOM     10  C3' I4B d   1       1.158   2.877  -4.743  0.00  0.00     0.013 C 
ENDBRANCH   7   8
ENDBRANCH   1   7
TORSDOF 2
ENDMDL
