MODEL 1
REMARK minimizedAffinity 11.5830832
REMARK minimizedRMSD -1
REMARK  2 active torsions:
REMARK  status: ('A' for Active; 'I' for Inactive)
REMARK    1  A    between atoms: C2'_3  and  C1'_4 
REMARK    2  A    between atoms: C1'_4  and  C1_5 
ROOT
ATOM      1  C1  I4B d   1       2.060   0.376  -0.882  0.00  0.00    -0.075 A 
ATOM      2  C2  I4B d   1       1.875  -0.978  -1.017  0.00  0.00     0.003 A 
ATOM      3  C3  I4B d   1       2.456  -1.672  -2.106  0.00  0.00     0.002 A 
ATOM      4  C4  I4B d   1       3.167  -0.970  -3.058  0.00  0.00    -0.004 A 
ATOM      5  C5  I4B d   1       3.373   0.399  -2.907  0.00  0.00     0.002 A 
ATOM      6  C6  I4B d   1       2.827   1.074  -1.806  0.00  0.00     0.003 A 
ENDROOT
BRANCH   1   7
ATOM      7  C1' I4B d   1       1.405   1.083   0.262  0.00  0.00     0.060 C 
BRANCH   7   8
ATOM      8  C2' I4B d   1      -0.009   1.432  -0.154  0.00  0.00    -0.013 C 
ATOM      9  C4' I4B d   1      -1.019   0.817   0.778  0.00  0.00     0.013 C 
ATOM     10  C3' I4B d   1      -0.130   2.927  -0.173  0.00  0.00     0.013 C 
ENDBRANCH   7   8
ENDBRANCH   1   7
TORSDOF 2
ENDMDL
