MODEL 1
REMARK minimizedAffinity 3.55276394
REMARK minimizedRMSD -1
REMARK  2 active torsions:
REMARK  status: ('A' for Active; 'I' for Inactive)
REMARK    1  A    between atoms: C2'_3  and  C1'_4 
REMARK    2  A    between atoms: C1'_4  and  C1_5 
ROOT
ATOM      1  C1  I4B d   1      -1.004   3.538  -5.964  0.00  0.00    -0.075 A 
ATOM      2  C2  I4B d   1      -2.144   2.774  -5.933  0.00  0.00     0.003 A 
ATOM      3  C3  I4B d   1      -3.416   3.393  -5.868  0.00  0.00     0.002 A 
ATOM      4  C4  I4B d   1      -3.499   4.768  -5.786  0.00  0.00    -0.004 A 
ATOM      5  C5  I4B d   1      -2.343   5.542  -5.841  0.00  0.00     0.002 A 
ATOM      6  C6  I4B d   1      -1.089   4.924  -5.943  0.00  0.00     0.003 A 
ENDROOT
BRANCH   1   7
ATOM      7  C1' I4B d   1       0.324   2.850  -6.000  0.00  0.00     0.060 C 
BRANCH   7   8
ATOM      8  C2' I4B d   1       1.244   3.562  -5.029  0.00  0.00    -0.013 C 
ATOM      9  C4' I4B d   1       1.794   2.610  -4.000  0.00  0.00     0.013 C 
ATOM     10  C3' I4B d   1       2.347   4.200  -5.821  0.00  0.00     0.013 C 
ENDBRANCH   7   8
ENDBRANCH   1   7
TORSDOF 2
ENDMDL
