MODEL 1
REMARK minimizedAffinity 6.46864319
REMARK minimizedRMSD -1
REMARK  2 active torsions:
REMARK  status: ('A' for Active; 'I' for Inactive)
REMARK    1  A    between atoms: C2'_3  and  C1'_4 
REMARK    2  A    between atoms: C1'_4  and  C1_5 
ROOT
ATOM      1  C1  I4B d   1       0.449   0.811   0.415  0.00  0.00    -0.075 A 
ATOM      2  C2  I4B d   1      -0.359  -0.275   0.644  0.00  0.00     0.003 A 
ATOM      3  C3  I4B d   1      -1.729  -0.092   0.949  0.00  0.00     0.002 A 
ATOM      4  C4  I4B d   1      -2.236   1.186   1.064  0.00  0.00    -0.004 A 
ATOM      5  C5  I4B d   1      -1.421   2.286   0.809  0.00  0.00     0.002 A 
ATOM      6  C6  I4B d   1      -0.073   2.097   0.470  0.00  0.00     0.003 A 
ENDROOT
BRANCH   1   7
ATOM      7  C1' I4B d   1       1.899   0.584   0.127  0.00  0.00     0.060 C 
BRANCH   7   8
ATOM      8  C2' I4B d   1       2.036   0.251  -1.345  0.00  0.00    -0.013 C 
ATOM      9  C4' I4B d   1       2.985   1.198  -2.031  0.00  0.00     0.013 C 
ATOM     10  C3' I4B d   1       2.511  -1.167  -1.457  0.00  0.00     0.013 C 
ENDBRANCH   7   8
ENDBRANCH   1   7
TORSDOF 2
ENDMDL
