MODEL 1
REMARK minimizedAffinity -4.77961016
REMARK minimizedRMSD -1
REMARK  2 active torsions:
REMARK  status: ('A' for Active; 'I' for Inactive)
REMARK    1  A    between atoms: C1_2  and  C2_3 
REMARK    2  A    between atoms: C2_3  and  C3_4 
ROOT
ATOM      1  C3  UNL d   1      -0.476   0.524  -1.390  0.00  0.00    -0.075 A 
ATOM      2  C4  UNL d   1      -0.472   0.996  -0.069  0.00  0.00     0.002 A 
ATOM      3  C5  UNL d   1       0.337   0.394   0.895  0.00  0.00     0.002 A 
ATOM      4  C6  UNL d   1       1.143  -0.690   0.555  0.00  0.00    -0.004 A 
ATOM      5  C7  UNL d   1       1.135  -1.177  -0.750  0.00  0.00     0.002 A 
ATOM      6  C8  UNL d   1       0.329  -0.574  -1.718  0.00  0.00     0.002 A 
ENDROOT
BRANCH   1   7
ATOM      7  C2  UNL d   1      -1.327   1.189  -2.445  0.00  0.00     0.056 C 
BRANCH   7   8
ATOM      8  C1  UNL d   1      -0.741   2.498  -2.986  0.00  0.00     0.007 C 
ATOM      9  C   UNL d   1      -1.646   3.701  -2.758  0.00  0.00     0.009 C 
ENDBRANCH   7   8
ENDBRANCH   1   7
TORSDOF 2
ENDMDL
