MODEL 1
REMARK minimizedAffinity -4.96662521
REMARK minimizedRMSD -1
REMARK  2 active torsions:
REMARK  status: ('A' for Active; 'I' for Inactive)
REMARK    1  A    between atoms: C1_2  and  C2_3 
REMARK    2  A    between atoms: C2_3  and  C3_4 
ROOT
ATOM      1  C3  UNL d   1       0.077  -0.150  -0.368  0.00  0.00    -0.075 A 
ATOM      2  C4  UNL d   1       1.197  -0.836  -0.861  0.00  0.00     0.002 A 
ATOM      3  C5  UNL d   1       1.997  -1.593  -0.005  0.00  0.00     0.002 A 
ATOM      4  C6  UNL d   1       1.695  -1.665   1.353  0.00  0.00    -0.004 A 
ATOM      5  C7  UNL d   1       0.596  -0.974   1.857  0.00  0.00     0.002 A 
ATOM      6  C8  UNL d   1      -0.209  -0.219   1.002  0.00  0.00     0.002 A 
ENDROOT
BRANCH   1   7
ATOM      7  C2  UNL d   1      -0.810   0.647  -1.295  0.00  0.00     0.056 C 
BRANCH   7   8
ATOM      8  C1  UNL d   1      -0.173   1.945  -1.805  0.00  0.00     0.007 C 
ATOM      9  C   UNL d   1      -1.140   2.818  -2.594  0.00  0.00     0.009 C 
ENDBRANCH   7   8
ENDBRANCH   1   7
TORSDOF 2
ENDMDL
