MODEL 1
REMARK minimizedAffinity 1.18426788
REMARK minimizedRMSD -1
REMARK  2 active torsions:
REMARK  status: ('A' for Active; 'I' for Inactive)
REMARK    1  A    between atoms: C1_2  and  C2_3 
REMARK    2  A    between atoms: C2_3  and  C3_4 
ROOT
ATOM      1  C3  UNL d   1      -0.018   0.539  -0.681  0.00  0.00    -0.075 A 
ATOM      2  C4  UNL d   1       1.057  -0.071  -1.344  0.00  0.00     0.002 A 
ATOM      3  C5  UNL d   1       1.951  -0.883  -0.646  0.00  0.00     0.002 A 
ATOM      4  C6  UNL d   1       1.788  -1.087   0.723  0.00  0.00    -0.004 A 
ATOM      5  C7  UNL d   1       0.734  -0.472   1.395  0.00  0.00     0.002 A 
ATOM      6  C8  UNL d   1      -0.165   0.337   0.698  0.00  0.00     0.002 A 
ENDROOT
BRANCH   1   7
ATOM      7  C2  UNL d   1      -1.006   1.395  -1.437  0.00  0.00     0.056 C 
BRANCH   7   8
ATOM      8  C1  UNL d   1      -0.363   2.541  -2.226  0.00  0.00     0.007 C 
ATOM      9  C   UNL d   1      -1.313   3.703  -2.478  0.00  0.00     0.009 C 
ENDBRANCH   7   8
ENDBRANCH   1   7
TORSDOF 2
ENDMDL
