MODEL 1
REMARK minimizedAffinity -4.31318617
REMARK minimizedRMSD -1
REMARK  2 active torsions:
REMARK  status: ('A' for Active; 'I' for Inactive)
REMARK    1  A    between atoms: C1_2  and  C2_3 
REMARK    2  A    between atoms: C2_3  and  C3_4 
ROOT
ATOM      1  C3  UNL d   1      -0.216   0.112   0.064  0.00  0.00    -0.075 A 
ATOM      2  C4  UNL d   1      -1.169  -0.329   0.994  0.00  0.00     0.002 A 
ATOM      3  C5  UNL d   1      -0.783  -0.700   2.282  0.00  0.00     0.002 A 
ATOM      4  C6  UNL d   1       0.558  -0.647   2.653  0.00  0.00    -0.004 A 
ATOM      5  C7  UNL d   1       1.516  -0.227   1.733  0.00  0.00     0.002 A 
ATOM      6  C8  UNL d   1       1.132   0.150   0.445  0.00  0.00     0.002 A 
ENDROOT
BRANCH   1   7
ATOM      7  C2  UNL d   1      -0.631   0.544  -1.322  0.00  0.00     0.056 C 
BRANCH   7   8
ATOM      8  C1  UNL d   1       0.082   1.804  -1.822  0.00  0.00     0.007 C 
ATOM      9  C   UNL d   1      -0.859   2.807  -2.475  0.00  0.00     0.009 C 
ENDBRANCH   7   8
ENDBRANCH   1   7
TORSDOF 2
ENDMDL
