MODEL 1
REMARK minimizedAffinity 8.91252899
REMARK minimizedRMSD -1
REMARK  0 active torsions:
REMARK  status: ('A' for Active; 'I' for Inactive)
ROOT
ATOM      1  C   UNL d   1      -4.458  -1.125   3.740  0.00  0.00     0.023 A 
ATOM      2  C1  UNL d   1      -3.382  -0.375   3.263  0.00  0.00     0.003 A 
ATOM      3  C2  UNL d   1      -3.612   0.772   2.500  0.00  0.00     0.048 A 
ATOM      4  C3  UNL d   1      -4.920   1.165   2.220  0.00  0.00     0.023 A 
ATOM      5  C4  UNL d   1      -6.000   0.419   2.696  0.00  0.00     0.048 A 
ATOM      6  C5  UNL d   1      -5.765  -0.728   3.457  0.00  0.00     0.003 A 
ATOM      7  I   UNL d   1      -5.265   2.872   1.086  0.00  0.00    -0.146 I 
ENDROOT
TORSDOF 0
ENDMDL
