MODEL 1
REMARK minimizedAffinity 4.8351326
REMARK minimizedRMSD -1
REMARK  0 active torsions:
REMARK  status: ('A' for Active; 'I' for Inactive)
ROOT
ATOM      1  C   UNL d   1       4.565   1.148  -5.899  0.00  0.00     0.023 A 
ATOM      2  C1  UNL d   1       3.423   1.945  -5.966  0.00  0.00     0.003 A 
ATOM      3  C2  UNL d   1       3.542   3.336  -5.994  0.00  0.00     0.048 A 
ATOM      4  C3  UNL d   1       4.806   3.923  -5.956  0.00  0.00     0.023 A 
ATOM      5  C4  UNL d   1       5.952   3.129  -5.890  0.00  0.00     0.048 A 
ATOM      6  C5  UNL d   1       5.828   1.738  -5.862  0.00  0.00     0.003 A 
ATOM      7  I   UNL d   1       4.986   5.993  -5.998  0.00  0.00    -0.146 I 
ENDROOT
TORSDOF 0
ENDMDL
