MODEL 1
REMARK minimizedAffinity 7.06802893
REMARK minimizedRMSD -1
REMARK  0 active torsions:
REMARK  status: ('A' for Active; 'I' for Inactive)
ROOT
ATOM      1  C   UNL d   1      -2.712   2.115  -5.944  0.00  0.00     0.023 A 
ATOM      2  C1  UNL d   1      -2.167   3.399  -5.947  0.00  0.00     0.003 A 
ATOM      3  C2  UNL d   1      -3.006   4.515  -5.963  0.00  0.00     0.048 A 
ATOM      4  C3  UNL d   1      -4.390   4.340  -5.975  0.00  0.00     0.023 A 
ATOM      5  C4  UNL d   1      -4.940   3.057  -5.971  0.00  0.00     0.048 A 
ATOM      6  C5  UNL d   1      -4.097   1.944  -5.956  0.00  0.00     0.003 A 
ATOM      7  I   UNL d   1      -5.641   5.999  -5.999  0.00  0.00    -0.146 I 
ENDROOT
TORSDOF 0
ENDMDL
