MODEL 1
REMARK minimizedAffinity 5.47754669
REMARK minimizedRMSD -1
REMARK  0 active torsions:
REMARK  status: ('A' for Active; 'I' for Inactive)
ROOT
ATOM      1  C   UNL d   1      -3.231   1.300  -6.000  0.00  0.00     0.023 A 
ATOM      2  C1  UNL d   1      -2.245   2.287  -6.000  0.00  0.00     0.003 A 
ATOM      3  C2  UNL d   1      -2.605   3.636  -6.000  0.00  0.00     0.048 A 
ATOM      4  C3  UNL d   1      -3.953   3.992  -5.999  0.00  0.00     0.023 A 
ATOM      5  C4  UNL d   1      -4.943   3.008  -5.999  0.00  0.00     0.048 A 
ATOM      6  C5  UNL d   1      -4.578   1.660  -5.999  0.00  0.00     0.003 A 
ATOM      7  I   UNL d   1      -4.492   5.999  -5.999  0.00  0.00    -0.146 I 
ENDROOT
TORSDOF 0
ENDMDL
