MODEL 1
REMARK minimizedAffinity 5.33900595
REMARK minimizedRMSD -1
REMARK  0 active torsions:
REMARK  status: ('A' for Active; 'I' for Inactive)
ROOT
ATOM      1  C   UNL d   1       1.014  -6.000  -4.926  0.00  0.00     0.023 A 
ATOM      2  C1  UNL d   1       1.907  -5.999  -5.998  0.00  0.00     0.003 A 
ATOM      3  C2  UNL d   1       3.283  -5.983  -5.762  0.00  0.00     0.048 A 
ATOM      4  C3  UNL d   1       3.760  -5.968  -4.452  0.00  0.00     0.023 A 
ATOM      5  C4  UNL d   1       2.870  -5.970  -3.376  0.00  0.00     0.048 A 
ATOM      6  C5  UNL d   1       1.495  -5.985  -3.617  0.00  0.00     0.003 A 
ATOM      7  I   UNL d   1       5.808  -5.944  -4.098  0.00  0.00    -0.146 I 
ENDROOT
TORSDOF 0
ENDMDL
