MODEL 1
REMARK minimizedAffinity 0.546489239
REMARK minimizedRMSD -1
REMARK  0 active torsions:
REMARK  status: ('A' for Active; 'I' for Inactive)
ROOT
ATOM      1  C   UNL d   1       2.288   5.968   5.199  0.00  0.00     0.023 A 
ATOM      2  C1  UNL d   1       3.430   5.964   6.000  0.00  0.00     0.003 A 
ATOM      3  C2  UNL d   1       4.496   5.116   5.694  0.00  0.00     0.048 A 
ATOM      4  C3  UNL d   1       4.414   4.275   4.584  0.00  0.00     0.023 A 
ATOM      5  C4  UNL d   1       3.274   4.276   3.780  0.00  0.00     0.048 A 
ATOM      6  C5  UNL d   1       2.210   5.125   4.090  0.00  0.00     0.003 A 
ATOM      7  I   UNL d   1       6.000   3.012   4.126  0.00  0.00    -0.146 I 
ENDROOT
TORSDOF 0
ENDMDL
