MODEL 1
REMARK minimizedAffinity 3.38326931
REMARK minimizedRMSD -1
REMARK  0 active torsions:
REMARK  status: ('A' for Active; 'I' for Inactive)
ROOT
ATOM      1  C   UNL d   1       2.255   1.404  -5.938  0.00  0.00     0.023 A 
ATOM      2  C1  UNL d   1       2.380   2.793  -5.985  0.00  0.00     0.003 A 
ATOM      3  C2  UNL d   1       1.239   3.598  -5.998  0.00  0.00     0.048 A 
ATOM      4  C3  UNL d   1      -0.024   3.008  -5.963  0.00  0.00     0.023 A 
ATOM      5  C4  UNL d   1      -0.154   1.619  -5.915  0.00  0.00     0.048 A 
ATOM      6  C5  UNL d   1       0.989   0.818  -5.903  0.00  0.00     0.003 A 
ATOM      7  I   UNL d   1      -1.724   4.204  -5.982  0.00  0.00    -0.146 I 
ENDROOT
TORSDOF 0
ENDMDL
