MODEL 1
REMARK minimizedAffinity 9.4062767
REMARK minimizedRMSD -1
REMARK  0 active torsions:
REMARK  status: ('A' for Active; 'I' for Inactive)
ROOT
ATOM      1  C   UNL d   1       5.998   1.822  -3.006  0.00  0.00     0.023 A 
ATOM      2  C1  UNL d   1       4.945   0.954  -2.720  0.00  0.00     0.003 A 
ATOM      3  C2  UNL d   1       3.892   1.375  -1.905  0.00  0.00     0.048 A 
ATOM      4  C3  UNL d   1       3.898   2.667  -1.381  0.00  0.00     0.023 A 
ATOM      5  C4  UNL d   1       4.949   3.541  -1.666  0.00  0.00     0.048 A 
ATOM      6  C5  UNL d   1       6.000   3.114  -2.480  0.00  0.00     0.003 A 
ATOM      7  I   UNL d   1       2.331   3.297  -0.169  0.00  0.00    -0.146 I 
ENDROOT
TORSDOF 0
ENDMDL
