MODEL 1
REMARK minimizedAffinity 6.56414223
REMARK minimizedRMSD -1
REMARK  0 active torsions:
REMARK  status: ('A' for Active; 'I' for Inactive)
ROOT
ATOM      1  C   UNL d   1       0.862   1.844  -0.474  0.00  0.00     0.023 A 
ATOM      2  C1  UNL d   1       0.761   1.041   0.661  0.00  0.00     0.003 A 
ATOM      3  C2  UNL d   1       1.733   1.116   1.661  0.00  0.00     0.048 A 
ATOM      4  C3  UNL d   1       2.804   1.997   1.519  0.00  0.00     0.023 A 
ATOM      5  C4  UNL d   1       2.909   2.804   0.384  0.00  0.00     0.048 A 
ATOM      6  C5  UNL d   1       1.935   2.725  -0.612  0.00  0.00     0.003 A 
ATOM      7  I   UNL d   1       4.253   2.111   3.005  0.00  0.00    -0.146 I 
ENDROOT
TORSDOF 0
ENDMDL
