MODEL 1
REMARK minimizedAffinity 11.811492
REMARK minimizedRMSD -1
REMARK  0 active torsions:
REMARK  status: ('A' for Active; 'I' for Inactive)
ROOT
ATOM      1  C   UNL d   1       6.000   2.604   5.022  0.00  0.00     0.023 A 
ATOM      2  C1  UNL d   1       5.993   3.644   5.952  0.00  0.00     0.003 A 
ATOM      3  C2  UNL d   1       4.996   4.620   5.904  0.00  0.00     0.048 A 
ATOM      4  C3  UNL d   1       4.007   4.549   4.923  0.00  0.00     0.023 A 
ATOM      5  C4  UNL d   1       4.009   3.510   3.991  0.00  0.00     0.048 A 
ATOM      6  C5  UNL d   1       5.009   2.538   4.043  0.00  0.00     0.003 A 
ATOM      7  I   UNL d   1       2.520   6.000   4.849  0.00  0.00    -0.146 I 
ENDROOT
TORSDOF 0
ENDMDL
