MODEL 1
REMARK minimizedAffinity 6.17654181
REMARK minimizedRMSD -1
REMARK  0 active torsions:
REMARK  status: ('A' for Active; 'I' for Inactive)
ROOT
ATOM      1  C   UNL d   1       3.447   1.888  -0.644  0.00  0.00     0.023 A 
ATOM      2  C1  UNL d   1       3.903   0.896  -1.513  0.00  0.00     0.003 A 
ATOM      3  C2  UNL d   1       3.609  -0.445  -1.259  0.00  0.00     0.048 A 
ATOM      4  C3  UNL d   1       2.858  -0.788  -0.135  0.00  0.00     0.023 A 
ATOM      5  C4  UNL d   1       2.399   0.201   0.736  0.00  0.00     0.048 A 
ATOM      6  C5  UNL d   1       2.696   1.541   0.479  0.00  0.00     0.003 A 
ATOM      7  I   UNL d   1       2.419  -2.783   0.244  0.00  0.00    -0.146 I 
ENDROOT
TORSDOF 0
ENDMDL
