MODEL 1
REMARK minimizedAffinity 3.66071153
REMARK minimizedRMSD -1
REMARK  0 active torsions:
REMARK  status: ('A' for Active; 'I' for Inactive)
ROOT
ATOM      1  C   UNL d   1       2.975   5.776   5.976  0.00  0.00     0.023 A 
ATOM      2  C1  UNL d   1       4.115   5.271   5.350  0.00  0.00     0.003 A 
ATOM      3  C2  UNL d   1       4.041   4.801   4.037  0.00  0.00     0.048 A 
ATOM      4  C3  UNL d   1       2.825   4.840   3.356  0.00  0.00     0.023 A 
ATOM      5  C4  UNL d   1       1.682   5.344   3.978  0.00  0.00     0.048 A 
ATOM      6  C5  UNL d   1       1.760   5.813   5.291  0.00  0.00     0.003 A 
ATOM      7  I   UNL d   1       2.713   4.140   1.402  0.00  0.00    -0.146 I 
ENDROOT
TORSDOF 0
ENDMDL
