MODEL 1
REMARK minimizedAffinity 0.376331419
REMARK minimizedRMSD -1
REMARK  0 active torsions:
REMARK  status: ('A' for Active; 'I' for Inactive)
ROOT
ATOM      1  C   UNL d   1       0.787  -5.998  -4.286  0.00  0.00     0.023 A 
ATOM      2  C1  UNL d   1       1.291  -5.997  -5.586  0.00  0.00     0.003 A 
ATOM      3  C2  UNL d   1       2.670  -5.991  -5.802  0.00  0.00     0.048 A 
ATOM      4  C3  UNL d   1       3.540  -5.988  -4.713  0.00  0.00     0.023 A 
ATOM      5  C4  UNL d   1       3.041  -5.990  -3.409  0.00  0.00     0.048 A 
ATOM      6  C5  UNL d   1       1.661  -5.995  -3.198  0.00  0.00     0.003 A 
ATOM      7  I   UNL d   1       5.594  -5.979  -5.031  0.00  0.00    -0.146 I 
ENDROOT
TORSDOF 0
ENDMDL
