MODEL 1
REMARK minimizedAffinity 13.2444639
REMARK minimizedRMSD -1
REMARK  0 active torsions:
REMARK  status: ('A' for Active; 'I' for Inactive)
ROOT
ATOM      1  C   UNL d   1       1.262   2.241  -0.685  0.00  0.00     0.023 A 
ATOM      2  C1  UNL d   1       1.073   1.291   0.319  0.00  0.00     0.003 A 
ATOM      3  C2  UNL d   1       2.069   1.074   1.273  0.00  0.00     0.048 A 
ATOM      4  C3  UNL d   1       3.251   1.811   1.218  0.00  0.00     0.023 A 
ATOM      5  C4  UNL d   1       3.445   2.763   0.216  0.00  0.00     0.048 A 
ATOM      6  C5  UNL d   1       2.447   2.976  -0.737  0.00  0.00     0.003 A 
ATOM      7  I   UNL d   1       4.735   1.490   2.638  0.00  0.00    -0.146 I 
ENDROOT
TORSDOF 0
ENDMDL
