MODEL 1
REMARK minimizedAffinity 15.1019611
REMARK minimizedRMSD -1
REMARK  0 active torsions:
REMARK  status: ('A' for Active; 'I' for Inactive)
ROOT
ATOM      1  C   UNL d   1       0.893   1.160  -4.952  0.00  0.00     0.023 A 
ATOM      2  C1  UNL d   1       2.020   0.446  -4.545  0.00  0.00     0.003 A 
ATOM      3  C2  UNL d   1       3.297   0.924  -4.845  0.00  0.00     0.048 A 
ATOM      4  C3  UNL d   1       3.440   2.118  -5.551  0.00  0.00     0.023 A 
ATOM      5  C4  UNL d   1       2.316   2.836  -5.960  0.00  0.00     0.048 A 
ATOM      6  C5  UNL d   1       1.041   2.354  -5.659  0.00  0.00     0.003 A 
ATOM      7  I   UNL d   1       5.340   2.832  -5.998  0.00  0.00    -0.146 I 
ENDROOT
TORSDOF 0
ENDMDL
