MODEL 1
REMARK minimizedAffinity 18.1969643
REMARK minimizedRMSD -1
REMARK  0 active torsions:
REMARK  status: ('A' for Active; 'I' for Inactive)
ROOT
ATOM      1  C   UNL d   1      -2.399   1.300  -5.880  0.00  0.00     0.023 A 
ATOM      2  C1  UNL d   1      -1.669   2.488  -5.837  0.00  0.00     0.003 A 
ATOM      3  C2  UNL d   1      -2.330   3.717  -5.869  0.00  0.00     0.048 A 
ATOM      4  C3  UNL d   1      -3.722   3.752  -5.943  0.00  0.00     0.023 A 
ATOM      5  C4  UNL d   1      -4.457   2.567  -5.985  0.00  0.00     0.048 A 
ATOM      6  C5  UNL d   1      -3.792   1.340  -5.954  0.00  0.00     0.003 A 
ATOM      7  I   UNL d   1      -4.708   5.581  -5.990  0.00  0.00    -0.146 I 
ENDROOT
TORSDOF 0
ENDMDL
