MODEL 1
REMARK minimizedAffinity 17.5489025
REMARK minimizedRMSD -1
REMARK  0 active torsions:
REMARK  status: ('A' for Active; 'I' for Inactive)
ROOT
ATOM      1  C   UNL d   1       5.639   4.902  -5.925  0.00  0.00     0.023 A 
ATOM      2  C1  UNL d   1       5.763   5.687  -4.779  0.00  0.00     0.003 A 
ATOM      3  C2  UNL d   1       5.857   5.082  -3.524  0.00  0.00     0.048 A 
ATOM      4  C3  UNL d   1       5.828   3.692  -3.423  0.00  0.00     0.023 A 
ATOM      5  C4  UNL d   1       5.705   2.902  -4.567  0.00  0.00     0.048 A 
ATOM      6  C5  UNL d   1       5.610   3.511  -5.820  0.00  0.00     0.003 A 
ATOM      7  I   UNL d   1       5.969   2.789  -1.556  0.00  0.00    -0.146 I 
ENDROOT
TORSDOF 0
ENDMDL
