MODEL 1
REMARK minimizedAffinity 12.2324657
REMARK minimizedRMSD -1
REMARK  0 active torsions:
REMARK  status: ('A' for Active; 'I' for Inactive)
ROOT
ATOM      1  C   UNL d   1       4.422   5.959   5.475  0.00  0.00     0.023 A 
ATOM      2  C1  UNL d   1       3.170   6.000   4.860  0.00  0.00     0.003 A 
ATOM      3  C2  UNL d   1       2.767   4.957   4.023  0.00  0.00     0.048 A 
ATOM      4  C3  UNL d   1       3.621   3.876   3.806  0.00  0.00     0.023 A 
ATOM      5  C4  UNL d   1       4.874   3.830   4.420  0.00  0.00     0.048 A 
ATOM      6  C5  UNL d   1       5.273   4.875   5.255  0.00  0.00     0.003 A 
ATOM      7  I   UNL d   1       3.023   2.322   2.562  0.00  0.00    -0.146 I 
ENDROOT
TORSDOF 0
ENDMDL
