MODEL 1
REMARK minimizedAffinity -1.70687318
REMARK minimizedRMSD -1
REMARK  0 active torsions:
REMARK  status: ('A' for Active; 'I' for Inactive)
ROOT
ATOM      1  C1  DEN d   1      -0.914   0.426  -1.223  0.00  0.00     0.130 A 
ATOM      2  C2  DEN d   1       0.370  -0.224  -1.469  0.00  0.00    -0.031 A 
ATOM      3  C3  DEN d   1       0.988  -0.524  -0.162  0.00  0.00     0.027 A 
ATOM      4  C4  DEN d   1       0.082  -0.054   2.207  0.00  0.00     0.027 A 
ATOM      5  C5  DEN d   1      -0.962   0.490   2.922  0.00  0.00    -0.003 A 
ATOM      6  C6  DEN d   1      -2.039   1.076   2.310  0.00  0.00     0.001 A 
ATOM      7  C7  DEN d   1      -2.117   1.092   0.943  0.00  0.00     0.017 A 
ATOM      8  C8  DEN d   1      -1.065   0.552   0.215  0.00  0.00    -0.094 A 
ATOM      9  C9  DEN d   1       0.009  -0.047   0.852  0.00  0.00    -0.072 A 
ENDROOT
TORSDOF 0
ENDMDL
