MODEL 1
REMARK minimizedAffinity -3.53509068
REMARK minimizedRMSD -1
REMARK  0 active torsions:
REMARK  status: ('A' for Active; 'I' for Inactive)
ROOT
ATOM      1  C1  DEN d   1       0.608  -0.169   2.158  0.00  0.00     0.130 A 
ATOM      2  C2  DEN d   1      -0.426   0.427   2.999  0.00  0.00    -0.031 A 
ATOM      3  C3  DEN d   1      -1.501   0.924   2.118  0.00  0.00     0.027 A 
ATOM      4  C4  DEN d   1      -1.667   0.825  -0.454  0.00  0.00     0.027 A 
ATOM      5  C5  DEN d   1      -1.027   0.424  -1.606  0.00  0.00    -0.003 A 
ATOM      6  C6  DEN d   1       0.209  -0.167  -1.586  0.00  0.00     0.001 A 
ATOM      7  C7  DEN d   1       0.823  -0.415  -0.387  0.00  0.00     0.017 A 
ATOM      8  C8  DEN d   1       0.187  -0.007   0.778  0.00  0.00    -0.094 A 
ATOM      9  C9  DEN d   1      -1.067   0.578   0.738  0.00  0.00    -0.072 A 
ENDROOT
TORSDOF 0
ENDMDL
