MODEL 1
REMARK minimizedAffinity -4.07283831
REMARK minimizedRMSD -1
REMARK  0 active torsions:
REMARK  status: ('A' for Active; 'I' for Inactive)
ROOT
ATOM      1  C1  DEN d   1       1.079  -1.443   0.007  0.00  0.00     0.130 A 
ATOM      2  C2  DEN d   1       0.749  -1.112  -1.377  0.00  0.00    -0.031 A 
ATOM      3  C3  DEN d   1      -0.268  -0.041  -1.360  0.00  0.00     0.027 A 
ATOM      4  C4  DEN d   1      -1.354   1.133   0.664  0.00  0.00     0.027 A 
ATOM      5  C5  DEN d   1      -1.402   1.183   2.040  0.00  0.00    -0.003 A 
ATOM      6  C6  DEN d   1      -0.659   0.346   2.828  0.00  0.00     0.001 A 
ATOM      7  C7  DEN d   1       0.200  -0.549   2.245  0.00  0.00     0.017 A 
ATOM      8  C8  DEN d   1       0.249  -0.611   0.859  0.00  0.00    -0.094 A 
ATOM      9  C9  DEN d   1      -0.502   0.253   0.080  0.00  0.00    -0.072 A 
ENDROOT
TORSDOF 0
ENDMDL
