MODEL 1
REMARK minimizedAffinity -1.76692128
REMARK minimizedRMSD -1
REMARK  0 active torsions:
REMARK  status: ('A' for Active; 'I' for Inactive)
ROOT
ATOM      1  C1  DEN d   1       0.859  -0.419  -1.904  0.00  0.00     0.130 A 
ATOM      2  C2  DEN d   1       0.945   0.547  -2.996  0.00  0.00    -0.031 A 
ATOM      3  C3  DEN d   1       0.056   1.681  -2.674  0.00  0.00     0.027 A 
ATOM      4  C4  DEN d   1      -1.434   2.036  -0.599  0.00  0.00     0.027 A 
ATOM      5  C5  DEN d   1      -1.848   1.484   0.593  0.00  0.00    -0.003 A 
ATOM      6  C6  DEN d   1      -1.419   0.254   1.017  0.00  0.00     0.001 A 
ATOM      7  C7  DEN d   1      -0.513  -0.445   0.263  0.00  0.00     0.017 A 
ATOM      8  C8  DEN d   1      -0.097   0.101  -0.943  0.00  0.00    -0.094 A 
ATOM      9  C9  DEN d   1      -0.533   1.351  -1.348  0.00  0.00    -0.072 A 
ENDROOT
TORSDOF 0
ENDMDL
