MODEL 1
REMARK minimizedAffinity -2.04118252
REMARK minimizedRMSD -1
REMARK  0 active torsions:
REMARK  status: ('A' for Active; 'I' for Inactive)
ROOT
ATOM      1  C1  DEN d   1      -0.780   0.479   2.432  0.00  0.00     0.130 A 
ATOM      2  C2  DEN d   1      -1.975   0.936   1.727  0.00  0.00    -0.031 A 
ATOM      3  C3  DEN d   1      -1.854   0.530   0.313  0.00  0.00     0.027 A 
ATOM      4  C4  DEN d   1       0.054  -0.760  -0.848  0.00  0.00     0.027 A 
ATOM      5  C5  DEN d   1       1.285  -1.350  -0.663  0.00  0.00    -0.003 A 
ATOM      6  C6  DEN d   1       1.924  -1.341   0.548  0.00  0.00     0.001 A 
ATOM      7  C7  DEN d   1       1.314  -0.770   1.634  0.00  0.00     0.017 A 
ATOM      8  C8  DEN d   1       0.076  -0.167   1.454  0.00  0.00    -0.094 A 
ATOM      9  C9  DEN d   1      -0.559  -0.197   0.224  0.00  0.00    -0.072 A 
ENDROOT
TORSDOF 0
ENDMDL
