MODEL 1
REMARK minimizedAffinity -3.95282912
REMARK minimizedRMSD -1
REMARK  0 active torsions:
REMARK  status: ('A' for Active; 'I' for Inactive)
ROOT
ATOM      1  C1  DEN d   1       1.309  -1.448   0.031  0.00  0.00     0.130 A 
ATOM      2  C2  DEN d   1       2.104  -1.588   1.248  0.00  0.00    -0.031 A 
ATOM      3  C3  DEN d   1       1.369  -0.935   2.351  0.00  0.00     0.027 A 
ATOM      4  C4  DEN d   1      -0.912   0.267   2.293  0.00  0.00     0.027 A 
ATOM      5  C5  DEN d   1      -1.958   0.650   1.483  0.00  0.00    -0.003 A 
ATOM      6  C6  DEN d   1      -1.973   0.393   0.138  0.00  0.00     0.001 A 
ATOM      7  C7  DEN d   1      -0.942  -0.306  -0.431  0.00  0.00     0.017 A 
ATOM      8  C8  DEN d   1       0.121  -0.690   0.377  0.00  0.00    -0.094 A 
ATOM      9  C9  DEN d   1       0.111  -0.431   1.737  0.00  0.00    -0.072 A 
ENDROOT
TORSDOF 0
ENDMDL
