MODEL 1
REMARK minimizedAffinity -2.28937554
REMARK minimizedRMSD -1
REMARK  0 active torsions:
REMARK  status: ('A' for Active; 'I' for Inactive)
ROOT
ATOM      1  C1  DEN d   1       1.104  -0.736  -0.132  0.00  0.00     0.130 A 
ATOM      2  C2  DEN d   1       0.078  -0.431  -1.126  0.00  0.00    -0.031 A 
ATOM      3  C3  DEN d   1      -1.089   0.134  -0.420  0.00  0.00     0.027 A 
ATOM      4  C4  DEN d   1      -1.404   0.570   2.103  0.00  0.00     0.027 A 
ATOM      5  C5  DEN d   1      -0.814   0.463   3.343  0.00  0.00    -0.003 A 
ATOM      6  C6  DEN d   1       0.432  -0.079   3.514  0.00  0.00     0.001 A 
ATOM      7  C7  DEN d   1       1.148  -0.492   2.422  0.00  0.00     0.017 A 
ATOM      8  C8  DEN d   1       0.557  -0.394   1.169  0.00  0.00    -0.094 A 
ATOM      9  C9  DEN d   1      -0.699   0.168   1.016  0.00  0.00    -0.072 A 
ENDROOT
TORSDOF 0
ENDMDL
