MODEL 1
REMARK minimizedAffinity -3.11515951
REMARK minimizedRMSD -1
REMARK  0 active torsions:
REMARK  status: ('A' for Active; 'I' for Inactive)
ROOT
ATOM      1  C1  DEN d   1      -0.233  -0.671  -0.548  0.00  0.00     0.130 A 
ATOM      2  C2  DEN d   1      -1.661  -0.576  -0.834  0.00  0.00    -0.031 A 
ATOM      3  C3  DEN d   1      -2.277   0.286   0.194  0.00  0.00     0.027 A 
ATOM      4  C4  DEN d   1      -1.162   1.483   2.188  0.00  0.00     0.027 A 
ATOM      5  C5  DEN d   1       0.029   1.691   2.849  0.00  0.00    -0.003 A 
ATOM      6  C6  DEN d   1       1.200   1.105   2.447  0.00  0.00     0.001 A 
ATOM      7  C7  DEN d   1       1.214   0.316   1.327  0.00  0.00     0.017 A 
ATOM      8  C8  DEN d   1       0.017   0.095   0.660  0.00  0.00    -0.094 A 
ATOM      9  C9  DEN d   1      -1.154   0.707   1.075  0.00  0.00    -0.072 A 
ENDROOT
TORSDOF 0
ENDMDL
