MODEL 1
REMARK minimizedAffinity -2.66405678
REMARK minimizedRMSD -1
REMARK  0 active torsions:
REMARK  status: ('A' for Active; 'I' for Inactive)
ROOT
ATOM      1  C1  DEN d   1      -0.380  -1.409  -6.000  0.00  0.00     0.130 A 
ATOM      2  C2  DEN d   1      -1.177  -2.633  -6.000  0.00  0.00    -0.031 A 
ATOM      3  C3  DEN d   1      -1.328  -3.079  -4.600  0.00  0.00     0.027 A 
ATOM      4  C4  DEN d   1      -0.416  -1.995  -2.444  0.00  0.00     0.027 A 
ATOM      5  C5  DEN d   1       0.326  -0.951  -1.940  0.00  0.00    -0.003 A 
ATOM      6  C6  DEN d   1       0.909  -0.012  -2.750  0.00  0.00     0.001 A 
ATOM      7  C7  DEN d   1       0.721  -0.074  -4.105  0.00  0.00     0.017 A 
ATOM      8  C8  DEN d   1      -0.020  -1.129  -4.621  0.00  0.00    -0.094 A 
ATOM      9  C9  DEN d   1      -0.611  -2.061  -3.786  0.00  0.00    -0.072 A 
ENDROOT
TORSDOF 0
ENDMDL
