MODEL 1
REMARK minimizedAffinity -4.4177227
REMARK minimizedRMSD -1
REMARK  1 active torsions:
REMARK  status: ('A' for Active; 'I' for Inactive)
REMARK    1  A    between atoms: C1_2  and  C2_3 
ROOT
ATOM      1  C2  UNL d   1       2.300  -2.943   2.530  0.00  0.00    -0.077 A 
ATOM      2  C3  UNL d   1       2.422  -2.459   1.220  0.00  0.00     0.002 A 
ATOM      3  C4  UNL d   1       1.580  -1.444   0.761  0.00  0.00     0.002 A 
ATOM      4  C5  UNL d   1       0.614  -0.902   1.607  0.00  0.00    -0.004 A 
ATOM      5  C6  UNL d   1       0.484  -1.378   2.911  0.00  0.00     0.002 A 
ATOM      6  C7  UNL d   1       1.324  -2.394   3.371  0.00  0.00     0.002 A 
ENDROOT
BRANCH   1   7
ATOM      7  C1  UNL d   1       3.240  -4.004   3.043  0.00  0.00     0.055 C 
ATOM      8  C   UNL d   1       3.631  -3.743   4.490  0.00  0.00     0.019 C 
ENDBRANCH   1   7
TORSDOF 1
ENDMDL
