MODEL 1
REMARK minimizedAffinity 2.13574839
REMARK minimizedRMSD -1
REMARK  1 active torsions:
REMARK  status: ('A' for Active; 'I' for Inactive)
REMARK    1  A    between atoms: C1_2  and  C2_3 
ROOT
ATOM      1  C2  UNL d   1       0.855  -1.693   1.014  0.00  0.00    -0.077 A 
ATOM      2  C3  UNL d   1       1.652  -2.844   0.942  0.00  0.00     0.002 A 
ATOM      3  C4  UNL d   1       1.481  -3.881   1.862  0.00  0.00     0.002 A 
ATOM      4  C5  UNL d   1       0.511  -3.778   2.857  0.00  0.00    -0.004 A 
ATOM      5  C6  UNL d   1      -0.285  -2.637   2.938  0.00  0.00     0.002 A 
ATOM      6  C7  UNL d   1      -0.115  -1.599   2.020  0.00  0.00     0.002 A 
ENDROOT
BRANCH   1   7
ATOM      7  C1  UNL d   1       1.004  -0.596  -0.007  0.00  0.00     0.055 C 
ATOM      8  C   UNL d   1      -0.351  -0.107  -0.496  0.00  0.00     0.019 C 
ENDBRANCH   1   7
TORSDOF 1
ENDMDL
