MODEL 1
REMARK minimizedAffinity -4.01123047
REMARK minimizedRMSD -1
REMARK  1 active torsions:
REMARK  status: ('A' for Active; 'I' for Inactive)
REMARK    1  A    between atoms: C1_2  and  C2_3 
ROOT
ATOM      1  C2  UNL d   1       2.823  -2.889   1.445  0.00  0.00    -0.077 A 
ATOM      2  C3  UNL d   1       3.222  -3.249   2.739  0.00  0.00     0.002 A 
ATOM      3  C4  UNL d   1       4.442  -3.895   2.948  0.00  0.00     0.002 A 
ATOM      4  C5  UNL d   1       5.275  -4.182   1.869  0.00  0.00    -0.004 A 
ATOM      5  C6  UNL d   1       4.886  -3.829   0.577  0.00  0.00     0.002 A 
ATOM      6  C7  UNL d   1       3.666  -3.185   0.366  0.00  0.00     0.002 A 
ENDROOT
BRANCH   1   7
ATOM      7  C1  UNL d   1       1.530  -2.148   1.222  0.00  0.00     0.055 C 
ATOM      8  C   UNL d   1       1.654  -1.149   0.081  0.00  0.00     0.019 C 
ENDBRANCH   1   7
TORSDOF 1
ENDMDL
