MODEL 1
REMARK minimizedAffinity 3.15446734
REMARK minimizedRMSD -1
REMARK  1 active torsions:
REMARK  status: ('A' for Active; 'I' for Inactive)
REMARK    1  A    between atoms: C1_2  and  C2_3 
ROOT
ATOM      1  C2  UNL d   1      -0.490  -1.746   2.267  0.00  0.00    -0.077 A 
ATOM      2  C3  UNL d   1       0.716  -2.353   1.890  0.00  0.00     0.002 A 
ATOM      3  C4  UNL d   1       1.001  -3.662   2.283  0.00  0.00     0.002 A 
ATOM      4  C5  UNL d   1       0.084  -4.376   3.051  0.00  0.00    -0.004 A 
ATOM      5  C6  UNL d   1      -1.117  -3.781   3.433  0.00  0.00     0.002 A 
ATOM      6  C7  UNL d   1      -1.404  -2.472   3.042  0.00  0.00     0.002 A 
ENDROOT
BRANCH   1   7
ATOM      7  C1  UNL d   1      -0.821  -0.352   1.803  0.00  0.00     0.055 C 
ATOM      8  C   UNL d   1      -0.528  -0.178   0.320  0.00  0.00     0.019 C 
ENDBRANCH   1   7
TORSDOF 1
ENDMDL
