MODEL 1
REMARK minimizedAffinity -2.20343137
REMARK minimizedRMSD -1
REMARK  1 active torsions:
REMARK  status: ('A' for Active; 'I' for Inactive)
REMARK    1  A    between atoms: C1_2  and  C2_3 
ROOT
ATOM      1  C2  UNL d   1      -1.509   0.273  -1.410  0.00  0.00    -0.077 A 
ATOM      2  C3  UNL d   1      -2.308   0.175  -0.263  0.00  0.00     0.002 A 
ATOM      3  C4  UNL d   1      -1.780  -0.337   0.924  0.00  0.00     0.002 A 
ATOM      4  C5  UNL d   1      -0.450  -0.750   0.975  0.00  0.00    -0.004 A 
ATOM      5  C6  UNL d   1       0.352  -0.658  -0.162  0.00  0.00     0.002 A 
ATOM      6  C7  UNL d   1      -0.175  -0.148  -1.349  0.00  0.00     0.002 A 
ENDROOT
BRANCH   1   7
ATOM      7  C1  UNL d   1      -2.064   0.871  -2.677  0.00  0.00     0.055 C 
ATOM      8  C   UNL d   1      -1.772   2.362  -2.760  0.00  0.00     0.019 C 
ENDBRANCH   1   7
TORSDOF 1
ENDMDL
