MODEL 1
REMARK minimizedAffinity 4.30960655
REMARK minimizedRMSD -1
REMARK  0 active torsions:
REMARK  status: ('A' for Active; 'I' for Inactive)
ROOT
ATOM      1  C2' OXE d   1      -0.045  -5.979  -1.678  0.00  0.00     0.078 C 
ATOM      2  C1' OXE d   1      -2.408  -5.993  -3.193  0.00  0.00     0.078 C 
ATOM      3  C1  OXE d   1      -1.096  -5.976  -3.936  0.00  0.00    -0.078 A 
ATOM      4  C2  OXE d   1       0.054  -5.922  -3.187  0.00  0.00    -0.078 A 
ATOM      5  C3  OXE d   1       1.293  -5.960  -3.822  0.00  0.00     0.003 A 
ATOM      6  C4  OXE d   1       1.376  -5.898  -5.218  0.00  0.00    -0.002 A 
ATOM      7  C5  OXE d   1       0.215  -5.912  -6.000  0.00  0.00    -0.002 A 
ATOM      8  C6  OXE d   1      -1.025  -5.994  -5.377  0.00  0.00     0.003 A 
ENDROOT
TORSDOF 0
ENDMDL
