MODEL 1
REMARK minimizedAffinity -2.46104765
REMARK minimizedRMSD -1
REMARK  0 active torsions:
REMARK  status: ('A' for Active; 'I' for Inactive)
ROOT
ATOM      1  C2' OXE d   1       2.399  -5.987  -5.596  0.00  0.00     0.078 C 
ATOM      2  C1' OXE d   1       1.918  -5.897  -2.832  0.00  0.00     0.078 C 
ATOM      3  C1  OXE d   1       0.724  -5.924  -3.753  0.00  0.00    -0.078 A 
ATOM      4  C2  OXE d   1       0.969  -5.921  -5.106  0.00  0.00    -0.078 A 
ATOM      5  C3  OXE d   1      -0.096  -6.000  -5.999  0.00  0.00     0.003 A 
ATOM      6  C4  OXE d   1      -1.415  -5.928  -5.537  0.00  0.00    -0.002 A 
ATOM      7  C5  OXE d   1      -1.686  -5.891  -4.165  0.00  0.00    -0.002 A 
ATOM      8  C6  OXE d   1      -0.631  -5.931  -3.261  0.00  0.00     0.003 A 
ENDROOT
TORSDOF 0
ENDMDL
