MODEL 1
REMARK minimizedAffinity -1.82043028
REMARK minimizedRMSD -1
REMARK  0 active torsions:
REMARK  status: ('A' for Active; 'I' for Inactive)
ROOT
ATOM      1  C2' OXE d   1      -3.281  -5.924  -3.748  0.00  0.00     0.078 C 
ATOM      2  C1' OXE d   1      -1.263  -6.000  -1.797  0.00  0.00     0.078 C 
ATOM      3  C1  OXE d   1      -0.841  -5.973  -3.245  0.00  0.00    -0.078 A 
ATOM      4  C2  OXE d   1      -1.835  -5.984  -4.194  0.00  0.00    -0.078 A 
ATOM      5  C3  OXE d   1      -1.502  -5.905  -5.543  0.00  0.00     0.003 A 
ATOM      6  C4  OXE d   1      -0.163  -5.970  -5.947  0.00  0.00    -0.002 A 
ATOM      7  C5  OXE d   1       0.864  -6.000  -4.998  0.00  0.00    -0.002 A 
ATOM      8  C6  OXE d   1       0.544  -5.959  -3.645  0.00  0.00     0.003 A 
ENDROOT
TORSDOF 0
ENDMDL
