MODEL 1
REMARK minimizedAffinity 0.789549172
REMARK minimizedRMSD -1
REMARK  0 active torsions:
REMARK  status: ('A' for Active; 'I' for Inactive)
ROOT
ATOM      1  C2' OXE d   1      -1.161  -5.975  -3.070  0.00  0.00     0.078 C 
ATOM      2  C1' OXE d   1      -1.283  -5.953  -5.874  0.00  0.00     0.078 C 
ATOM      3  C1  OXE d   1       0.081  -5.968  -5.229  0.00  0.00    -0.078 A 
ATOM      4  C2  OXE d   1       0.131  -5.931  -3.856  0.00  0.00    -0.078 A 
ATOM      5  C3  OXE d   1       1.362  -5.998  -3.210  0.00  0.00     0.003 A 
ATOM      6  C4  OXE d   1       2.552  -5.947  -3.945  0.00  0.00    -0.002 A 
ATOM      7  C5  OXE d   1       2.524  -5.944  -5.344  0.00  0.00    -0.002 A 
ATOM      8  C6  OXE d   1       1.299  -5.997  -6.000  0.00  0.00     0.003 A 
ENDROOT
TORSDOF 0
ENDMDL
