MODEL 1
REMARK minimizedAffinity 4.42121744
REMARK minimizedRMSD -1
REMARK  0 active torsions:
REMARK  status: ('A' for Active; 'I' for Inactive)
ROOT
ATOM      1  C2' OXE d   1       0.433  -5.650  -1.647  0.00  0.00     0.078 C 
ATOM      2  C1' OXE d   1      -1.987  -6.000  -3.027  0.00  0.00     0.078 C 
ATOM      3  C1  OXE d   1      -0.721  -5.896  -3.841  0.00  0.00    -0.078 A 
ATOM      4  C2  OXE d   1       0.452  -5.678  -3.160  0.00  0.00    -0.078 A 
ATOM      5  C3  OXE d   1       1.655  -5.629  -3.858  0.00  0.00     0.003 A 
ATOM      6  C4  OXE d   1       1.664  -5.645  -5.258  0.00  0.00    -0.002 A 
ATOM      7  C5  OXE d   1       0.475  -5.826  -5.973  0.00  0.00    -0.002 A 
ATOM      8  C6  OXE d   1      -0.718  -5.995  -5.279  0.00  0.00     0.003 A 
ENDROOT
TORSDOF 0
ENDMDL
