MODEL 1
REMARK minimizedAffinity 3.58971214
REMARK minimizedRMSD -1
REMARK  0 active torsions:
REMARK  status: ('A' for Active; 'I' for Inactive)
ROOT
ATOM      1  C2' OXE d   1       0.212  -5.912  -1.709  0.00  0.00     0.078 C 
ATOM      2  C1' OXE d   1      -2.400  -5.993  -2.736  0.00  0.00     0.078 C 
ATOM      3  C1  OXE d   1      -1.257  -5.962  -3.721  0.00  0.00    -0.078 A 
ATOM      4  C2  OXE d   1       0.015  -5.875  -3.210  0.00  0.00    -0.078 A 
ATOM      5  C3  OXE d   1       1.108  -5.899  -4.072  0.00  0.00     0.003 A 
ATOM      6  C4  OXE d   1       0.917  -5.855  -5.459  0.00  0.00    -0.002 A 
ATOM      7  C5  OXE d   1      -0.372  -5.903  -6.000  0.00  0.00    -0.002 A 
ATOM      8  C6  OXE d   1      -1.466  -6.000  -5.147  0.00  0.00     0.003 A 
ENDROOT
TORSDOF 0
ENDMDL
