MODEL 1
REMARK minimizedAffinity 1.99515009
REMARK minimizedRMSD -1
REMARK  0 active torsions:
REMARK  status: ('A' for Active; 'I' for Inactive)
ROOT
ATOM      1  C2' OXE d   1       0.224  -5.962  -5.865  0.00  0.00     0.078 C 
ATOM      2  C1' OXE d   1       1.401  -5.948  -3.316  0.00  0.00     0.078 C 
ATOM      3  C1  OXE d   1      -0.106  -5.965  -3.395  0.00  0.00    -0.078 A 
ATOM      4  C2  OXE d   1      -0.673  -5.924  -4.646  0.00  0.00    -0.078 A 
ATOM      5  C3  OXE d   1      -2.057  -5.993  -4.778  0.00  0.00     0.003 A 
ATOM      6  C4  OXE d   1      -2.880  -5.948  -3.645  0.00  0.00    -0.002 A 
ATOM      7  C5  OXE d   1      -2.322  -5.949  -2.362  0.00  0.00    -0.002 A 
ATOM      8  C6  OXE d   1      -0.940  -6.000  -2.220  0.00  0.00     0.003 A 
ENDROOT
TORSDOF 0
ENDMDL
