MODEL 1
REMARK minimizedAffinity 6.07624388
REMARK minimizedRMSD -1
REMARK  0 active torsions:
REMARK  status: ('A' for Active; 'I' for Inactive)
ROOT
ATOM      1  C2' OXE d   1      -0.237  -5.994  -1.726  0.00  0.00     0.078 C 
ATOM      2  C1' OXE d   1      -2.436  -5.981  -3.470  0.00  0.00     0.078 C 
ATOM      3  C1  OXE d   1      -1.056  -5.981  -4.078  0.00  0.00    -0.078 A 
ATOM      4  C2  OXE d   1       0.014  -5.940  -3.217  0.00  0.00    -0.078 A 
ATOM      5  C3  OXE d   1       1.309  -5.993  -3.725  0.00  0.00     0.003 A 
ATOM      6  C4  OXE d   1       1.533  -5.932  -5.106  0.00  0.00    -0.002 A 
ATOM      7  C5  OXE d   1       0.456  -5.933  -6.000  0.00  0.00    -0.002 A 
ATOM      8  C6  OXE d   1      -0.841  -6.000  -5.504  0.00  0.00     0.003 A 
ENDROOT
TORSDOF 0
ENDMDL
