MODEL 1
REMARK minimizedAffinity -1.80986118
REMARK minimizedRMSD -1
REMARK  0 active torsions:
REMARK  status: ('A' for Active; 'I' for Inactive)
ROOT
ATOM      1  C2' OXE d   1      -1.491  -5.249  -1.781  0.00  0.00     0.078 C 
ATOM      2  C1' OXE d   1      -3.500  -5.966  -3.606  0.00  0.00     0.078 C 
ATOM      3  C1  OXE d   1      -2.099  -5.789  -4.135  0.00  0.00    -0.078 A 
ATOM      4  C2  OXE d   1      -1.132  -5.392  -3.244  0.00  0.00    -0.078 A 
ATOM      5  C3  OXE d   1       0.188  -5.267  -3.669  0.00  0.00     0.003 A 
ATOM      6  C4  OXE d   1       0.510  -5.391  -5.026  0.00  0.00    -0.002 A 
ATOM      7  C5  OXE d   1      -0.468  -5.756  -5.957  0.00  0.00    -0.002 A 
ATOM      8  C6  OXE d   1      -1.766  -6.000  -5.522  0.00  0.00     0.003 A 
ENDROOT
TORSDOF 0
ENDMDL
