MODEL 1
REMARK minimizedAffinity 3.01275301
REMARK minimizedRMSD -1
REMARK  0 active torsions:
REMARK  status: ('A' for Active; 'I' for Inactive)
ROOT
ATOM      1  C2' OXE d   1       2.011  -5.593  -5.891  0.00  0.00     0.078 C 
ATOM      2  C1' OXE d   1       1.879  -5.772  -3.093  0.00  0.00     0.078 C 
ATOM      3  C1  OXE d   1       0.584  -5.830  -3.863  0.00  0.00    -0.078 A 
ATOM      4  C2  OXE d   1       0.654  -5.695  -5.229  0.00  0.00    -0.078 A 
ATOM      5  C3  OXE d   1      -0.506  -5.795  -5.992  0.00  0.00     0.003 A 
ATOM      6  C4  OXE d   1      -1.758  -5.879  -5.371  0.00  0.00    -0.002 A 
ATOM      7  C5  OXE d   1      -1.855  -5.978  -3.979  0.00  0.00    -0.002 A 
ATOM      8  C6  OXE d   1      -0.694  -5.998  -3.215  0.00  0.00     0.003 A 
ENDROOT
TORSDOF 0
ENDMDL
