MODEL 1
REMARK minimizedAffinity -0.598009646
REMARK minimizedRMSD -1
REMARK  0 active torsions:
REMARK  status: ('A' for Active; 'I' for Inactive)
ROOT
ATOM      1  C2' OXE d   1      -2.741  -6.000  -2.677  0.00  0.00     0.078 C 
ATOM      2  C1' OXE d   1      -0.109  -5.591  -1.790  0.00  0.00     0.078 C 
ATOM      3  C1  OXE d   1      -0.342  -5.699  -3.276  0.00  0.00    -0.078 A 
ATOM      4  C2  OXE d   1      -1.626  -5.946  -3.699  0.00  0.00    -0.078 A 
ATOM      5  C3  OXE d   1      -1.905  -6.000  -5.062  0.00  0.00     0.003 A 
ATOM      6  C4  OXE d   1      -0.866  -5.959  -6.000  0.00  0.00    -0.002 A 
ATOM      7  C5  OXE d   1       0.454  -5.748  -5.589  0.00  0.00    -0.002 A 
ATOM      8  C6  OXE d   1       0.727  -5.574  -4.236  0.00  0.00     0.003 A 
ENDROOT
TORSDOF 0
ENDMDL
