MODEL 1
REMARK minimizedAffinity -1.76711249
REMARK minimizedRMSD -1
REMARK  0 active torsions:
REMARK  status: ('A' for Active; 'I' for Inactive)
ROOT
ATOM      1  C2' OXE d   1      -3.127  -5.999  -2.572  0.00  0.00     0.078 C 
ATOM      2  C1' OXE d   1      -0.442  -5.640  -1.839  0.00  0.00     0.078 C 
ATOM      3  C1  OXE d   1      -0.763  -5.734  -3.310  0.00  0.00    -0.078 A 
ATOM      4  C2  OXE d   1      -2.073  -5.957  -3.658  0.00  0.00    -0.078 A 
ATOM      5  C3  OXE d   1      -2.432  -5.997  -5.002  0.00  0.00     0.003 A 
ATOM      6  C4  OXE d   1      -1.450  -5.967  -5.999  0.00  0.00    -0.002 A 
ATOM      7  C5  OXE d   1      -0.104  -5.780  -5.665  0.00  0.00    -0.002 A 
ATOM      8  C6  OXE d   1       0.250  -5.620  -4.330  0.00  0.00     0.003 A 
ENDROOT
TORSDOF 0
ENDMDL
