MODEL 1
REMARK minimizedAffinity 7.35444832
REMARK minimizedRMSD -1
REMARK  0 active torsions:
REMARK  status: ('A' for Active; 'I' for Inactive)
ROOT
ATOM      1  C2' OXE d   1       0.384  -3.958   1.063  0.00  0.00     0.078 C 
ATOM      2  C1' OXE d   1      -2.223  -2.945   0.812  0.00  0.00     0.078 C 
ATOM      3  C1  OXE d   1      -1.077  -1.969   0.721  0.00  0.00    -0.078 A 
ATOM      4  C2  OXE d   1       0.193  -2.466   0.892  0.00  0.00    -0.078 A 
ATOM      5  C3  OXE d   1       1.289  -1.617   0.763  0.00  0.00     0.003 A 
ATOM      6  C4  OXE d   1       1.103  -0.238   0.614  0.00  0.00    -0.002 A 
ATOM      7  C5  OXE d   1      -0.183   0.295   0.478  0.00  0.00    -0.002 A 
ATOM      8  C6  OXE d   1      -1.279  -0.560   0.486  0.00  0.00     0.003 A 
ENDROOT
TORSDOF 0
ENDMDL
