MODEL 1
REMARK minimizedAffinity 8.31074905
REMARK minimizedRMSD -1
REMARK  0 active torsions:
REMARK  status: ('A' for Active; 'I' for Inactive)
ROOT
ATOM      1  C2' OXE d   1       0.820  -0.653   0.541  0.00  0.00     0.078 C 
ATOM      2  C1' OXE d   1       3.532  -0.073   0.104  0.00  0.00     0.078 C 
ATOM      3  C1  OXE d   1       2.566   1.084   0.166  0.00  0.00    -0.078 A 
ATOM      4  C2  OXE d   1       1.235   0.787   0.334  0.00  0.00    -0.078 A 
ATOM      5  C3  OXE d   1       0.308   1.820   0.453  0.00  0.00     0.003 A 
ATOM      6  C4  OXE d   1       0.698   3.149   0.250  0.00  0.00    -0.002 A 
ATOM      7  C5  OXE d   1       2.043   3.470   0.038  0.00  0.00    -0.002 A 
ATOM      8  C6  OXE d   1       2.994   2.455   0.036  0.00  0.00     0.003 A 
ENDROOT
TORSDOF 0
ENDMDL
