MODEL 1
REMARK minimizedAffinity 0.126261503
REMARK minimizedRMSD -1
REMARK  0 active torsions:
REMARK  status: ('A' for Active; 'I' for Inactive)
ROOT
ATOM      1  C2' OXE d   1      -2.295  -5.993  -3.259  0.00  0.00     0.078 C 
ATOM      2  C1' OXE d   1       0.043  -5.746  -1.725  0.00  0.00     0.078 C 
ATOM      3  C1  OXE d   1       0.190  -5.815  -3.224  0.00  0.00    -0.078 A 
ATOM      4  C2  OXE d   1      -0.955  -5.983  -3.965  0.00  0.00    -0.078 A 
ATOM      5  C3  OXE d   1      -0.882  -5.998  -5.355  0.00  0.00     0.003 A 
ATOM      6  C4  OXE d   1       0.361  -5.998  -5.999  0.00  0.00    -0.002 A 
ATOM      7  C5  OXE d   1       1.543  -5.868  -5.261  0.00  0.00    -0.002 A 
ATOM      8  C6  OXE d   1       1.472  -5.733  -3.879  0.00  0.00     0.003 A 
ENDROOT
TORSDOF 0
ENDMDL
