MODEL 1
REMARK minimizedAffinity 1.32434571
REMARK minimizedRMSD -1
REMARK  0 active torsions:
REMARK  status: ('A' for Active; 'I' for Inactive)
ROOT
ATOM      1  C2' OXE d   1       1.165  -5.997  -6.000  0.00  0.00     0.078 C 
ATOM      2  C1' OXE d   1       1.748  -5.988  -3.254  0.00  0.00     0.078 C 
ATOM      3  C1  OXE d   1       0.297  -5.982  -3.665  0.00  0.00    -0.078 A 
ATOM      4  C2  OXE d   1       0.021  -5.940  -5.011  0.00  0.00    -0.078 A 
ATOM      5  C3  OXE d   1      -1.300  -5.988  -5.445  0.00  0.00     0.003 A 
ATOM      6  C4  OXE d   1      -2.352  -5.925  -4.524  0.00  0.00    -0.002 A 
ATOM      7  C5  OXE d   1      -2.093  -5.928  -3.149  0.00  0.00    -0.002 A 
ATOM      8  C6  OXE d   1      -0.778  -5.999  -2.704  0.00  0.00     0.003 A 
ENDROOT
TORSDOF 0
ENDMDL
