MODEL 1
REMARK minimizedAffinity 4.06665754
REMARK minimizedRMSD -1
REMARK  0 active torsions:
REMARK  status: ('A' for Active; 'I' for Inactive)
ROOT
ATOM      1  C2' OXE d   1      -0.175  -5.994  -1.678  0.00  0.00     0.078 C 
ATOM      2  C1' OXE d   1      -2.539  -5.977  -3.192  0.00  0.00     0.078 C 
ATOM      3  C1  OXE d   1      -1.227  -5.975  -3.936  0.00  0.00    -0.078 A 
ATOM      4  C2  OXE d   1      -0.076  -5.936  -3.187  0.00  0.00    -0.078 A 
ATOM      5  C3  OXE d   1       1.162  -5.987  -3.823  0.00  0.00     0.003 A 
ATOM      6  C4  OXE d   1       1.245  -5.923  -5.219  0.00  0.00    -0.002 A 
ATOM      7  C5  OXE d   1       0.084  -5.922  -6.000  0.00  0.00    -0.002 A 
ATOM      8  C6  OXE d   1      -1.157  -5.990  -5.376  0.00  0.00     0.003 A 
ENDROOT
TORSDOF 0
ENDMDL
