MODEL 1
REMARK minimizedAffinity 5.91270876
REMARK minimizedRMSD -1
REMARK  0 active torsions:
REMARK  status: ('A' for Active; 'I' for Inactive)
ROOT
ATOM      1  C2' OXE d   1       1.299   0.964  -0.009  0.00  0.00     0.078 C 
ATOM      2  C1' OXE d   1       3.072  -0.591   1.514  0.00  0.00     0.078 C 
ATOM      3  C1  OXE d   1       1.760  -1.215   1.108  0.00  0.00    -0.078 A 
ATOM      4  C2  OXE d   1       0.879  -0.431   0.403  0.00  0.00    -0.078 A 
ATOM      5  C3  OXE d   1      -0.323  -0.974  -0.043  0.00  0.00     0.003 A 
ATOM      6  C4  OXE d   1      -0.708  -2.261   0.351  0.00  0.00    -0.002 A 
ATOM      7  C5  OXE d   1       0.158  -3.062   1.103  0.00  0.00    -0.002 A 
ATOM      8  C6  OXE d   1       1.410  -2.570   1.453  0.00  0.00     0.003 A 
ENDROOT
TORSDOF 0
ENDMDL
