MODEL 1
REMARK minimizedAffinity 17.2479
REMARK minimizedRMSD -1
REMARK  1 active torsions:
REMARK  status: ('A' for Active; 'I' for Inactive)
REMARK    1  A    between atoms: N_2  and  C1_3 
ROOT
ATOM      1  C1  UNL d   1      -1.228   0.855   3.694  0.00  0.00     0.143 A 
ATOM      2  C2  UNL d   1      -1.269   2.251   3.785  0.00  0.00    -0.057 A 
ATOM      3  C3  UNL d   1      -2.486   2.943   3.772  0.00  0.00     0.033 A 
ATOM      4  C4  UNL d   1      -3.686   2.251   3.640  0.00  0.00    -0.042 A 
ATOM      5  C5  UNL d   1      -3.667   0.866   3.523  0.00  0.00     0.033 A 
ATOM      6  C6  UNL d   1      -2.449   0.180   3.543  0.00  0.00    -0.057 A 
ENDROOT
BRANCH   1   7
ATOM      7  N   UNL d   1      -0.045   0.117   3.602  0.00  0.00    -0.732 N 
ATOM      8  C   UNL d   1       0.728  -0.188   4.787  0.00  0.00     0.284 C 
ATOM      9  H3  UNL d   1      -0.120  -0.656   2.944  0.00  0.00     0.395 HD
ENDBRANCH   1   7
TORSDOF 1
ENDMDL
