MODEL 1
REMARK minimizedAffinity 18.4373245
REMARK minimizedRMSD -1
REMARK  1 active torsions:
REMARK  status: ('A' for Active; 'I' for Inactive)
REMARK    1  A    between atoms: N_2  and  C1_3 
ROOT
ATOM      1  C1  UNL d   1      -0.817  -1.287   2.051  0.00  0.00     0.143 A 
ATOM      2  C2  UNL d   1      -0.793  -2.628   2.449  0.00  0.00    -0.057 A 
ATOM      3  C3  UNL d   1      -1.663  -3.568   1.883  0.00  0.00     0.033 A 
ATOM      4  C4  UNL d   1      -2.595  -3.176   0.928  0.00  0.00    -0.042 A 
ATOM      5  C5  UNL d   1      -2.653  -1.844   0.536  0.00  0.00     0.033 A 
ATOM      6  C6  UNL d   1      -1.778  -0.911   1.100  0.00  0.00    -0.057 A 
ENDROOT
BRANCH   1   7
ATOM      7  N   UNL d   1      -0.045  -0.286   2.647  0.00  0.00    -0.732 N 
ATOM      8  C   UNL d   1       0.745   0.615   1.836  0.00  0.00     0.284 C 
ATOM      9  H3  UNL d   1      -0.526   0.165   3.422  0.00  0.00     0.395 HD
ENDBRANCH   1   7
TORSDOF 1
ENDMDL
