MODEL 1
REMARK minimizedAffinity 10.539012
REMARK minimizedRMSD -1
REMARK  1 active torsions:
REMARK  status: ('A' for Active; 'I' for Inactive)
REMARK    1  A    between atoms: N_2  and  C1_3 
ROOT
ATOM      1  C1  UNL d   1      -5.028   3.392   5.365  0.00  0.00     0.143 A 
ATOM      2  C2  UNL d   1      -4.266   2.986   4.264  0.00  0.00    -0.057 A 
ATOM      3  C3  UNL d   1      -4.384   1.696   3.735  0.00  0.00     0.033 A 
ATOM      4  C4  UNL d   1      -5.250   0.775   4.317  0.00  0.00    -0.042 A 
ATOM      5  C5  UNL d   1      -6.000   1.149   5.426  0.00  0.00     0.033 A 
ATOM      6  C6  UNL d   1      -5.882   2.441   5.946  0.00  0.00    -0.057 A 
ENDROOT
BRANCH   1   7
ATOM      7  N   UNL d   1      -4.884   4.629   5.998  0.00  0.00    -0.732 N 
ATOM      8  C   UNL d   1      -5.232   5.854   5.311  0.00  0.00     0.284 C 
ATOM      9  H3  UNL d   1      -5.174   4.602   6.973  0.00  0.00     0.395 HD
ENDBRANCH   1   7
TORSDOF 1
ENDMDL
