MODEL 1
REMARK minimizedAffinity 5.36488962
REMARK minimizedRMSD -1
REMARK  1 active torsions:
REMARK  status: ('A' for Active; 'I' for Inactive)
REMARK    1  A    between atoms: N_2  and  C1_3 
ROOT
ATOM      1  C1  UNL d   1      -1.219  -3.420   1.331  0.00  0.00     0.143 A 
ATOM      2  C2  UNL d   1      -0.475  -4.554   1.673  0.00  0.00    -0.057 A 
ATOM      3  C3  UNL d   1      -1.045  -5.833   1.642  0.00  0.00     0.033 A 
ATOM      4  C4  UNL d   1      -2.382  -5.997   1.295  0.00  0.00    -0.042 A 
ATOM      5  C5  UNL d   1      -3.147  -4.881   0.976  0.00  0.00     0.033 A 
ATOM      6  C6  UNL d   1      -2.571  -3.608   1.003  0.00  0.00    -0.057 A 
ENDROOT
BRANCH   1   7
ATOM      7  N   UNL d   1      -0.738  -2.113   1.438  0.00  0.00    -0.732 N 
ATOM      8  C   UNL d   1      -0.790  -1.409   2.701  0.00  0.00     0.284 C 
ATOM      9  H3  UNL d   1       0.127  -1.974   0.920  0.00  0.00     0.395 HD
ENDBRANCH   1   7
TORSDOF 1
ENDMDL
