MODEL 1
REMARK minimizedAffinity 13.3432808
REMARK minimizedRMSD -1
REMARK  1 active torsions:
REMARK  status: ('A' for Active; 'I' for Inactive)
REMARK    1  A    between atoms: N_2  and  C1_3 
ROOT
ATOM      1  C1  UNL d   1      -3.676  -3.193  -2.236  0.00  0.00     0.143 A 
ATOM      2  C2  UNL d   1      -3.325  -4.467  -1.777  0.00  0.00    -0.057 A 
ATOM      3  C3  UNL d   1      -4.177  -5.564  -1.953  0.00  0.00     0.033 A 
ATOM      4  C4  UNL d   1      -5.413  -5.399  -2.569  0.00  0.00    -0.042 A 
ATOM      5  C5  UNL d   1      -5.795  -4.138  -3.011  0.00  0.00     0.033 A 
ATOM      6  C6  UNL d   1      -4.936  -3.048  -2.838  0.00  0.00    -0.057 A 
ENDROOT
BRANCH   1   7
ATOM      7  N   UNL d   1      -2.916  -2.045  -2.004  0.00  0.00    -0.732 N 
ATOM      8  C   UNL d   1      -2.668  -1.586  -0.654  0.00  0.00     0.284 C 
ATOM      9  H3  UNL d   1      -2.108  -1.983  -2.619  0.00  0.00     0.395 HD
ENDBRANCH   1   7
TORSDOF 1
ENDMDL
