MODEL 1
REMARK minimizedAffinity 19.498127
REMARK minimizedRMSD -1
REMARK  1 active torsions:
REMARK  status: ('A' for Active; 'I' for Inactive)
REMARK    1  A    between atoms: N_2  and  C1_3 
ROOT
ATOM      1  C1  UNL d   1      -3.780  -3.608  -2.498  0.00  0.00     0.143 A 
ATOM      2  C2  UNL d   1      -3.362  -4.814  -1.926  0.00  0.00    -0.057 A 
ATOM      3  C3  UNL d   1      -4.114  -5.986  -2.070  0.00  0.00     0.033 A 
ATOM      4  C4  UNL d   1      -5.318  -5.965  -2.767  0.00  0.00    -0.042 A 
ATOM      5  C5  UNL d   1      -5.766  -4.773  -3.323  0.00  0.00     0.033 A 
ATOM      6  C6  UNL d   1      -5.007  -3.607  -3.181  0.00  0.00    -0.057 A 
ENDROOT
BRANCH   1   7
ATOM      7  N   UNL d   1      -3.127  -2.388  -2.307  0.00  0.00    -0.732 N 
ATOM      8  C   UNL d   1      -2.795  -1.930  -0.975  0.00  0.00     0.284 C 
ATOM      9  H3  UNL d   1      -2.395  -2.227  -2.996  0.00  0.00     0.395 HD
ENDBRANCH   1   7
TORSDOF 1
ENDMDL
