MODEL 1
REMARK minimizedAffinity 8.44886589
REMARK minimizedRMSD -1
REMARK  1 active torsions:
REMARK  status: ('A' for Active; 'I' for Inactive)
REMARK    1  A    between atoms: N_2  and  C1_3 
ROOT
ATOM      1  C1  UNL d   1       2.648   3.122  -5.138  0.00  0.00     0.143 A 
ATOM      2  C2  UNL d   1       3.143   1.888  -5.574  0.00  0.00    -0.057 A 
ATOM      3  C3  UNL d   1       3.829   1.033  -4.704  0.00  0.00     0.033 A 
ATOM      4  C4  UNL d   1       4.057   1.410  -3.384  0.00  0.00    -0.042 A 
ATOM      5  C5  UNL d   1       3.595   2.642  -2.936  0.00  0.00     0.033 A 
ATOM      6  C6  UNL d   1       2.905   3.489  -3.808  0.00  0.00    -0.057 A 
ENDROOT
BRANCH   1   7
ATOM      7  N   UNL d   1       2.044   4.059  -5.980  0.00  0.00    -0.732 N 
ATOM      8  C   UNL d   1       2.197   5.477  -5.734  0.00  0.00     0.284 C 
ATOM      9  H3  UNL d   1       2.109   3.798  -6.962  0.00  0.00     0.395 HD
ENDBRANCH   1   7
TORSDOF 1
ENDMDL
