MODEL 1
REMARK minimizedAffinity 3.62818193
REMARK minimizedRMSD -1
REMARK  1 active torsions:
REMARK  status: ('A' for Active; 'I' for Inactive)
REMARK    1  A    between atoms: N_2  and  C1_3 
ROOT
ATOM      1  C1  UNL d   1       3.927   1.351  -0.516  0.00  0.00     0.143 A 
ATOM      2  C2  UNL d   1       2.828   1.887   0.164  0.00  0.00    -0.057 A 
ATOM      3  C3  UNL d   1       2.332   1.288   1.328  0.00  0.00     0.033 A 
ATOM      4  C4  UNL d   1       2.910   0.122   1.818  0.00  0.00    -0.042 A 
ATOM      5  C5  UNL d   1       3.988  -0.442   1.145  0.00  0.00     0.033 A 
ATOM      6  C6  UNL d   1       4.484   0.164  -0.013  0.00  0.00    -0.057 A 
ENDROOT
BRANCH   1   7
ATOM      7  N   UNL d   1       4.406   1.844  -1.732  0.00  0.00    -0.732 N 
ATOM      8  C   UNL d   1       3.541   2.601  -2.612  0.00  0.00     0.284 C 
ATOM      9  H3  UNL d   1       5.350   2.216  -1.657  0.00  0.00     0.395 HD
ENDBRANCH   1   7
TORSDOF 1
ENDMDL
