MODEL 1
REMARK minimizedAffinity 10.1300678
REMARK minimizedRMSD -1
REMARK  1 active torsions:
REMARK  status: ('A' for Active; 'I' for Inactive)
REMARK    1  A    between atoms: N_2  and  C1_3 
ROOT
ATOM      1  C1  UNL d   1      -0.590  -0.984   2.394  0.00  0.00     0.143 A 
ATOM      2  C2  UNL d   1      -0.920  -1.183   1.050  0.00  0.00    -0.057 A 
ATOM      3  C3  UNL d   1      -1.583  -2.342   0.628  0.00  0.00     0.033 A 
ATOM      4  C4  UNL d   1      -1.903  -3.339   1.544  0.00  0.00    -0.042 A 
ATOM      5  C5  UNL d   1      -1.562  -3.174   2.882  0.00  0.00     0.033 A 
ATOM      6  C6  UNL d   1      -0.906  -2.011   3.297  0.00  0.00    -0.057 A 
ENDROOT
BRANCH   1   7
ATOM      7  N   UNL d   1       0.156   0.102   2.860  0.00  0.00    -0.732 N 
ATOM      8  C   UNL d   1       0.843   0.975   1.933  0.00  0.00     0.284 C 
ATOM      9  H3  UNL d   1      -0.302   0.587   3.627  0.00  0.00     0.395 HD
ENDBRANCH   1   7
TORSDOF 1
ENDMDL
