MODEL 1
REMARK minimizedAffinity 4.67625332
REMARK minimizedRMSD -1
REMARK  1 active torsions:
REMARK  status: ('A' for Active; 'I' for Inactive)
REMARK    1  A    between atoms: N_2  and  C1_3 
ROOT
ATOM      1  C1  UNL d   1      -4.593  -3.863  -3.040  0.00  0.00     0.143 A 
ATOM      2  C2  UNL d   1      -4.449  -5.179  -2.585  0.00  0.00    -0.057 A 
ATOM      3  C3  UNL d   1      -3.193  -5.696  -2.246  0.00  0.00     0.033 A 
ATOM      4  C4  UNL d   1      -2.051  -4.913  -2.384  0.00  0.00    -0.042 A 
ATOM      5  C5  UNL d   1      -2.168  -3.611  -2.857  0.00  0.00     0.033 A 
ATOM      6  C6  UNL d   1      -3.425  -3.098  -3.188  0.00  0.00    -0.057 A 
ENDROOT
BRANCH   1   7
ATOM      7  N   UNL d   1      -5.801  -3.323  -3.486  0.00  0.00    -0.732 N 
ATOM      8  C   UNL d   1      -6.000  -3.018  -4.887  0.00  0.00     0.284 C 
ATOM      9  H3  UNL d   1      -6.608  -3.749  -3.035  0.00  0.00     0.395 HD
ENDBRANCH   1   7
TORSDOF 1
ENDMDL
