MODEL 1
REMARK minimizedAffinity 14.3910885
REMARK minimizedRMSD -1
REMARK  1 active torsions:
REMARK  status: ('A' for Active; 'I' for Inactive)
REMARK    1  A    between atoms: N_2  and  C1_3 
ROOT
ATOM      1  C1  UNL d   1      -3.167  -4.537  -2.775  0.00  0.00     0.143 A 
ATOM      2  C2  UNL d   1      -3.956  -3.470  -3.220  0.00  0.00    -0.057 A 
ATOM      3  C3  UNL d   1      -5.353  -3.565  -3.252  0.00  0.00     0.033 A 
ATOM      4  C4  UNL d   1      -5.985  -4.743  -2.867  0.00  0.00    -0.042 A 
ATOM      5  C5  UNL d   1      -5.220  -5.824  -2.446  0.00  0.00     0.033 A 
ATOM      6  C6  UNL d   1      -3.826  -5.721  -2.409  0.00  0.00    -0.057 A 
ENDROOT
BRANCH   1   7
ATOM      7  N   UNL d   1      -1.771  -4.539  -2.813  0.00  0.00    -0.732 N 
ATOM      8  C   UNL d   1      -1.067  -4.608  -4.075  0.00  0.00     0.284 C 
ATOM      9  H3  UNL d   1      -1.363  -3.888  -2.145  0.00  0.00     0.395 HD
ENDBRANCH   1   7
TORSDOF 1
ENDMDL
