MODEL 1
REMARK minimizedAffinity 3.5507102
REMARK minimizedRMSD -1
REMARK  1 active torsions:
REMARK  status: ('A' for Active; 'I' for Inactive)
REMARK    1  A    between atoms: N_2  and  C1_3 
ROOT
ATOM      1  C1  UNL d   1      -5.718   4.828   3.197  0.00  0.00     0.143 A 
ATOM      2  C2  UNL d   1      -5.999   5.990   2.471  0.00  0.00    -0.057 A 
ATOM      3  C3  UNL d   1      -5.972   5.996   1.071  0.00  0.00     0.033 A 
ATOM      4  C4  UNL d   1      -5.633   4.843   0.371  0.00  0.00    -0.042 A 
ATOM      5  C5  UNL d   1      -5.326   3.682   1.073  0.00  0.00     0.033 A 
ATOM      6  C6  UNL d   1      -5.362   3.681   2.471  0.00  0.00    -0.057 A 
ENDROOT
BRANCH   1   7
ATOM      7  N   UNL d   1      -5.633   4.783   4.591  0.00  0.00    -0.732 N 
ATOM      8  C   UNL d   1      -5.847   5.976   5.382  0.00  0.00     0.284 C 
ATOM      9  H3  UNL d   1      -6.060   3.945   4.979  0.00  0.00     0.395 HD
ENDBRANCH   1   7
TORSDOF 1
ENDMDL
