MODEL 1
REMARK minimizedAffinity 6.60739708
REMARK minimizedRMSD -1
REMARK  1 active torsions:
REMARK  status: ('A' for Active; 'I' for Inactive)
REMARK    1  A    between atoms: N_2  and  C1_3 
ROOT
ATOM      1  C1  UNL d   1       2.663   3.791  -4.427  0.00  0.00     0.143 A 
ATOM      2  C2  UNL d   1       3.878   4.457  -4.618  0.00  0.00    -0.057 A 
ATOM      3  C3  UNL d   1       5.100   3.831  -4.343  0.00  0.00     0.033 A 
ATOM      4  C4  UNL d   1       5.127   2.534  -3.843  0.00  0.00    -0.042 A 
ATOM      5  C5  UNL d   1       3.931   1.861  -3.621  0.00  0.00     0.033 A 
ATOM      6  C6  UNL d   1       2.714   2.489  -3.904  0.00  0.00    -0.057 A 
ENDROOT
BRANCH   1   7
ATOM      7  N   UNL d   1       1.413   4.392  -4.588  0.00  0.00    -0.732 N 
ATOM      8  C   UNL d   1       0.976   4.847  -5.891  0.00  0.00     0.284 C 
ATOM      9  H3  UNL d   1       0.687   3.931  -4.044  0.00  0.00     0.395 HD
ENDBRANCH   1   7
TORSDOF 1
ENDMDL
