MODEL 1
REMARK minimizedAffinity 6.93213463
REMARK minimizedRMSD -1
REMARK  1 active torsions:
REMARK  status: ('A' for Active; 'I' for Inactive)
REMARK    1  A    between atoms: N_2  and  C1_3 
ROOT
ATOM      1  C1  UNL d   1       2.033   0.591   0.673  0.00  0.00     0.143 A 
ATOM      2  C2  UNL d   1       1.224   0.119   1.712  0.00  0.00    -0.057 A 
ATOM      3  C3  UNL d   1       0.437   0.992   2.474  0.00  0.00     0.033 A 
ATOM      4  C4  UNL d   1       0.469   2.360   2.228  0.00  0.00    -0.042 A 
ATOM      5  C5  UNL d   1       1.285   2.855   1.217  0.00  0.00     0.033 A 
ATOM      6  C6  UNL d   1       2.063   1.977   0.455  0.00  0.00    -0.057 A 
ENDROOT
BRANCH   1   7
ATOM      7  N   UNL d   1       2.912  -0.214  -0.055  0.00  0.00    -0.732 N 
ATOM      8  C   UNL d   1       4.298  -0.338   0.341  0.00  0.00     0.284 C 
ATOM      9  H3  UNL d   1       2.484  -1.089  -0.350  0.00  0.00     0.395 HD
ENDBRANCH   1   7
TORSDOF 1
ENDMDL
