MODEL 1
REMARK minimizedAffinity 7.34205818
REMARK minimizedRMSD -1
REMARK  1 active torsions:
REMARK  status: ('A' for Active; 'I' for Inactive)
REMARK    1  A    between atoms: N_2  and  C1_3 
ROOT
ATOM      1  C1  UNL d   1       2.960   3.563  -4.244  0.00  0.00     0.143 A 
ATOM      2  C2  UNL d   1       4.172   3.977  -4.805  0.00  0.00    -0.057 A 
ATOM      3  C3  UNL d   1       5.376   3.339  -4.485  0.00  0.00     0.033 A 
ATOM      4  C4  UNL d   1       5.393   2.289  -3.573  0.00  0.00    -0.042 A 
ATOM      5  C5  UNL d   1       4.203   1.876  -2.983  0.00  0.00     0.033 A 
ATOM      6  C6  UNL d   1       3.003   2.514  -3.312  0.00  0.00    -0.057 A 
ENDROOT
BRANCH   1   7
ATOM      7  N   UNL d   1       1.744   4.220  -4.446  0.00  0.00    -0.732 N 
ATOM      8  C   UNL d   1       1.366   4.682  -5.764  0.00  0.00     0.284 C 
ATOM      9  H3  UNL d   1       0.982   3.799  -3.919  0.00  0.00     0.395 HD
ENDBRANCH   1   7
TORSDOF 1
ENDMDL
