MODEL 1
REMARK minimizedAffinity -0.683940828
REMARK minimizedRMSD -1
REMARK  1 active torsions:
REMARK  status: ('A' for Active; 'I' for Inactive)
REMARK    1  A    between atoms: C1_2  and  C2_3 
ROOT
ATOM      1  C2  UNL d   1      -0.537   0.390   1.272  0.00  0.00    -0.077 A 
ATOM      2  C3  UNL d   1       0.235  -0.732   1.603  0.00  0.00     0.002 A 
ATOM      3  C4  UNL d   1       1.531  -0.871   1.104  0.00  0.00     0.002 A 
ATOM      4  C5  UNL d   1       2.069   0.111   0.274  0.00  0.00    -0.004 A 
ATOM      5  C6  UNL d   1       1.308   1.230  -0.063  0.00  0.00     0.002 A 
ATOM      6  C7  UNL d   1       0.012   1.370   0.434  0.00  0.00     0.002 A 
ENDROOT
BRANCH   1   7
ATOM      7  C1  UNL d   1      -1.917   0.566   1.849  0.00  0.00     0.055 C 
ATOM      8  C   UNL d   1      -2.185   2.019   2.212  0.00  0.00     0.019 C 
ENDBRANCH   1   7
TORSDOF 1
ENDMDL
