MODEL 1
REMARK minimizedAffinity 8.4342947
REMARK minimizedRMSD -1
REMARK  1 active torsions:
REMARK  status: ('A' for Active; 'I' for Inactive)
REMARK    1  A    between atoms: C1_2  and  C2_3 
ROOT
ATOM      1  C2  UNL d   1      -1.901   2.021   2.234  0.00  0.00    -0.077 A 
ATOM      2  C3  UNL d   1      -1.966   3.134   1.383  0.00  0.00     0.002 A 
ATOM      3  C4  UNL d   1      -0.907   3.428   0.522  0.00  0.00     0.002 A 
ATOM      4  C5  UNL d   1       0.222   2.612   0.500  0.00  0.00    -0.004 A 
ATOM      5  C6  UNL d   1       0.297   1.504   1.343  0.00  0.00     0.002 A 
ATOM      6  C7  UNL d   1      -0.760   1.210   2.206  0.00  0.00     0.002 A 
ENDROOT
BRANCH   1   7
ATOM      7  C1  UNL d   1      -3.063   1.675   3.128  0.00  0.00     0.055 C 
ATOM      8  C   UNL d   1      -3.981   2.871   3.331  0.00  0.00     0.019 C 
ENDBRANCH   1   7
TORSDOF 1
ENDMDL
