MODEL 1
REMARK minimizedAffinity -5.17022753
REMARK minimizedRMSD -1
REMARK  1 active torsions:
REMARK  status: ('A' for Active; 'I' for Inactive)
REMARK    1  A    between atoms: C1_2  and  C2_3 
ROOT
ATOM      1  C2  UNL d   1       1.048   0.583   2.656  0.00  0.00    -0.077 A 
ATOM      2  C3  UNL d   1       0.891   1.962   2.465  0.00  0.00     0.002 A 
ATOM      3  C4  UNL d   1       0.047   2.445   1.463  0.00  0.00     0.002 A 
ATOM      4  C5  UNL d   1      -0.649   1.555   0.648  0.00  0.00    -0.004 A 
ATOM      5  C6  UNL d   1      -0.498   0.181   0.829  0.00  0.00     0.002 A 
ATOM      6  C7  UNL d   1       0.346  -0.303   1.829  0.00  0.00     0.002 A 
ENDROOT
BRANCH   1   7
ATOM      7  C1  UNL d   1       1.920   0.060   3.769  0.00  0.00     0.055 C 
ATOM      8  C   UNL d   1       3.259  -0.431   3.238  0.00  0.00     0.019 C 
ENDBRANCH   1   7
TORSDOF 1
ENDMDL
