MODEL 1
REMARK minimizedAffinity -0.076116778
REMARK minimizedRMSD -1
REMARK  1 active torsions:
REMARK  status: ('A' for Active; 'I' for Inactive)
REMARK    1  A    between atoms: C1_2  and  C2_3 
ROOT
ATOM      1  C2  UNL d   1      -0.356  -0.475   1.721  0.00  0.00    -0.077 A 
ATOM      2  C3  UNL d   1       0.577   0.315   1.035  0.00  0.00     0.002 A 
ATOM      3  C4  UNL d   1       0.184   1.516   0.440  0.00  0.00     0.002 A 
ATOM      4  C5  UNL d   1      -1.140   1.939   0.530  0.00  0.00    -0.004 A 
ATOM      5  C6  UNL d   1      -2.076   1.159   1.208  0.00  0.00     0.002 A 
ATOM      6  C7  UNL d   1      -1.686  -0.042   1.802  0.00  0.00     0.002 A 
ENDROOT
BRANCH   1   7
ATOM      7  C1  UNL d   1       0.076  -1.746   2.405  0.00  0.00     0.055 C 
ATOM      8  C   UNL d   1       0.461  -1.490   3.855  0.00  0.00     0.019 C 
ENDBRANCH   1   7
TORSDOF 1
ENDMDL
