MODEL 1
REMARK minimizedAffinity -0.211693913
REMARK minimizedRMSD -1
REMARK  1 active torsions:
REMARK  status: ('A' for Active; 'I' for Inactive)
REMARK    1  A    between atoms: C1_2  and  C2_3 
ROOT
ATOM      1  C2  UNL d   1      -0.093   0.664   1.175  0.00  0.00    -0.077 A 
ATOM      2  C3  UNL d   1      -1.312   0.045   0.867  0.00  0.00     0.002 A 
ATOM      3  C4  UNL d   1      -1.521  -1.299   1.184  0.00  0.00     0.002 A 
ATOM      4  C5  UNL d   1      -0.518  -2.032   1.813  0.00  0.00    -0.004 A 
ATOM      5  C6  UNL d   1       0.699  -1.426   2.122  0.00  0.00     0.002 A 
ATOM      6  C7  UNL d   1       0.910  -0.083   1.805  0.00  0.00     0.002 A 
ENDROOT
BRANCH   1   7
ATOM      7  C1  UNL d   1       0.117   2.126   0.879  0.00  0.00     0.055 C 
ATOM      8  C   UNL d   1      -0.849   2.996   1.670  0.00  0.00     0.019 C 
ENDBRANCH   1   7
TORSDOF 1
ENDMDL
