MODEL 1
REMARK minimizedAffinity 1.52632225
REMARK minimizedRMSD -1
REMARK  1 active torsions:
REMARK  status: ('A' for Active; 'I' for Inactive)
REMARK    1  A    between atoms: C1_2  and  C2_3 
ROOT
ATOM      1  C2  UNL d   1       1.619   1.479   0.036  0.00  0.00    -0.077 A 
ATOM      2  C3  UNL d   1       1.984   1.446  -1.317  0.00  0.00     0.002 A 
ATOM      3  C4  UNL d   1       2.779   0.409  -1.809  0.00  0.00     0.002 A 
ATOM      4  C5  UNL d   1       3.212  -0.604  -0.956  0.00  0.00    -0.004 A 
ATOM      5  C6  UNL d   1       2.856  -0.579   0.391  0.00  0.00     0.002 A 
ATOM      6  C7  UNL d   1       2.063   0.457   0.885  0.00  0.00     0.002 A 
ENDROOT
BRANCH   1   7
ATOM      7  C1  UNL d   1       0.721   2.570   0.558  0.00  0.00     0.055 C 
ATOM      8  C   UNL d   1      -0.210   2.049   1.643  0.00  0.00     0.019 C 
ENDBRANCH   1   7
TORSDOF 1
ENDMDL
