MODEL 1
REMARK minimizedAffinity 4.20373297
REMARK minimizedRMSD -1
REMARK  1 active torsions:
REMARK  status: ('A' for Active; 'I' for Inactive)
REMARK    1  A    between atoms: C1_2  and  C2_3 
ROOT
ATOM      1  C2  UNL d   1      -1.161   1.736   1.903  0.00  0.00    -0.077 A 
ATOM      2  C3  UNL d   1      -1.216   0.483   2.531  0.00  0.00     0.002 A 
ATOM      3  C4  UNL d   1      -0.132  -0.393   2.454  0.00  0.00     0.002 A 
ATOM      4  C5  UNL d   1       1.016  -0.025   1.754  0.00  0.00    -0.004 A 
ATOM      5  C6  UNL d   1       1.079   1.218   1.125  0.00  0.00     0.002 A 
ATOM      6  C7  UNL d   1      -0.004   2.094   1.200  0.00  0.00     0.002 A 
ENDROOT
BRANCH   1   7
ATOM      7  C1  UNL d   1      -2.310   2.702   2.026  0.00  0.00     0.055 C 
ATOM      8  C   UNL d   1      -3.238   2.316   3.169  0.00  0.00     0.019 C 
ENDBRANCH   1   7
TORSDOF 1
ENDMDL
