MODEL 1
REMARK minimizedAffinity 0.108519837
REMARK minimizedRMSD -1
REMARK  1 active torsions:
REMARK  status: ('A' for Active; 'I' for Inactive)
REMARK    1  A    between atoms: C1_2  and  C2_3 
ROOT
ATOM      1  C2  UNL d   1      -1.320   0.123   1.263  0.00  0.00    -0.077 A 
ATOM      2  C3  UNL d   1      -0.147  -0.621   1.072  0.00  0.00     0.002 A 
ATOM      3  C4  UNL d   1       1.101   0.003   1.127  0.00  0.00     0.002 A 
ATOM      4  C5  UNL d   1       1.188   1.371   1.378  0.00  0.00    -0.004 A 
ATOM      5  C6  UNL d   1       0.027   2.119   1.567  0.00  0.00     0.002 A 
ATOM      6  C7  UNL d   1      -1.222   1.498   1.511  0.00  0.00     0.002 A 
ENDROOT
BRANCH   1   7
ATOM      7  C1  UNL d   1      -2.665  -0.557   1.253  0.00  0.00     0.055 C 
ATOM      8  C   UNL d   1      -3.438  -0.274   2.533  0.00  0.00     0.019 C 
ENDBRANCH   1   7
TORSDOF 1
ENDMDL
