MODEL 1
REMARK minimizedAffinity -2.79958653
REMARK minimizedRMSD -1
REMARK  0 active torsions:
REMARK  status: ('A' for Active; 'I' for Inactive)
ROOT
ATOM      1  C   UNL d   1       0.735  -0.937  -1.636  0.00  0.00     0.172 C 
ATOM      2  N   UNL d   1      -0.224  -0.147  -0.902  0.00  0.00    -0.070 N 
ATOM      3  C1  UNL d   1      -1.377  -0.618  -0.332  0.00  0.00    -0.004 A 
ATOM      4  C2  UNL d   1      -2.013   0.444   0.274  0.00  0.00    -0.047 A 
ATOM      5  C3  UNL d   1      -1.216   1.594   0.059  0.00  0.00    -0.047 A 
ATOM      6  C4  UNL d   1      -0.115   1.199  -0.671  0.00  0.00    -0.004 A 
ENDROOT
TORSDOF 0
ENDMDL
