MODEL 1
REMARK minimizedAffinity -2.93035698
REMARK minimizedRMSD -1
REMARK  0 active torsions:
REMARK  status: ('A' for Active; 'I' for Inactive)
ROOT
ATOM      1  C   UNL d   1      -0.991   0.965   3.025  0.00  0.00     0.172 C 
ATOM      2  N   UNL d   1      -0.637   0.511   1.700  0.00  0.00    -0.070 N 
ATOM      3  C1  UNL d   1       0.617   0.140   1.292  0.00  0.00    -0.004 A 
ATOM      4  C2  UNL d   1       0.538  -0.226  -0.034  0.00  0.00    -0.047 A 
ATOM      5  C3  UNL d   1      -0.809  -0.070  -0.437  0.00  0.00    -0.047 A 
ATOM      6  C4  UNL d   1      -1.515   0.388   0.656  0.00  0.00    -0.004 A 
ENDROOT
TORSDOF 0
ENDMDL
