MODEL 1
REMARK minimizedAffinity -2.93137336
REMARK minimizedRMSD -1
REMARK  0 active torsions:
REMARK  status: ('A' for Active; 'I' for Inactive)
ROOT
ATOM      1  C   UNL d   1      -0.593   0.070   0.260  0.00  0.00     0.172 C 
ATOM      2  N   UNL d   1       0.013  -0.175  -1.028  0.00  0.00    -0.070 N 
ATOM      3  C1  UNL d   1       0.373  -1.401  -1.521  0.00  0.00    -0.004 A 
ATOM      4  C2  UNL d   1       0.914  -1.210  -2.774  0.00  0.00    -0.047 A 
ATOM      5  C3  UNL d   1       0.879   0.179  -3.043  0.00  0.00    -0.047 A 
ATOM      6  C4  UNL d   1       0.317   0.796  -1.946  0.00  0.00    -0.004 A 
ENDROOT
TORSDOF 0
ENDMDL
