MODEL 1
REMARK minimizedAffinity -3.30861259
REMARK minimizedRMSD -1
REMARK  0 active torsions:
REMARK  status: ('A' for Active; 'I' for Inactive)
ROOT
ATOM      1  C   UNL d   1      -1.444   0.363   1.515  0.00  0.00     0.172 C 
ATOM      2  N   UNL d   1      -0.521   0.296   0.406  0.00  0.00    -0.070 N 
ATOM      3  C1  UNL d   1      -0.343   1.267  -0.543  0.00  0.00    -0.004 A 
ATOM      4  C2  UNL d   1       0.622   0.824  -1.422  0.00  0.00    -0.047 A 
ATOM      5  C3  UNL d   1       1.036  -0.457  -0.987  0.00  0.00    -0.047 A 
ATOM      6  C4  UNL d   1       0.312  -0.759   0.147  0.00  0.00    -0.004 A 
ENDROOT
TORSDOF 0
ENDMDL
