MODEL 1
REMARK minimizedAffinity -1.6164093
REMARK minimizedRMSD -1
REMARK  0 active torsions:
REMARK  status: ('A' for Active; 'I' for Inactive)
ROOT
ATOM      1  C   UNL d   1      -2.093   0.715   1.712  0.00  0.00     0.172 C 
ATOM      2  N   UNL d   1      -1.255   0.334   0.599  0.00  0.00    -0.070 N 
ATOM      3  C1  UNL d   1      -0.899  -0.946   0.270  0.00  0.00    -0.004 A 
ATOM      4  C2  UNL d   1      -0.097  -0.887  -0.850  0.00  0.00    -0.047 A 
ATOM      5  C3  UNL d   1       0.034   0.477  -1.205  0.00  0.00    -0.047 A 
ATOM      6  C4  UNL d   1      -0.693   1.211  -0.291  0.00  0.00    -0.004 A 
ENDROOT
TORSDOF 0
ENDMDL
