MODEL 1
REMARK minimizedAffinity -1.27625692
REMARK minimizedRMSD -1
REMARK  0 active torsions:
REMARK  status: ('A' for Active; 'I' for Inactive)
ROOT
ATOM      1  C   UNL d   1      -1.516   0.633   2.222  0.00  0.00     0.172 C 
ATOM      2  N   UNL d   1      -0.840   0.239   1.009  0.00  0.00    -0.070 N 
ATOM      3  C1  UNL d   1      -1.382   0.253  -0.248  0.00  0.00    -0.004 A 
ATOM      4  C2  UNL d   1      -0.419  -0.193  -1.128  0.00  0.00    -0.047 A 
ATOM      5  C3  UNL d   1       0.741  -0.487  -0.373  0.00  0.00    -0.047 A 
ATOM      6  C4  UNL d   1       0.453  -0.210   0.947  0.00  0.00    -0.004 A 
ENDROOT
TORSDOF 0
ENDMDL
