MODEL 1
REMARK minimizedAffinity 0.978904426
REMARK minimizedRMSD -1
REMARK  0 active torsions:
REMARK  status: ('A' for Active; 'I' for Inactive)
ROOT
ATOM      1  C   UNL d   1       0.829  -0.053  -3.177  0.00  0.00     0.172 C 
ATOM      2  N   UNL d   1       0.157   0.006  -1.900  0.00  0.00    -0.070 N 
ATOM      3  C1  UNL d   1       0.583  -0.595  -0.746  0.00  0.00    -0.004 A 
ATOM      4  C2  UNL d   1      -0.329  -0.300   0.245  0.00  0.00    -0.047 A 
ATOM      5  C3  UNL d   1      -1.338   0.505  -0.335  0.00  0.00    -0.047 A 
ATOM      6  C4  UNL d   1      -1.012   0.680  -1.663  0.00  0.00    -0.004 A 
ENDROOT
TORSDOF 0
ENDMDL
