MODEL 1
REMARK minimizedAffinity -1.58188975
REMARK minimizedRMSD -1
REMARK  0 active torsions:
REMARK  status: ('A' for Active; 'I' for Inactive)
ROOT
ATOM      1  C   UNL d   1      -1.856   0.307   1.990  0.00  0.00     0.172 C 
ATOM      2  N   UNL d   1      -1.190  -0.119   0.782  0.00  0.00    -0.070 N 
ATOM      3  C1  UNL d   1      -1.187  -1.392   0.279  0.00  0.00    -0.004 A 
ATOM      4  C2  UNL d   1      -0.443  -1.386  -0.882  0.00  0.00    -0.047 A 
ATOM      5  C3  UNL d   1       0.017  -0.063  -1.082  0.00  0.00    -0.047 A 
ATOM      6  C4  UNL d   1      -0.459   0.701  -0.037  0.00  0.00    -0.004 A 
ENDROOT
TORSDOF 0
ENDMDL
