MODEL 1
REMARK minimizedAffinity -0.533167481
REMARK minimizedRMSD -1
REMARK  0 active torsions:
REMARK  status: ('A' for Active; 'I' for Inactive)
ROOT
ATOM      1  C   UNL d   1       0.646  -0.425  -0.607  0.00  0.00     0.172 C 
ATOM      2  N   UNL d   1       0.732  -0.232  -2.036  0.00  0.00    -0.070 N 
ATOM      3  C1  UNL d   1       1.770   0.366  -2.700  0.00  0.00    -0.004 A 
ATOM      4  C2  UNL d   1       1.474   0.354  -4.045  0.00  0.00    -0.047 A 
ATOM      5  C3  UNL d   1       0.213  -0.272  -4.196  0.00  0.00    -0.047 A 
ATOM      6  C4  UNL d   1      -0.223  -0.625  -2.936  0.00  0.00    -0.004 A 
ENDROOT
TORSDOF 0
ENDMDL
