MODEL 1
REMARK minimizedAffinity -3.22213817
REMARK minimizedRMSD -1
REMARK  0 active torsions:
REMARK  status: ('A' for Active; 'I' for Inactive)
ROOT
ATOM      1  C   UNL d   1       0.582  -0.106  -1.467  0.00  0.00     0.172 C 
ATOM      2  N   UNL d   1      -0.112   0.044  -0.209  0.00  0.00    -0.070 N 
ATOM      3  C1  UNL d   1       0.337  -0.396   1.008  0.00  0.00    -0.004 A 
ATOM      4  C2  UNL d   1      -0.609  -0.060   1.952  0.00  0.00    -0.047 A 
ATOM      5  C3  UNL d   1      -1.662   0.604   1.280  0.00  0.00    -0.047 A 
ATOM      6  C4  UNL d   1      -1.329   0.655  -0.057  0.00  0.00    -0.004 A 
ENDROOT
TORSDOF 0
ENDMDL
