MODEL 1
REMARK minimizedAffinity -2.61250901
REMARK minimizedRMSD -1
REMARK  0 active torsions:
REMARK  status: ('A' for Active; 'I' for Inactive)
ROOT
ATOM      1  C   UNL d   1       0.394   0.069  -1.401  0.00  0.00     0.172 C 
ATOM      2  N   UNL d   1      -0.416   0.462  -0.272  0.00  0.00    -0.070 N 
ATOM      3  C1  UNL d   1      -1.452   1.357  -0.304  0.00  0.00    -0.004 A 
ATOM      4  C2  UNL d   1      -1.964   1.456   0.971  0.00  0.00    -0.047 A 
ATOM      5  C3  UNL d   1      -1.210   0.591   1.799  0.00  0.00    -0.047 A 
ATOM      6  C4  UNL d   1      -0.258  -0.012   1.004  0.00  0.00    -0.004 A 
ENDROOT
TORSDOF 0
ENDMDL
