MODEL 1
REMARK minimizedAffinity -2.69839334
REMARK minimizedRMSD -1
REMARK  0 active torsions:
REMARK  status: ('A' for Active; 'I' for Inactive)
ROOT
ATOM      1  C   UNL d   1      -1.705   0.674   1.877  0.00  0.00     0.172 C 
ATOM      2  N   UNL d   1      -0.669  -0.101   1.235  0.00  0.00    -0.070 N 
ATOM      3  C1  UNL d   1      -0.778  -0.730   0.023  0.00  0.00    -0.004 A 
ATOM      4  C2  UNL d   1       0.421  -1.357  -0.236  0.00  0.00    -0.047 A 
ATOM      5  C3  UNL d   1       1.280  -1.097   0.858  0.00  0.00    -0.047 A 
ATOM      6  C4  UNL d   1       0.580  -0.317   1.754  0.00  0.00    -0.004 A 
ENDROOT
TORSDOF 0
ENDMDL
