MODEL 1
REMARK minimizedAffinity 3.4382782
REMARK minimizedRMSD -1
REMARK  0 active torsions:
REMARK  status: ('A' for Active; 'I' for Inactive)
ROOT
ATOM      1  O1  BZF d   1      -0.044  -3.292  -0.137  0.00  0.00    -0.204 OA
ATOM      2  C2  BZF d   1      -1.012  -3.388  -1.119  0.00  0.00     0.174 A 
ATOM      3  C3  BZF d   1      -1.166  -2.209  -1.755  0.00  0.00    -0.012 A 
ATOM      4  C3A BZF d   1      -0.171  -1.346  -1.196  0.00  0.00    -0.107 A 
ATOM      5  C4  BZF d   1       0.186  -0.049  -1.430  0.00  0.00     0.055 A 
ATOM      6  C5  BZF d   1       1.151   0.519  -0.660  0.00  0.00    -0.016 A 
ATOM      7  C6  BZF d   1       1.775  -0.177   0.354  0.00  0.00     0.022 A 
ATOM      8  C7  BZF d   1       1.458  -1.468   0.621  0.00  0.00     0.029 A 
ATOM      9  C7A BZF d   1       0.507  -2.055  -0.177  0.00  0.00     0.058 A 
ENDROOT
TORSDOF 0
ENDMDL
