MODEL 1
REMARK minimizedAffinity 2.93121314
REMARK minimizedRMSD -1
REMARK  0 active torsions:
REMARK  status: ('A' for Active; 'I' for Inactive)
ROOT
ATOM      1  O1  BZF d   1      -1.051   0.198   0.188  0.00  0.00    -0.204 OA
ATOM      2  C2  BZF d   1      -1.287  -0.737  -0.802  0.00  0.00     0.174 A 
ATOM      3  C3  BZF d   1      -0.130  -1.280  -1.232  0.00  0.00    -0.012 A 
ATOM      4  C3A BZF d   1       0.885  -0.712  -0.399  0.00  0.00    -0.107 A 
ATOM      5  C4  BZF d   1       2.240  -0.872  -0.328  0.00  0.00     0.055 A 
ATOM      6  C5  BZF d   1       2.949  -0.114   0.549  0.00  0.00    -0.016 A 
ATOM      7  C6  BZF d   1       2.338   0.815   1.366  0.00  0.00     0.022 A 
ATOM      8  C7  BZF d   1       0.997   1.005   1.335  0.00  0.00     0.029 A 
ATOM      9  C7A BZF d   1       0.273   0.218   0.473  0.00  0.00     0.058 A 
ENDROOT
TORSDOF 0
ENDMDL
