MODEL 1
REMARK minimizedAffinity 11.0445509
REMARK minimizedRMSD -1
REMARK  0 active torsions:
REMARK  status: ('A' for Active; 'I' for Inactive)
ROOT
ATOM      1  O1  BZF d   1      -2.140  -3.528  -5.967  0.00  0.00    -0.204 OA
ATOM      2  C2  BZF d   1      -3.021  -4.544  -5.649  0.00  0.00     0.174 A 
ATOM      3  C3  BZF d   1      -2.354  -5.671  -5.325  0.00  0.00    -0.012 A 
ATOM      4  C3A BZF d   1      -0.970  -5.312  -5.358  0.00  0.00    -0.107 A 
ATOM      5  C4  BZF d   1       0.184  -6.000  -5.112  0.00  0.00     0.055 A 
ATOM      6  C5  BZF d   1       1.377  -5.378  -5.305  0.00  0.00    -0.016 A 
ATOM      7  C6  BZF d   1       1.453  -4.074  -5.747  0.00  0.00     0.022 A 
ATOM      8  C7  BZF d   1       0.336  -3.349  -6.000  0.00  0.00     0.029 A 
ATOM      9  C7A BZF d   1      -0.872  -3.964  -5.774  0.00  0.00     0.058 A 
ENDROOT
TORSDOF 0
ENDMDL
