MODEL 1
REMARK minimizedAffinity 6.11096144
REMARK minimizedRMSD -1
REMARK  0 active torsions:
REMARK  status: ('A' for Active; 'I' for Inactive)
ROOT
ATOM      1  O1  BZF d   1       0.403  -1.066   0.927  0.00  0.00    -0.204 OA
ATOM      2  C2  BZF d   1       0.763  -1.351  -0.376  0.00  0.00     0.174 A 
ATOM      3  C3  BZF d   1       1.720  -0.502  -0.804  0.00  0.00    -0.012 A 
ATOM      4  C3A BZF d   1       2.039   0.309   0.331  0.00  0.00    -0.107 A 
ATOM      5  C4  BZF d   1       2.928   1.324   0.540  0.00  0.00     0.055 A 
ATOM      6  C5  BZF d   1       2.940   1.955   1.743  0.00  0.00    -0.016 A 
ATOM      7  C6  BZF d   1       2.075   1.600   2.758  0.00  0.00     0.022 A 
ATOM      8  C7  BZF d   1       1.179   0.595   2.600  0.00  0.00     0.029 A 
ATOM      9  C7A BZF d   1       1.187  -0.066   1.396  0.00  0.00     0.058 A 
ENDROOT
TORSDOF 0
ENDMDL
