MODEL 1
REMARK minimizedAffinity 17.4441109
REMARK minimizedRMSD -1
REMARK  0 active torsions:
REMARK  status: ('A' for Active; 'I' for Inactive)
ROOT
ATOM      1  O1  BZF d   1       2.032   1.453  -5.184  0.00  0.00    -0.204 OA
ATOM      2  C2  BZF d   1       1.153   0.401  -5.351  0.00  0.00     0.174 A 
ATOM      3  C3  BZF d   1       1.334  -0.531  -4.393  0.00  0.00    -0.012 A 
ATOM      4  C3A BZF d   1       2.331   0.014  -3.522  0.00  0.00    -0.107 A 
ATOM      5  C4  BZF d   1       2.924  -0.435  -2.377  0.00  0.00     0.055 A 
ATOM      6  C5  BZF d   1       3.913   0.305  -1.811  0.00  0.00    -0.016 A 
ATOM      7  C6  BZF d   1       4.337   1.495  -2.366  0.00  0.00     0.022 A 
ATOM      8  C7  BZF d   1       3.775   1.984  -3.499  0.00  0.00     0.029 A 
ATOM      9  C7A BZF d   1       2.753   1.254  -4.054  0.00  0.00     0.058 A 
ENDROOT
TORSDOF 0
ENDMDL
