MODEL 1
REMARK minimizedAffinity 4.3956933
REMARK minimizedRMSD -1
REMARK  0 active torsions:
REMARK  status: ('A' for Active; 'I' for Inactive)
ROOT
ATOM      1  O1  BZF d   1      -4.000   1.683   0.234  0.00  0.00    -0.204 OA
ATOM      2  C2  BZF d   1      -4.471   1.155  -0.952  0.00  0.00     0.174 A 
ATOM      3  C3  BZF d   1      -4.155  -0.152  -1.054  0.00  0.00    -0.012 A 
ATOM      4  C3A BZF d   1      -3.522  -0.483   0.185  0.00  0.00    -0.107 A 
ATOM      5  C4  BZF d   1      -2.998  -1.638   0.693  0.00  0.00     0.055 A 
ATOM      6  C5  BZF d   1      -2.386  -1.608   1.906  0.00  0.00    -0.016 A 
ATOM      7  C6  BZF d   1      -2.275  -0.443   2.635  0.00  0.00     0.022 A 
ATOM      8  C7  BZF d   1      -2.784   0.727   2.175  0.00  0.00     0.029 A 
ATOM      9  C7A BZF d   1      -3.432   0.693   0.965  0.00  0.00     0.058 A 
ENDROOT
TORSDOF 0
ENDMDL
