MODEL 1
REMARK minimizedAffinity 12.8142662
REMARK minimizedRMSD -1
REMARK  0 active torsions:
REMARK  status: ('A' for Active; 'I' for Inactive)
ROOT
ATOM      1  C   UNL d   1      -1.101   3.584  -5.984  0.00  0.00     0.023 A 
ATOM      2  C1  UNL d   1      -1.725   2.336  -5.985  0.00  0.00     0.003 A 
ATOM      3  C2  UNL d   1      -3.118   2.251  -5.980  0.00  0.00     0.048 A 
ATOM      4  C3  UNL d   1      -3.882   3.417  -5.975  0.00  0.00     0.023 A 
ATOM      5  C4  UNL d   1      -3.263   4.668  -5.975  0.00  0.00     0.048 A 
ATOM      6  C5  UNL d   1      -1.869   4.749  -5.979  0.00  0.00     0.003 A 
ATOM      7  I   UNL d   1      -5.957   3.293  -5.969  0.00  0.00    -0.146 I 
ENDROOT
TORSDOF 0
ENDMDL
