MODEL 1
REMARK minimizedAffinity 5.68499947
REMARK minimizedRMSD -1
REMARK  0 active torsions:
REMARK  status: ('A' for Active; 'I' for Inactive)
ROOT
ATOM      1  C   UNL d   1      -4.208   5.182  -5.837  0.00  0.00     0.023 A 
ATOM      2  C1  UNL d   1      -4.366   3.798  -5.767  0.00  0.00     0.003 A 
ATOM      3  C2  UNL d   1      -3.248   2.962  -5.814  0.00  0.00     0.048 A 
ATOM      4  C3  UNL d   1      -1.975   3.518  -5.930  0.00  0.00     0.023 A 
ATOM      5  C4  UNL d   1      -1.811   4.902  -6.000  0.00  0.00     0.048 A 
ATOM      6  C5  UNL d   1      -2.932   5.734  -5.953  0.00  0.00     0.003 A 
ATOM      7  I   UNL d   1      -0.309   2.277  -6.000  0.00  0.00    -0.146 I 
ENDROOT
TORSDOF 0
ENDMDL
