MODEL 1
REMARK minimizedAffinity 1.52328408
REMARK minimizedRMSD -1
REMARK  0 active torsions:
REMARK  status: ('A' for Active; 'I' for Inactive)
ROOT
ATOM      1  C   UNL d   1      -3.342   4.523  -4.429  0.00  0.00     0.023 A 
ATOM      2  C1  UNL d   1      -3.380   3.689  -5.547  0.00  0.00     0.003 A 
ATOM      3  C2  UNL d   1      -2.211   3.073  -5.999  0.00  0.00     0.048 A 
ATOM      4  C3  UNL d   1      -1.009   3.293  -5.328  0.00  0.00     0.023 A 
ATOM      5  C4  UNL d   1      -0.967   4.125  -4.209  0.00  0.00     0.048 A 
ATOM      6  C5  UNL d   1      -2.137   4.740  -3.761  0.00  0.00     0.003 A 
ATOM      7  I   UNL d   1       0.731   2.376  -6.000  0.00  0.00    -0.146 I 
ENDROOT
TORSDOF 0
ENDMDL
