MODEL 1
REMARK minimizedAffinity -1.72875512
REMARK minimizedRMSD -1
REMARK  0 active torsions:
REMARK  status: ('A' for Active; 'I' for Inactive)
ROOT
ATOM      1  C   UNL d   1      -5.203   5.534  -5.320  0.00  0.00     0.023 A 
ATOM      2  C1  UNL d   1      -5.382   4.238  -5.804  0.00  0.00     0.003 A 
ATOM      3  C2  UNL d   1      -4.278   3.406  -5.998  0.00  0.00     0.048 A 
ATOM      4  C3  UNL d   1      -2.998   3.875  -5.706  0.00  0.00     0.023 A 
ATOM      5  C4  UNL d   1      -2.814   5.171  -5.220  0.00  0.00     0.048 A 
ATOM      6  C5  UNL d   1      -3.921   6.000  -5.028  0.00  0.00     0.003 A 
ATOM      7  I   UNL d   1      -1.354   2.637  -5.994  0.00  0.00    -0.146 I 
ENDROOT
TORSDOF 0
ENDMDL
