MODEL 1
REMARK minimizedAffinity -0.647242546
REMARK minimizedRMSD -1
REMARK  0 active torsions:
REMARK  status: ('A' for Active; 'I' for Inactive)
ROOT
ATOM      1  C   UNL d   1      -5.333   5.240  -5.993  0.00  0.00     0.023 A 
ATOM      2  C1  UNL d   1      -4.149   5.977  -5.997  0.00  0.00     0.003 A 
ATOM      3  C2  UNL d   1      -2.916   5.321  -5.999  0.00  0.00     0.048 A 
ATOM      4  C3  UNL d   1      -2.875   3.927  -5.997  0.00  0.00     0.023 A 
ATOM      5  C4  UNL d   1      -4.057   3.185  -5.993  0.00  0.00     0.048 A 
ATOM      6  C5  UNL d   1      -5.287   3.846  -5.991  0.00  0.00     0.003 A 
ATOM      7  I   UNL d   1      -1.042   2.948  -6.000  0.00  0.00    -0.146 I 
ENDROOT
TORSDOF 0
ENDMDL
