MODEL 1
REMARK minimizedAffinity 2.80905938
REMARK minimizedRMSD -1
REMARK  0 active torsions:
REMARK  status: ('A' for Active; 'I' for Inactive)
ROOT
ATOM      1  C   UNL d   1      -4.156   5.506  -5.965  0.00  0.00     0.023 A 
ATOM      2  C1  UNL d   1      -4.388   4.131  -5.989  0.00  0.00     0.003 A 
ATOM      3  C2  UNL d   1      -3.312   3.241  -5.997  0.00  0.00     0.048 A 
ATOM      4  C3  UNL d   1      -2.007   3.733  -5.980  0.00  0.00     0.023 A 
ATOM      5  C4  UNL d   1      -1.771   5.108  -5.955  0.00  0.00     0.048 A 
ATOM      6  C5  UNL d   1      -2.850   5.995  -5.948  0.00  0.00     0.003 A 
ATOM      7  I   UNL d   1      -0.404   2.410  -5.992  0.00  0.00    -0.146 I 
ENDROOT
TORSDOF 0
ENDMDL
