MODEL 1
REMARK minimizedAffinity 4.43923044
REMARK minimizedRMSD -1
REMARK  0 active torsions:
REMARK  status: ('A' for Active; 'I' for Inactive)
ROOT
ATOM      1  C   UNL d   1      -3.420   5.123  -5.998  0.00  0.00     0.023 A 
ATOM      2  C1  UNL d   1      -3.458   3.728  -5.997  0.00  0.00     0.003 A 
ATOM      3  C2  UNL d   1      -2.269   2.996  -5.998  0.00  0.00     0.048 A 
ATOM      4  C3  UNL d   1      -1.045   3.665  -5.999  0.00  0.00     0.023 A 
ATOM      5  C4  UNL d   1      -1.003   5.061  -5.998  0.00  0.00     0.048 A 
ATOM      6  C5  UNL d   1      -2.194   5.788  -5.998  0.00  0.00     0.003 A 
ATOM      7  I   UNL d   1       0.726   2.578  -6.000  0.00  0.00    -0.146 I 
ENDROOT
TORSDOF 0
ENDMDL
