MODEL 1
REMARK minimizedAffinity 4.61432219
REMARK minimizedRMSD -1
REMARK  0 active torsions:
REMARK  status: ('A' for Active; 'I' for Inactive)
ROOT
ATOM      1  C   UNL d   1       0.051   2.327  -5.787  0.00  0.00     0.023 A 
ATOM      2  C1  UNL d   1       0.504   3.643  -5.888  0.00  0.00     0.003 A 
ATOM      3  C2  UNL d   1      -0.412   4.695  -5.949  0.00  0.00     0.048 A 
ATOM      4  C3  UNL d   1      -1.779   4.425  -5.908  0.00  0.00     0.023 A 
ATOM      5  C4  UNL d   1      -2.237   3.111  -5.807  0.00  0.00     0.048 A 
ATOM      6  C5  UNL d   1      -1.318   2.062  -5.747  0.00  0.00     0.003 A 
ATOM      7  I   UNL d   1      -3.144   5.990  -5.999  0.00  0.00    -0.146 I 
ENDROOT
TORSDOF 0
ENDMDL
