MODEL 1
REMARK minimizedAffinity 6.7662735
REMARK minimizedRMSD -1
REMARK  0 active torsions:
REMARK  status: ('A' for Active; 'I' for Inactive)
ROOT
ATOM      1  C   UNL d   1       2.994  -0.284  -2.596  0.00  0.00     0.023 A 
ATOM      2  C1  UNL d   1       2.879   0.892  -1.855  0.00  0.00     0.003 A 
ATOM      3  C2  UNL d   1       1.953   0.974  -0.812  0.00  0.00     0.048 A 
ATOM      4  C3  UNL d   1       1.146  -0.124  -0.517  0.00  0.00     0.023 A 
ATOM      5  C4  UNL d   1       1.258  -1.303  -1.256  0.00  0.00     0.048 A 
ATOM      6  C5  UNL d   1       2.184  -1.380  -2.297  0.00  0.00     0.003 A 
ATOM      7  I   UNL d   1      -0.232  -0.004   1.034  0.00  0.00    -0.146 I 
ENDROOT
TORSDOF 0
ENDMDL
