MODEL 1
REMARK minimizedAffinity 0.589258015
REMARK minimizedRMSD -1
REMARK  0 active torsions:
REMARK  status: ('A' for Active; 'I' for Inactive)
ROOT
ATOM      1  C   UNL d   1      -5.189   5.757  -5.921  0.00  0.00     0.023 A 
ATOM      2  C1  UNL d   1      -5.666   4.447  -5.889  0.00  0.00     0.003 A 
ATOM      3  C2  UNL d   1      -4.770   3.376  -5.911  0.00  0.00     0.048 A 
ATOM      4  C3  UNL d   1      -3.398   3.623  -5.964  0.00  0.00     0.023 A 
ATOM      5  C4  UNL d   1      -2.917   4.932  -5.995  0.00  0.00     0.048 A 
ATOM      6  C5  UNL d   1      -3.816   6.000  -5.974  0.00  0.00     0.003 A 
ATOM      7  I   UNL d   1      -2.063   2.030  -5.998  0.00  0.00    -0.146 I 
ENDROOT
TORSDOF 0
ENDMDL
