MODEL 1
REMARK minimizedAffinity 10.6140528
REMARK minimizedRMSD -1
REMARK  0 active torsions:
REMARK  status: ('A' for Active; 'I' for Inactive)
ROOT
ATOM      1  C   UNL d   1      -1.527   3.190   3.350  0.00  0.00     0.023 A 
ATOM      2  C1  UNL d   1      -0.502   3.351   4.282  0.00  0.00     0.003 A 
ATOM      3  C2  UNL d   1       0.830   3.209   3.888  0.00  0.00     0.048 A 
ATOM      4  C3  UNL d   1       1.130   2.906   2.560  0.00  0.00     0.023 A 
ATOM      5  C4  UNL d   1       0.107   2.745   1.623  0.00  0.00     0.048 A 
ATOM      6  C5  UNL d   1      -1.223   2.888   2.022  0.00  0.00     0.003 A 
ATOM      7  I   UNL d   1       3.112   2.693   1.971  0.00  0.00    -0.146 I 
ENDROOT
TORSDOF 0
ENDMDL
