MODEL 1
REMARK minimizedAffinity 8.30080032
REMARK minimizedRMSD -1
REMARK  0 active torsions:
REMARK  status: ('A' for Active; 'I' for Inactive)
ROOT
ATOM      1  C   UNL d   1      -1.195  -3.214  -1.874  0.00  0.00     0.023 A 
ATOM      2  C1  UNL d   1      -1.127  -4.603  -1.988  0.00  0.00     0.003 A 
ATOM      3  C2  UNL d   1      -2.075  -5.404  -1.348  0.00  0.00     0.048 A 
ATOM      4  C3  UNL d   1      -3.089  -4.810  -0.597  0.00  0.00     0.023 A 
ATOM      5  C4  UNL d   1      -3.161  -3.420  -0.481  0.00  0.00     0.048 A 
ATOM      6  C5  UNL d   1      -2.210  -2.624  -1.121  0.00  0.00     0.003 A 
ATOM      7  I   UNL d   1      -4.501  -6.000   0.356  0.00  0.00    -0.146 I 
ENDROOT
TORSDOF 0
ENDMDL
