MODEL 1
REMARK minimizedAffinity 5.64385414
REMARK minimizedRMSD -1
REMARK  0 active torsions:
REMARK  status: ('A' for Active; 'I' for Inactive)
ROOT
ATOM      1  C   UNL d   1       2.050   1.587  -0.652  0.00  0.00     0.023 A 
ATOM      2  C1  UNL d   1       1.039   2.545  -0.721  0.00  0.00     0.003 A 
ATOM      3  C2  UNL d   1      -0.211   2.285  -0.158  0.00  0.00     0.048 A 
ATOM      4  C3  UNL d   1      -0.444   1.064   0.474  0.00  0.00     0.023 A 
ATOM      5  C4  UNL d   1       0.564   0.102   0.546  0.00  0.00     0.048 A 
ATOM      6  C5  UNL d   1       1.813   0.366  -0.019  0.00  0.00     0.003 A 
ATOM      7  I   UNL d   1      -2.305   0.674   1.313  0.00  0.00    -0.146 I 
ENDROOT
TORSDOF 0
ENDMDL
