MODEL 1
REMARK minimizedAffinity 4.01679802
REMARK minimizedRMSD -1
REMARK  0 active torsions:
REMARK  status: ('A' for Active; 'I' for Inactive)
ROOT
ATOM      1  C   UNL d   1      -3.172   2.995  -5.998  0.00  0.00     0.023 A 
ATOM      2  C1  UNL d   1      -2.290   1.915  -5.999  0.00  0.00     0.003 A 
ATOM      3  C2  UNL d   1      -0.911   2.138  -5.999  0.00  0.00     0.048 A 
ATOM      4  C3  UNL d   1      -0.422   3.444  -5.999  0.00  0.00     0.023 A 
ATOM      5  C4  UNL d   1      -1.301   4.528  -5.997  0.00  0.00     0.048 A 
ATOM      6  C5  UNL d   1      -2.679   4.300  -5.998  0.00  0.00     0.003 A 
ATOM      7  I   UNL d   1       1.629   3.778  -5.999  0.00  0.00    -0.146 I 
ENDROOT
TORSDOF 0
ENDMDL
