MODEL 1
REMARK minimizedAffinity -1.33108604
REMARK minimizedRMSD -1
REMARK  0 active torsions:
REMARK  status: ('A' for Active; 'I' for Inactive)
ROOT
ATOM      1  C   UNL d   1      -4.083   4.682  -6.000  0.00  0.00     0.023 A 
ATOM      2  C1  UNL d   1      -3.731   3.333  -6.000  0.00  0.00     0.003 A 
ATOM      3  C2  UNL d   1      -2.385   2.961  -6.000  0.00  0.00     0.048 A 
ATOM      4  C3  UNL d   1      -1.396   3.944  -5.998  0.00  0.00     0.023 A 
ATOM      5  C4  UNL d   1      -1.744   5.296  -5.998  0.00  0.00     0.048 A 
ATOM      6  C5  UNL d   1      -3.091   5.663  -5.999  0.00  0.00     0.003 A 
ATOM      7  I   UNL d   1       0.608   3.394  -5.998  0.00  0.00    -0.146 I 
ENDROOT
TORSDOF 0
ENDMDL
