MODEL 1
REMARK minimizedAffinity 1.14517832
REMARK minimizedRMSD -1
REMARK  0 active torsions:
REMARK  status: ('A' for Active; 'I' for Inactive)
ROOT
ATOM      1  C   UNL d   1      -1.033   2.767  -5.936  0.00  0.00     0.023 A 
ATOM      2  C1  UNL d   1      -1.045   4.162  -5.897  0.00  0.00     0.003 A 
ATOM      3  C2  UNL d   1       0.156   4.873  -5.907  0.00  0.00     0.048 A 
ATOM      4  C3  UNL d   1       1.367   4.183  -5.958  0.00  0.00     0.023 A 
ATOM      5  C4  UNL d   1       1.385   2.788  -5.998  0.00  0.00     0.048 A 
ATOM      6  C5  UNL d   1       0.181   2.081  -5.986  0.00  0.00     0.003 A 
ATOM      7  I   UNL d   1       3.157   5.239  -5.974  0.00  0.00    -0.146 I 
ENDROOT
TORSDOF 0
ENDMDL
