MODEL 1
REMARK minimizedAffinity -1.36105478
REMARK minimizedRMSD -1
REMARK  0 active torsions:
REMARK  status: ('A' for Active; 'I' for Inactive)
ROOT
ATOM      1  C   UNL d   1       0.813   3.709  -1.817  0.00  0.00     0.172 C 
ATOM      2  N   UNL d   1       0.936   2.308  -1.489  0.00  0.00    -0.070 N 
ATOM      3  C1  UNL d   1       1.754   1.410  -2.120  0.00  0.00    -0.004 A 
ATOM      4  C2  UNL d   1       1.582   0.184  -1.514  0.00  0.00    -0.047 A 
ATOM      5  C3  UNL d   1       0.626   0.351  -0.484  0.00  0.00    -0.047 A 
ATOM      6  C4  UNL d   1       0.243   1.676  -0.490  0.00  0.00    -0.004 A 
ENDROOT
TORSDOF 0
ENDMDL
