MODEL 1
REMARK minimizedAffinity 0.919614673
REMARK minimizedRMSD -1
REMARK  0 active torsions:
REMARK  status: ('A' for Active; 'I' for Inactive)
ROOT
ATOM      1  C   UNL d   1       0.822   2.986   1.253  0.00  0.00     0.172 C 
ATOM      2  N   UNL d   1       0.864   2.918  -0.189  0.00  0.00    -0.070 N 
ATOM      3  C1  UNL d   1       1.085   1.787  -0.928  0.00  0.00    -0.004 A 
ATOM      4  C2  UNL d   1       1.048   2.140  -2.260  0.00  0.00    -0.047 A 
ATOM      5  C3  UNL d   1       0.796   3.531  -2.323  0.00  0.00    -0.047 A 
ATOM      6  C4  UNL d   1       0.686   3.987  -1.026  0.00  0.00    -0.004 A 
ENDROOT
TORSDOF 0
ENDMDL
