MODEL 1
REMARK minimizedAffinity 2.05528951
REMARK minimizedRMSD -1
REMARK  0 active torsions:
REMARK  status: ('A' for Active; 'I' for Inactive)
ROOT
ATOM      1  C   UNL d   1       1.379   0.116  -1.464  0.00  0.00     0.172 C 
ATOM      2  N   UNL d   1       1.182   1.473  -1.009  0.00  0.00    -0.070 N 
ATOM      3  C1  UNL d   1       0.888   2.547  -1.806  0.00  0.00    -0.004 A 
ATOM      4  C2  UNL d   1       0.779   3.656  -0.996  0.00  0.00    -0.047 A 
ATOM      5  C3  UNL d   1       1.017   3.234   0.334  0.00  0.00    -0.047 A 
ATOM      6  C4  UNL d   1       1.264   1.878   0.297  0.00  0.00    -0.004 A 
ENDROOT
TORSDOF 0
ENDMDL
