MODEL 1
REMARK minimizedAffinity 1.40732801
REMARK minimizedRMSD -1
REMARK  0 active torsions:
REMARK  status: ('A' for Active; 'I' for Inactive)
ROOT
ATOM      1  C   UNL d   1      -2.851   1.794   5.665  0.00  0.00     0.172 C 
ATOM      2  N   UNL d   1      -2.926   1.949   4.231  0.00  0.00    -0.070 N 
ATOM      3  C1  UNL d   1      -1.969   2.524   3.439  0.00  0.00    -0.004 A 
ATOM      4  C2  UNL d   1      -2.416   2.479   2.136  0.00  0.00    -0.047 A 
ATOM      5  C3  UNL d   1      -3.686   1.856   2.146  0.00  0.00    -0.047 A 
ATOM      6  C4  UNL d   1      -3.978   1.538   3.455  0.00  0.00    -0.004 A 
ENDROOT
TORSDOF 0
ENDMDL
