MODEL 1
REMARK minimizedAffinity -0.825859427
REMARK minimizedRMSD -1
REMARK  0 active torsions:
REMARK  status: ('A' for Active; 'I' for Inactive)
ROOT
ATOM      1  C   UNL d   1       1.148  -0.094  -1.466  0.00  0.00     0.172 C 
ATOM      2  N   UNL d   1       1.046   1.319  -1.187  0.00  0.00    -0.070 N 
ATOM      3  C1  UNL d   1       0.956   2.313  -2.125  0.00  0.00    -0.004 A 
ATOM      4  C2  UNL d   1       0.875   3.516  -1.457  0.00  0.00    -0.047 A 
ATOM      5  C3  UNL d   1       0.919   3.235  -0.071  0.00  0.00    -0.047 A 
ATOM      6  C4  UNL d   1       1.025   1.868   0.068  0.00  0.00    -0.004 A 
ENDROOT
TORSDOF 0
ENDMDL
