MODEL 1
REMARK minimizedAffinity -2.44769669
REMARK minimizedRMSD -1
REMARK  0 active torsions:
REMARK  status: ('A' for Active; 'I' for Inactive)
ROOT
ATOM      1  C   UNL d   1       0.852  -0.481  -0.456  0.00  0.00     0.172 C 
ATOM      2  N   UNL d   1       0.878   0.962  -0.405  0.00  0.00    -0.070 N 
ATOM      3  C1  UNL d   1       0.810   1.722   0.732  0.00  0.00    -0.004 A 
ATOM      4  C2  UNL d   1       0.865   3.047   0.357  0.00  0.00    -0.047 A 
ATOM      5  C3  UNL d   1       0.969   3.085  -1.053  0.00  0.00    -0.047 A 
ATOM      6  C4  UNL d   1       0.975   1.780  -1.500  0.00  0.00    -0.004 A 
ENDROOT
TORSDOF 0
ENDMDL
