MODEL 1
REMARK minimizedAffinity -0.00103859091
REMARK minimizedRMSD -1
REMARK  0 active torsions:
REMARK  status: ('A' for Active; 'I' for Inactive)
ROOT
ATOM      1  C   UNL d   1       1.185   2.793  -1.864  0.00  0.00     0.172 C 
ATOM      2  N   UNL d   1       1.001   1.646  -1.006  0.00  0.00    -0.070 N 
ATOM      3  C1  UNL d   1       0.813   0.357  -1.427  0.00  0.00    -0.004 A 
ATOM      4  C2  UNL d   1       0.678  -0.437  -0.309  0.00  0.00    -0.047 A 
ATOM      5  C3  UNL d   1       0.788   0.404   0.823  0.00  0.00    -0.047 A 
ATOM      6  C4  UNL d   1       0.987   1.689   0.363  0.00  0.00    -0.004 A 
ENDROOT
TORSDOF 0
ENDMDL
