MODEL 1
REMARK minimizedAffinity 3.18401408
REMARK minimizedRMSD -1
REMARK  0 active torsions:
REMARK  status: ('A' for Active; 'I' for Inactive)
ROOT
ATOM      1  C   UNL d   1       1.523   4.382  -1.063  0.00  0.00     0.172 C 
ATOM      2  N   UNL d   1       1.382   2.983  -1.394  0.00  0.00    -0.070 N 
ATOM      3  C1  UNL d   1       2.024   1.947  -0.771  0.00  0.00    -0.004 A 
ATOM      4  C2  UNL d   1       1.622   0.776  -1.377  0.00  0.00    -0.047 A 
ATOM      5  C3  UNL d   1       0.706   1.121  -2.399  0.00  0.00    -0.047 A 
ATOM      6  C4  UNL d   1       0.576   2.494  -2.388  0.00  0.00    -0.004 A 
ENDROOT
TORSDOF 0
ENDMDL
