MODEL 1
REMARK minimizedAffinity -3.50433683
REMARK minimizedRMSD -1
REMARK  0 active torsions:
REMARK  status: ('A' for Active; 'I' for Inactive)
ROOT
ATOM      1  C   UNL d   1       1.136   3.458  -0.061  0.00  0.00     0.172 C 
ATOM      2  N   UNL d   1       1.316   2.183  -0.714  0.00  0.00    -0.070 N 
ATOM      3  C1  UNL d   1       1.847   1.059  -0.139  0.00  0.00    -0.004 A 
ATOM      4  C2  UNL d   1       1.846   0.059  -1.087  0.00  0.00    -0.047 A 
ATOM      5  C3  UNL d   1       1.296   0.600  -2.273  0.00  0.00    -0.047 A 
ATOM      6  C4  UNL d   1       0.977   1.916  -2.015  0.00  0.00    -0.004 A 
ENDROOT
TORSDOF 0
ENDMDL
