MODEL 1
REMARK minimizedAffinity 6.31280041
REMARK minimizedRMSD -1
REMARK  0 active torsions:
REMARK  status: ('A' for Active; 'I' for Inactive)
ROOT
ATOM      1  C   UNL d   1      -1.871   3.585  -2.407  0.00  0.00     0.172 C 
ATOM      2  N   UNL d   1      -0.647   2.883  -2.100  0.00  0.00    -0.070 N 
ATOM      3  C1  UNL d   1       0.619   3.382  -2.253  0.00  0.00    -0.004 A 
ATOM      4  C2  UNL d   1       1.508   2.409  -1.851  0.00  0.00    -0.047 A 
ATOM      5  C3  UNL d   1       0.750   1.286  -1.443  0.00  0.00    -0.047 A 
ATOM      6  C4  UNL d   1      -0.581   1.607  -1.608  0.00  0.00    -0.004 A 
ENDROOT
TORSDOF 0
ENDMDL
