MODEL 1
REMARK minimizedAffinity 0.310474366
REMARK minimizedRMSD -1
REMARK  0 active torsions:
REMARK  status: ('A' for Active; 'I' for Inactive)
ROOT
ATOM      1  C   UNL d   1       1.243   2.223   1.015  0.00  0.00     0.172 C 
ATOM      2  N   UNL d   1       1.112   1.907  -0.388  0.00  0.00    -0.070 N 
ATOM      3  C1  UNL d   1       1.515   0.742  -0.984  0.00  0.00    -0.004 A 
ATOM      4  C2  UNL d   1       1.216   0.830  -2.327  0.00  0.00    -0.047 A 
ATOM      5  C3  UNL d   1       0.614   2.091  -2.545  0.00  0.00    -0.047 A 
ATOM      6  C4  UNL d   1       0.562   2.738  -1.328  0.00  0.00    -0.004 A 
ENDROOT
TORSDOF 0
ENDMDL
