MODEL 1
REMARK minimizedAffinity 2.82623339
REMARK minimizedRMSD -1
REMARK  0 active torsions:
REMARK  status: ('A' for Active; 'I' for Inactive)
ROOT
ATOM      1  C   UNL d   1       1.148   4.120  -0.908  0.00  0.00     0.172 C 
ATOM      2  N   UNL d   1       0.956   2.720  -1.203  0.00  0.00    -0.070 N 
ATOM      3  C1  UNL d   1       1.534   1.676  -0.531  0.00  0.00    -0.004 A 
ATOM      4  C2  UNL d   1       1.100   0.506  -1.116  0.00  0.00    -0.047 A 
ATOM      5  C3  UNL d   1       0.232   0.858  -2.176  0.00  0.00    -0.047 A 
ATOM      6  C4  UNL d   1       0.161   2.235  -2.208  0.00  0.00    -0.004 A 
ENDROOT
TORSDOF 0
ENDMDL
