MODEL 1
REMARK minimizedAffinity 2.50006962
REMARK minimizedRMSD -1
REMARK  0 active torsions:
REMARK  status: ('A' for Active; 'I' for Inactive)
ROOT
ATOM      1  C   UNL d   1       0.504   2.871  -0.572  0.00  0.00     0.172 C 
ATOM      2  N   UNL d   1       0.964   1.567  -0.989  0.00  0.00    -0.070 N 
ATOM      3  C1  UNL d   1       1.232   1.191  -2.278  0.00  0.00    -0.004 A 
ATOM      4  C2  UNL d   1       1.645  -0.124  -2.256  0.00  0.00    -0.047 A 
ATOM      5  C3  UNL d   1       1.624  -0.552  -0.908  0.00  0.00    -0.047 A 
ATOM      6  C4  UNL d   1       1.198   0.515  -0.145  0.00  0.00    -0.004 A 
ENDROOT
TORSDOF 0
ENDMDL
