MODEL 1
REMARK minimizedAffinity 6.60421038
REMARK minimizedRMSD -1
REMARK  0 active torsions:
REMARK  status: ('A' for Active; 'I' for Inactive)
ROOT
ATOM      1  C   UNL d   1       1.189   4.738  -1.004  0.00  0.00     0.172 C 
ATOM      2  N   UNL d   1       0.872   3.451  -1.579  0.00  0.00    -0.070 N 
ATOM      3  C1  UNL d   1      -0.155   3.197  -2.448  0.00  0.00    -0.004 A 
ATOM      4  C2  UNL d   1      -0.120   1.855  -2.762  0.00  0.00    -0.047 A 
ATOM      5  C3  UNL d   1       0.966   1.284  -2.057  0.00  0.00    -0.047 A 
ATOM      6  C4  UNL d   1       1.563   2.294  -1.332  0.00  0.00    -0.004 A 
ENDROOT
TORSDOF 0
ENDMDL
