MODEL 1
REMARK minimizedAffinity -1.70183957
REMARK minimizedRMSD -1
REMARK  0 active torsions:
REMARK  status: ('A' for Active; 'I' for Inactive)
ROOT
ATOM      1  C   UNL d   1       0.939   2.393  -1.583  0.00  0.00     0.172 C 
ATOM      2  N   UNL d   1       1.134   0.976  -1.380  0.00  0.00    -0.070 N 
ATOM      3  C1  UNL d   1       1.842   0.407  -0.355  0.00  0.00    -0.004 A 
ATOM      4  C2  UNL d   1       1.790  -0.961  -0.516  0.00  0.00    -0.047 A 
ATOM      5  C3  UNL d   1       1.026  -1.222  -1.678  0.00  0.00    -0.047 A 
ATOM      6  C4  UNL d   1       0.632  -0.005  -2.193  0.00  0.00    -0.004 A 
ENDROOT
TORSDOF 0
ENDMDL
