MODEL 1
REMARK minimizedAffinity 0.913993061
REMARK minimizedRMSD -1
REMARK  0 active torsions:
REMARK  status: ('A' for Active; 'I' for Inactive)
ROOT
ATOM      1  C   UNL d   1       1.516   5.241  -1.111  0.00  0.00     0.172 C 
ATOM      2  N   UNL d   1       1.217   3.828  -1.085  0.00  0.00    -0.070 N 
ATOM      3  C1  UNL d   1       1.181   3.040   0.034  0.00  0.00    -0.004 A 
ATOM      4  C2  UNL d   1       0.861   1.759  -0.362  0.00  0.00    -0.047 A 
ATOM      5  C3  UNL d   1       0.699   1.779  -1.768  0.00  0.00    -0.047 A 
ATOM      6  C4  UNL d   1       0.926   3.072  -2.190  0.00  0.00    -0.004 A 
ENDROOT
TORSDOF 0
ENDMDL
