MODEL 1
REMARK minimizedAffinity -0.433197647
REMARK minimizedRMSD -1
REMARK  1 active torsions:
REMARK  status: ('A' for Active; 'I' for Inactive)
REMARK    1  A    between atoms: N_2  and  C1_3 
ROOT
ATOM      1  C1  UNL d   1       3.149   5.908   4.231  0.00  0.00     0.143 A 
ATOM      2  C2  UNL d   1       2.818   5.933   2.872  0.00  0.00    -0.057 A 
ATOM      3  C3  UNL d   1       3.810   5.961   1.884  0.00  0.00     0.033 A 
ATOM      4  C4  UNL d   1       5.154   5.996   2.240  0.00  0.00    -0.042 A 
ATOM      5  C5  UNL d   1       5.505   5.997   3.585  0.00  0.00     0.033 A 
ATOM      6  C6  UNL d   1       4.511   5.962   4.567  0.00  0.00    -0.057 A 
ENDROOT
BRANCH   1   7
ATOM      7  N   UNL d   1       2.208   5.978   5.262  0.00  0.00    -0.732 N 
ATOM      8  C   UNL d   1       0.791   5.975   4.968  0.00  0.00     0.284 C 
ATOM      9  H3  UNL d   1       2.468   5.409   6.064  0.00  0.00     0.395 HD
ENDBRANCH   1   7
TORSDOF 1
ENDMDL
