MODEL 1
REMARK minimizedAffinity 2.94739294
REMARK minimizedRMSD -1
REMARK  1 active torsions:
REMARK  status: ('A' for Active; 'I' for Inactive)
REMARK    1  A    between atoms: N_2  and  C1_3 
ROOT
ATOM      1  C1  UNL d   1       0.121  -0.740   0.012  0.00  0.00     0.143 A 
ATOM      2  C2  UNL d   1      -1.009  -0.520  -0.782  0.00  0.00    -0.057 A 
ATOM      3  C3  UNL d   1      -2.221  -0.099  -0.219  0.00  0.00     0.033 A 
ATOM      4  C4  UNL d   1      -2.331   0.081   1.156  0.00  0.00    -0.042 A 
ATOM      5  C5  UNL d   1      -1.227  -0.157   1.967  0.00  0.00     0.033 A 
ATOM      6  C6  UNL d   1      -0.018  -0.570   1.399  0.00  0.00    -0.057 A 
ENDROOT
BRANCH   1   7
ATOM      7  N   UNL d   1       1.326  -1.253  -0.475  0.00  0.00    -0.732 N 
ATOM      8  C   UNL d   1       2.588  -0.846   0.104  0.00  0.00     0.284 C 
ATOM      9  H3  UNL d   1       1.267  -2.246  -0.688  0.00  0.00     0.395 HD
ENDBRANCH   1   7
TORSDOF 1
ENDMDL
