MODEL 1
REMARK minimizedAffinity 5.88518906
REMARK minimizedRMSD -1
REMARK  1 active torsions:
REMARK  status: ('A' for Active; 'I' for Inactive)
REMARK    1  A    between atoms: N_2  and  C1_3 
ROOT
ATOM      1  C1  UNL d   1       1.849   5.271   3.792  0.00  0.00     0.143 A 
ATOM      2  C2  UNL d   1       2.047   3.913   4.064  0.00  0.00    -0.057 A 
ATOM      3  C3  UNL d   1       1.406   3.287   5.140  0.00  0.00     0.033 A 
ATOM      4  C4  UNL d   1       0.575   4.018   5.983  0.00  0.00    -0.042 A 
ATOM      5  C5  UNL d   1       0.383   5.374   5.746  0.00  0.00     0.033 A 
ATOM      6  C6  UNL d   1       1.021   5.992   4.666  0.00  0.00    -0.057 A 
ENDROOT
BRANCH   1   7
ATOM      7  N   UNL d   1       2.534   5.973   2.797  0.00  0.00    -0.732 N 
ATOM      8  C   UNL d   1       3.978   5.926   2.724  0.00  0.00     0.284 C 
ATOM      9  H3  UNL d   1       2.070   5.917   1.893  0.00  0.00     0.395 HD
ENDBRANCH   1   7
TORSDOF 1
ENDMDL
