MODEL 1
REMARK minimizedAffinity 0.681320369
REMARK minimizedRMSD -1
REMARK  1 active torsions:
REMARK  status: ('A' for Active; 'I' for Inactive)
REMARK    1  A    between atoms: N_2  and  C1_3 
ROOT
ATOM      1  C1  UNL d   1       2.866   5.933   3.572  0.00  0.00     0.143 A 
ATOM      2  C2  UNL d   1       1.477   5.952   3.409  0.00  0.00    -0.057 A 
ATOM      3  C3  UNL d   1       0.617   5.999   4.513  0.00  0.00     0.033 A 
ATOM      4  C4  UNL d   1       1.134   5.999   5.805  0.00  0.00    -0.042 A 
ATOM      5  C5  UNL d   1       2.511   5.956   5.991  0.00  0.00     0.033 A 
ATOM      6  C6  UNL d   1       3.364   5.915   4.884  0.00  0.00    -0.057 A 
ENDROOT
BRANCH   1   7
ATOM      7  N   UNL d   1       3.771   5.786   2.517  0.00  0.00    -0.732 N 
ATOM      8  C   UNL d   1       3.721   4.622   1.660  0.00  0.00     0.284 C 
ATOM      9  H3  UNL d   1       3.935   6.660   2.022  0.00  0.00     0.395 HD
ENDBRANCH   1   7
TORSDOF 1
ENDMDL
