MODEL 1
REMARK minimizedAffinity -1.89929485
REMARK minimizedRMSD -1
REMARK  1 active torsions:
REMARK  status: ('A' for Active; 'I' for Inactive)
REMARK    1  A    between atoms: N_2  and  C1_3 
ROOT
ATOM      1  C1  UNL d   1       2.769   5.986   4.335  0.00  0.00     0.143 A 
ATOM      2  C2  UNL d   1       4.134   5.980   4.639  0.00  0.00    -0.057 A 
ATOM      3  C3  UNL d   1       5.103   6.000   3.628  0.00  0.00     0.033 A 
ATOM      4  C4  UNL d   1       4.722   5.997   2.291  0.00  0.00    -0.042 A 
ATOM      5  C5  UNL d   1       3.370   5.978   1.965  0.00  0.00     0.033 A 
ATOM      6  C6  UNL d   1       2.407   5.965   2.979  0.00  0.00    -0.057 A 
ENDROOT
BRANCH   1   7
ATOM      7  N   UNL d   1       1.758   5.867   5.292  0.00  0.00    -0.732 N 
ATOM      8  C   UNL d   1       1.516   4.604   5.956  0.00  0.00     0.284 C 
ATOM      9  H3  UNL d   1       1.709   6.676   5.908  0.00  0.00     0.395 HD
ENDBRANCH   1   7
TORSDOF 1
ENDMDL
