MODEL 1
REMARK minimizedAffinity -3.97119594
REMARK minimizedRMSD -1
REMARK  0 active torsions:
REMARK  status: ('A' for Active; 'I' for Inactive)
ROOT
ATOM      1  C   UNL d   1      -0.305  -0.746   0.736  0.00  0.00     0.172 C 
ATOM      2  N   UNL d   1       1.102  -0.429   0.660  0.00  0.00    -0.070 N 
ATOM      3  C1  UNL d   1       2.130  -1.298   0.908  0.00  0.00    -0.004 A 
ATOM      4  C2  UNL d   1       3.313  -0.614   0.730  0.00  0.00    -0.047 A 
ATOM      5  C3  UNL d   1       2.984   0.712   0.363  0.00  0.00    -0.047 A 
ATOM      6  C4  UNL d   1       1.609   0.799   0.327  0.00  0.00    -0.004 A 
ENDROOT
TORSDOF 0
ENDMDL
