MODEL 1
REMARK minimizedAffinity -3.41706133
REMARK minimizedRMSD -1
REMARK  0 active torsions:
REMARK  status: ('A' for Active; 'I' for Inactive)
ROOT
ATOM      1  C   UNL d   1      -0.299   0.792   0.080  0.00  0.00     0.172 C 
ATOM      2  N   UNL d   1       1.093   0.419   0.174  0.00  0.00    -0.070 N 
ATOM      3  C1  UNL d   1       2.146   1.287   0.286  0.00  0.00    -0.004 A 
ATOM      4  C2  UNL d   1       3.303   0.542   0.350  0.00  0.00    -0.047 A 
ATOM      5  C3  UNL d   1       2.933  -0.822   0.273  0.00  0.00    -0.047 A 
ATOM      6  C4  UNL d   1       1.559  -0.869   0.165  0.00  0.00    -0.004 A 
ENDROOT
TORSDOF 0
ENDMDL
