MODEL 1
REMARK minimizedAffinity -2.97475362
REMARK minimizedRMSD -1
REMARK  0 active torsions:
REMARK  status: ('A' for Active; 'I' for Inactive)
ROOT
ATOM      1  C   UNL d   1      -1.522   1.070   0.001  0.00  0.00     0.172 C 
ATOM      2  N   UNL d   1      -0.414   0.155   0.139  0.00  0.00    -0.070 N 
ATOM      3  C1  UNL d   1       0.762   0.417   0.791  0.00  0.00    -0.004 A 
ATOM      4  C2  UNL d   1       1.555  -0.706   0.697  0.00  0.00    -0.047 A 
ATOM      5  C3  UNL d   1       0.832  -1.676  -0.037  0.00  0.00    -0.047 A 
ATOM      6  C4  UNL d   1      -0.383  -1.117  -0.370  0.00  0.00    -0.004 A 
ENDROOT
TORSDOF 0
ENDMDL
