MODEL 1
REMARK minimizedAffinity -2.98832607
REMARK minimizedRMSD -1
REMARK  0 active torsions:
REMARK  status: ('A' for Active; 'I' for Inactive)
ROOT
ATOM      1  C   UNL d   1      -0.761   0.321  -0.019  0.00  0.00     0.172 C 
ATOM      2  N   UNL d   1       0.580  -0.191   0.140  0.00  0.00    -0.070 N 
ATOM      3  C1  UNL d   1       1.590   0.418   0.835  0.00  0.00    -0.004 A 
ATOM      4  C2  UNL d   1       2.706  -0.386   0.750  0.00  0.00    -0.047 A 
ATOM      5  C3  UNL d   1       2.354  -1.518  -0.023  0.00  0.00    -0.047 A 
ATOM      6  C4  UNL d   1       1.032  -1.372  -0.387  0.00  0.00    -0.004 A 
ENDROOT
TORSDOF 0
ENDMDL
