MODEL 1
REMARK minimizedAffinity -1.74155998
REMARK minimizedRMSD -1
REMARK  0 active torsions:
REMARK  status: ('A' for Active; 'I' for Inactive)
ROOT
ATOM      1  C   UNL d   1      -2.023   0.670  -0.189  0.00  0.00     0.172 C 
ATOM      2  N   UNL d   1      -0.582   0.663  -0.086  0.00  0.00    -0.070 N 
ATOM      3  C1  UNL d   1       0.171  -0.316   0.505  0.00  0.00    -0.004 A 
ATOM      4  C2  UNL d   1       1.496   0.047   0.396  0.00  0.00    -0.047 A 
ATOM      5  C3  UNL d   1       1.540   1.289  -0.282  0.00  0.00    -0.047 A 
ATOM      6  C4  UNL d   1       0.240   1.647  -0.568  0.00  0.00    -0.004 A 
ENDROOT
TORSDOF 0
ENDMDL
