MODEL 1
REMARK minimizedAffinity -4.07229519
REMARK minimizedRMSD -1
REMARK  0 active torsions:
REMARK  status: ('A' for Active; 'I' for Inactive)
ROOT
ATOM      1  C   UNL d   1      -0.618   1.008  -0.725  0.00  0.00     0.172 C 
ATOM      2  N   UNL d   1       0.364   0.021  -0.342  0.00  0.00    -0.070 N 
ATOM      3  C1  UNL d   1       1.410   0.227   0.518  0.00  0.00    -0.004 A 
ATOM      4  C2  UNL d   1       2.111  -0.955   0.620  0.00  0.00    -0.047 A 
ATOM      5  C3  UNL d   1       1.464  -1.904  -0.207  0.00  0.00    -0.047 A 
ATOM      6  C4  UNL d   1       0.386  -1.273  -0.791  0.00  0.00    -0.004 A 
ENDROOT
TORSDOF 0
ENDMDL
