MODEL 1
REMARK minimizedAffinity -3.78310513
REMARK minimizedRMSD -1
REMARK  0 active torsions:
REMARK  status: ('A' for Active; 'I' for Inactive)
ROOT
ATOM      1  C   UNL d   1      -0.969   0.629  -0.008  0.00  0.00     0.172 C 
ATOM      2  N   UNL d   1       0.232  -0.169   0.055  0.00  0.00    -0.070 N 
ATOM      3  C1  UNL d   1       0.549  -1.203  -0.785  0.00  0.00    -0.004 A 
ATOM      4  C2  UNL d   1       1.772  -1.704  -0.396  0.00  0.00    -0.047 A 
ATOM      5  C3  UNL d   1       2.206  -0.945   0.717  0.00  0.00    -0.047 A 
ATOM      6  C4  UNL d   1       1.233  -0.002   0.975  0.00  0.00    -0.004 A 
ENDROOT
TORSDOF 0
ENDMDL
