MODEL 1
REMARK minimizedAffinity -2.85727859
REMARK minimizedRMSD -1
REMARK  0 active torsions:
REMARK  status: ('A' for Active; 'I' for Inactive)
ROOT
ATOM      1  C   UNL d   1       0.188  -1.663  -0.731  0.00  0.00     0.172 C 
ATOM      2  N   UNL d   1       1.177  -0.989   0.076  0.00  0.00    -0.070 N 
ATOM      3  C1  UNL d   1       2.344  -1.540   0.534  0.00  0.00    -0.004 A 
ATOM      4  C2  UNL d   1       3.008  -0.577   1.263  0.00  0.00    -0.047 A 
ATOM      5  C3  UNL d   1       2.212   0.593   1.242  0.00  0.00    -0.047 A 
ATOM      6  C4  UNL d   1       1.084   0.310   0.501  0.00  0.00    -0.004 A 
ENDROOT
TORSDOF 0
ENDMDL
