MODEL 1
REMARK minimizedAffinity -3.77158022
REMARK minimizedRMSD -1
REMARK  0 active torsions:
REMARK  status: ('A' for Active; 'I' for Inactive)
ROOT
ATOM      1  C   UNL d   1      -0.066  -1.060  -0.255  0.00  0.00     0.172 C 
ATOM      2  N   UNL d   1       1.326  -0.816   0.040  0.00  0.00    -0.070 N 
ATOM      3  C1  UNL d   1       2.358  -1.680  -0.207  0.00  0.00    -0.004 A 
ATOM      4  C2  UNL d   1       3.523  -1.078   0.217  0.00  0.00    -0.047 A 
ATOM      5  C3  UNL d   1       3.179   0.192   0.737  0.00  0.00    -0.047 A 
ATOM      6  C4  UNL d   1       1.812   0.329   0.615  0.00  0.00    -0.004 A 
ENDROOT
TORSDOF 0
ENDMDL
