MODEL 1
REMARK minimizedAffinity -3.88539839
REMARK minimizedRMSD -1
REMARK  0 active torsions:
REMARK  status: ('A' for Active; 'I' for Inactive)
ROOT
ATOM      1  C   UNL d   1      -0.843   0.413   0.221  0.00  0.00     0.172 C 
ATOM      2  N   UNL d   1       0.362  -0.361   0.400  0.00  0.00    -0.070 N 
ATOM      3  C1  UNL d   1       1.564   0.123   0.845  0.00  0.00    -0.004 A 
ATOM      4  C2  UNL d   1       2.456  -0.926   0.876  0.00  0.00    -0.047 A 
ATOM      5  C3  UNL d   1       1.768  -2.081   0.435  0.00  0.00    -0.047 A 
ATOM      6  C4  UNL d   1       0.474  -1.703   0.147  0.00  0.00    -0.004 A 
ENDROOT
TORSDOF 0
ENDMDL
