MODEL 1
REMARK minimizedAffinity 11.1829786
REMARK minimizedRMSD -1
REMARK  0 active torsions:
REMARK  status: ('A' for Active; 'I' for Inactive)
ROOT
ATOM      1  C2' OXE d   1      -3.328  -2.554   0.280  0.00  0.00     0.078 C 
ATOM      2  C1' OXE d   1      -1.876  -2.755   2.674  0.00  0.00     0.078 C 
ATOM      3  C1  OXE d   1      -1.364  -3.514   1.475  0.00  0.00    -0.078 A 
ATOM      4  C2  OXE d   1      -2.106  -3.447   0.321  0.00  0.00    -0.078 A 
ATOM      5  C3  OXE d   1      -1.650  -4.084  -0.830  0.00  0.00     0.003 A 
ATOM      6  C4  OXE d   1      -0.525  -4.916  -0.781  0.00  0.00    -0.002 A 
ATOM      7  C5  OXE d   1       0.223  -5.029   0.396  0.00  0.00    -0.002 A 
ATOM      8  C6  OXE d   1      -0.158  -4.303   1.518  0.00  0.00     0.003 A 
ENDROOT
TORSDOF 0
ENDMDL
