MODEL 1
REMARK minimizedAffinity 10.7844334
REMARK minimizedRMSD -1
REMARK  0 active torsions:
REMARK  status: ('A' for Active; 'I' for Inactive)
ROOT
ATOM      1  C2' OXE d   1       0.784  -6.000   0.764  0.00  0.00     0.078 C 
ATOM      2  C1' OXE d   1       1.884  -3.752  -0.509  0.00  0.00     0.078 C 
ATOM      3  C1  OXE d   1       0.415  -3.718  -0.165  0.00  0.00    -0.078 A 
ATOM      4  C2  OXE d   1      -0.124  -4.840   0.416  0.00  0.00    -0.078 A 
ATOM      5  C3  OXE d   1      -1.461  -4.841   0.803  0.00  0.00     0.003 A 
ATOM      6  C4  OXE d   1      -2.297  -3.768   0.468  0.00  0.00    -0.002 A 
ATOM      7  C5  OXE d   1      -1.776  -2.631  -0.159  0.00  0.00    -0.002 A 
ATOM      8  C6  OXE d   1      -0.416  -2.573  -0.443  0.00  0.00     0.003 A 
ENDROOT
TORSDOF 0
ENDMDL
