MODEL 1
REMARK minimizedAffinity -4.17038345
REMARK minimizedRMSD -1
REMARK  0 active torsions:
REMARK  status: ('A' for Active; 'I' for Inactive)
ROOT
ATOM      1  C2' OXE d   1      -2.197  -0.983  -1.923  0.00  0.00     0.078 C 
ATOM      2  C1' OXE d   1       0.132   0.483  -1.368  0.00  0.00     0.078 C 
ATOM      3  C1  OXE d   1      -0.113  -0.776  -0.573  0.00  0.00    -0.078 A 
ATOM      4  C2  OXE d   1      -1.278  -1.462  -0.819  0.00  0.00    -0.078 A 
ATOM      5  C3  OXE d   1      -1.527  -2.658  -0.153  0.00  0.00     0.003 A 
ATOM      6  C4  OXE d   1      -0.678  -3.088   0.874  0.00  0.00    -0.002 A 
ATOM      7  C5  OXE d   1       0.494  -2.383   1.167  0.00  0.00    -0.002 A 
ATOM      8  C6  OXE d   1       0.812  -1.251   0.426  0.00  0.00     0.003 A 
ENDROOT
TORSDOF 0
ENDMDL
