MODEL 1
REMARK minimizedAffinity 5.74618149
REMARK minimizedRMSD -1
REMARK  0 active torsions:
REMARK  status: ('A' for Active; 'I' for Inactive)
ROOT
ATOM      1  C2' OXE d   1      -5.143  -2.493   0.142  0.00  0.00     0.078 C 
ATOM      2  C1' OXE d   1      -3.601  -0.892  -1.571  0.00  0.00     0.078 C 
ATOM      3  C1  OXE d   1      -2.887  -1.943  -0.758  0.00  0.00    -0.078 A 
ATOM      4  C2  OXE d   1      -3.643  -2.691   0.112  0.00  0.00    -0.078 A 
ATOM      5  C3  OXE d   1      -3.044  -3.711   0.845  0.00  0.00     0.003 A 
ATOM      6  C4  OXE d   1      -1.654  -3.880   0.819  0.00  0.00    -0.002 A 
ATOM      7  C5  OXE d   1      -0.860  -3.103  -0.031  0.00  0.00    -0.002 A 
ATOM      8  C6  OXE d   1      -1.465  -2.161  -0.855  0.00  0.00     0.003 A 
ENDROOT
TORSDOF 0
ENDMDL
