MODEL 1
REMARK minimizedAffinity 5.94411516
REMARK minimizedRMSD -1
REMARK  0 active torsions:
REMARK  status: ('A' for Active; 'I' for Inactive)
ROOT
ATOM      1  C2' OXE d   1      -3.614   0.912  -2.412  0.00  0.00     0.078 C 
ATOM      2  C1' OXE d   1      -0.933   0.080  -2.397  0.00  0.00     0.078 C 
ATOM      3  C1  OXE d   1      -1.900  -0.646  -1.496  0.00  0.00    -0.078 A 
ATOM      4  C2  OXE d   1      -3.200  -0.202  -1.475  0.00  0.00    -0.078 A 
ATOM      5  C3  OXE d   1      -4.145  -0.871  -0.702  0.00  0.00     0.003 A 
ATOM      6  C4  OXE d   1      -3.752  -1.894   0.169  0.00  0.00    -0.002 A 
ATOM      7  C5  OXE d   1      -2.425  -2.336   0.193  0.00  0.00    -0.002 A 
ATOM      8  C6  OXE d   1      -1.497  -1.752  -0.662  0.00  0.00     0.003 A 
ENDROOT
TORSDOF 0
ENDMDL
