MODEL 1
REMARK minimizedAffinity 4.51818419
REMARK minimizedRMSD -1
REMARK  0 active torsions:
REMARK  status: ('A' for Active; 'I' for Inactive)
ROOT
ATOM      1  C2' OXE d   1       2.258  -2.220   1.785  0.00  0.00     0.078 C 
ATOM      2  C1' OXE d   1       4.255  -2.873   3.648  0.00  0.00     0.078 C 
ATOM      3  C1  OXE d   1       2.869  -2.589   4.172  0.00  0.00    -0.078 A 
ATOM      4  C2  OXE d   1       1.910  -2.225   3.258  0.00  0.00    -0.078 A 
ATOM      5  C3  OXE d   1       0.602  -2.005   3.682  0.00  0.00     0.003 A 
ATOM      6  C4  OXE d   1       0.291  -2.002   5.047  0.00  0.00    -0.002 A 
ATOM      7  C5  OXE d   1       1.262  -2.332   5.998  0.00  0.00    -0.002 A 
ATOM      8  C6  OXE d   1       2.543  -2.669   5.575  0.00  0.00     0.003 A 
ENDROOT
TORSDOF 0
ENDMDL
