MODEL 1
REMARK minimizedAffinity 8.12438107
REMARK minimizedRMSD -1
REMARK  0 active torsions:
REMARK  status: ('A' for Active; 'I' for Inactive)
ROOT
ATOM      1  C2' OXE d   1      -2.761  -1.990   0.505  0.00  0.00     0.078 C 
ATOM      2  C1' OXE d   1      -1.594  -2.647   2.972  0.00  0.00     0.078 C 
ATOM      3  C1  OXE d   1      -1.181  -3.448   1.763  0.00  0.00    -0.078 A 
ATOM      4  C2  OXE d   1      -1.792  -3.150   0.568  0.00  0.00    -0.078 A 
ATOM      5  C3  OXE d   1      -1.408  -3.822  -0.589  0.00  0.00     0.003 A 
ATOM      6  C4  OXE d   1      -0.518  -4.901  -0.520  0.00  0.00    -0.002 A 
ATOM      7  C5  OXE d   1       0.086  -5.247   0.694  0.00  0.00    -0.002 A 
ATOM      8  C6  OXE d   1      -0.202  -4.504   1.834  0.00  0.00     0.003 A 
ENDROOT
TORSDOF 0
ENDMDL
