MODEL 1
REMARK minimizedAffinity 4.96798801
REMARK minimizedRMSD -1
REMARK  0 active torsions:
REMARK  status: ('A' for Active; 'I' for Inactive)
ROOT
ATOM      1  C2' OXE d   1      -1.244  -0.300  -1.423  0.00  0.00     0.078 C 
ATOM      2  C1' OXE d   1      -2.178  -2.585  -0.087  0.00  0.00     0.078 C 
ATOM      3  C1  OXE d   1      -3.186  -1.740  -0.824  0.00  0.00    -0.078 A 
ATOM      4  C2  OXE d   1      -2.728  -0.599  -1.436  0.00  0.00    -0.078 A 
ATOM      5  C3  OXE d   1      -3.606   0.187  -2.176  0.00  0.00     0.003 A 
ATOM      6  C4  OXE d   1      -4.979  -0.090  -2.175  0.00  0.00    -0.002 A 
ATOM      7  C5  OXE d   1      -5.473  -1.226  -1.525  0.00  0.00    -0.002 A 
ATOM      8  C6  OXE d   1      -4.586  -2.083  -0.882  0.00  0.00     0.003 A 
ENDROOT
TORSDOF 0
ENDMDL
