MODEL 1
REMARK minimizedAffinity 12.2130899
REMARK minimizedRMSD -1
REMARK  0 active torsions:
REMARK  status: ('A' for Active; 'I' for Inactive)
ROOT
ATOM      1  C2' OXE d   1      -0.340  -2.801   1.113  0.00  0.00     0.078 C 
ATOM      2  C1' OXE d   1       2.129  -1.517   1.479  0.00  0.00     0.078 C 
ATOM      3  C1  OXE d   1       1.222  -1.651   2.676  0.00  0.00    -0.078 A 
ATOM      4  C2  OXE d   1      -0.004  -2.240   2.478  0.00  0.00    -0.078 A 
ATOM      5  C3  OXE d   1      -0.856  -2.438   3.560  0.00  0.00     0.003 A 
ATOM      6  C4  OXE d   1      -0.541  -1.907   4.817  0.00  0.00    -0.002 A 
ATOM      7  C5  OXE d   1       0.685  -1.269   5.031  0.00  0.00    -0.002 A 
ATOM      8  C6  OXE d   1       1.594  -1.171   3.984  0.00  0.00     0.003 A 
ENDROOT
TORSDOF 0
ENDMDL
