MODEL 1
REMARK minimizedAffinity -2.22549248
REMARK minimizedRMSD -1
REMARK  0 active torsions:
REMARK  status: ('A' for Active; 'I' for Inactive)
ROOT
ATOM      1  C2' OXE d   1      -0.799   2.239  -0.818  0.00  0.00     0.078 C 
ATOM      2  C1' OXE d   1      -1.340   2.329   1.935  0.00  0.00     0.078 C 
ATOM      3  C1  OXE d   1      -0.324   1.326   1.451  0.00  0.00    -0.078 A 
ATOM      4  C2  OXE d   1      -0.099   1.257   0.097  0.00  0.00    -0.078 A 
ATOM      5  C3  OXE d   1       0.869   0.387  -0.398  0.00  0.00     0.003 A 
ATOM      6  C4  OXE d   1       1.504  -0.525   0.453  0.00  0.00    -0.002 A 
ATOM      7  C5  OXE d   1       1.261  -0.498   1.830  0.00  0.00    -0.002 A 
ATOM      8  C6  OXE d   1       0.384   0.447   2.349  0.00  0.00     0.003 A 
ENDROOT
TORSDOF 0
ENDMDL
