MODEL 1
REMARK minimizedAffinity 6.77474117
REMARK minimizedRMSD -1
REMARK  0 active torsions:
REMARK  status: ('A' for Active; 'I' for Inactive)
ROOT
ATOM      1  C2' OXE d   1      -0.462   2.602   2.620  0.00  0.00     0.078 C 
ATOM      2  C1' OXE d   1      -0.091   1.904  -0.074  0.00  0.00     0.078 C 
ATOM      3  C1  OXE d   1       0.556   1.033   0.974  0.00  0.00    -0.078 A 
ATOM      4  C2  OXE d   1       0.409   1.409   2.287  0.00  0.00    -0.078 A 
ATOM      5  C3  OXE d   1       0.939   0.610   3.296  0.00  0.00     0.003 A 
ATOM      6  C4  OXE d   1       1.751  -0.486   2.980  0.00  0.00    -0.002 A 
ATOM      7  C5  OXE d   1       1.947  -0.863   1.647  0.00  0.00    -0.002 A 
ATOM      8  C6  OXE d   1       1.323  -0.140   0.636  0.00  0.00     0.003 A 
ENDROOT
TORSDOF 0
ENDMDL
