MODEL 1
REMARK minimizedAffinity -3.04299402
REMARK minimizedRMSD -1
REMARK  3 active torsions:
REMARK  status: ('A' for Active; 'I' for Inactive)
REMARK    1  A    between atoms: C3'_2  and  C2'_3 
REMARK    2  A    between atoms: C2'_3  and  C1'_4 
REMARK    3  A    between atoms: C1'_4  and  C1_5 
ROOT
ATOM      1  C1  N4B d   1      -1.809  -0.136  -1.217  0.00  0.00    -0.075 A 
ATOM      2  C2  N4B d   1      -2.411   1.012  -1.776  0.00  0.00     0.002 A 
ATOM      3  C3  N4B d   1      -2.690   1.056  -3.120  0.00  0.00     0.002 A 
ATOM      4  C4  N4B d   1      -2.361  -0.025  -3.924  0.00  0.00    -0.004 A 
ATOM      5  C5  N4B d   1      -1.803  -1.141  -3.372  0.00  0.00     0.002 A 
ATOM      6  C6  N4B d   1      -1.520  -1.200  -2.022  0.00  0.00     0.002 A 
ENDROOT
BRANCH   1   7
ATOM      7  C1' N4B d   1      -1.406  -0.197   0.231  0.00  0.00     0.057 C 
BRANCH   7   8
ATOM      8  C2' N4B d   1       0.096  -0.448   0.323  0.00  0.00     0.009 C 
BRANCH   8   9
ATOM      9  C3' N4B d   1       0.900   0.818   0.080  0.00  0.00     0.004 C 
ATOM     10  C4' N4B d   1       2.187   0.846   0.848  0.00  0.00     0.003 C 
ENDBRANCH   8   9
ENDBRANCH   7   8
ENDBRANCH   1   7
TORSDOF 3
ENDMDL
