MODEL 1
REMARK minimizedAffinity -3.69171643
REMARK minimizedRMSD -1
REMARK  3 active torsions:
REMARK  status: ('A' for Active; 'I' for Inactive)
REMARK    1  A    between atoms: C3'_2  and  C2'_3 
REMARK    2  A    between atoms: C2'_3  and  C1'_4 
REMARK    3  A    between atoms: C1'_4  and  C1_5 
ROOT
ATOM      1  C1  N4B d   1       1.097   0.606   0.434  0.00  0.00    -0.075 A 
ATOM      2  C2  N4B d   1       0.690   1.781  -0.236  0.00  0.00     0.002 A 
ATOM      3  C3  N4B d   1      -0.583   1.878  -0.740  0.00  0.00     0.002 A 
ATOM      4  C4  N4B d   1      -1.458   0.810  -0.604  0.00  0.00    -0.004 A 
ATOM      5  C5  N4B d   1      -1.065  -0.311   0.067  0.00  0.00     0.002 A 
ATOM      6  C6  N4B d   1       0.210  -0.421   0.582  0.00  0.00     0.002 A 
ENDROOT
BRANCH   1   7
ATOM      7  C1' N4B d   1       2.506   0.421   0.927  0.00  0.00     0.057 C 
BRANCH   7   8
ATOM      8  C2' N4B d   1       2.476   0.098   2.418  0.00  0.00     0.009 C 
BRANCH   8   9
ATOM      9  C3' N4B d   1       2.862  -1.345   2.695  0.00  0.00     0.004 C 
ATOM     10  C4' N4B d   1       1.728  -2.154   3.251  0.00  0.00     0.003 C 
ENDBRANCH   8   9
ENDBRANCH   7   8
ENDBRANCH   1   7
TORSDOF 3
ENDMDL
