MODEL 1
REMARK minimizedAffinity -5.44067144
REMARK minimizedRMSD -1
REMARK  3 active torsions:
REMARK  status: ('A' for Active; 'I' for Inactive)
REMARK    1  A    between atoms: C3'_2  and  C2'_3 
REMARK    2  A    between atoms: C2'_3  and  C1'_4 
REMARK    3  A    between atoms: C1'_4  and  C1_5 
ROOT
ATOM      1  C1  N4B d   1      -1.304  -0.181  -1.178  0.00  0.00    -0.075 A 
ATOM      2  C2  N4B d   1      -1.808   1.062  -1.621  0.00  0.00     0.002 A 
ATOM      3  C3  N4B d   1      -2.595   1.123  -2.745  0.00  0.00     0.002 A 
ATOM      4  C4  N4B d   1      -2.874  -0.039  -3.450  0.00  0.00    -0.004 A 
ATOM      5  C5  N4B d   1      -2.405  -1.238  -3.001  0.00  0.00     0.002 A 
ATOM      6  C6  N4B d   1      -1.617  -1.314  -1.871  0.00  0.00     0.002 A 
ENDROOT
BRANCH   1   7
ATOM      7  C1' N4B d   1      -0.370  -0.286  -0.004  0.00  0.00     0.057 C 
BRANCH   7   8
ATOM      8  C2' N4B d   1       0.357   1.043   0.178  0.00  0.00     0.009 C 
BRANCH   8   9
ATOM      9  C3' N4B d   1       1.861   0.894   0.022  0.00  0.00     0.004 C 
ATOM     10  C4' N4B d   1       2.550   0.579   1.316  0.00  0.00     0.003 C 
ENDBRANCH   8   9
ENDBRANCH   7   8
ENDBRANCH   1   7
TORSDOF 3
ENDMDL
