MODEL 1
REMARK minimizedAffinity -3.67618608
REMARK minimizedRMSD -1
REMARK  3 active torsions:
REMARK  status: ('A' for Active; 'I' for Inactive)
REMARK    1  A    between atoms: C3'_2  and  C2'_3 
REMARK    2  A    between atoms: C2'_3  and  C1'_4 
REMARK    3  A    between atoms: C1'_4  and  C1_5 
ROOT
ATOM      1  C1  N4B d   1      -1.890   0.008  -1.027  0.00  0.00    -0.075 A 
ATOM      2  C2  N4B d   1      -1.546  -0.917  -2.038  0.00  0.00     0.002 A 
ATOM      3  C3  N4B d   1      -2.079  -0.789  -3.297  0.00  0.00     0.002 A 
ATOM      4  C4  N4B d   1      -2.969   0.241  -3.563  0.00  0.00    -0.004 A 
ATOM      5  C5  N4B d   1      -3.276   1.146  -2.589  0.00  0.00     0.002 A 
ATOM      6  C6  N4B d   1      -2.745   1.031  -1.320  0.00  0.00     0.002 A 
ENDROOT
BRANCH   1   7
ATOM      7  C1' N4B d   1      -1.400  -0.142   0.387  0.00  0.00     0.057 C 
BRANCH   7   8
ATOM      8  C2' N4B d   1       0.124  -0.067   0.399  0.00  0.00     0.009 C 
BRANCH   8   9
ATOM      9  C3' N4B d   1       0.623   1.366   0.329  0.00  0.00     0.004 C 
ATOM     10  C4' N4B d   1       2.120   1.461   0.338  0.00  0.00     0.003 C 
ENDBRANCH   8   9
ENDBRANCH   7   8
ENDBRANCH   1   7
TORSDOF 3
ENDMDL
