MODEL 1
REMARK minimizedAffinity -2.28648925
REMARK minimizedRMSD -1
REMARK  0 active torsions:
REMARK  status: ('A' for Active; 'I' for Inactive)
ROOT
ATOM      1  C   UNL d   1       4.913   5.991   4.074  0.00  0.00     0.077 C 
ATOM      2  C1  UNL d   1       4.838   5.998   2.576  0.00  0.00    -0.074 A 
ATOM      3  C2  UNL d   1       6.000   5.991   1.798  0.00  0.00    -0.005 A 
ATOM      4  C3  UNL d   1       5.914   5.988   0.406  0.00  0.00     0.006 A 
ATOM      5  C4  UNL d   1       4.668   5.993  -0.221  0.00  0.00    -0.005 A 
ATOM      6  C5  UNL d   1       3.495   6.000   0.540  0.00  0.00    -0.074 A 
ATOM      7  C6  UNL d   1       2.147   5.995  -0.118  0.00  0.00     0.077 C 
ATOM      8  C7  UNL d   1       3.589   5.995   1.939  0.00  0.00    -0.001 A 
ENDROOT
TORSDOF 0
ENDMDL
