MODEL 1
REMARK minimizedAffinity -0.74315232
REMARK minimizedRMSD -1
REMARK  0 active torsions:
REMARK  status: ('A' for Active; 'I' for Inactive)
ROOT
ATOM      1  C   UNL d   1       5.986   4.818   0.114  0.00  0.00     0.077 C 
ATOM      2  C1  UNL d   1       5.261   5.232   1.360  0.00  0.00    -0.074 A 
ATOM      3  C2  UNL d   1       3.920   5.627   1.314  0.00  0.00    -0.005 A 
ATOM      4  C3  UNL d   1       3.257   6.000   2.483  0.00  0.00     0.006 A 
ATOM      5  C4  UNL d   1       3.926   5.982   3.707  0.00  0.00    -0.005 A 
ATOM      6  C5  UNL d   1       5.267   5.590   3.773  0.00  0.00    -0.074 A 
ATOM      7  C6  UNL d   1       5.998   5.556   5.081  0.00  0.00     0.077 C 
ATOM      8  C7  UNL d   1       5.925   5.209   2.595  0.00  0.00    -0.001 A 
ENDROOT
TORSDOF 0
ENDMDL
