MODEL 1
REMARK minimizedAffinity -2.09114003
REMARK minimizedRMSD -1
REMARK  0 active torsions:
REMARK  status: ('A' for Active; 'I' for Inactive)
ROOT
ATOM      1  C   UNL d   1       4.586   5.850   3.898  0.00  0.00     0.077 C 
ATOM      2  C1  UNL d   1       4.682   5.907   2.402  0.00  0.00    -0.074 A 
ATOM      3  C2  UNL d   1       5.926   5.924   1.762  0.00  0.00    -0.005 A 
ATOM      4  C3  UNL d   1       6.000   5.968   0.370  0.00  0.00     0.006 A 
ATOM      5  C4  UNL d   1       4.833   5.996  -0.395  0.00  0.00    -0.005 A 
ATOM      6  C5  UNL d   1       3.581   5.979   0.227  0.00  0.00    -0.074 A 
ATOM      7  C6  UNL d   1       2.317   5.999  -0.580  0.00  0.00     0.077 C 
ATOM      8  C7  UNL d   1       3.515   5.928   1.626  0.00  0.00    -0.001 A 
ENDROOT
TORSDOF 0
ENDMDL
