MODEL 1
REMARK minimizedAffinity 11.0846415
REMARK minimizedRMSD -1
REMARK  0 active torsions:
REMARK  status: ('A' for Active; 'I' for Inactive)
ROOT
ATOM      1  C   UNL d   1       3.849   2.689   1.473  0.00  0.00     0.077 C 
ATOM      2  C1  UNL d   1       4.605   3.845   2.059  0.00  0.00    -0.074 A 
ATOM      3  C2  UNL d   1       4.992   4.928   1.263  0.00  0.00    -0.005 A 
ATOM      4  C3  UNL d   1       5.686   6.000   1.824  0.00  0.00     0.006 A 
ATOM      5  C4  UNL d   1       5.999   6.000   3.184  0.00  0.00    -0.005 A 
ATOM      6  C5  UNL d   1       5.619   4.926   3.995  0.00  0.00    -0.074 A 
ATOM      7  C6  UNL d   1       5.939   4.914   5.460  0.00  0.00     0.077 C 
ATOM      8  C7  UNL d   1       4.916   3.856   3.425  0.00  0.00    -0.001 A 
ENDROOT
TORSDOF 0
ENDMDL
