MODEL 1
REMARK minimizedAffinity 10.637394
REMARK minimizedRMSD -1
REMARK  0 active torsions:
REMARK  status: ('A' for Active; 'I' for Inactive)
ROOT
ATOM      1  C   UNL d   1       1.219   0.965  -5.631  0.00  0.00     0.077 C 
ATOM      2  C1  UNL d   1       1.452   0.704  -4.173  0.00  0.00    -0.074 A 
ATOM      3  C2  UNL d   1       0.480   1.029  -3.220  0.00  0.00    -0.005 A 
ATOM      4  C3  UNL d   1       0.707   0.771  -1.868  0.00  0.00     0.006 A 
ATOM      5  C4  UNL d   1       1.905   0.187  -1.456  0.00  0.00    -0.005 A 
ATOM      6  C5  UNL d   1       2.888  -0.145  -2.394  0.00  0.00    -0.074 A 
ATOM      7  C6  UNL d   1       4.177  -0.783  -1.968  0.00  0.00     0.077 C 
ATOM      8  C7  UNL d   1       2.649   0.110  -3.751  0.00  0.00    -0.001 A 
ENDROOT
TORSDOF 0
ENDMDL
