MODEL 1
REMARK minimizedAffinity 6.85824966
REMARK minimizedRMSD -1
REMARK  0 active torsions:
REMARK  status: ('A' for Active; 'I' for Inactive)
ROOT
ATOM      1  C   UNL d   1       1.782   0.898  -1.536  0.00  0.00     0.077 C 
ATOM      2  C1  UNL d   1       1.778  -0.601  -1.483  0.00  0.00    -0.074 A 
ATOM      3  C2  UNL d   1       2.754  -1.297  -0.762  0.00  0.00    -0.005 A 
ATOM      4  C3  UNL d   1       2.733  -2.690  -0.714  0.00  0.00     0.006 A 
ATOM      5  C4  UNL d   1       1.737  -3.401  -1.385  0.00  0.00    -0.005 A 
ATOM      6  C5  UNL d   1       0.753  -2.723  -2.111  0.00  0.00    -0.074 A 
ATOM      7  C6  UNL d   1      -0.330  -3.471  -2.830  0.00  0.00     0.077 C 
ATOM      8  C7  UNL d   1       0.777  -1.322  -2.148  0.00  0.00    -0.001 A 
ENDROOT
TORSDOF 0
ENDMDL
