MODEL 1
REMARK minimizedAffinity 9.18986225
REMARK minimizedRMSD -1
REMARK  0 active torsions:
REMARK  status: ('A' for Active; 'I' for Inactive)
ROOT
ATOM      1  C   UNL d   1      -2.026  -2.980  -1.620  0.00  0.00     0.077 C 
ATOM      2  C1  UNL d   1      -0.554  -3.140  -1.384  0.00  0.00    -0.074 A 
ATOM      3  C2  UNL d   1       0.380  -2.565  -2.252  0.00  0.00    -0.005 A 
ATOM      4  C3  UNL d   1       1.746  -2.714  -2.014  0.00  0.00     0.006 A 
ATOM      5  C4  UNL d   1       2.192  -3.440  -0.909  0.00  0.00    -0.005 A 
ATOM      6  C5  UNL d   1       1.273  -4.022  -0.030  0.00  0.00    -0.074 A 
ATOM      7  C6  UNL d   1       1.735  -4.797   1.168  0.00  0.00     0.077 C 
ATOM      8  C7  UNL d   1      -0.098  -3.861  -0.272  0.00  0.00    -0.001 A 
ENDROOT
TORSDOF 0
ENDMDL
