MODEL 1
REMARK minimizedAffinity 5.22330427
REMARK minimizedRMSD -1
REMARK  0 active torsions:
REMARK  status: ('A' for Active; 'I' for Inactive)
ROOT
ATOM      1  C   UNL d   1       5.998   0.372  -5.281  0.00  0.00     0.077 C 
ATOM      2  C1  UNL d   1       5.312  -0.051  -4.016  0.00  0.00    -0.074 A 
ATOM      3  C2  UNL d   1       6.000  -0.764  -3.029  0.00  0.00    -0.005 A 
ATOM      4  C3  UNL d   1       5.351  -1.143  -1.854  0.00  0.00     0.006 A 
ATOM      5  C4  UNL d   1       4.010  -0.812  -1.654  0.00  0.00    -0.005 A 
ATOM      6  C5  UNL d   1       3.306  -0.098  -2.629  0.00  0.00    -0.074 A 
ATOM      7  C6  UNL d   1       1.868   0.274  -2.426  0.00  0.00     0.077 C 
ATOM      8  C7  UNL d   1       3.967   0.285  -3.805  0.00  0.00    -0.001 A 
ENDROOT
TORSDOF 0
ENDMDL
