MODEL 1
REMARK minimizedAffinity 18.6000786
REMARK minimizedRMSD -1
REMARK  0 active torsions:
REMARK  status: ('A' for Active; 'I' for Inactive)
ROOT
ATOM      1  C   UNL d   1       1.912  -4.499   0.822  0.00  0.00     0.077 C 
ATOM      2  C1  UNL d   1       2.217  -3.469  -0.224  0.00  0.00    -0.074 A 
ATOM      3  C2  UNL d   1       3.462  -2.834  -0.267  0.00  0.00    -0.005 A 
ATOM      4  C3  UNL d   1       3.734  -1.885  -1.253  0.00  0.00     0.006 A 
ATOM      5  C4  UNL d   1       2.765  -1.562  -2.204  0.00  0.00    -0.005 A 
ATOM      6  C5  UNL d   1       1.515  -2.187  -2.177  0.00  0.00    -0.074 A 
ATOM      7  C6  UNL d   1       0.466  -1.859  -3.198  0.00  0.00     0.077 C 
ATOM      8  C7  UNL d   1       1.251  -3.145  -1.188  0.00  0.00    -0.001 A 
ENDROOT
TORSDOF 0
ENDMDL
