MODEL 1
REMARK minimizedAffinity 7.63276958
REMARK minimizedRMSD -1
REMARK  0 active torsions:
REMARK  status: ('A' for Active; 'I' for Inactive)
ROOT
ATOM      1  C   UNL d   1       2.087   5.951   1.680  0.00  0.00     0.077 C 
ATOM      2  C1  UNL d   1       3.417   5.607   2.282  0.00  0.00    -0.074 A 
ATOM      3  C2  UNL d   1       4.407   4.975   1.523  0.00  0.00    -0.005 A 
ATOM      4  C3  UNL d   1       5.643   4.670   2.093  0.00  0.00     0.006 A 
ATOM      5  C4  UNL d   1       5.901   4.992   3.426  0.00  0.00    -0.005 A 
ATOM      6  C5  UNL d   1       4.923   5.625   4.200  0.00  0.00    -0.074 A 
ATOM      7  C6  UNL d   1       5.187   5.987   5.632  0.00  0.00     0.077 C 
ATOM      8  C7  UNL d   1       3.686   5.935   3.618  0.00  0.00    -0.001 A 
ENDROOT
TORSDOF 0
ENDMDL
