MODEL 1
REMARK minimizedAffinity 6.30405045
REMARK minimizedRMSD -1
REMARK  0 active torsions:
REMARK  status: ('A' for Active; 'I' for Inactive)
ROOT
ATOM      1  C   UNL d   1      -2.354   0.043   2.949  0.00  0.00     0.077 C 
ATOM      2  C1  UNL d   1      -2.581   1.518   3.094  0.00  0.00    -0.074 A 
ATOM      3  C2  UNL d   1      -3.470   2.195   2.254  0.00  0.00    -0.005 A 
ATOM      4  C3  UNL d   1      -3.678   3.566   2.407  0.00  0.00     0.006 A 
ATOM      5  C4  UNL d   1      -2.999   4.273   3.401  0.00  0.00    -0.005 A 
ATOM      6  C5  UNL d   1      -2.107   3.612   4.251  0.00  0.00    -0.074 A 
ATOM      7  C6  UNL d   1      -1.377   4.355   5.331  0.00  0.00     0.077 C 
ATOM      8  C7  UNL d   1      -1.909   2.234   4.095  0.00  0.00    -0.001 A 
ENDROOT
TORSDOF 0
ENDMDL
