MODEL 1
REMARK minimizedAffinity -2.34703612
REMARK minimizedRMSD -1
REMARK  0 active torsions:
REMARK  status: ('A' for Active; 'I' for Inactive)
ROOT
ATOM      1  C   UNL d   1       3.379  -5.251   3.380  0.00  0.00     0.077 C 
ATOM      2  C1  UNL d   1       4.291  -4.422   4.236  0.00  0.00    -0.074 A 
ATOM      3  C2  UNL d   1       5.091  -5.015   5.218  0.00  0.00    -0.005 A 
ATOM      4  C3  UNL d   1       5.941  -4.233   5.999  0.00  0.00     0.006 A 
ATOM      5  C4  UNL d   1       6.000  -2.852   5.807  0.00  0.00    -0.005 A 
ATOM      6  C5  UNL d   1       5.208  -2.242   4.829  0.00  0.00    -0.074 A 
ATOM      7  C6  UNL d   1       5.267  -0.760   4.602  0.00  0.00     0.077 C 
ATOM      8  C7  UNL d   1       4.362  -3.035   4.043  0.00  0.00    -0.001 A 
ENDROOT
TORSDOF 0
ENDMDL
