MODEL 1
REMARK minimizedAffinity 6.70108747
REMARK minimizedRMSD -1
REMARK  0 active torsions:
REMARK  status: ('A' for Active; 'I' for Inactive)
ROOT
ATOM      1  C   UNL d   1       3.104  -0.375  -1.832  0.00  0.00     0.077 C 
ATOM      2  C1  UNL d   1       1.659   0.006  -1.962  0.00  0.00    -0.074 A 
ATOM      3  C2  UNL d   1       1.275   1.125  -2.707  0.00  0.00    -0.005 A 
ATOM      4  C3  UNL d   1      -0.073   1.461  -2.827  0.00  0.00     0.006 A 
ATOM      5  C4  UNL d   1      -1.049   0.683  -2.204  0.00  0.00    -0.005 A 
ATOM      6  C5  UNL d   1      -0.684  -0.440  -1.455  0.00  0.00    -0.074 A 
ATOM      7  C6  UNL d   1      -1.722  -1.293  -0.787  0.00  0.00     0.077 C 
ATOM      8  C7  UNL d   1       0.672  -0.776  -1.345  0.00  0.00    -0.001 A 
ENDROOT
TORSDOF 0
ENDMDL
