MODEL 1
REMARK minimizedAffinity 5.11245871
REMARK minimizedRMSD -1
REMARK  0 active torsions:
REMARK  status: ('A' for Active; 'I' for Inactive)
ROOT
ATOM      1  C   UNL d   1      -3.599  -1.781  -0.184  0.00  0.00     0.077 C 
ATOM      2  C1  UNL d   1      -3.014  -0.831   0.818  0.00  0.00    -0.074 A 
ATOM      3  C2  UNL d   1      -2.119   0.169   0.423  0.00  0.00    -0.005 A 
ATOM      4  C3  UNL d   1      -1.591   1.052   1.364  0.00  0.00     0.006 A 
ATOM      5  C4  UNL d   1      -1.951   0.944   2.708  0.00  0.00    -0.005 A 
ATOM      6  C5  UNL d   1      -2.845  -0.048   3.122  0.00  0.00    -0.074 A 
ATOM      7  C6  UNL d   1      -3.251  -0.172   4.560  0.00  0.00     0.077 C 
ATOM      8  C7  UNL d   1      -3.377  -0.927   2.168  0.00  0.00    -0.001 A 
ENDROOT
TORSDOF 0
ENDMDL
