MODEL 1
REMARK minimizedAffinity -0.673088312
REMARK minimizedRMSD -1
REMARK  0 active torsions:
REMARK  status: ('A' for Active; 'I' for Inactive)
ROOT
ATOM      1  C   UNL d   1       0.028   1.232  -2.542  0.00  0.00     0.077 C 
ATOM      2  C1  UNL d   1       1.262   0.513  -2.084  0.00  0.00    -0.074 A 
ATOM      3  C2  UNL d   1       2.475   1.192  -1.934  0.00  0.00    -0.005 A 
ATOM      4  C3  UNL d   1       3.612   0.512  -1.498  0.00  0.00     0.006 A 
ATOM      5  C4  UNL d   1       3.548  -0.851  -1.209  0.00  0.00    -0.005 A 
ATOM      6  C5  UNL d   1       2.343  -1.546  -1.352  0.00  0.00    -0.074 A 
ATOM      7  C6  UNL d   1       2.254  -3.010  -1.035  0.00  0.00     0.077 C 
ATOM      8  C7  UNL d   1       1.203  -0.855  -1.783  0.00  0.00    -0.001 A 
ENDROOT
TORSDOF 0
ENDMDL
