MODEL 1
REMARK minimizedAffinity 11.6002464
REMARK minimizedRMSD -1
REMARK  0 active torsions:
REMARK  status: ('A' for Active; 'I' for Inactive)
ROOT
ATOM      1  C   UNL d   1      -5.998  -0.736   3.049  0.00  0.00     0.077 C 
ATOM      2  C1  UNL d   1      -4.695   0.006   3.016  0.00  0.00    -0.074 A 
ATOM      3  C2  UNL d   1      -3.513  -0.598   3.457  0.00  0.00    -0.005 A 
ATOM      4  C3  UNL d   1      -2.307   0.101   3.411  0.00  0.00     0.006 A 
ATOM      5  C4  UNL d   1      -2.270   1.409   2.924  0.00  0.00    -0.005 A 
ATOM      6  C5  UNL d   1      -3.442   2.028   2.478  0.00  0.00    -0.074 A 
ATOM      7  C6  UNL d   1      -3.418   3.429   1.944  0.00  0.00     0.077 C 
ATOM      8  C7  UNL d   1      -4.649   1.317   2.521  0.00  0.00    -0.001 A 
ENDROOT
TORSDOF 0
ENDMDL
