MODEL 1
REMARK minimizedAffinity -4.06493998
REMARK minimizedRMSD -1
REMARK  2 active torsions:
REMARK  status: ('A' for Active; 'I' for Inactive)
REMARK    1  A    between atoms: C2'_3  and  C1'_4 
REMARK    2  A    between atoms: C1'_4  and  C1_5 
ROOT
ATOM      1  C1  I4B d   1      -0.021  -0.778  -1.081  0.00  0.00    -0.075 A 
ATOM      2  C2  I4B d   1      -0.409   0.532  -0.950  0.00  0.00     0.003 A 
ATOM      3  C3  I4B d   1       0.547   1.533  -0.654  0.00  0.00     0.002 A 
ATOM      4  C4  I4B d   1       1.864   1.175  -0.447  0.00  0.00    -0.004 A 
ATOM      5  C5  I4B d   1       2.260  -0.151  -0.602  0.00  0.00     0.002 A 
ATOM      6  C6  I4B d   1       1.314  -1.132  -0.933  0.00  0.00     0.003 A 
ENDROOT
BRANCH   1   7
ATOM      7  C1' I4B d   1      -1.063  -1.814  -1.362  0.00  0.00     0.060 C 
BRANCH   7   8
ATOM      8  C2' I4B d   1      -2.117  -1.186  -2.251  0.00  0.00    -0.013 C 
ATOM      9  C4' I4B d   1      -1.681  -1.179  -3.692  0.00  0.00     0.013 C 
ATOM     10  C3' I4B d   1      -3.391  -1.958  -2.074  0.00  0.00     0.013 C 
ENDBRANCH   7   8
ENDBRANCH   1   7
TORSDOF 2
ENDMDL
