MODEL 1
REMARK minimizedAffinity 2.48394084
REMARK minimizedRMSD -1
REMARK  2 active torsions:
REMARK  status: ('A' for Active; 'I' for Inactive)
REMARK    1  A    between atoms: C2'_3  and  C1'_4 
REMARK    2  A    between atoms: C1'_4  and  C1_5 
ROOT
ATOM      1  C1  I4B d   1      -0.571   5.999  -4.365  0.00  0.00    -0.075 A 
ATOM      2  C2  I4B d   1      -1.902   5.996  -4.700  0.00  0.00     0.003 A 
ATOM      3  C3  I4B d   1      -2.891   5.982  -3.687  0.00  0.00     0.002 A 
ATOM      4  C4  I4B d   1      -2.508   5.922  -2.363  0.00  0.00    -0.004 A 
ATOM      5  C5  I4B d   1      -1.158   5.948  -2.025  0.00  0.00     0.002 A 
ATOM      6  C6  I4B d   1      -0.183   6.000  -3.032  0.00  0.00     0.003 A 
ENDROOT
BRANCH   1   7
ATOM      7  C1' I4B d   1       0.448   5.980  -5.461  0.00  0.00     0.060 C 
BRANCH   7   8
ATOM      8  C2' I4B d   1       1.766   5.531  -4.865  0.00  0.00    -0.013 C 
ATOM      9  C4' I4B d   1       1.804   4.036  -4.690  0.00  0.00     0.013 C 
ATOM     10  C3' I4B d   1       2.867   5.999  -5.770  0.00  0.00     0.013 C 
ENDBRANCH   7   8
ENDBRANCH   1   7
TORSDOF 2
ENDMDL
