MODEL 1
REMARK minimizedAffinity 9.98756504
REMARK minimizedRMSD -1
REMARK  2 active torsions:
REMARK  status: ('A' for Active; 'I' for Inactive)
REMARK    1  A    between atoms: C2'_3  and  C1'_4 
REMARK    2  A    between atoms: C1'_4  and  C1_5 
ROOT
ATOM      1  C1  I4B d   1       1.181  -0.148   0.189  0.00  0.00    -0.075 A 
ATOM      2  C2  I4B d   1       1.795   0.677   1.098  0.00  0.00     0.003 A 
ATOM      3  C3  I4B d   1       2.059   2.029   0.770  0.00  0.00     0.002 A 
ATOM      4  C4  I4B d   1       1.740   2.497  -0.488  0.00  0.00    -0.004 A 
ATOM      5  C5  I4B d   1       1.096   1.666  -1.401  0.00  0.00     0.002 A 
ATOM      6  C6  I4B d   1       0.804   0.338  -1.056  0.00  0.00     0.003 A 
ENDROOT
BRANCH   1   7
ATOM      7  C1' I4B d   1       0.947  -1.579   0.557  0.00  0.00     0.060 C 
BRANCH   7   8
ATOM      8  C2' I4B d   1      -0.510  -1.730   0.942  0.00  0.00    -0.013 C 
ATOM      9  C4' I4B d   1      -0.848  -3.166   1.245  0.00  0.00     0.013 C 
ATOM     10  C3' I4B d   1      -0.768  -0.851   2.130  0.00  0.00     0.013 C 
ENDBRANCH   7   8
ENDBRANCH   1   7
TORSDOF 2
ENDMDL
