MODEL 1
REMARK minimizedAffinity 0.0624480769
REMARK minimizedRMSD -1
REMARK  2 active torsions:
REMARK  status: ('A' for Active; 'I' for Inactive)
REMARK    1  A    between atoms: C2'_3  and  C1'_4 
REMARK    2  A    between atoms: C1'_4  and  C1_5 
ROOT
ATOM      1  C1  I4B d   1      -1.622   5.959  -4.218  0.00  0.00    -0.075 A 
ATOM      2  C2  I4B d   1      -1.413   5.991  -2.862  0.00  0.00     0.003 A 
ATOM      3  C3  I4B d   1      -2.514   5.986  -1.971  0.00  0.00     0.002 A 
ATOM      4  C4  I4B d   1      -3.798   5.999  -2.476  0.00  0.00    -0.004 A 
ATOM      5  C5  I4B d   1      -4.008   5.943  -3.851  0.00  0.00     0.002 A 
ATOM      6  C6  I4B d   1      -2.913   5.910  -4.727  0.00  0.00     0.003 A 
ENDROOT
BRANCH   1   7
ATOM      7  C1' I4B d   1      -0.438   5.998  -5.131  0.00  0.00     0.060 C 
BRANCH   7   8
ATOM      8  C2' I4B d   1       0.780   5.580  -4.333  0.00  0.00    -0.013 C 
ATOM      9  C4' I4B d   1       0.781   4.095  -4.078  0.00  0.00     0.013 C 
ATOM     10  C3' I4B d   1       2.001   5.999  -5.098  0.00  0.00     0.013 C 
ENDBRANCH   7   8
ENDBRANCH   1   7
TORSDOF 2
ENDMDL
