MODEL 1
REMARK minimizedAffinity -2.80167603
REMARK minimizedRMSD -1
REMARK  2 active torsions:
REMARK  status: ('A' for Active; 'I' for Inactive)
REMARK    1  A    between atoms: C2'_3  and  C1'_4 
REMARK    2  A    between atoms: C1'_4  and  C1_5 
ROOT
ATOM      1  C1  I4B d   1      -0.589   5.959  -3.102  0.00  0.00    -0.075 A 
ATOM      2  C2  I4B d   1      -0.805   5.974  -1.747  0.00  0.00     0.003 A 
ATOM      3  C3  I4B d   1      -2.125   5.968  -1.235  0.00  0.00     0.002 A 
ATOM      4  C4  I4B d   1      -3.192   5.998  -2.109  0.00  0.00    -0.004 A 
ATOM      5  C5  I4B d   1      -2.972   5.960  -3.483  0.00  0.00     0.002 A 
ATOM      6  C6  I4B d   1      -1.662   5.928  -3.983  0.00  0.00     0.003 A 
ENDROOT
BRANCH   1   7
ATOM      7  C1' I4B d   1       0.818   6.000  -3.608  0.00  0.00     0.060 C 
BRANCH   7   8
ATOM      8  C2' I4B d   1       0.879   5.187  -4.885  0.00  0.00    -0.013 C 
ATOM      9  C4' I4B d   1       0.121   5.863  -5.998  0.00  0.00     0.013 C 
ATOM     10  C3' I4B d   1       2.322   5.001  -5.248  0.00  0.00     0.013 C 
ENDBRANCH   7   8
ENDBRANCH   1   7
TORSDOF 2
ENDMDL
