MODEL 1
REMARK minimizedAffinity 7.32960606
REMARK minimizedRMSD -1
REMARK  2 active torsions:
REMARK  status: ('A' for Active; 'I' for Inactive)
REMARK    1  A    between atoms: C2'_3  and  C1'_4 
REMARK    2  A    between atoms: C1'_4  and  C1_5 
ROOT
ATOM      1  C1  I4B d   1       1.908   1.600   0.697  0.00  0.00    -0.075 A 
ATOM      2  C2  I4B d   1       1.350   0.840   1.695  0.00  0.00     0.003 A 
ATOM      3  C3  I4B d   1       0.296  -0.060   1.400  0.00  0.00     0.002 A 
ATOM      4  C4  I4B d   1      -0.198  -0.130   0.114  0.00  0.00    -0.004 A 
ATOM      5  C5  I4B d   1       0.385   0.625  -0.900  0.00  0.00     0.002 A 
ATOM      6  C6  I4B d   1       1.453   1.486  -0.610  0.00  0.00     0.003 A 
ENDROOT
BRANCH   1   7
ATOM      7  C1' I4B d   1       2.997   2.563   1.049  0.00  0.00     0.060 C 
BRANCH   7   8
ATOM      8  C2' I4B d   1       4.325   1.878   0.800  0.00  0.00    -0.013 C 
ATOM      9  C4' I4B d   1       5.390   2.874   0.421  0.00  0.00     0.013 C 
ATOM     10  C3' I4B d   1       4.701   1.131   2.044  0.00  0.00     0.013 C 
ENDBRANCH   7   8
ENDBRANCH   1   7
TORSDOF 2
ENDMDL
