MODEL 1
REMARK minimizedAffinity 1.49516869
REMARK minimizedRMSD -1
REMARK  2 active torsions:
REMARK  status: ('A' for Active; 'I' for Inactive)
REMARK    1  A    between atoms: C2'_3  and  C1'_4 
REMARK    2  A    between atoms: C1'_4  and  C1_5 
ROOT
ATOM      1  C1  I4B d   1      -1.520   5.959  -3.128  0.00  0.00    -0.075 A 
ATOM      2  C2  I4B d   1      -1.987   5.939  -1.838  0.00  0.00     0.003 A 
ATOM      3  C3  I4B d   1      -3.380   5.933  -1.583  0.00  0.00     0.002 A 
ATOM      4  C4  I4B d   1      -4.264   5.999  -2.640  0.00  0.00    -0.004 A 
ATOM      5  C5  I4B d   1      -3.790   5.997  -3.949  0.00  0.00     0.002 A 
ATOM      6  C6  I4B d   1      -2.410   5.964  -4.195  0.00  0.00     0.003 A 
ENDROOT
BRANCH   1   7
ATOM      7  C1' I4B d   1      -0.043   5.998  -3.360  0.00  0.00     0.060 C 
BRANCH   7   8
ATOM      8  C2' I4B d   1       0.264   5.128  -4.562  0.00  0.00    -0.013 C 
ATOM      9  C4' I4B d   1       0.818   5.945  -5.700  0.00  0.00     0.013 C 
ATOM     10  C3' I4B d   1       1.235   4.070  -4.131  0.00  0.00     0.013 C 
ENDBRANCH   7   8
ENDBRANCH   1   7
TORSDOF 2
ENDMDL
