MODEL 1
REMARK minimizedAffinity -0.171009779
REMARK minimizedRMSD -1
REMARK  2 active torsions:
REMARK  status: ('A' for Active; 'I' for Inactive)
REMARK    1  A    between atoms: C2'_3  and  C1'_4 
REMARK    2  A    between atoms: C1'_4  and  C1_5 
ROOT
ATOM      1  C1  I4B d   1      -1.171   5.647  -2.938  0.00  0.00    -0.075 A 
ATOM      2  C2  I4B d   1      -1.728   5.414  -1.705  0.00  0.00     0.003 A 
ATOM      3  C3  I4B d   1      -3.134   5.434  -1.542  0.00  0.00     0.002 A 
ATOM      4  C4  I4B d   1      -3.939   5.739  -2.621  0.00  0.00    -0.004 A 
ATOM      5  C5  I4B d   1      -3.374   5.952  -3.875  0.00  0.00     0.002 A 
ATOM      6  C6  I4B d   1      -1.983   5.894  -4.038  0.00  0.00     0.003 A 
ENDROOT
BRANCH   1   7
ATOM      7  C1' I4B d   1       0.319   5.651  -3.067  0.00  0.00     0.060 C 
BRANCH   7   8
ATOM      8  C2' I4B d   1       0.660   5.898  -4.523  0.00  0.00    -0.013 C 
ATOM      9  C4' I4B d   1       2.149   6.000  -4.724  0.00  0.00     0.013 C 
ATOM     10  C3' I4B d   1       0.080   4.777  -5.331  0.00  0.00     0.013 C 
ENDBRANCH   7   8
ENDBRANCH   1   7
TORSDOF 2
ENDMDL
