MODEL 1
REMARK minimizedAffinity -4.00410223
REMARK minimizedRMSD -1
REMARK  2 active torsions:
REMARK  status: ('A' for Active; 'I' for Inactive)
REMARK    1  A    between atoms: C2'_3  and  C1'_4 
REMARK    2  A    between atoms: C1'_4  and  C1_5 
ROOT
ATOM      1  C1  I4B d   1       0.042   5.287  -3.993  0.00  0.00    -0.075 A 
ATOM      2  C2  I4B d   1      -0.605   5.264  -5.204  0.00  0.00     0.003 A 
ATOM      3  C3  I4B d   1      -1.972   5.622  -5.288  0.00  0.00     0.002 A 
ATOM      4  C4  I4B d   1      -2.663   5.944  -4.138  0.00  0.00    -0.004 A 
ATOM      5  C5  I4B d   1      -2.000   5.989  -2.915  0.00  0.00     0.002 A 
ATOM      6  C6  I4B d   1      -0.636   5.670  -2.843  0.00  0.00     0.003 A 
ENDROOT
BRANCH   1   7
ATOM      7  C1' I4B d   1       1.478   4.871  -3.935  0.00  0.00     0.060 C 
BRANCH   7   8
ATOM      8  C2' I4B d   1       2.313   5.998  -4.508  0.00  0.00    -0.013 C 
ATOM      9  C4' I4B d   1       3.762   5.852  -4.124  0.00  0.00     0.013 C 
ATOM     10  C3' I4B d   1       2.144   5.988  -5.998  0.00  0.00     0.013 C 
ENDBRANCH   7   8
ENDBRANCH   1   7
TORSDOF 2
ENDMDL
