MODEL 1
REMARK minimizedAffinity 3.44583678
REMARK minimizedRMSD -1
REMARK  2 active torsions:
REMARK  status: ('A' for Active; 'I' for Inactive)
REMARK    1  A    between atoms: C2'_3  and  C1'_4 
REMARK    2  A    between atoms: C1'_4  and  C1_5 
ROOT
ATOM      1  C1  I4B d   1      -4.641  -3.477  -1.325  0.00  0.00    -0.075 A 
ATOM      2  C2  I4B d   1      -5.077  -2.871  -0.173  0.00  0.00     0.003 A 
ATOM      3  C3  I4B d   1      -5.446  -3.653   0.948  0.00  0.00     0.002 A 
ATOM      4  C4  I4B d   1      -5.413  -5.029   0.857  0.00  0.00    -0.004 A 
ATOM      5  C5  I4B d   1      -4.949  -5.642  -0.303  0.00  0.00     0.002 A 
ATOM      6  C6  I4B d   1      -4.549  -4.861  -1.397  0.00  0.00     0.003 A 
ENDROOT
BRANCH   1   7
ATOM      7  C1' I4B d   1      -4.291  -2.622  -2.501  0.00  0.00     0.060 C 
BRANCH   7   8
ATOM      8  C2' I4B d   1      -2.872  -2.125  -2.311  0.00  0.00    -0.013 C 
ATOM      9  C4' I4B d   1      -2.234  -1.779  -3.630  0.00  0.00     0.013 C 
ATOM     10  C3' I4B d   1      -2.917  -0.933  -1.402  0.00  0.00     0.013 C 
ENDBRANCH   7   8
ENDBRANCH   1   7
TORSDOF 2
ENDMDL
