MODEL 1
REMARK minimizedAffinity 1.84261525
REMARK minimizedRMSD -1
REMARK  2 active torsions:
REMARK  status: ('A' for Active; 'I' for Inactive)
REMARK    1  A    between atoms: C2'_3  and  C1'_4 
REMARK    2  A    between atoms: C1'_4  and  C1_5 
ROOT
ATOM      1  C1  I4B d   1       2.117   2.326   0.700  0.00  0.00    -0.075 A 
ATOM      2  C2  I4B d   1       1.607   1.462   1.636  0.00  0.00     0.003 A 
ATOM      3  C3  I4B d   1       0.833   0.347   1.230  0.00  0.00     0.002 A 
ATOM      4  C4  I4B d   1       0.554   0.165  -0.109  0.00  0.00    -0.004 A 
ATOM      5  C5  I4B d   1       1.092   1.030  -1.059  0.00  0.00     0.002 A 
ATOM      6  C6  I4B d   1       1.888   2.110  -0.653  0.00  0.00     0.003 A 
ENDROOT
BRANCH   1   7
ATOM      7  C1' I4B d   1       2.902   3.511   1.166  0.00  0.00     0.060 C 
BRANCH   7   8
ATOM      8  C2' I4B d   1       4.250   3.480   0.473  0.00  0.00    -0.013 C 
ATOM      9  C4' I4B d   1       4.910   4.833   0.504  0.00  0.00     0.013 C 
ATOM     10  C3' I4B d   1       5.097   2.448   1.155  0.00  0.00     0.013 C 
ENDBRANCH   7   8
ENDBRANCH   1   7
TORSDOF 2
ENDMDL
