MODEL 1
REMARK minimizedAffinity 0.958386183
REMARK minimizedRMSD -1
REMARK  2 active torsions:
REMARK  status: ('A' for Active; 'I' for Inactive)
REMARK    1  A    between atoms: C2'_3  and  C1'_4 
REMARK    2  A    between atoms: C1'_4  and  C1_5 
ROOT
ATOM      1  C1  I4B d   1      -1.141   5.954  -2.533  0.00  0.00    -0.075 A 
ATOM      2  C2  I4B d   1      -1.845   5.934  -1.356  0.00  0.00     0.003 A 
ATOM      3  C3  I4B d   1      -3.261   5.930  -1.372  0.00  0.00     0.002 A 
ATOM      4  C4  I4B d   1      -3.927   5.997  -2.579  0.00  0.00    -0.004 A 
ATOM      5  C5  I4B d   1      -3.211   5.994  -3.772  0.00  0.00     0.002 A 
ATOM      6  C6  I4B d   1      -1.810   5.960  -3.751  0.00  0.00     0.003 A 
ENDROOT
BRANCH   1   7
ATOM      7  C1' I4B d   1       0.354   5.992  -2.479  0.00  0.00     0.060 C 
BRANCH   7   8
ATOM      8  C2' I4B d   1       0.873   5.988  -3.902  0.00  0.00    -0.013 C 
ATOM      9  C4' I4B d   1       2.378   5.935  -3.933  0.00  0.00     0.013 C 
ATOM     10  C3' I4B d   1       0.274   4.810  -4.611  0.00  0.00     0.013 C 
ENDBRANCH   7   8
ENDBRANCH   1   7
TORSDOF 2
ENDMDL
