MODEL 1
REMARK minimizedAffinity 2.35203815
REMARK minimizedRMSD -1
REMARK  2 active torsions:
REMARK  status: ('A' for Active; 'I' for Inactive)
REMARK    1  A    between atoms: C2'_3  and  C1'_4 
REMARK    2  A    between atoms: C1'_4  and  C1_5 
ROOT
ATOM      1  C1  I4B d   1      -1.176   5.413  -3.364  0.00  0.00    -0.075 A 
ATOM      2  C2  I4B d   1      -0.931   6.000  -4.581  0.00  0.00     0.003 A 
ATOM      3  C3  I4B d   1       0.082   5.489  -5.428  0.00  0.00     0.002 A 
ATOM      4  C4  I4B d   1       0.854   4.428  -5.001  0.00  0.00    -0.004 A 
ATOM      5  C5  I4B d   1       0.589   3.820  -3.777  0.00  0.00     0.002 A 
ATOM      6  C6  I4B d   1      -0.440   4.307  -2.959  0.00  0.00     0.003 A 
ENDROOT
BRANCH   1   7
ATOM      7  C1' I4B d   1      -2.231   5.999  -2.480  0.00  0.00     0.060 C 
BRANCH   7   8
ATOM      8  C2' I4B d   1      -3.538   5.297  -2.786  0.00  0.00    -0.013 C 
ATOM      9  C4' I4B d   1      -4.448   5.293  -1.586  0.00  0.00     0.013 C 
ATOM     10  C3' I4B d   1      -4.178   5.996  -3.948  0.00  0.00     0.013 C 
ENDBRANCH   7   8
ENDBRANCH   1   7
TORSDOF 2
ENDMDL
