MODEL 1
REMARK minimizedAffinity -2.20130539
REMARK minimizedRMSD -1
REMARK  0 active torsions:
REMARK  status: ('A' for Active; 'I' for Inactive)
ROOT
ATOM      1  C4' PXY d   1      -1.949  -1.508  -5.984  0.00  0.00     0.077 C 
ATOM      2  C1' PXY d   1       2.267   1.057  -2.974  0.00  0.00     0.077 C 
ATOM      3  C1  PXY d   1       1.162   0.394  -3.772  0.00  0.00    -0.082 A 
ATOM      4  C2  PXY d   1       0.294  -0.394  -3.159  0.00  0.00     0.003 A 
ATOM      5  C3  PXY d   1      -0.692  -1.027  -3.871  0.00  0.00     0.003 A 
ATOM      6  C4  PXY d   1      -0.823  -0.810  -5.217  0.00  0.00    -0.082 A 
ATOM      7  C5  PXY d   1       0.052   0.001  -5.848  0.00  0.00     0.003 A 
ATOM      8  C6  PXY d   1       1.071   0.602  -5.114  0.00  0.00     0.003 A 
ENDROOT
TORSDOF 0
ENDMDL
