MODEL 1
REMARK minimizedAffinity -5.78844309
REMARK minimizedRMSD -1
REMARK  0 active torsions:
REMARK  status: ('A' for Active; 'I' for Inactive)
ROOT
ATOM      1  C4' PXY d   1      -0.603   1.362   3.527  0.00  0.00     0.077 C 
ATOM      2  C1' PXY d   1       0.958  -1.085  -1.472  0.00  0.00     0.077 C 
ATOM      3  C1  PXY d   1       0.556  -0.452  -0.154  0.00  0.00    -0.082 A 
ATOM      4  C2  PXY d   1      -0.571   0.237  -0.077  0.00  0.00     0.003 A 
ATOM      5  C3  PXY d   1      -0.934   0.843   1.098  0.00  0.00     0.003 A 
ATOM      6  C4  PXY d   1      -0.162   0.697   2.220  0.00  0.00    -0.082 A 
ATOM      7  C5  PXY d   1       0.983  -0.013   2.152  0.00  0.00     0.003 A 
ATOM      8  C6  PXY d   1       1.355  -0.586   0.939  0.00  0.00     0.003 A 
ENDROOT
TORSDOF 0
ENDMDL
