MODEL 1
REMARK minimizedAffinity -3.04000497
REMARK minimizedRMSD -1
REMARK  0 active torsions:
REMARK  status: ('A' for Active; 'I' for Inactive)
ROOT
ATOM      1  C4' PXY d   1       0.288  -1.149  -1.860  0.00  0.00     0.077 C 
ATOM      2  C1' PXY d   1      -0.829   1.137   3.330  0.00  0.00     0.077 C 
ATOM      3  C1  PXY d   1      -0.548   0.532   1.969  0.00  0.00    -0.082 A 
ATOM      4  C2  PXY d   1       0.703   0.310   1.597  0.00  0.00     0.003 A 
ATOM      5  C3  PXY d   1       0.976  -0.207   0.357  0.00  0.00     0.003 A 
ATOM      6  C4  PXY d   1      -0.043  -0.549  -0.491  0.00  0.00    -0.082 A 
ATOM      7  C5  PXY d   1      -1.322  -0.336  -0.115  0.00  0.00     0.003 A 
ATOM      8  C6  PXY d   1      -1.577   0.228   1.132  0.00  0.00     0.003 A 
ENDROOT
TORSDOF 0
ENDMDL
