MODEL 1
REMARK minimizedAffinity -3.1598196
REMARK minimizedRMSD -1
REMARK  0 active torsions:
REMARK  status: ('A' for Active; 'I' for Inactive)
ROOT
ATOM      1  C4' PXY d   1       0.995  -0.388  -2.388  0.00  0.00     0.077 C 
ATOM      2  C1' PXY d   1      -1.654   0.603   2.653  0.00  0.00     0.077 C 
ATOM      3  C1  PXY d   1      -0.950   0.352   1.334  0.00  0.00    -0.082 A 
ATOM      4  C2  PXY d   1      -1.649  -0.055   0.287  0.00  0.00     0.003 A 
ATOM      5  C3  PXY d   1      -1.023  -0.318  -0.904  0.00  0.00     0.003 A 
ATOM      6  C4  PXY d   1       0.324  -0.112  -1.040  0.00  0.00    -0.082 A 
ATOM      7  C5  PXY d   1       1.042   0.312   0.021  0.00  0.00     0.003 A 
ATOM      8  C6  PXY d   1       0.395   0.534   1.233  0.00  0.00     0.003 A 
ENDROOT
TORSDOF 0
ENDMDL
