MODEL 1
REMARK minimizedAffinity -4.46964693
REMARK minimizedRMSD -1
REMARK  0 active torsions:
REMARK  status: ('A' for Active; 'I' for Inactive)
ROOT
ATOM      1  C4' PXY d   1       0.425  -0.406  -1.542  0.00  0.00     0.077 C 
ATOM      2  C1' PXY d   1      -0.683   1.061   3.938  0.00  0.00     0.077 C 
ATOM      3  C1  PXY d   1      -0.405   0.671   2.500  0.00  0.00    -0.082 A 
ATOM      4  C2  PXY d   1       0.845   0.501   2.099  0.00  0.00     0.003 A 
ATOM      5  C3  PXY d   1       1.116   0.180   0.794  0.00  0.00     0.003 A 
ATOM      6  C4  PXY d   1       0.096  -0.021  -0.097  0.00  0.00    -0.082 A 
ATOM      7  C5  PXY d   1      -1.182   0.140   0.308  0.00  0.00     0.003 A 
ATOM      8  C6  PXY d   1      -1.435   0.506   1.626  0.00  0.00     0.003 A 
ENDROOT
TORSDOF 0
ENDMDL
