MODEL 1
REMARK minimizedAffinity -4.57159948
REMARK minimizedRMSD -1
REMARK  0 active torsions:
REMARK  status: ('A' for Active; 'I' for Inactive)
ROOT
ATOM      1  C4' PXY d   1      -0.226  -1.143  -1.576  0.00  0.00     0.077 C 
ATOM      2  C1' PXY d   1      -0.437   1.531   3.545  0.00  0.00     0.077 C 
ATOM      3  C1  PXY d   1      -0.369   0.833   2.201  0.00  0.00    -0.082 A 
ATOM      4  C2  PXY d   1      -1.482   0.619   1.518  0.00  0.00     0.003 A 
ATOM      5  C3  PXY d   1      -1.443  -0.038   0.316  0.00  0.00     0.003 A 
ATOM      6  C4  PXY d   1      -0.246  -0.434  -0.219  0.00  0.00    -0.082 A 
ATOM      7  C5  PXY d   1       0.895  -0.209   0.466  0.00  0.00     0.003 A 
ATOM      8  C6  PXY d   1       0.830   0.423   1.704  0.00  0.00     0.003 A 
ENDROOT
TORSDOF 0
ENDMDL
