MODEL 1
REMARK minimizedAffinity -1.75581467
REMARK minimizedRMSD -1
REMARK  0 active torsions:
REMARK  status: ('A' for Active; 'I' for Inactive)
ROOT
ATOM      1  C   UNL d   1       2.190  -1.710  -0.419  0.00  0.00     0.172 C 
ATOM      2  N   UNL d   1       1.065  -0.804  -0.393  0.00  0.00    -0.070 N 
ATOM      3  C1  UNL d   1       1.017   0.426  -0.994  0.00  0.00    -0.004 A 
ATOM      4  C2  UNL d   1      -0.222   0.972  -0.739  0.00  0.00    -0.047 A 
ATOM      5  C3  UNL d   1      -0.944   0.039   0.044  0.00  0.00    -0.047 A 
ATOM      6  C4  UNL d   1      -0.123  -1.051   0.242  0.00  0.00    -0.004 A 
ENDROOT
TORSDOF 0
ENDMDL
