MODEL 1
REMARK minimizedAffinity -3.35166025
REMARK minimizedRMSD -1
REMARK  0 active torsions:
REMARK  status: ('A' for Active; 'I' for Inactive)
ROOT
ATOM      1  C   UNL d   1       2.795  -1.173   0.166  0.00  0.00     0.172 C 
ATOM      2  N   UNL d   1       1.566  -0.497  -0.176  0.00  0.00    -0.070 N 
ATOM      3  C1  UNL d   1       1.323   0.842  -0.026  0.00  0.00    -0.004 A 
ATOM      4  C2  UNL d   1       0.041   1.091  -0.466  0.00  0.00    -0.047 A 
ATOM      5  C3  UNL d   1      -0.506  -0.141  -0.895  0.00  0.00    -0.047 A 
ATOM      6  C4  UNL d   1       0.459  -1.108  -0.705  0.00  0.00    -0.004 A 
ENDROOT
TORSDOF 0
ENDMDL
