MODEL 1
REMARK minimizedAffinity -2.73510861
REMARK minimizedRMSD -1
REMARK  0 active torsions:
REMARK  status: ('A' for Active; 'I' for Inactive)
ROOT
ATOM      1  C   UNL d   1      -0.711   0.592  -0.244  0.00  0.00     0.172 C 
ATOM      2  N   UNL d   1       0.519  -0.100   0.063  0.00  0.00    -0.070 N 
ATOM      3  C1  UNL d   1       1.236   0.022   1.223  0.00  0.00    -0.004 A 
ATOM      4  C2  UNL d   1       2.340  -0.798   1.125  0.00  0.00    -0.047 A 
ATOM      5  C3  UNL d   1       2.285  -1.434  -0.138  0.00  0.00    -0.047 A 
ATOM      6  C4  UNL d   1       1.148  -0.983  -0.775  0.00  0.00    -0.004 A 
ENDROOT
TORSDOF 0
ENDMDL
