MODEL 1
REMARK minimizedAffinity -3.16857028
REMARK minimizedRMSD -1
REMARK  0 active torsions:
REMARK  status: ('A' for Active; 'I' for Inactive)
ROOT
ATOM      1  C   UNL d   1      -0.323   0.321  -0.126  0.00  0.00     0.172 C 
ATOM      2  N   UNL d   1       1.101   0.409   0.100  0.00  0.00    -0.070 N 
ATOM      3  C1  UNL d   1       1.824   1.567   0.196  0.00  0.00    -0.004 A 
ATOM      4  C2  UNL d   1       3.142   1.226   0.414  0.00  0.00    -0.047 A 
ATOM      5  C3  UNL d   1       3.212  -0.187   0.450  0.00  0.00    -0.047 A 
ATOM      6  C4  UNL d   1       1.935  -0.667   0.253  0.00  0.00    -0.004 A 
ENDROOT
TORSDOF 0
ENDMDL
