MODEL 1
REMARK minimizedAffinity -3.76046801
REMARK minimizedRMSD -1
REMARK  0 active torsions:
REMARK  status: ('A' for Active; 'I' for Inactive)
ROOT
ATOM      1  C   UNL d   1      -0.841   0.616  -0.588  0.00  0.00     0.172 C 
ATOM      2  N   UNL d   1       0.303  -0.199  -0.253  0.00  0.00    -0.070 N 
ATOM      3  C1  UNL d   1       1.348   0.182   0.545  0.00  0.00    -0.004 A 
ATOM      4  C2  UNL d   1       2.230  -0.874   0.618  0.00  0.00    -0.047 A 
ATOM      5  C3  UNL d   1       1.697  -1.926  -0.164  0.00  0.00    -0.047 A 
ATOM      6  C4  UNL d   1       0.504  -1.481  -0.692  0.00  0.00    -0.004 A 
ENDROOT
TORSDOF 0
ENDMDL
