MODEL 1
REMARK minimizedAffinity -1.99957085
REMARK minimizedRMSD -1
REMARK  0 active torsions:
REMARK  status: ('A' for Active; 'I' for Inactive)
ROOT
ATOM      1  C   UNL d   1      -1.638   1.039  -0.496  0.00  0.00     0.172 C 
ATOM      2  N   UNL d   1      -2.991   0.952   0.001  0.00  0.00    -0.070 N 
ATOM      3  C1  UNL d   1      -3.623   1.896   0.766  0.00  0.00    -0.004 A 
ATOM      4  C2  UNL d   1      -4.897   1.441   1.031  0.00  0.00    -0.047 A 
ATOM      5  C3  UNL d   1      -5.034   0.179   0.405  0.00  0.00    -0.047 A 
ATOM      6  C4  UNL d   1      -3.840  -0.099  -0.225  0.00  0.00    -0.004 A 
ENDROOT
TORSDOF 0
ENDMDL
