MODEL 1
REMARK minimizedAffinity 3.20748305
REMARK minimizedRMSD -1
REMARK  1 active torsions:
REMARK  status: ('A' for Active; 'I' for Inactive)
REMARK    1  A    between atoms: N_2  and  C1_3 
ROOT
ATOM      1  C1  UNL d   1       1.210   3.192  -0.667  0.00  0.00     0.143 A 
ATOM      2  C2  UNL d   1       0.968   3.300   0.706  0.00  0.00    -0.057 A 
ATOM      3  C3  UNL d   1       0.934   4.547   1.342  0.00  0.00     0.033 A 
ATOM      4  C4  UNL d   1       1.170   5.711   0.617  0.00  0.00    -0.042 A 
ATOM      5  C5  UNL d   1       1.437   5.626  -0.745  0.00  0.00     0.033 A 
ATOM      6  C6  UNL d   1       1.464   4.378  -1.375  0.00  0.00    -0.057 A 
ENDROOT
BRANCH   1   7
ATOM      7  N   UNL d   1       1.355   1.976  -1.338  0.00  0.00    -0.732 N 
ATOM      8  C   UNL d   1       0.289   1.462  -2.171  0.00  0.00     0.284 C 
ATOM      9  H3  UNL d   1       2.285   1.859  -1.734  0.00  0.00     0.395 HD
ENDBRANCH   1   7
TORSDOF 1
ENDMDL
