MODEL 1
REMARK minimizedAffinity 1.69933689
REMARK minimizedRMSD -1
REMARK  1 active torsions:
REMARK  status: ('A' for Active; 'I' for Inactive)
REMARK    1  A    between atoms: N_2  and  C1_3 
ROOT
ATOM      1  C1  UNL d   1       0.944  -0.142  -0.771  0.00  0.00     0.143 A 
ATOM      2  C2  UNL d   1       0.493  -0.717  -1.964  0.00  0.00    -0.057 A 
ATOM      3  C3  UNL d   1       0.620  -0.046  -3.187  0.00  0.00     0.033 A 
ATOM      4  C4  UNL d   1       1.177   1.228  -3.233  0.00  0.00    -0.042 A 
ATOM      5  C5  UNL d   1       1.609   1.829  -2.056  0.00  0.00     0.033 A 
ATOM      6  C6  UNL d   1       1.486   1.151  -0.839  0.00  0.00    -0.057 A 
ENDROOT
BRANCH   1   7
ATOM      7  N   UNL d   1       0.757  -0.717   0.488  0.00  0.00    -0.732 N 
ATOM      8  C   UNL d   1       0.202   0.058   1.577  0.00  0.00     0.284 C 
ATOM      9  H3  UNL d   1       0.400  -1.668   0.432  0.00  0.00     0.395 HD
ENDBRANCH   1   7
TORSDOF 1
ENDMDL
