MODEL 1
REMARK minimizedAffinity 8.54680634
REMARK minimizedRMSD -1
REMARK  1 active torsions:
REMARK  status: ('A' for Active; 'I' for Inactive)
REMARK    1  A    between atoms: N_2  and  C1_3 
ROOT
ATOM      1  C1  UNL d   1       0.733  -4.448  -2.975  0.00  0.00     0.143 A 
ATOM      2  C2  UNL d   1       1.870  -5.202  -2.665  0.00  0.00    -0.057 A 
ATOM      3  C3  UNL d   1       2.677  -4.882  -1.567  0.00  0.00     0.033 A 
ATOM      4  C4  UNL d   1       2.375  -3.781  -0.772  0.00  0.00    -0.042 A 
ATOM      5  C5  UNL d   1       1.263  -3.003  -1.075  0.00  0.00     0.033 A 
ATOM      6  C6  UNL d   1       0.458  -3.332  -2.170  0.00  0.00    -0.057 A 
ENDROOT
BRANCH   1   7
ATOM      7  N   UNL d   1      -0.053  -4.657  -4.111  0.00  0.00    -0.732 N 
ATOM      8  C   UNL d   1      -0.470  -5.991  -4.484  0.00  0.00     0.284 C 
ATOM      9  H3  UNL d   1      -0.777  -3.950  -4.217  0.00  0.00     0.395 HD
ENDBRANCH   1   7
TORSDOF 1
ENDMDL
