MODEL 1
REMARK minimizedAffinity 8.51062775
REMARK minimizedRMSD -1
REMARK  1 active torsions:
REMARK  status: ('A' for Active; 'I' for Inactive)
REMARK    1  A    between atoms: N_2  and  C1_3 
ROOT
ATOM      1  C1  UNL d   1       1.412  -2.797  -0.997  0.00  0.00     0.143 A 
ATOM      2  C2  UNL d   1       1.802  -1.742  -0.165  0.00  0.00    -0.057 A 
ATOM      3  C3  UNL d   1       1.396  -0.427  -0.423  0.00  0.00     0.033 A 
ATOM      4  C4  UNL d   1       0.616  -0.139  -1.537  0.00  0.00    -0.042 A 
ATOM      5  C5  UNL d   1       0.238  -1.168  -2.392  0.00  0.00     0.033 A 
ATOM      6  C6  UNL d   1       0.640  -2.480  -2.126  0.00  0.00    -0.057 A 
ENDROOT
BRANCH   1   7
ATOM      7  N   UNL d   1       1.863  -4.111  -0.850  0.00  0.00    -0.732 N 
ATOM      8  C   UNL d   1       2.585  -4.767  -1.919  0.00  0.00     0.284 C 
ATOM      9  H3  UNL d   1       2.241  -4.291   0.077  0.00  0.00     0.395 HD
ENDBRANCH   1   7
TORSDOF 1
ENDMDL
