MODEL 1
REMARK minimizedAffinity 5.00722456
REMARK minimizedRMSD -1
REMARK  1 active torsions:
REMARK  status: ('A' for Active; 'I' for Inactive)
REMARK    1  A    between atoms: N_2  and  C1_3 
ROOT
ATOM      1  C1  UNL d   1      -2.051  -4.012  -4.821  0.00  0.00     0.143 A 
ATOM      2  C2  UNL d   1      -2.758  -3.733  -5.995  0.00  0.00    -0.057 A 
ATOM      3  C3  UNL d   1      -3.830  -2.833  -6.000  0.00  0.00     0.033 A 
ATOM      4  C4  UNL d   1      -4.234  -2.215  -4.820  0.00  0.00    -0.042 A 
ATOM      5  C5  UNL d   1      -3.561  -2.497  -3.637  0.00  0.00     0.033 A 
ATOM      6  C6  UNL d   1      -2.487  -3.392  -3.639  0.00  0.00    -0.057 A 
ENDROOT
BRANCH   1   7
ATOM      7  N   UNL d   1      -1.040  -4.972  -4.731  0.00  0.00    -0.732 N 
ATOM      8  C   UNL d   1       0.344  -4.574  -4.591  0.00  0.00     0.284 C 
ATOM      9  H3  UNL d   1      -1.306  -5.764  -4.150  0.00  0.00     0.395 HD
ENDBRANCH   1   7
TORSDOF 1
ENDMDL
