MODEL 1
REMARK minimizedAffinity 0.518135846
REMARK minimizedRMSD -1
REMARK  1 active torsions:
REMARK  status: ('A' for Active; 'I' for Inactive)
REMARK    1  A    between atoms: N_2  and  C1_3 
ROOT
ATOM      1  C1  UNL d   1      -4.800  -3.624  -5.342  0.00  0.00     0.143 A 
ATOM      2  C2  UNL d   1      -4.205  -3.193  -4.152  0.00  0.00    -0.057 A 
ATOM      3  C3  UNL d   1      -4.519  -1.948  -3.593  0.00  0.00     0.033 A 
ATOM      4  C4  UNL d   1      -5.415  -1.098  -4.232  0.00  0.00    -0.042 A 
ATOM      5  C5  UNL d   1      -6.000  -1.496  -5.429  0.00  0.00     0.033 A 
ATOM      6  C6  UNL d   1      -5.687  -2.743  -5.979  0.00  0.00    -0.057 A 
ENDROOT
BRANCH   1   7
ATOM      7  N   UNL d   1      -4.456  -4.808  -6.000  0.00  0.00    -0.732 N 
ATOM      8  C   UNL d   1      -3.091  -5.289  -5.985  0.00  0.00     0.284 C 
ATOM      9  H3  UNL d   1      -5.155  -5.537  -5.879  0.00  0.00     0.395 HD
ENDBRANCH   1   7
TORSDOF 1
ENDMDL
