MODEL 1
REMARK minimizedAffinity 7.60178423
REMARK minimizedRMSD -1
REMARK  1 active torsions:
REMARK  status: ('A' for Active; 'I' for Inactive)
REMARK    1  A    between atoms: N_2  and  C1_3 
ROOT
ATOM      1  C1  UNL d   1       1.032  -1.949  -1.041  0.00  0.00     0.143 A 
ATOM      2  C2  UNL d   1       1.810  -1.148  -0.198  0.00  0.00    -0.057 A 
ATOM      3  C3  UNL d   1       1.906   0.235  -0.395  0.00  0.00     0.033 A 
ATOM      4  C4  UNL d   1       1.244   0.839  -1.459  0.00  0.00    -0.042 A 
ATOM      5  C5  UNL d   1       0.485   0.060  -2.324  0.00  0.00     0.033 A 
ATOM      6  C6  UNL d   1       0.388  -1.320  -2.118  0.00  0.00    -0.057 A 
ENDROOT
BRANCH   1   7
ATOM      7  N   UNL d   1       0.976  -3.342  -0.956  0.00  0.00    -0.732 N 
ATOM      8  C   UNL d   1       2.089  -4.153  -1.401  0.00  0.00     0.284 C 
ATOM      9  H3  UNL d   1       0.549  -3.662  -0.090  0.00  0.00     0.395 HD
ENDBRANCH   1   7
TORSDOF 1
ENDMDL
