MODEL 1
REMARK minimizedAffinity 0.631078362
REMARK minimizedRMSD -1
REMARK  1 active torsions:
REMARK  status: ('A' for Active; 'I' for Inactive)
REMARK    1  A    between atoms: N_2  and  C1_3 
ROOT
ATOM      1  C1  UNL d   1       1.306  -1.572  -0.580  0.00  0.00     0.143 A 
ATOM      2  C2  UNL d   1       1.817  -0.351  -0.125  0.00  0.00    -0.057 A 
ATOM      3  C3  UNL d   1       1.612   0.834  -0.843  0.00  0.00     0.033 A 
ATOM      4  C4  UNL d   1       0.916   0.813  -2.047  0.00  0.00    -0.042 A 
ATOM      5  C5  UNL d   1       0.422  -0.393  -2.531  0.00  0.00     0.033 A 
ATOM      6  C6  UNL d   1       0.623  -1.571  -1.806  0.00  0.00    -0.057 A 
ENDROOT
BRANCH   1   7
ATOM      7  N   UNL d   1       1.560  -2.799   0.038  0.00  0.00    -0.732 N 
ATOM      8  C   UNL d   1       2.072  -3.916  -0.726  0.00  0.00     0.284 C 
ATOM      9  H3  UNL d   1       1.987  -2.692   0.955  0.00  0.00     0.395 HD
ENDBRANCH   1   7
TORSDOF 1
ENDMDL
