MODEL 1
REMARK minimizedAffinity 6.56053638
REMARK minimizedRMSD -1
REMARK  1 active torsions:
REMARK  status: ('A' for Active; 'I' for Inactive)
REMARK    1  A    between atoms: N_2  and  C1_3 
ROOT
ATOM      1  C1  UNL d   1       1.379  -2.882  -2.269  0.00  0.00     0.143 A 
ATOM      2  C2  UNL d   1       1.866  -2.272  -1.108  0.00  0.00    -0.057 A 
ATOM      3  C3  UNL d   1       1.453  -0.987  -0.735  0.00  0.00     0.033 A 
ATOM      4  C4  UNL d   1       0.565  -0.276  -1.535  0.00  0.00    -0.042 A 
ATOM      5  C5  UNL d   1       0.088  -0.852  -2.706  0.00  0.00     0.033 A 
ATOM      6  C6  UNL d   1       0.499  -2.138  -3.070  0.00  0.00    -0.057 A 
ENDROOT
BRANCH   1   7
ATOM      7  N   UNL d   1       1.826  -4.117  -2.745  0.00  0.00    -0.732 N 
ATOM      8  C   UNL d   1       3.078  -4.676  -2.281  0.00  0.00     0.284 C 
ATOM      9  H3  UNL d   1       1.074  -4.796  -2.831  0.00  0.00     0.395 HD
ENDBRANCH   1   7
TORSDOF 1
ENDMDL
