MODEL 1
REMARK minimizedAffinity 14.844717
REMARK minimizedRMSD -1
REMARK  1 active torsions:
REMARK  status: ('A' for Active; 'I' for Inactive)
REMARK    1  A    between atoms: N_2  and  C1_3 
ROOT
ATOM      1  C1  UNL d   1      -3.177   0.596  -5.336  0.00  0.00     0.143 A 
ATOM      2  C2  UNL d   1      -3.719  -0.552  -5.925  0.00  0.00    -0.057 A 
ATOM      3  C3  UNL d   1      -3.745  -1.775  -5.244  0.00  0.00     0.033 A 
ATOM      4  C4  UNL d   1      -3.200  -1.879  -3.968  0.00  0.00    -0.042 A 
ATOM      5  C5  UNL d   1      -2.633  -0.757  -3.373  0.00  0.00     0.033 A 
ATOM      6  C6  UNL d   1      -2.617   0.463  -4.056  0.00  0.00    -0.057 A 
ENDROOT
BRANCH   1   7
ATOM      7  N   UNL d   1      -3.033   1.817  -6.000  0.00  0.00    -0.732 N 
ATOM      8  C   UNL d   1      -4.107   2.787  -6.000  0.00  0.00     0.284 C 
ATOM      9  H3  UNL d   1      -2.108   2.221  -5.873  0.00  0.00     0.395 HD
ENDBRANCH   1   7
TORSDOF 1
ENDMDL
