MODEL 1
REMARK minimizedAffinity -0.291324615
REMARK minimizedRMSD -1
REMARK  1 active torsions:
REMARK  status: ('A' for Active; 'I' for Inactive)
REMARK    1  A    between atoms: N_2  and  C1_3 
ROOT
ATOM      1  C1  UNL d   1       1.325   1.041  -0.003  0.00  0.00     0.143 A 
ATOM      2  C2  UNL d   1       0.424   0.891   1.057  0.00  0.00    -0.057 A 
ATOM      3  C3  UNL d   1      -0.206  -0.334   1.307  0.00  0.00     0.033 A 
ATOM      4  C4  UNL d   1       0.032  -1.427   0.480  0.00  0.00    -0.042 A 
ATOM      5  C5  UNL d   1       0.904  -1.294  -0.595  0.00  0.00     0.033 A 
ATOM      6  C6  UNL d   1       1.536  -0.070  -0.835  0.00  0.00    -0.057 A 
ENDROOT
BRANCH   1   7
ATOM      7  N   UNL d   1       1.908   2.258  -0.362  0.00  0.00    -0.732 N 
ATOM      8  C   UNL d   1       3.132   2.290  -1.135  0.00  0.00     0.284 C 
ATOM      9  H3  UNL d   1       1.219   2.950  -0.646  0.00  0.00     0.395 HD
ENDBRANCH   1   7
TORSDOF 1
ENDMDL
