MODEL 1
REMARK minimizedAffinity 0.989141643
REMARK minimizedRMSD -1
REMARK  1 active torsions:
REMARK  status: ('A' for Active; 'I' for Inactive)
REMARK    1  A    between atoms: C1_2  and  C2_3 
ROOT
ATOM      1  C2  UNL d   1       0.576  -0.664   2.687  0.00  0.00    -0.076 A 
ATOM      2  C3  UNL d   1      -0.625  -0.237   3.279  0.00  0.00     0.004 A 
ATOM      3  C4  UNL d   1      -1.731   0.096   2.499  0.00  0.00    -0.003 A 
ATOM      4  C5  UNL d   1      -1.654   0.008   1.114  0.00  0.00     0.000 A 
ATOM      5  C6  UNL d   1      -0.476  -0.431   0.510  0.00  0.00     0.000 A 
ATOM      6  C7  UNL d   1       0.643  -0.786   1.282  0.00  0.00    -0.073 A 
ATOM      7  C8  UNL d   1       1.890  -1.247   0.578  0.00  0.00     0.078 C 
ENDROOT
BRANCH   1   8
ATOM      8  C1  UNL d   1       1.751  -0.986   3.582  0.00  0.00     0.053 C 
ATOM      9  C   UNL d   1       1.333  -1.697   4.860  0.00  0.00     0.018 C 
ENDBRANCH   1   8
TORSDOF 1
ENDMDL
