MODEL 1
REMARK minimizedAffinity -0.561269939
REMARK minimizedRMSD -1
REMARK  1 active torsions:
REMARK  status: ('A' for Active; 'I' for Inactive)
REMARK    1  A    between atoms: C1_2  and  C2_3 
ROOT
ATOM      1  C2  UNL d   1      -1.572  -0.046   1.197  0.00  0.00    -0.076 A 
ATOM      2  C3  UNL d   1      -0.240  -0.283   1.578  0.00  0.00     0.004 A 
ATOM      3  C4  UNL d   1       0.704  -0.725   0.652  0.00  0.00    -0.003 A 
ATOM      4  C5  UNL d   1       0.330  -0.937  -0.671  0.00  0.00     0.000 A 
ATOM      5  C6  UNL d   1      -0.983  -0.691  -1.070  0.00  0.00     0.000 A 
ATOM      6  C7  UNL d   1      -1.943  -0.229  -0.153  0.00  0.00    -0.073 A 
ATOM      7  C8  UNL d   1      -3.346   0.015  -0.637  0.00  0.00     0.078 C 
ENDROOT
BRANCH   1   8
ATOM      8  C1  UNL d   1      -2.557   0.406   2.251  0.00  0.00     0.053 C 
ATOM      9  C   UNL d   1      -3.269  -0.758   2.922  0.00  0.00     0.018 C 
ENDBRANCH   1   8
TORSDOF 1
ENDMDL
