MODEL 1
REMARK minimizedAffinity -0.450847864
REMARK minimizedRMSD -1
REMARK  1 active torsions:
REMARK  status: ('A' for Active; 'I' for Inactive)
REMARK    1  A    between atoms: C1_2  and  C2_3 
ROOT
ATOM      1  C2  UNL d   1      -1.466  -0.488   2.690  0.00  0.00    -0.076 A 
ATOM      2  C3  UNL d   1      -0.642   0.028   1.674  0.00  0.00     0.004 A 
ATOM      3  C4  UNL d   1      -1.141   0.257   0.393  0.00  0.00    -0.003 A 
ATOM      4  C5  UNL d   1      -2.473  -0.025   0.107  0.00  0.00     0.000 A 
ATOM      5  C6  UNL d   1      -3.309  -0.520   1.107  0.00  0.00     0.000 A 
ATOM      6  C7  UNL d   1      -2.826  -0.742   2.409  0.00  0.00    -0.073 A 
ATOM      7  C8  UNL d   1      -3.770  -1.282   3.447  0.00  0.00     0.078 C 
ENDROOT
BRANCH   1   8
ATOM      8  C1  UNL d   1      -0.863  -0.741   4.053  0.00  0.00     0.053 C 
ATOM      9  C   UNL d   1       0.536  -1.333   3.970  0.00  0.00     0.018 C 
ENDBRANCH   1   8
TORSDOF 1
ENDMDL
