MODEL 1
REMARK minimizedAffinity 3.64069676
REMARK minimizedRMSD -1
REMARK  1 active torsions:
REMARK  status: ('A' for Active; 'I' for Inactive)
REMARK    1  A    between atoms: C1_2  and  C2_3 
ROOT
ATOM      1  C2  UNL d   1      -0.481  -0.636   0.657  0.00  0.00    -0.076 A 
ATOM      2  C3  UNL d   1      -0.668  -1.104  -0.655  0.00  0.00     0.004 A 
ATOM      3  C4  UNL d   1      -1.948  -1.301  -1.171  0.00  0.00    -0.003 A 
ATOM      4  C5  UNL d   1      -3.062  -1.034  -0.382  0.00  0.00     0.000 A 
ATOM      5  C6  UNL d   1      -2.895  -0.552   0.916  0.00  0.00     0.000 A 
ATOM      6  C7  UNL d   1      -1.611  -0.332   1.445  0.00  0.00    -0.073 A 
ATOM      7  C8  UNL d   1      -1.490   0.183   2.853  0.00  0.00     0.078 C 
ENDROOT
BRANCH   1   8
ATOM      8  C1  UNL d   1       0.931  -0.466   1.171  0.00  0.00     0.053 C 
ATOM      9  C   UNL d   1       1.920  -0.142   0.062  0.00  0.00     0.018 C 
ENDBRANCH   1   8
TORSDOF 1
ENDMDL
