MODEL 1
REMARK minimizedAffinity 7.26986599
REMARK minimizedRMSD -1
REMARK  1 active torsions:
REMARK  status: ('A' for Active; 'I' for Inactive)
REMARK    1  A    between atoms: C1_2  and  C2_3 
ROOT
ATOM      1  C2  UNL d   1      -2.587  -0.605   0.332  0.00  0.00    -0.076 A 
ATOM      2  C3  UNL d   1      -2.034   0.113   1.407  0.00  0.00     0.004 A 
ATOM      3  C4  UNL d   1      -2.327  -0.232   2.726  0.00  0.00    -0.003 A 
ATOM      4  C5  UNL d   1      -3.176  -1.301   2.990  0.00  0.00     0.000 A 
ATOM      5  C6  UNL d   1      -3.719  -2.034   1.936  0.00  0.00     0.000 A 
ATOM      6  C7  UNL d   1      -3.422  -1.710   0.602  0.00  0.00    -0.073 A 
ATOM      7  C8  UNL d   1      -4.040  -2.532  -0.496  0.00  0.00     0.078 C 
ENDROOT
BRANCH   1   8
ATOM      8  C1  UNL d   1      -2.255  -0.168  -1.077  0.00  0.00     0.053 C 
ATOM      9  C   UNL d   1      -1.075  -0.928  -1.660  0.00  0.00     0.018 C 
ENDBRANCH   1   8
TORSDOF 1
ENDMDL
