MODEL 1
REMARK minimizedAffinity 1.52146816
REMARK minimizedRMSD -1
REMARK  1 active torsions:
REMARK  status: ('A' for Active; 'I' for Inactive)
REMARK    1  A    between atoms: C1_2  and  C2_3 
ROOT
ATOM      1  C2  UNL d   1      -1.940  -0.484   1.971  0.00  0.00    -0.076 A 
ATOM      2  C3  UNL d   1      -0.970  -0.686   2.969  0.00  0.00     0.004 A 
ATOM      3  C4  UNL d   1       0.390  -0.628   2.669  0.00  0.00    -0.003 A 
ATOM      4  C5  UNL d   1       0.802  -0.365   1.367  0.00  0.00     0.000 A 
ATOM      5  C6  UNL d   1      -0.146  -0.144   0.369  0.00  0.00     0.000 A 
ATOM      6  C7  UNL d   1      -1.521  -0.184   0.657  0.00  0.00    -0.073 A 
ATOM      7  C8  UNL d   1      -2.500   0.056  -0.459  0.00  0.00     0.078 C 
ENDROOT
BRANCH   1   8
ATOM      8  C1  UNL d   1      -3.401  -0.586   2.350  0.00  0.00     0.053 C 
ATOM      9  C   UNL d   1      -3.741  -1.916   3.004  0.00  0.00     0.018 C 
ENDBRANCH   1   8
TORSDOF 1
ENDMDL
