MODEL 1
REMARK minimizedAffinity -1.37104106
REMARK minimizedRMSD -1
REMARK  1 active torsions:
REMARK  status: ('A' for Active; 'I' for Inactive)
REMARK    1  A    between atoms: C1_2  and  C2_3 
ROOT
ATOM      1  C2  UNL d   1      -1.021  -1.103   3.436  0.00  0.00    -0.076 A 
ATOM      2  C3  UNL d   1      -0.725  -1.533   4.742  0.00  0.00     0.004 A 
ATOM      3  C4  UNL d   1       0.587  -1.795   5.131  0.00  0.00    -0.003 A 
ATOM      4  C5  UNL d   1       1.626  -1.631   4.221  0.00  0.00     0.000 A 
ATOM      5  C6  UNL d   1       1.353  -1.189   2.927  0.00  0.00     0.000 A 
ATOM      6  C7  UNL d   1       0.037  -0.905   2.523  0.00  0.00    -0.073 A 
ATOM      7  C8  UNL d   1      -0.200  -0.437   1.113  0.00  0.00     0.078 C 
ENDROOT
BRANCH   1   8
ATOM      8  C1  UNL d   1      -2.466  -0.861   3.063  0.00  0.00     0.053 C 
ATOM      9  C   UNL d   1      -3.424  -1.762   3.827  0.00  0.00     0.018 C 
ENDBRANCH   1   8
TORSDOF 1
ENDMDL
