MODEL 1
REMARK minimizedAffinity 5.63967419
REMARK minimizedRMSD -1
REMARK  1 active torsions:
REMARK  status: ('A' for Active; 'I' for Inactive)
REMARK    1  A    between atoms: C1_2  and  C2_3 
ROOT
ATOM      1  C2  UNL d   1       0.187  -0.753   2.617  0.00  0.00    -0.076 A 
ATOM      2  C3  UNL d   1      -1.071  -0.423   3.149  0.00  0.00     0.004 A 
ATOM      3  C4  UNL d   1      -2.127  -0.054   2.317  0.00  0.00    -0.003 A 
ATOM      4  C5  UNL d   1      -1.942  -0.011   0.939  0.00  0.00     0.000 A 
ATOM      5  C6  UNL d   1      -0.705  -0.354   0.394  0.00  0.00     0.000 A 
ATOM      6  C7  UNL d   1       0.365  -0.743   1.217  0.00  0.00    -0.073 A 
ATOM      7  C8  UNL d   1       1.679  -1.096   0.576  0.00  0.00     0.078 C 
ENDROOT
BRANCH   1   8
ATOM      8  C1  UNL d   1       1.302  -1.119   3.571  0.00  0.00     0.053 C 
ATOM      9  C   UNL d   1       0.807  -1.911   4.771  0.00  0.00     0.018 C 
ENDBRANCH   1   8
TORSDOF 1
ENDMDL
