MODEL 1
REMARK minimizedAffinity -1.17535281
REMARK minimizedRMSD -1
REMARK  1 active torsions:
REMARK  status: ('A' for Active; 'I' for Inactive)
REMARK    1  A    between atoms: C1_2  and  C2_3 
ROOT
ATOM      1  C2  UNL d   1      -0.402  -0.503   0.399  0.00  0.00    -0.076 A 
ATOM      2  C3  UNL d   1      -0.543  -0.882  -0.947  0.00  0.00     0.004 A 
ATOM      3  C4  UNL d   1      -1.787  -0.852  -1.575  0.00  0.00    -0.003 A 
ATOM      4  C5  UNL d   1      -2.911  -0.440  -0.867  0.00  0.00     0.000 A 
ATOM      5  C6  UNL d   1      -2.787  -0.043   0.464  0.00  0.00     0.000 A 
ATOM      6  C7  UNL d   1      -1.537  -0.053   1.107  0.00  0.00    -0.073 A 
ATOM      7  C8  UNL d   1      -1.462   0.380   2.545  0.00  0.00     0.078 C 
ENDROOT
BRANCH   1   8
ATOM      8  C1  UNL d   1       0.967  -0.582   1.034  0.00  0.00     0.053 C 
ATOM      9  C   UNL d   1       2.062  -0.040   0.129  0.00  0.00     0.018 C 
ENDBRANCH   1   8
TORSDOF 1
ENDMDL
