MODEL 1
REMARK minimizedAffinity 16.4141922
REMARK minimizedRMSD -1
REMARK  0 active torsions:
REMARK  status: ('A' for Active; 'I' for Inactive)
ROOT
ATOM      1  C   UNL d   1       3.613  -3.745  -4.013  0.00  0.00     0.077 C 
ATOM      2  C1  UNL d   1       2.277  -3.932  -3.358  0.00  0.00    -0.074 A 
ATOM      3  C2  UNL d   1       1.868  -5.191  -2.905  0.00  0.00    -0.005 A 
ATOM      4  C3  UNL d   1       0.627  -5.348  -2.289  0.00  0.00     0.006 A 
ATOM      5  C4  UNL d   1      -0.217  -4.249  -2.119  0.00  0.00    -0.005 A 
ATOM      6  C5  UNL d   1       0.175  -2.983  -2.565  0.00  0.00    -0.074 A 
ATOM      7  C6  UNL d   1      -0.716  -1.791  -2.382  0.00  0.00     0.077 C 
ATOM      8  C7  UNL d   1       1.427  -2.833  -3.177  0.00  0.00    -0.001 A 
ENDROOT
TORSDOF 0
ENDMDL
