MODEL 1
REMARK minimizedAffinity 12.2140684
REMARK minimizedRMSD -1
REMARK  0 active torsions:
REMARK  status: ('A' for Active; 'I' for Inactive)
ROOT
ATOM      1  C   UNL d   1       1.961  -3.440  -3.326  0.00  0.00     0.077 C 
ATOM      2  C1  UNL d   1       0.679  -3.051  -2.651  0.00  0.00    -0.074 A 
ATOM      3  C2  UNL d   1      -0.428  -2.635  -3.397  0.00  0.00    -0.005 A 
ATOM      4  C3  UNL d   1      -1.617  -2.285  -2.756  0.00  0.00     0.006 A 
ATOM      5  C4  UNL d   1      -1.709  -2.347  -1.365  0.00  0.00    -0.005 A 
ATOM      6  C5  UNL d   1      -0.612  -2.761  -0.602  0.00  0.00    -0.074 A 
ATOM      7  C6  UNL d   1      -0.698  -2.842   0.893  0.00  0.00     0.077 C 
ATOM      8  C7  UNL d   1       0.576  -3.118  -1.254  0.00  0.00    -0.001 A 
ENDROOT
TORSDOF 0
ENDMDL
