MODEL 1
REMARK minimizedAffinity 12.9433136
REMARK minimizedRMSD -1
REMARK  0 active torsions:
REMARK  status: ('A' for Active; 'I' for Inactive)
ROOT
ATOM      1  C   UNL d   1      -2.611  -1.863   0.604  0.00  0.00     0.077 C 
ATOM      2  C1  UNL d   1      -1.713  -2.158  -0.561  0.00  0.00    -0.074 A 
ATOM      3  C2  UNL d   1      -0.345  -2.379  -0.376  0.00  0.00    -0.005 A 
ATOM      4  C3  UNL d   1       0.476  -2.661  -1.468  0.00  0.00     0.006 A 
ATOM      5  C4  UNL d   1      -0.062  -2.726  -2.753  0.00  0.00    -0.005 A 
ATOM      6  C5  UNL d   1      -1.429  -2.510  -2.958  0.00  0.00    -0.074 A 
ATOM      7  C6  UNL d   1      -2.025  -2.586  -4.332  0.00  0.00     0.077 C 
ATOM      8  C7  UNL d   1      -2.248  -2.233  -1.855  0.00  0.00    -0.001 A 
ENDROOT
TORSDOF 0
ENDMDL
