MODEL 1
REMARK minimizedAffinity 14.5204067
REMARK minimizedRMSD -1
REMARK  0 active torsions:
REMARK  status: ('A' for Active; 'I' for Inactive)
ROOT
ATOM      1  C   UNL d   1      -2.412  -3.062  -3.364  0.00  0.00     0.077 C 
ATOM      2  C1  UNL d   1      -1.695  -2.589  -2.135  0.00  0.00    -0.074 A 
ATOM      3  C2  UNL d   1      -0.386  -2.103  -2.208  0.00  0.00    -0.005 A 
ATOM      4  C3  UNL d   1       0.264  -1.657  -1.057  0.00  0.00     0.006 A 
ATOM      5  C4  UNL d   1      -0.388  -1.693   0.177  0.00  0.00    -0.005 A 
ATOM      6  C5  UNL d   1      -1.697  -2.175   0.269  0.00  0.00    -0.074 A 
ATOM      7  C6  UNL d   1      -2.415  -2.211   1.585  0.00  0.00     0.077 C 
ATOM      8  C7  UNL d   1      -2.346  -2.614  -0.893  0.00  0.00    -0.001 A 
ENDROOT
TORSDOF 0
ENDMDL
