MODEL 1
REMARK minimizedAffinity 16.5374184
REMARK minimizedRMSD -1
REMARK  0 active torsions:
REMARK  status: ('A' for Active; 'I' for Inactive)
ROOT
ATOM      1  C   UNL d   1       1.761  -4.277  -3.824  0.00  0.00     0.077 C 
ATOM      2  C1  UNL d   1       3.237  -4.527  -3.916  0.00  0.00    -0.074 A 
ATOM      3  C2  UNL d   1       3.956  -4.171  -5.061  0.00  0.00    -0.005 A 
ATOM      4  C3  UNL d   1       5.330  -4.401  -5.128  0.00  0.00     0.006 A 
ATOM      5  C4  UNL d   1       5.997  -4.990  -4.053  0.00  0.00    -0.005 A 
ATOM      6  C5  UNL d   1       5.295  -5.352  -2.900  0.00  0.00    -0.074 A 
ATOM      7  C6  UNL d   1       5.998  -5.976  -1.731  0.00  0.00     0.077 C 
ATOM      8  C7  UNL d   1       3.915  -5.111  -2.837  0.00  0.00    -0.001 A 
ENDROOT
TORSDOF 0
ENDMDL
