MODEL 1
REMARK minimizedAffinity 9.80617142
REMARK minimizedRMSD -1
REMARK  0 active torsions:
REMARK  status: ('A' for Active; 'I' for Inactive)
ROOT
ATOM      1  C   UNL d   1      -1.258  -3.082  -5.999  0.00  0.00     0.077 C 
ATOM      2  C1  UNL d   1      -1.545  -2.859  -4.544  0.00  0.00    -0.074 A 
ATOM      3  C2  UNL d   1      -2.847  -2.963  -4.044  0.00  0.00    -0.005 A 
ATOM      4  C3  UNL d   1      -3.097  -2.762  -2.687  0.00  0.00     0.006 A 
ATOM      5  C4  UNL d   1      -2.050  -2.455  -1.817  0.00  0.00    -0.005 A 
ATOM      6  C5  UNL d   1      -0.742  -2.348  -2.299  0.00  0.00    -0.074 A 
ATOM      7  C6  UNL d   1       0.397  -2.029  -1.376  0.00  0.00     0.077 C 
ATOM      8  C7  UNL d   1      -0.497  -2.558  -3.663  0.00  0.00    -0.001 A 
ENDROOT
TORSDOF 0
ENDMDL
