MODEL 1
REMARK minimizedAffinity 10.3040047
REMARK minimizedRMSD -1
REMARK  0 active torsions:
REMARK  status: ('A' for Active; 'I' for Inactive)
ROOT
ATOM      1  C   UNL d   1      -2.090  -1.596   0.712  0.00  0.00     0.077 C 
ATOM      2  C1  UNL d   1      -1.383  -2.231  -0.449  0.00  0.00    -0.074 A 
ATOM      3  C2  UNL d   1      -0.192  -2.940  -0.265  0.00  0.00    -0.005 A 
ATOM      4  C3  UNL d   1       0.449  -3.533  -1.353  0.00  0.00     0.006 A 
ATOM      5  C4  UNL d   1      -0.094  -3.423  -2.634  0.00  0.00    -0.005 A 
ATOM      6  C5  UNL d   1      -1.285  -2.718  -2.837  0.00  0.00    -0.074 A 
ATOM      7  C6  UNL d   1      -1.888  -2.599  -4.205  0.00  0.00     0.077 C 
ATOM      8  C7  UNL d   1      -1.927  -2.131  -1.738  0.00  0.00    -0.001 A 
ENDROOT
TORSDOF 0
ENDMDL
