MODEL 1
REMARK minimizedAffinity 16.6714497
REMARK minimizedRMSD -1
REMARK  0 active torsions:
REMARK  status: ('A' for Active; 'I' for Inactive)
ROOT
ATOM      1  C   UNL d   1      -2.863   2.221   0.451  0.00  0.00     0.077 C 
ATOM      2  C1  UNL d   1      -2.773   0.724   0.431  0.00  0.00    -0.074 A 
ATOM      3  C2  UNL d   1      -3.737  -0.063   1.070  0.00  0.00    -0.005 A 
ATOM      4  C3  UNL d   1      -3.645  -1.454   1.035  0.00  0.00     0.006 A 
ATOM      5  C4  UNL d   1      -2.589  -2.072   0.362  0.00  0.00    -0.005 A 
ATOM      6  C5  UNL d   1      -1.617  -1.301  -0.283  0.00  0.00    -0.074 A 
ATOM      7  C6  UNL d   1      -0.481  -1.949  -1.018  0.00  0.00     0.077 C 
ATOM      8  C7  UNL d   1      -1.720   0.096  -0.249  0.00  0.00    -0.001 A 
ENDROOT
TORSDOF 0
ENDMDL
