MODEL 1
REMARK minimizedAffinity 3.89620161
REMARK minimizedRMSD -1
REMARK  0 active torsions:
REMARK  status: ('A' for Active; 'I' for Inactive)
ROOT
ATOM      1  C   UNL d   1       5.995   5.999  -1.862  0.00  0.00     0.077 C 
ATOM      2  C1  UNL d   1       4.620   5.487  -2.171  0.00  0.00    -0.074 A 
ATOM      3  C2  UNL d   1       3.992   4.562  -1.330  0.00  0.00    -0.005 A 
ATOM      4  C3  UNL d   1       2.709   4.102  -1.625  0.00  0.00     0.006 A 
ATOM      5  C4  UNL d   1       2.041   4.562  -2.761  0.00  0.00    -0.005 A 
ATOM      6  C5  UNL d   1       2.652   5.487  -3.612  0.00  0.00    -0.074 A 
ATOM      7  C6  UNL d   1       1.945   5.999  -4.831  0.00  0.00     0.077 C 
ATOM      8  C7  UNL d   1       3.939   5.950  -3.305  0.00  0.00    -0.001 A 
ENDROOT
TORSDOF 0
ENDMDL
