MODEL 1
REMARK minimizedAffinity 12.2732649
REMARK minimizedRMSD -1
REMARK  0 active torsions:
REMARK  status: ('A' for Active; 'I' for Inactive)
ROOT
ATOM      1  C   UNL d   1       5.998   4.927  -2.357  0.00  0.00     0.077 C 
ATOM      2  C1  UNL d   1       4.516   5.001  -2.135  0.00  0.00    -0.074 A 
ATOM      3  C2  UNL d   1       3.736   5.949  -2.805  0.00  0.00    -0.005 A 
ATOM      4  C3  UNL d   1       2.358   6.000  -2.596  0.00  0.00     0.006 A 
ATOM      5  C4  UNL d   1       1.747   5.105  -1.716  0.00  0.00    -0.005 A 
ATOM      6  C5  UNL d   1       2.511   4.151  -1.037  0.00  0.00    -0.074 A 
ATOM      7  C6  UNL d   1       1.869   3.175  -0.096  0.00  0.00     0.077 C 
ATOM      8  C7  UNL d   1       3.894   4.101  -1.258  0.00  0.00    -0.001 A 
ENDROOT
TORSDOF 0
ENDMDL
