MODEL 1
REMARK minimizedAffinity 5.18436956
REMARK minimizedRMSD -1
REMARK  0 active torsions:
REMARK  status: ('A' for Active; 'I' for Inactive)
ROOT
ATOM      1  C   UNL d   1       5.966   1.799  -4.792  0.00  0.00     0.077 C 
ATOM      2  C1  UNL d   1       5.983   3.254  -4.428  0.00  0.00    -0.074 A 
ATOM      3  C2  UNL d   1       5.993   4.243  -5.417  0.00  0.00    -0.005 A 
ATOM      4  C3  UNL d   1       6.000   5.592  -5.063  0.00  0.00     0.006 A 
ATOM      5  C4  UNL d   1       5.996   5.965  -3.718  0.00  0.00    -0.005 A 
ATOM      6  C5  UNL d   1       5.985   4.991  -2.715  0.00  0.00    -0.074 A 
ATOM      7  C6  UNL d   1       5.971   5.375  -1.266  0.00  0.00     0.077 C 
ATOM      8  C7  UNL d   1       5.972   3.637  -3.079  0.00  0.00    -0.001 A 
ENDROOT
TORSDOF 0
ENDMDL
