MODEL 1
REMARK minimizedAffinity 13.562192
REMARK minimizedRMSD -1
REMARK  0 active torsions:
REMARK  status: ('A' for Active; 'I' for Inactive)
ROOT
ATOM      1  C   UNL d   1       1.011   3.647   0.357  0.00  0.00     0.077 C 
ATOM      2  C1  UNL d   1       1.784   4.201  -0.803  0.00  0.00    -0.074 A 
ATOM      3  C2  UNL d   1       1.128   4.685  -1.939  0.00  0.00    -0.005 A 
ATOM      4  C3  UNL d   1       1.860   5.206  -3.006  0.00  0.00     0.006 A 
ATOM      5  C4  UNL d   1       3.254   5.249  -2.947  0.00  0.00    -0.005 A 
ATOM      6  C5  UNL d   1       3.927   4.770  -1.819  0.00  0.00    -0.074 A 
ATOM      7  C6  UNL d   1       5.424   4.818  -1.736  0.00  0.00     0.077 C 
ATOM      8  C7  UNL d   1       3.184   4.254  -0.748  0.00  0.00    -0.001 A 
ENDROOT
TORSDOF 0
ENDMDL
