MODEL 1
REMARK minimizedAffinity 10.4018879
REMARK minimizedRMSD -1
REMARK  0 active torsions:
REMARK  status: ('A' for Active; 'I' for Inactive)
ROOT
ATOM      1  C   UNL d   1       2.950  -2.769   2.889  0.00  0.00     0.077 C 
ATOM      2  C1  UNL d   1       3.950  -3.046   3.973  0.00  0.00    -0.074 A 
ATOM      3  C2  UNL d   1       4.345  -2.039   4.859  0.00  0.00    -0.005 A 
ATOM      4  C3  UNL d   1       5.269  -2.313   5.868  0.00  0.00     0.006 A 
ATOM      5  C4  UNL d   1       5.806  -3.594   6.000  0.00  0.00    -0.005 A 
ATOM      6  C5  UNL d   1       5.421  -4.614   5.123  0.00  0.00    -0.074 A 
ATOM      7  C6  UNL d   1       5.981  -5.999   5.257  0.00  0.00     0.077 C 
ATOM      8  C7  UNL d   1       4.487  -4.332   4.117  0.00  0.00    -0.001 A 
ENDROOT
TORSDOF 0
ENDMDL
