MODEL 1
REMARK minimizedAffinity -1.21154046
REMARK minimizedRMSD -1
REMARK  0 active torsions:
REMARK  status: ('A' for Active; 'I' for Inactive)
ROOT
ATOM      1  C   UNL d   1       5.957   4.916  -1.681  0.00  0.00     0.077 C 
ATOM      2  C1  UNL d   1       5.962   4.839  -3.179  0.00  0.00    -0.074 A 
ATOM      3  C2  UNL d   1       5.976   6.000  -3.959  0.00  0.00    -0.005 A 
ATOM      4  C3  UNL d   1       5.990   5.912  -5.351  0.00  0.00     0.006 A 
ATOM      5  C4  UNL d   1       5.990   4.664  -5.976  0.00  0.00    -0.005 A 
ATOM      6  C5  UNL d   1       5.977   3.493  -5.213  0.00  0.00    -0.074 A 
ATOM      7  C6  UNL d   1       5.987   2.144  -5.869  0.00  0.00     0.077 C 
ATOM      8  C7  UNL d   1       5.970   3.589  -3.815  0.00  0.00    -0.001 A 
ENDROOT
TORSDOF 0
ENDMDL
