MODEL 1
REMARK minimizedAffinity 13.6185713
REMARK minimizedRMSD -1
REMARK  0 active torsions:
REMARK  status: ('A' for Active; 'I' for Inactive)
ROOT
ATOM      1  C   UNL d   1       5.921   2.591  -4.848  0.00  0.00     0.077 C 
ATOM      2  C1  UNL d   1       5.759   3.667  -3.816  0.00  0.00    -0.074 A 
ATOM      3  C2  UNL d   1       5.991   5.009  -4.134  0.00  0.00    -0.005 A 
ATOM      4  C3  UNL d   1       5.828   5.999  -3.166  0.00  0.00     0.006 A 
ATOM      5  C4  UNL d   1       5.431   5.659  -1.872  0.00  0.00    -0.005 A 
ATOM      6  C5  UNL d   1       5.193   4.322  -1.536  0.00  0.00    -0.074 A 
ATOM      7  C6  UNL d   1       4.756   3.940  -0.153  0.00  0.00     0.077 C 
ATOM      8  C7  UNL d   1       5.353   3.333  -2.516  0.00  0.00    -0.001 A 
ENDROOT
TORSDOF 0
ENDMDL
