MODEL 1
REMARK minimizedAffinity 19.596487
REMARK minimizedRMSD -1
REMARK  0 active torsions:
REMARK  status: ('A' for Active; 'I' for Inactive)
ROOT
ATOM      1  C   UNL d   1      -0.540  -1.219  -1.094  0.00  0.00     0.077 C 
ATOM      2  C1  UNL d   1       0.366  -2.280  -1.644  0.00  0.00    -0.074 A 
ATOM      3  C2  UNL d   1       1.317  -1.977  -2.623  0.00  0.00    -0.005 A 
ATOM      4  C3  UNL d   1       2.159  -2.973  -3.118  0.00  0.00     0.006 A 
ATOM      5  C4  UNL d   1       2.059  -4.280  -2.639  0.00  0.00    -0.005 A 
ATOM      6  C5  UNL d   1       1.115  -4.602  -1.659  0.00  0.00    -0.074 A 
ATOM      7  C6  UNL d   1       1.001  -5.999  -1.126  0.00  0.00     0.077 C 
ATOM      8  C7  UNL d   1       0.277  -3.594  -1.162  0.00  0.00    -0.001 A 
ENDROOT
TORSDOF 0
ENDMDL
