MODEL 1
REMARK minimizedAffinity 5.36218119
REMARK minimizedRMSD -1
REMARK  0 active torsions:
REMARK  status: ('A' for Active; 'I' for Inactive)
ROOT
ATOM      1  C   UNL d   1       5.990   1.806  -4.927  0.00  0.00     0.077 C 
ATOM      2  C1  UNL d   1       5.999   3.250  -4.523  0.00  0.00    -0.074 A 
ATOM      3  C2  UNL d   1       5.998   4.266  -5.485  0.00  0.00    -0.005 A 
ATOM      4  C3  UNL d   1       5.997   5.605  -5.094  0.00  0.00     0.006 A 
ATOM      5  C4  UNL d   1       5.995   5.941  -3.740  0.00  0.00    -0.005 A 
ATOM      6  C5  UNL d   1       5.995   4.940  -2.764  0.00  0.00    -0.074 A 
ATOM      7  C6  UNL d   1       5.983   5.284  -1.304  0.00  0.00     0.077 C 
ATOM      8  C7  UNL d   1       5.989   3.597  -3.164  0.00  0.00    -0.001 A 
ENDROOT
TORSDOF 0
ENDMDL
