MODEL 1
REMARK minimizedAffinity 13.4831581
REMARK minimizedRMSD -1
REMARK  1 active torsions:
REMARK  status: ('A' for Active; 'I' for Inactive)
REMARK    1  A    between atoms: C1_2  and  C2_3 
ROOT
ATOM      1  C2  UNL d   1      -1.150  -1.577  -5.599  0.00  0.00    -0.073 A 
ATOM      2  C3  UNL d   1      -2.058  -0.794  -4.877  0.00  0.00    -0.002 A 
ATOM      3  C4  UNL d   1      -1.727   0.512  -4.513  0.00  0.00     0.004 A 
ATOM      4  C5  UNL d   1      -0.492   1.050  -4.873  0.00  0.00    -0.004 A 
ATOM      5  C6  UNL d   1       0.423   0.288  -5.606  0.00  0.00    -0.075 A 
ATOM      6  C7  UNL d   1       1.757   0.851  -5.999  0.00  0.00     0.076 C 
ATOM      7  C8  UNL d   1       0.085  -1.024  -5.965  0.00  0.00     0.001 A 
ENDROOT
BRANCH   1   8
ATOM      8  C1  UNL d   1      -1.505  -2.986  -6.000  0.00  0.00     0.053 C 
ATOM      9  C   UNL d   1      -0.416  -3.978  -5.620  0.00  0.00     0.018 C 
ENDBRANCH   1   8
TORSDOF 1
ENDMDL
