MODEL 1
REMARK minimizedAffinity 4.73219109
REMARK minimizedRMSD -1
REMARK  1 active torsions:
REMARK  status: ('A' for Active; 'I' for Inactive)
REMARK    1  A    between atoms: C1_2  and  C2_3 
ROOT
ATOM      1  C2  UNL d   1      -0.680  -4.232  -3.566  0.00  0.00    -0.073 A 
ATOM      2  C3  UNL d   1      -0.978  -4.703  -4.849  0.00  0.00    -0.002 A 
ATOM      3  C4  UNL d   1      -0.107  -5.580  -5.498  0.00  0.00     0.004 A 
ATOM      4  C5  UNL d   1       1.065  -6.000  -4.868  0.00  0.00    -0.004 A 
ATOM      5  C6  UNL d   1       1.373  -5.549  -3.580  0.00  0.00    -0.075 A 
ATOM      6  C7  UNL d   1       2.631  -5.990  -2.890  0.00  0.00     0.076 C 
ATOM      7  C8  UNL d   1       0.495  -4.667  -2.937  0.00  0.00     0.001 A 
ENDROOT
BRANCH   1   8
ATOM      8  C1  UNL d   1      -1.621  -3.291  -2.859  0.00  0.00     0.053 C 
ATOM      9  C   UNL d   1      -1.900  -3.730  -1.430  0.00  0.00     0.018 C 
ENDBRANCH   1   8
TORSDOF 1
ENDMDL
