MODEL 1
REMARK minimizedAffinity 1.02487957
REMARK minimizedRMSD -1
REMARK  1 active torsions:
REMARK  status: ('A' for Active; 'I' for Inactive)
REMARK    1  A    between atoms: C1_2  and  C2_3 
ROOT
ATOM      1  C2  UNL d   1      -0.368  -1.454   3.396  0.00  0.00    -0.073 A 
ATOM      2  C3  UNL d   1      -1.518  -2.191   3.092  0.00  0.00    -0.002 A 
ATOM      3  C4  UNL d   1      -2.578  -1.594   2.409  0.00  0.00     0.004 A 
ATOM      4  C5  UNL d   1      -2.497  -0.257   2.018  0.00  0.00    -0.004 A 
ATOM      5  C6  UNL d   1      -1.351   0.493   2.302  0.00  0.00    -0.075 A 
ATOM      6  C7  UNL d   1      -1.249   1.932   1.890  0.00  0.00     0.076 C 
ATOM      7  C8  UNL d   1      -0.292  -0.114   2.990  0.00  0.00     0.001 A 
ENDROOT
BRANCH   1   8
ATOM      8  C1  UNL d   1       0.782  -2.097   4.127  0.00  0.00     0.053 C 
ATOM      9  C   UNL d   1       2.016  -1.208   4.143  0.00  0.00     0.018 C 
ENDBRANCH   1   8
TORSDOF 1
ENDMDL
