MODEL 1
REMARK minimizedAffinity 2.56959987
REMARK minimizedRMSD -1
REMARK  1 active torsions:
REMARK  status: ('A' for Active; 'I' for Inactive)
REMARK    1  A    between atoms: C1_2  and  C2_3 
ROOT
ATOM      1  C2  UNL d   1       1.289  -3.269  -2.129  0.00  0.00    -0.073 A 
ATOM      2  C3  UNL d   1       1.569  -4.444  -2.834  0.00  0.00    -0.002 A 
ATOM      3  C4  UNL d   1       0.583  -5.417  -3.003  0.00  0.00     0.004 A 
ATOM      4  C5  UNL d   1      -0.693  -5.222  -2.475  0.00  0.00    -0.004 A 
ATOM      5  C6  UNL d   1      -0.996  -4.049  -1.777  0.00  0.00    -0.075 A 
ATOM      6  C7  UNL d   1      -2.363  -3.824  -1.202  0.00  0.00     0.076 C 
ATOM      7  C8  UNL d   1       0.000  -3.077  -1.610  0.00  0.00     0.001 A 
ENDROOT
BRANCH   1   8
ATOM      8  C1  UNL d   1       2.349  -2.212  -1.949  0.00  0.00     0.053 C 
ATOM      9  C   UNL d   1       2.619  -1.920  -0.482  0.00  0.00     0.018 C 
ENDBRANCH   1   8
TORSDOF 1
ENDMDL
