MODEL 1
REMARK minimizedAffinity -1.90882003
REMARK minimizedRMSD -1
REMARK  1 active torsions:
REMARK  status: ('A' for Active; 'I' for Inactive)
REMARK    1  A    between atoms: C1_2  and  C2_3 
ROOT
ATOM      1  C2  UNL d   1      -0.111  -0.345  -1.117  0.00  0.00    -0.073 A 
ATOM      2  C3  UNL d   1       0.209  -1.384  -1.998  0.00  0.00    -0.002 A 
ATOM      3  C4  UNL d   1       0.635  -1.101  -3.296  0.00  0.00     0.004 A 
ATOM      4  C5  UNL d   1       0.753   0.221  -3.724  0.00  0.00    -0.004 A 
ATOM      5  C6  UNL d   1       0.449   1.274  -2.854  0.00  0.00    -0.075 A 
ATOM      6  C7  UNL d   1       0.569   2.702  -3.300  0.00  0.00     0.076 C 
ATOM      7  C8  UNL d   1       0.019   0.981  -1.553  0.00  0.00     0.001 A 
ENDROOT
BRANCH   1   8
ATOM      8  C1  UNL d   1      -0.566  -0.646   0.288  0.00  0.00     0.053 C 
ATOM      9  C   UNL d   1      -1.594   0.361   0.782  0.00  0.00     0.018 C 
ENDBRANCH   1   8
TORSDOF 1
ENDMDL
