MODEL 1
REMARK minimizedAffinity -4.16418409
REMARK minimizedRMSD -1
REMARK  1 active torsions:
REMARK  status: ('A' for Active; 'I' for Inactive)
REMARK    1  A    between atoms: C1_2  and  C2_3 
ROOT
ATOM      1  C2  UNL d   1       5.313   3.166   3.939  0.00  0.00    -0.073 A 
ATOM      2  C3  UNL d   1       5.755   3.862   5.070  0.00  0.00    -0.002 A 
ATOM      3  C4  UNL d   1       5.584   5.244   5.158  0.00  0.00     0.004 A 
ATOM      4  C5  UNL d   1       4.963   5.942   4.122  0.00  0.00    -0.004 A 
ATOM      5  C6  UNL d   1       4.504   5.263   2.989  0.00  0.00    -0.075 A 
ATOM      6  C7  UNL d   1       3.837   6.000   1.865  0.00  0.00     0.076 C 
ATOM      7  C8  UNL d   1       4.682   3.875   2.907  0.00  0.00     0.001 A 
ENDROOT
BRANCH   1   8
ATOM      8  C1  UNL d   1       5.490   1.673   3.842  0.00  0.00     0.053 C 
ATOM      9  C   UNL d   1       5.230   0.980   5.170  0.00  0.00     0.018 C 
ENDBRANCH   1   8
TORSDOF 1
ENDMDL
