MODEL 1
REMARK minimizedAffinity -1.11576402
REMARK minimizedRMSD -1
REMARK  2 active torsions:
REMARK  status: ('A' for Active; 'I' for Inactive)
REMARK    1  A    between atoms: C1_2  and  C2_3 
REMARK    2  A    between atoms: C2_3  and  C3_4 
ROOT
ATOM      1  C3  UNL d   1      -1.966  -1.036  -2.434  0.00  0.00    -0.075 A 
ATOM      2  C4  UNL d   1      -1.277  -0.046  -3.151  0.00  0.00     0.002 A 
ATOM      3  C5  UNL d   1      -0.218   0.646  -2.563  0.00  0.00     0.002 A 
ATOM      4  C6  UNL d   1       0.160   0.365  -1.252  0.00  0.00    -0.004 A 
ATOM      5  C7  UNL d   1      -0.528  -0.604  -0.525  0.00  0.00     0.002 A 
ATOM      6  C8  UNL d   1      -1.586  -1.301  -1.112  0.00  0.00     0.002 A 
ENDROOT
BRANCH   1   7
ATOM      7  C2  UNL d   1      -3.094  -1.809  -3.074  0.00  0.00     0.056 C 
BRANCH   7   8
ATOM      8  C1  UNL d   1      -2.654  -3.114  -3.745  0.00  0.00     0.007 C 
ATOM      9  C   UNL d   1      -2.627  -4.300  -2.791  0.00  0.00     0.009 C 
ENDBRANCH   7   8
ENDBRANCH   1   7
TORSDOF 2
ENDMDL
