MODEL 1
REMARK minimizedAffinity -2.64074755
REMARK minimizedRMSD -1
REMARK  2 active torsions:
REMARK  status: ('A' for Active; 'I' for Inactive)
REMARK    1  A    between atoms: C1_2  and  C2_3 
REMARK    2  A    between atoms: C2_3  and  C3_4 
ROOT
ATOM      1  C3  UNL d   1      -4.888   5.631   3.215  0.00  0.00    -0.075 A 
ATOM      2  C4  UNL d   1      -3.793   5.010   3.833  0.00  0.00     0.002 A 
ATOM      3  C5  UNL d   1      -3.809   4.743   5.202  0.00  0.00     0.002 A 
ATOM      4  C6  UNL d   1      -4.913   5.102   5.972  0.00  0.00    -0.004 A 
ATOM      5  C7  UNL d   1      -6.000   5.735   5.372  0.00  0.00     0.002 A 
ATOM      6  C8  UNL d   1      -5.988   6.000   4.002  0.00  0.00     0.002 A 
ENDROOT
BRANCH   1   7
ATOM      7  C2  UNL d   1      -4.889   5.896   1.729  0.00  0.00     0.056 C 
BRANCH   7   8
ATOM      8  C1  UNL d   1      -5.861   5.014   0.939  0.00  0.00     0.007 C 
ATOM      9  C   UNL d   1      -5.304   3.629   0.636  0.00  0.00     0.009 C 
ENDBRANCH   7   8
ENDBRANCH   1   7
TORSDOF 2
ENDMDL
