MODEL 1
REMARK minimizedAffinity -3.70069766
REMARK minimizedRMSD -1
REMARK  2 active torsions:
REMARK  status: ('A' for Active; 'I' for Inactive)
REMARK    1  A    between atoms: C1_2  and  C2_3 
REMARK    2  A    between atoms: C2_3  and  C3_4 
ROOT
ATOM      1  C3  UNL d   1      -4.865   4.470   4.031  0.00  0.00    -0.075 A 
ATOM      2  C4  UNL d   1      -5.175   4.263   5.383  0.00  0.00     0.002 A 
ATOM      3  C5  UNL d   1      -5.123   2.982   5.934  0.00  0.00     0.002 A 
ATOM      4  C6  UNL d   1      -4.772   1.893   5.140  0.00  0.00    -0.004 A 
ATOM      5  C7  UNL d   1      -4.478   2.084   3.791  0.00  0.00     0.002 A 
ATOM      6  C8  UNL d   1      -4.525   3.365   3.239  0.00  0.00     0.002 A 
ENDROOT
BRANCH   1   7
ATOM      7  C2  UNL d   1      -4.891   5.858   3.436  0.00  0.00     0.056 C 
BRANCH   7   8
ATOM      8  C1  UNL d   1      -5.791   5.991   2.203  0.00  0.00     0.007 C 
ATOM      9  C   UNL d   1      -5.015   5.997   0.892  0.00  0.00     0.009 C 
ENDBRANCH   7   8
ENDBRANCH   1   7
TORSDOF 2
ENDMDL
