MODEL 1
REMARK minimizedAffinity 7.74587965
REMARK minimizedRMSD -1
REMARK  2 active torsions:
REMARK  status: ('A' for Active; 'I' for Inactive)
REMARK    1  A    between atoms: C1_2  and  C2_3 
REMARK    2  A    between atoms: C2_3  and  C3_4 
ROOT
ATOM      1  C3  UNL d   1       1.989   2.444   3.072  0.00  0.00    -0.075 A 
ATOM      2  C4  UNL d   1       1.679   2.240   1.720  0.00  0.00     0.002 A 
ATOM      3  C5  UNL d   1       2.337   2.964   0.725  0.00  0.00     0.002 A 
ATOM      4  C6  UNL d   1       3.303   3.907   1.069  0.00  0.00    -0.004 A 
ATOM      5  C7  UNL d   1       3.607   4.130   2.411  0.00  0.00     0.002 A 
ATOM      6  C8  UNL d   1       2.954   3.403   3.408  0.00  0.00     0.002 A 
ENDROOT
BRANCH   1   7
ATOM      7  C2  UNL d   1       1.302   1.642   4.152  0.00  0.00     0.056 C 
BRANCH   7   8
ATOM      8  C1  UNL d   1       0.631   0.360   3.646  0.00  0.00     0.007 C 
ATOM      9  C   UNL d   1       1.054  -0.883   4.417  0.00  0.00     0.009 C 
ENDBRANCH   7   8
ENDBRANCH   1   7
TORSDOF 2
ENDMDL
