MODEL 1
REMARK minimizedAffinity 4.53266478
REMARK minimizedRMSD -1
REMARK  2 active torsions:
REMARK  status: ('A' for Active; 'I' for Inactive)
REMARK    1  A    between atoms: C1_2  and  C2_3 
REMARK    2  A    between atoms: C2_3  and  C3_4 
ROOT
ATOM      1  C3  UNL d   1       1.470  -0.311  -1.930  0.00  0.00    -0.075 A 
ATOM      2  C4  UNL d   1       0.689   0.119  -3.013  0.00  0.00     0.002 A 
ATOM      3  C5  UNL d   1       1.180   0.040  -4.316  0.00  0.00     0.002 A 
ATOM      4  C6  UNL d   1       2.459  -0.459  -4.553  0.00  0.00    -0.004 A 
ATOM      5  C7  UNL d   1       3.250  -0.873  -3.483  0.00  0.00     0.002 A 
ATOM      6  C8  UNL d   1       2.759  -0.799  -2.179  0.00  0.00     0.002 A 
ENDROOT
BRANCH   1   7
ATOM      7  C2  UNL d   1       0.933  -0.256  -0.520  0.00  0.00     0.056 C 
BRANCH   7   8
ATOM      8  C1  UNL d   1      -0.558   0.089  -0.433  0.00  0.00     0.007 C 
ATOM      9  C   UNL d   1      -1.452  -1.137  -0.310  0.00  0.00     0.009 C 
ENDBRANCH   7   8
ENDBRANCH   1   7
TORSDOF 2
ENDMDL
