MODEL 1
REMARK minimizedAffinity -2.71970987
REMARK minimizedRMSD -1
REMARK  2 active torsions:
REMARK  status: ('A' for Active; 'I' for Inactive)
REMARK    1  A    between atoms: C1_2  and  C2_3 
REMARK    2  A    between atoms: C2_3  and  C3_4 
ROOT
ATOM      1  C3  UNL d   1      -4.666   5.853   3.121  0.00  0.00    -0.075 A 
ATOM      2  C4  UNL d   1      -3.517   5.708   3.911  0.00  0.00     0.002 A 
ATOM      3  C5  UNL d   1      -3.612   5.687   5.303  0.00  0.00     0.002 A 
ATOM      4  C6  UNL d   1      -4.853   5.820   5.921  0.00  0.00    -0.004 A 
ATOM      5  C7  UNL d   1      -6.000   5.981   5.146  0.00  0.00     0.002 A 
ATOM      6  C8  UNL d   1      -5.908   5.999   3.754  0.00  0.00     0.002 A 
ENDROOT
BRANCH   1   7
ATOM      7  C2  UNL d   1      -4.573   5.847   1.614  0.00  0.00     0.056 C 
BRANCH   7   8
ATOM      8  C1  UNL d   1      -5.920   5.664   0.906  0.00  0.00     0.007 C 
ATOM      9  C   UNL d   1      -5.925   4.507  -0.085  0.00  0.00     0.009 C 
ENDBRANCH   7   8
ENDBRANCH   1   7
TORSDOF 2
ENDMDL
