MODEL 1
REMARK minimizedAffinity -5.86299038
REMARK minimizedRMSD -1
REMARK  2 active torsions:
REMARK  status: ('A' for Active; 'I' for Inactive)
REMARK    1  A    between atoms: C1_2  and  C2_3 
REMARK    2  A    between atoms: C2_3  and  C3_4 
ROOT
ATOM      1  C3  UNL d   1      -4.429  -2.776   0.168  0.00  0.00    -0.075 A 
ATOM      2  C4  UNL d   1      -4.106  -1.646   0.933  0.00  0.00     0.002 A 
ATOM      3  C5  UNL d   1      -2.880  -1.002   0.762  0.00  0.00     0.002 A 
ATOM      4  C6  UNL d   1      -1.960  -1.484  -0.167  0.00  0.00    -0.004 A 
ATOM      5  C7  UNL d   1      -2.264  -2.616  -0.920  0.00  0.00     0.002 A 
ATOM      6  C8  UNL d   1      -3.492  -3.260  -0.754  0.00  0.00     0.002 A 
ENDROOT
BRANCH   1   7
ATOM      7  C2  UNL d   1      -5.766  -3.460   0.327  0.00  0.00     0.056 C 
BRANCH   7   8
ATOM      8  C1  UNL d   1      -5.673  -4.897   0.852  0.00  0.00     0.007 C 
ATOM      9  C   UNL d   1      -5.999  -5.944  -0.204  0.00  0.00     0.009 C 
ENDBRANCH   7   8
ENDBRANCH   1   7
TORSDOF 2
ENDMDL
