MODEL 1
REMARK minimizedAffinity -4.90980768
REMARK minimizedRMSD -1
REMARK  2 active torsions:
REMARK  status: ('A' for Active; 'I' for Inactive)
REMARK    1  A    between atoms: C1_2  and  C2_3 
REMARK    2  A    between atoms: C2_3  and  C3_4 
ROOT
ATOM      1  C3  UNL d   1      -3.588  -4.197  -0.116  0.00  0.00    -0.075 A 
ATOM      2  C4  UNL d   1      -3.858  -5.566   0.022  0.00  0.00     0.002 A 
ATOM      3  C5  UNL d   1      -5.060  -5.998   0.585  0.00  0.00     0.002 A 
ATOM      4  C6  UNL d   1      -5.999  -5.069   1.025  0.00  0.00    -0.004 A 
ATOM      5  C7  UNL d   1      -5.734  -3.706   0.908  0.00  0.00     0.002 A 
ATOM      6  C8  UNL d   1      -4.535  -3.271   0.341  0.00  0.00     0.002 A 
ENDROOT
BRANCH   1   7
ATOM      7  C2  UNL d   1      -2.303  -3.724  -0.752  0.00  0.00     0.056 C 
BRANCH   7   8
ATOM      8  C1  UNL d   1      -2.352  -2.278  -1.257  0.00  0.00     0.007 C 
ATOM      9  C   UNL d   1      -1.334  -1.370  -0.581  0.00  0.00     0.009 C 
ENDBRANCH   7   8
ENDBRANCH   1   7
TORSDOF 2
ENDMDL
