MODEL 1
REMARK minimizedAffinity 5.40935373
REMARK minimizedRMSD -1
REMARK  2 active torsions:
REMARK  status: ('A' for Active; 'I' for Inactive)
REMARK    1  A    between atoms: C1_2  and  C2_3 
REMARK    2  A    between atoms: C2_3  and  C3_4 
ROOT
ATOM      1  C3  UNL d   1      -3.268   0.366   5.321  0.00  0.00    -0.075 A 
ATOM      2  C4  UNL d   1      -2.785   0.394   4.004  0.00  0.00     0.002 A 
ATOM      3  C5  UNL d   1      -2.378  -0.783   3.375  0.00  0.00     0.002 A 
ATOM      4  C6  UNL d   1      -2.438  -1.997   4.055  0.00  0.00    -0.004 A 
ATOM      5  C7  UNL d   1      -2.900  -2.034   5.369  0.00  0.00     0.002 A 
ATOM      6  C8  UNL d   1      -3.312  -0.859   6.000  0.00  0.00     0.002 A 
ENDROOT
BRANCH   1   7
ATOM      7  C2  UNL d   1      -3.737   1.632   5.998  0.00  0.00     0.056 C 
BRANCH   7   8
ATOM      8  C1  UNL d   1      -2.732   2.786   5.929  0.00  0.00     0.007 C 
ATOM      9  C   UNL d   1      -3.260   3.997   5.171  0.00  0.00     0.009 C 
ENDBRANCH   7   8
ENDBRANCH   1   7
TORSDOF 2
ENDMDL
