MODEL 1
REMARK minimizedAffinity -0.373848051
REMARK minimizedRMSD -1
REMARK  2 active torsions:
REMARK  status: ('A' for Active; 'I' for Inactive)
REMARK    1  A    between atoms: C1_2  and  C2_3 
REMARK    2  A    between atoms: C2_3  and  C3_4 
ROOT
ATOM      1  C3  UNL d   1      -1.285  -1.315  -1.262  0.00  0.00    -0.075 A 
ATOM      2  C4  UNL d   1      -1.936  -2.477  -0.823  0.00  0.00     0.002 A 
ATOM      3  C5  UNL d   1      -2.665  -3.262  -1.717  0.00  0.00     0.002 A 
ATOM      4  C6  UNL d   1      -2.761  -2.890  -3.056  0.00  0.00    -0.004 A 
ATOM      5  C7  UNL d   1      -2.132  -1.729  -3.500  0.00  0.00     0.002 A 
ATOM      6  C8  UNL d   1      -1.398  -0.944  -2.609  0.00  0.00     0.002 A 
ENDROOT
BRANCH   1   7
ATOM      7  C2  UNL d   1      -0.470  -0.477  -0.306  0.00  0.00     0.056 C 
BRANCH   7   8
ATOM      8  C1  UNL d   1      -1.131   0.850   0.080  0.00  0.00     0.007 C 
ATOM      9  C   UNL d   1      -2.037   0.737   1.299  0.00  0.00     0.009 C 
ENDBRANCH   7   8
ENDBRANCH   1   7
TORSDOF 2
ENDMDL
