MODEL 1
REMARK minimizedAffinity 1.20635629
REMARK minimizedRMSD -1
REMARK  2 active torsions:
REMARK  status: ('A' for Active; 'I' for Inactive)
REMARK    1  A    between atoms: C1_2  and  C2_3 
REMARK    2  A    between atoms: C2_3  and  C3_4 
ROOT
ATOM      1  C3  UNL d   1       2.491   2.256   3.157  0.00  0.00    -0.075 A 
ATOM      2  C4  UNL d   1       1.638   2.730   4.164  0.00  0.00     0.002 A 
ATOM      3  C5  UNL d   1       1.184   1.874   5.168  0.00  0.00     0.002 A 
ATOM      4  C6  UNL d   1       1.567   0.535   5.172  0.00  0.00    -0.004 A 
ATOM      5  C7  UNL d   1       2.401   0.050   4.167  0.00  0.00     0.002 A 
ATOM      6  C8  UNL d   1       2.861   0.904   3.164  0.00  0.00     0.002 A 
ENDROOT
BRANCH   1   7
ATOM      7  C2  UNL d   1       3.010   3.184   2.084  0.00  0.00     0.056 C 
BRANCH   7   8
ATOM      8  C1  UNL d   1       2.330   3.005   0.723  0.00  0.00     0.007 C 
ATOM      9  C   UNL d   1       3.202   3.444  -0.446  0.00  0.00     0.009 C 
ENDBRANCH   7   8
ENDBRANCH   1   7
TORSDOF 2
ENDMDL
