MODEL 1
REMARK minimizedAffinity -1.42988443
REMARK minimizedRMSD -1
REMARK  0 active torsions:
REMARK  status: ('A' for Active; 'I' for Inactive)
ROOT
ATOM      1  C1  BNZ d   1      -2.021   0.093   2.438  0.00  0.00     0.000 A 
ATOM      2  C2  BNZ d   1      -1.713   0.247   1.112  0.00  0.00     0.000 A 
ATOM      3  C3  BNZ d   1      -0.484  -0.112   0.633  0.00  0.00     0.000 A 
ATOM      4  C4  BNZ d   1       0.448  -0.585   1.485  0.00  0.00     0.000 A 
ATOM      5  C5  BNZ d   1       0.155  -0.737   2.826  0.00  0.00     0.000 A 
ATOM      6  C6  BNZ d   1      -1.096  -0.412   3.298  0.00  0.00     0.000 A 
ENDROOT
TORSDOF 0
ENDMDL
