MODEL 1
REMARK minimizedAffinity -1.81999266
REMARK minimizedRMSD -1
REMARK  0 active torsions:
REMARK  status: ('A' for Active; 'I' for Inactive)
ROOT
ATOM      1  C1  BNZ d   1      -2.894  -0.641   2.952  0.00  0.00     0.000 A 
ATOM      2  C2  BNZ d   1      -2.606  -1.632   3.852  0.00  0.00     0.000 A 
ATOM      3  C3  BNZ d   1      -1.323  -1.840   4.277  0.00  0.00     0.000 A 
ATOM      4  C4  BNZ d   1      -0.327  -1.084   3.772  0.00  0.00     0.000 A 
ATOM      5  C5  BNZ d   1      -0.600  -0.087   2.857  0.00  0.00     0.000 A 
ATOM      6  C6  BNZ d   1      -1.897   0.145   2.461  0.00  0.00     0.000 A 
ENDROOT
TORSDOF 0
ENDMDL
