MODEL 1
REMARK minimizedAffinity -2.40125728
REMARK minimizedRMSD -1
REMARK  0 active torsions:
REMARK  status: ('A' for Active; 'I' for Inactive)
ROOT
ATOM      1  C1  BNZ d   1       0.276  -0.062   1.226  0.00  0.00     0.000 A 
ATOM      2  C2  BNZ d   1       0.717  -0.571   2.418  0.00  0.00     0.000 A 
ATOM      3  C3  BNZ d   1      -0.113  -0.634   3.502  0.00  0.00     0.000 A 
ATOM      4  C4  BNZ d   1      -1.368  -0.150   3.405  0.00  0.00     0.000 A 
ATOM      5  C5  BNZ d   1      -1.824   0.375   2.212  0.00  0.00     0.000 A 
ATOM      6  C6  BNZ d   1      -0.998   0.401   1.112  0.00  0.00     0.000 A 
ENDROOT
TORSDOF 0
ENDMDL
