MODEL 1
REMARK minimizedAffinity -1.55627465
REMARK minimizedRMSD -1
REMARK  0 active torsions:
REMARK  status: ('A' for Active; 'I' for Inactive)
ROOT
ATOM      1  C1  BNZ d   1      -1.603  -0.497   2.926  0.00  0.00     0.000 A 
ATOM      2  C2  BNZ d   1      -1.801  -0.129   1.621  0.00  0.00     0.000 A 
ATOM      3  C3  BNZ d   1      -0.759  -0.099   0.737  0.00  0.00     0.000 A 
ATOM      4  C4  BNZ d   1       0.484  -0.397   1.166  0.00  0.00     0.000 A 
ATOM      5  C5  BNZ d   1       0.702  -0.760   2.481  0.00  0.00     0.000 A 
ATOM      6  C6  BNZ d   1      -0.356  -0.827   3.359  0.00  0.00     0.000 A 
ENDROOT
TORSDOF 0
ENDMDL
