MODEL 1
REMARK minimizedAffinity 0.812491596
REMARK minimizedRMSD -1
REMARK  0 active torsions:
REMARK  status: ('A' for Active; 'I' for Inactive)
ROOT
ATOM      1  C1  BNZ d   1      -1.200  -0.366   3.845  0.00  0.00     0.000 A 
ATOM      2  C2  BNZ d   1      -1.439   0.285   2.664  0.00  0.00     0.000 A 
ATOM      3  C3  BNZ d   1      -0.466   0.383   1.709  0.00  0.00     0.000 A 
ATOM      4  C4  BNZ d   1       0.756  -0.134   1.952  0.00  0.00     0.000 A 
ATOM      5  C5  BNZ d   1       1.015  -0.785   3.142  0.00  0.00     0.000 A 
ATOM      6  C6  BNZ d   1       0.022  -0.916   4.085  0.00  0.00     0.000 A 
ENDROOT
TORSDOF 0
ENDMDL
