MODEL 1
REMARK minimizedAffinity -2.17137527
REMARK minimizedRMSD -1
REMARK  0 active torsions:
REMARK  status: ('A' for Active; 'I' for Inactive)
ROOT
ATOM      1  C1  BNZ d   1      -0.399  -0.415   3.338  0.00  0.00     0.000 A 
ATOM      2  C2  BNZ d   1      -1.414   0.252   2.706  0.00  0.00     0.000 A 
ATOM      3  C3  BNZ d   1      -2.721  -0.046   2.973  0.00  0.00     0.000 A 
ATOM      4  C4  BNZ d   1      -3.011  -1.037   3.841  0.00  0.00     0.000 A 
ATOM      5  C5  BNZ d   1      -1.998  -1.725   4.480  0.00  0.00     0.000 A 
ATOM      6  C6  BNZ d   1      -0.685  -1.396   4.237  0.00  0.00     0.000 A 
ENDROOT
TORSDOF 0
ENDMDL
