MODEL 1
REMARK minimizedAffinity 1.79089487
REMARK minimizedRMSD -1
REMARK  0 active torsions:
REMARK  status: ('A' for Active; 'I' for Inactive)
ROOT
ATOM      1  C1  BNZ d   1      -0.758  -0.391   4.031  0.00  0.00     0.000 A 
ATOM      2  C2  BNZ d   1       0.559  -0.717   3.846  0.00  0.00     0.000 A 
ATOM      3  C3  BNZ d   1       1.177  -0.482   2.650  0.00  0.00     0.000 A 
ATOM      4  C4  BNZ d   1       0.468   0.041   1.629  0.00  0.00     0.000 A 
ATOM      5  C5  BNZ d   1      -0.864   0.366   1.797  0.00  0.00     0.000 A 
ATOM      6  C6  BNZ d   1      -1.472   0.164   3.014  0.00  0.00     0.000 A 
ENDROOT
TORSDOF 0
ENDMDL
