MODEL 1
REMARK minimizedAffinity -2.45896506
REMARK minimizedRMSD -1
REMARK  0 active torsions:
REMARK  status: ('A' for Active; 'I' for Inactive)
ROOT
ATOM      1  C2' OXE d   1       0.259   1.628   0.386  0.00  0.00     0.078 C 
ATOM      2  C1' OXE d   1      -0.706   0.137   2.559  0.00  0.00     0.078 C 
ATOM      3  C1  OXE d   1      -0.468  -0.589   1.259  0.00  0.00    -0.078 A 
ATOM      4  C2  OXE d   1      -0.040   0.158   0.187  0.00  0.00    -0.078 A 
ATOM      5  C3  OXE d   1       0.248  -0.472  -1.020  0.00  0.00     0.003 A 
ATOM      6  C4  OXE d   1      -0.040  -1.830  -1.198  0.00  0.00    -0.002 A 
ATOM      7  C5  OXE d   1      -0.514  -2.601  -0.132  0.00  0.00    -0.002 A 
ATOM      8  C6  OXE d   1      -0.693  -2.006   1.113  0.00  0.00     0.003 A 
ENDROOT
TORSDOF 0
ENDMDL
