MODEL 1
REMARK minimizedAffinity 4.63265562
REMARK minimizedRMSD -1
REMARK  0 active torsions:
REMARK  status: ('A' for Active; 'I' for Inactive)
ROOT
ATOM      1  C2' OXE d   1      -0.271  -5.998  -0.388  0.00  0.00     0.078 C 
ATOM      2  C1' OXE d   1      -0.811  -3.913   1.412  0.00  0.00     0.078 C 
ATOM      3  C1  OXE d   1      -1.782  -4.135   0.280  0.00  0.00    -0.078 A 
ATOM      4  C2  OXE d   1      -1.486  -5.127  -0.623  0.00  0.00    -0.078 A 
ATOM      5  C3  OXE d   1      -2.377  -5.409  -1.655  0.00  0.00     0.003 A 
ATOM      6  C4  OXE d   1      -3.493  -4.592  -1.870  0.00  0.00    -0.002 A 
ATOM      7  C5  OXE d   1      -3.792  -3.551  -0.986  0.00  0.00    -0.002 A 
ATOM      8  C6  OXE d   1      -2.972  -3.336   0.117  0.00  0.00     0.003 A 
ENDROOT
TORSDOF 0
ENDMDL
