MODEL 1
REMARK minimizedAffinity -2.5705483
REMARK minimizedRMSD -1
REMARK  0 active torsions:
REMARK  status: ('A' for Active; 'I' for Inactive)
ROOT
ATOM      1  C2' OXE d   1      -0.944   1.749  -1.414  0.00  0.00     0.078 C 
ATOM      2  C1' OXE d   1       0.960   2.651   0.441  0.00  0.00     0.078 C 
ATOM      3  C1  OXE d   1       0.390   1.268   0.634  0.00  0.00    -0.078 A 
ATOM      4  C2  OXE d   1      -0.575   0.853  -0.251  0.00  0.00    -0.078 A 
ATOM      5  C3  OXE d   1      -1.095  -0.435  -0.151  0.00  0.00     0.003 A 
ATOM      6  C4  OXE d   1      -0.756  -1.253   0.934  0.00  0.00    -0.002 A 
ATOM      7  C5  OXE d   1       0.196  -0.834   1.869  0.00  0.00    -0.002 A 
ATOM      8  C6  OXE d   1       0.809   0.405   1.710  0.00  0.00     0.003 A 
ENDROOT
TORSDOF 0
ENDMDL
