MODEL 1
REMARK minimizedAffinity -1.35776377
REMARK minimizedRMSD -1
REMARK  0 active torsions:
REMARK  status: ('A' for Active; 'I' for Inactive)
ROOT
ATOM      1  C2' OXE d   1      -0.086   1.321  -1.032  0.00  0.00     0.078 C 
ATOM      2  C1' OXE d   1       0.086  -1.339  -1.911  0.00  0.00     0.078 C 
ATOM      3  C1  OXE d   1      -0.333  -1.096  -0.483  0.00  0.00    -0.078 A 
ATOM      4  C2  OXE d   1      -0.369   0.207  -0.048  0.00  0.00    -0.078 A 
ATOM      5  C3  OXE d   1      -0.802   0.490   1.244  0.00  0.00     0.003 A 
ATOM      6  C4  OXE d   1      -1.053  -0.546   2.151  0.00  0.00    -0.002 A 
ATOM      7  C5  OXE d   1      -0.983  -1.882   1.740  0.00  0.00    -0.002 A 
ATOM      8  C6  OXE d   1      -0.667  -2.172   0.418  0.00  0.00     0.003 A 
ENDROOT
TORSDOF 0
ENDMDL
