MODEL 1
REMARK minimizedAffinity -5.24810505
REMARK minimizedRMSD -1
REMARK  0 active torsions:
REMARK  status: ('A' for Active; 'I' for Inactive)
ROOT
ATOM      1  C2' OXE d   1      -0.008  -0.041  -2.636  0.00  0.00     0.078 C 
ATOM      2  C1' OXE d   1       0.340   0.902  -0.015  0.00  0.00     0.078 C 
ATOM      3  C1  OXE d   1       0.340  -0.591  -0.232  0.00  0.00    -0.078 A 
ATOM      4  C2  OXE d   1       0.122  -1.044  -1.511  0.00  0.00    -0.078 A 
ATOM      5  C3  OXE d   1       0.166  -2.410  -1.774  0.00  0.00     0.003 A 
ATOM      6  C4  OXE d   1       0.277  -3.332  -0.726  0.00  0.00    -0.002 A 
ATOM      7  C5  OXE d   1       0.460  -2.892   0.589  0.00  0.00    -0.002 A 
ATOM      8  C6  OXE d   1       0.536  -1.528   0.847  0.00  0.00     0.003 A 
ENDROOT
TORSDOF 0
ENDMDL
