MODEL 1
REMARK minimizedAffinity -1.41555917
REMARK minimizedRMSD -1
REMARK  0 active torsions:
REMARK  status: ('A' for Active; 'I' for Inactive)
ROOT
ATOM      1  C2' OXE d   1       1.371   2.468  -0.204  0.00  0.00     0.078 C 
ATOM      2  C1' OXE d   1      -0.580   1.508  -1.979  0.00  0.00     0.078 C 
ATOM      3  C1  OXE d   1      -0.388   0.769  -0.679  0.00  0.00    -0.078 A 
ATOM      4  C2  OXE d   1       0.601   1.218   0.163  0.00  0.00    -0.078 A 
ATOM      5  C3  OXE d   1       0.783   0.606   1.400  0.00  0.00     0.003 A 
ATOM      6  C4  OXE d   1       0.073  -0.555   1.728  0.00  0.00    -0.002 A 
ATOM      7  C5  OXE d   1      -0.911  -1.052   0.867  0.00  0.00    -0.002 A 
ATOM      8  C6  OXE d   1      -1.183  -0.378  -0.318  0.00  0.00     0.003 A 
ENDROOT
TORSDOF 0
ENDMDL
