MODEL 1
REMARK minimizedAffinity 6.88506985
REMARK minimizedRMSD -1
REMARK  0 active torsions:
REMARK  status: ('A' for Active; 'I' for Inactive)
ROOT
ATOM      1  C2' OXE d   1      -1.578  -2.800   0.356  0.00  0.00     0.078 C 
ATOM      2  C1' OXE d   1      -0.650  -0.714  -1.278  0.00  0.00     0.078 C 
ATOM      3  C1  OXE d   1      -1.099  -0.367   0.120  0.00  0.00    -0.078 A 
ATOM      4  C2  OXE d   1      -1.595  -1.386   0.896  0.00  0.00    -0.078 A 
ATOM      5  C3  OXE d   1      -1.971  -1.130   2.211  0.00  0.00     0.003 A 
ATOM      6  C4  OXE d   1      -1.993   0.182   2.700  0.00  0.00    -0.002 A 
ATOM      7  C5  OXE d   1      -1.529   1.240   1.912  0.00  0.00    -0.002 A 
ATOM      8  C6  OXE d   1      -1.040   0.978   0.638  0.00  0.00     0.003 A 
ENDROOT
TORSDOF 0
ENDMDL
