MODEL 1
REMARK minimizedAffinity 0.996457338
REMARK minimizedRMSD -1
REMARK  0 active torsions:
REMARK  status: ('A' for Active; 'I' for Inactive)
ROOT
ATOM      1  C2' OXE d   1      -0.167   1.942   0.326  0.00  0.00     0.078 C 
ATOM      2  C1' OXE d   1       0.073  -0.053  -1.634  0.00  0.00     0.078 C 
ATOM      3  C1  OXE d   1      -0.667  -0.398  -0.366  0.00  0.00    -0.078 A 
ATOM      4  C2  OXE d   1      -0.739   0.570   0.607  0.00  0.00    -0.078 A 
ATOM      5  C3  OXE d   1      -1.457   0.323   1.774  0.00  0.00     0.003 A 
ATOM      6  C4  OXE d   1      -1.976  -0.953   2.030  0.00  0.00    -0.002 A 
ATOM      7  C5  OXE d   1      -1.879  -1.965   1.069  0.00  0.00    -0.002 A 
ATOM      8  C6  OXE d   1      -1.266  -1.692  -0.149  0.00  0.00     0.003 A 
ENDROOT
TORSDOF 0
ENDMDL
