MODEL 1
REMARK minimizedAffinity -3.10551572
REMARK minimizedRMSD -1
REMARK  0 active torsions:
REMARK  status: ('A' for Active; 'I' for Inactive)
ROOT
ATOM      1  C2' OXE d   1      -0.009  -1.583  -2.236  0.00  0.00     0.078 C 
ATOM      2  C1' OXE d   1      -0.937  -2.896   0.065  0.00  0.00     0.078 C 
ATOM      3  C1  OXE d   1      -0.488  -1.462   0.205  0.00  0.00    -0.078 A 
ATOM      4  C2  OXE d   1       0.008  -0.843  -0.916  0.00  0.00    -0.078 A 
ATOM      5  C3  OXE d   1       0.384   0.496  -0.854  0.00  0.00     0.003 A 
ATOM      6  C4  OXE d   1       0.406   1.171   0.372  0.00  0.00    -0.002 A 
ATOM      7  C5  OXE d   1      -0.058   0.545   1.535  0.00  0.00    -0.002 A 
ATOM      8  C6  OXE d   1      -0.547  -0.754   1.460  0.00  0.00     0.003 A 
ENDROOT
TORSDOF 0
ENDMDL
