MODEL 1
REMARK minimizedAffinity -0.98800528
REMARK minimizedRMSD -1
REMARK  0 active torsions:
REMARK  status: ('A' for Active; 'I' for Inactive)
ROOT
ATOM      1  C2' OXE d   1       0.873   0.417  -2.758  0.00  0.00     0.078 C 
ATOM      2  C1' OXE d   1       1.818   1.828  -0.523  0.00  0.00     0.078 C 
ATOM      3  C1  OXE d   1       0.721   0.816  -0.304  0.00  0.00    -0.078 A 
ATOM      4  C2  OXE d   1       0.232   0.164  -1.410  0.00  0.00    -0.078 A 
ATOM      5  C3  OXE d   1      -0.743  -0.818  -1.257  0.00  0.00     0.003 A 
ATOM      6  C4  OXE d   1      -1.337  -1.038  -0.009  0.00  0.00    -0.002 A 
ATOM      7  C5  OXE d   1      -0.881  -0.356   1.125  0.00  0.00    -0.002 A 
ATOM      8  C6  OXE d   1       0.173   0.541   1.002  0.00  0.00     0.003 A 
ENDROOT
TORSDOF 0
ENDMDL
