MODEL 1
REMARK minimizedAffinity -1.41001308
REMARK minimizedRMSD -1
REMARK  0 active torsions:
REMARK  status: ('A' for Active; 'I' for Inactive)
ROOT
ATOM      1  C2' OXE d   1       1.130   2.719   0.445  0.00  0.00     0.078 C 
ATOM      2  C1' OXE d   1      -0.340   1.382  -1.538  0.00  0.00     0.078 C 
ATOM      3  C1  OXE d   1      -0.178   0.701  -0.202  0.00  0.00    -0.078 A 
ATOM      4  C2  OXE d   1       0.582   1.341   0.747  0.00  0.00    -0.078 A 
ATOM      5  C3  OXE d   1       0.718   0.782   2.014  0.00  0.00     0.003 A 
ATOM      6  C4  OXE d   1       0.216  -0.498   2.281  0.00  0.00    -0.002 A 
ATOM      7  C5  OXE d   1      -0.528  -1.185   1.316  0.00  0.00    -0.002 A 
ATOM      8  C6  OXE d   1      -0.770  -0.583   0.086  0.00  0.00     0.003 A 
ENDROOT
TORSDOF 0
ENDMDL
