MODEL 1
REMARK minimizedAffinity -2.9984107
REMARK minimizedRMSD -1
REMARK  0 active torsions:
REMARK  status: ('A' for Active; 'I' for Inactive)
ROOT
ATOM      1  C2' OXE d   1       1.775   2.545   0.178  0.00  0.00     0.078 C 
ATOM      2  C1' OXE d   1      -0.426   1.712  -1.352  0.00  0.00     0.078 C 
ATOM      3  C1  OXE d   1      -0.075   0.905  -0.127  0.00  0.00    -0.078 A 
ATOM      4  C2  OXE d   1       1.032   1.292   0.589  0.00  0.00    -0.078 A 
ATOM      5  C3  OXE d   1       1.368   0.615   1.758  0.00  0.00     0.003 A 
ATOM      6  C4  OXE d   1       0.682  -0.548   2.126  0.00  0.00    -0.002 A 
ATOM      7  C5  OXE d   1      -0.425  -0.983   1.388  0.00  0.00    -0.002 A 
ATOM      8  C6  OXE d   1      -0.841  -0.245   0.285  0.00  0.00     0.003 A 
ENDROOT
TORSDOF 0
ENDMDL
