MODEL 1
REMARK minimizedAffinity -2.39515471
REMARK minimizedRMSD -1
REMARK  0 active torsions:
REMARK  status: ('A' for Active; 'I' for Inactive)
ROOT
ATOM      1  C2' OXE d   1      -0.099   0.302  -2.544  0.00  0.00     0.078 C 
ATOM      2  C1' OXE d   1      -0.402  -2.488  -2.489  0.00  0.00     0.078 C 
ATOM      3  C1  OXE d   1      -0.526  -1.741  -1.184  0.00  0.00    -0.078 A 
ATOM      4  C2  OXE d   1      -0.330  -0.381  -1.214  0.00  0.00    -0.078 A 
ATOM      5  C3  OXE d   1      -0.486   0.363  -0.048  0.00  0.00     0.003 A 
ATOM      6  C4  OXE d   1      -0.689  -0.278   1.180  0.00  0.00    -0.002 A 
ATOM      7  C5  OXE d   1      -0.852  -1.666   1.238  0.00  0.00    -0.002 A 
ATOM      8  C6  OXE d   1      -0.816  -2.406   0.062  0.00  0.00     0.003 A 
ENDROOT
TORSDOF 0
ENDMDL
