MODEL 1
REMARK minimizedAffinity -3.83625364
REMARK minimizedRMSD -1
REMARK  0 active torsions:
REMARK  status: ('A' for Active; 'I' for Inactive)
ROOT
ATOM      1  C2' OXE d   1       0.268   0.455  -2.478  0.00  0.00     0.078 C 
ATOM      2  C1' OXE d   1       0.661   1.893  -0.100  0.00  0.00     0.078 C 
ATOM      3  C1  OXE d   1       0.171   0.471   0.011  0.00  0.00    -0.078 A 
ATOM      4  C2  OXE d   1      -0.063  -0.210  -1.159  0.00  0.00    -0.078 A 
ATOM      5  C3  OXE d   1      -0.463  -1.542  -1.113  0.00  0.00     0.003 A 
ATOM      6  C4  OXE d   1      -0.776  -2.147   0.111  0.00  0.00    -0.002 A 
ATOM      7  C5  OXE d   1      -0.583  -1.458   1.313  0.00  0.00    -0.002 A 
ATOM      8  C6  OXE d   1      -0.070  -0.165   1.283  0.00  0.00     0.003 A 
ENDROOT
TORSDOF 0
ENDMDL
