MODEL 1
REMARK minimizedAffinity -3.21314073
REMARK minimizedRMSD -1
REMARK  0 active torsions:
REMARK  status: ('A' for Active; 'I' for Inactive)
ROOT
ATOM      1  C2' OXE d   1      -0.220  -0.155   0.405  0.00  0.00     0.078 C 
ATOM      2  C1' OXE d   1      -0.053   1.435  -1.903  0.00  0.00     0.078 C 
ATOM      3  C1  OXE d   1       0.752   1.856  -0.699  0.00  0.00    -0.078 A 
ATOM      4  C2  OXE d   1       0.628   1.099   0.441  0.00  0.00    -0.078 A 
ATOM      5  C3  OXE d   1       1.391   1.411   1.563  0.00  0.00     0.003 A 
ATOM      6  C4  OXE d   1       2.165   2.577   1.591  0.00  0.00    -0.002 A 
ATOM      7  C5  OXE d   1       2.274   3.385   0.454  0.00  0.00    -0.002 A 
ATOM      8  C6  OXE d   1       1.609   3.016  -0.710  0.00  0.00     0.003 A 
ENDROOT
TORSDOF 0
ENDMDL
