MODEL 1
REMARK minimizedAffinity -3.17279506
REMARK minimizedRMSD -1
REMARK  0 active torsions:
REMARK  status: ('A' for Active; 'I' for Inactive)
ROOT
ATOM      1  C2' OXE d   1      -0.310  -0.950   0.639  0.00  0.00     0.078 C 
ATOM      2  C1' OXE d   1       0.065   0.622  -1.656  0.00  0.00     0.078 C 
ATOM      3  C1  OXE d   1       0.536   1.181  -0.337  0.00  0.00    -0.078 A 
ATOM      4  C2  OXE d   1       0.306   0.425   0.788  0.00  0.00    -0.078 A 
ATOM      5  C3  OXE d   1       0.769   0.868   2.023  0.00  0.00     0.003 A 
ATOM      6  C4  OXE d   1       1.329   2.145   2.153  0.00  0.00    -0.002 A 
ATOM      7  C5  OXE d   1       1.536   2.948   1.027  0.00  0.00    -0.002 A 
ATOM      8  C6  OXE d   1       1.184   2.464  -0.229  0.00  0.00     0.003 A 
ENDROOT
TORSDOF 0
ENDMDL
