MODEL 1
REMARK minimizedAffinity -2.15785217
REMARK minimizedRMSD -1
REMARK  0 active torsions:
REMARK  status: ('A' for Active; 'I' for Inactive)
ROOT
ATOM      1  C2' OXE d   1      -0.985  -2.642   0.752  0.00  0.00     0.078 C 
ATOM      2  C1' OXE d   1      -0.064  -2.072  -1.837  0.00  0.00     0.078 C 
ATOM      3  C1  OXE d   1      -0.165  -0.929  -0.859  0.00  0.00    -0.078 A 
ATOM      4  C2  OXE d   1      -0.661  -1.209   0.392  0.00  0.00    -0.078 A 
ATOM      5  C3  OXE d   1      -0.724  -0.201   1.350  0.00  0.00     0.003 A 
ATOM      6  C4  OXE d   1      -0.431   1.124   1.006  0.00  0.00    -0.002 A 
ATOM      7  C5  OXE d   1       0.038   1.438  -0.274  0.00  0.00    -0.002 A 
ATOM      8  C6  OXE d   1       0.217   0.419  -1.203  0.00  0.00     0.003 A 
ENDROOT
TORSDOF 0
ENDMDL
