MODEL 1
REMARK minimizedAffinity -2.56038117
REMARK minimizedRMSD -1
REMARK  0 active torsions:
REMARK  status: ('A' for Active; 'I' for Inactive)
ROOT
ATOM      1  C2' OXE d   1      -0.007  -0.182  -2.071  0.00  0.00     0.078 C 
ATOM      2  C1' OXE d   1       0.764   1.430   0.094  0.00  0.00     0.078 C 
ATOM      3  C1  OXE d   1       0.028   0.149   0.398  0.00  0.00    -0.078 A 
ATOM      4  C2  OXE d   1      -0.387  -0.611  -0.670  0.00  0.00    -0.078 A 
ATOM      5  C3  OXE d   1      -1.021  -1.829  -0.444  0.00  0.00     0.003 A 
ATOM      6  C4  OXE d   1      -1.377  -2.213   0.854  0.00  0.00    -0.002 A 
ATOM      7  C5  OXE d   1      -1.000  -1.435   1.954  0.00  0.00    -0.002 A 
ATOM      8  C6  OXE d   1      -0.261  -0.275   1.746  0.00  0.00     0.003 A 
ENDROOT
TORSDOF 0
ENDMDL
