MODEL 1
REMARK minimizedAffinity -3.13594651
REMARK minimizedRMSD -1
REMARK  0 active torsions:
REMARK  status: ('A' for Active; 'I' for Inactive)
ROOT
ATOM      1  C2' OXE d   1       0.018   1.204  -1.145  0.00  0.00     0.078 C 
ATOM      2  C1' OXE d   1       0.403  -1.238  -2.473  0.00  0.00     0.078 C 
ATOM      3  C1  OXE d   1      -0.144  -1.280  -1.069  0.00  0.00    -0.078 A 
ATOM      4  C2  OXE d   1      -0.286  -0.083  -0.409  0.00  0.00    -0.078 A 
ATOM      5  C3  OXE d   1      -0.838  -0.061   0.868  0.00  0.00     0.003 A 
ATOM      6  C4  OXE d   1      -1.107  -1.257   1.545  0.00  0.00    -0.002 A 
ATOM      7  C5  OXE d   1      -0.932  -2.489   0.906  0.00  0.00    -0.002 A 
ATOM      8  C6  OXE d   1      -0.493  -2.516  -0.413  0.00  0.00     0.003 A 
ENDROOT
TORSDOF 0
ENDMDL
