MODEL 1
REMARK minimizedAffinity -3.97656655
REMARK minimizedRMSD -1
REMARK  0 active torsions:
REMARK  status: ('A' for Active; 'I' for Inactive)
ROOT
ATOM      1  O1  BZF d   1       1.535   0.012  -0.724  0.00  0.00    -0.204 OA
ATOM      2  C2  BZF d   1       0.770  -0.512  -1.748  0.00  0.00     0.174 A 
ATOM      3  C3  BZF d   1      -0.520  -0.623  -1.372  0.00  0.00    -0.012 A 
ATOM      4  C3A BZF d   1      -0.581  -0.052  -0.062  0.00  0.00    -0.107 A 
ATOM      5  C4  BZF d   1      -1.596   0.143   0.831  0.00  0.00     0.055 A 
ATOM      6  C5  BZF d   1      -1.309   0.661   2.054  0.00  0.00    -0.016 A 
ATOM      7  C6  BZF d   1      -0.020   0.990   2.419  0.00  0.00     0.022 A 
ATOM      8  C7  BZF d   1       1.019   0.818   1.566  0.00  0.00     0.029 A 
ATOM      9  C7A BZF d   1       0.728   0.326   0.317  0.00  0.00     0.058 A 
ENDROOT
TORSDOF 0
ENDMDL
