MODEL 1
REMARK minimizedAffinity -5.23678493
REMARK minimizedRMSD -1
REMARK  0 active torsions:
REMARK  status: ('A' for Active; 'I' for Inactive)
ROOT
ATOM      1  O1  BZF d   1      -0.602  -0.555  -0.703  0.00  0.00    -0.204 OA
ATOM      2  C2  BZF d   1       0.674  -0.986  -1.012  0.00  0.00     0.174 A 
ATOM      3  C3  BZF d   1       1.568  -0.512  -0.122  0.00  0.00    -0.012 A 
ATOM      4  C3A BZF d   1       0.792   0.188   0.855  0.00  0.00    -0.107 A 
ATOM      5  C4  BZF d   1       1.110   0.864   1.999  0.00  0.00     0.055 A 
ATOM      6  C5  BZF d   1       0.125   1.497   2.687  0.00  0.00    -0.016 A 
ATOM      7  C6  BZF d   1      -1.187   1.480   2.259  0.00  0.00     0.022 A 
ATOM      8  C7  BZF d   1      -1.551   0.818   1.134  0.00  0.00     0.029 A 
ATOM      9  C7A BZF d   1      -0.563   0.150   0.454  0.00  0.00     0.058 A 
ENDROOT
TORSDOF 0
ENDMDL
