MODEL 1
REMARK minimizedAffinity -1.33287477
REMARK minimizedRMSD -1
REMARK  0 active torsions:
REMARK  status: ('A' for Active; 'I' for Inactive)
ROOT
ATOM      1  O1  BZF d   1       1.368   0.047   2.036  0.00  0.00    -0.204 OA
ATOM      2  C2  BZF d   1       2.115  -0.447   0.984  0.00  0.00     0.174 A 
ATOM      3  C3  BZF d   1       1.317  -0.816  -0.038  0.00  0.00    -0.012 A 
ATOM      4  C3A BZF d   1      -0.006  -0.450   0.366  0.00  0.00    -0.107 A 
ATOM      5  C4  BZF d   1      -1.230  -0.546  -0.231  0.00  0.00     0.055 A 
ATOM      6  C5  BZF d   1      -2.335  -0.163   0.462  0.00  0.00    -0.016 A 
ATOM      7  C6  BZF d   1      -2.252   0.316   1.753  0.00  0.00     0.022 A 
ATOM      8  C7  BZF d   1      -1.059   0.435   2.385  0.00  0.00     0.029 A 
ATOM      9  C7A BZF d   1       0.062   0.079   1.676  0.00  0.00     0.058 A 
ENDROOT
TORSDOF 0
ENDMDL
