MODEL 1
REMARK minimizedAffinity -5.08276939
REMARK minimizedRMSD -1
REMARK  0 active torsions:
REMARK  status: ('A' for Active; 'I' for Inactive)
ROOT
ATOM      1  O1  BZF d   1      -2.197   0.211   0.712  0.00  0.00    -0.204 OA
ATOM      2  C2  BZF d   1      -1.911  -0.499  -0.438  0.00  0.00     0.174 A 
ATOM      3  C3  BZF d   1      -0.579  -0.596  -0.622  0.00  0.00    -0.012 A 
ATOM      4  C3A BZF d   1       0.006   0.018   0.531  0.00  0.00    -0.107 A 
ATOM      5  C4  BZF d   1       1.294   0.218   0.936  0.00  0.00     0.055 A 
ATOM      6  C5  BZF d   1       1.526   0.916   2.079  0.00  0.00    -0.016 A 
ATOM      7  C6  BZF d   1       0.495   1.432   2.837  0.00  0.00     0.022 A 
ATOM      8  C7  BZF d   1      -0.799   1.255   2.478  0.00  0.00     0.029 A 
ATOM      9  C7A BZF d   1      -1.038   0.522   1.341  0.00  0.00     0.058 A 
ENDROOT
TORSDOF 0
ENDMDL
