MODEL 1
REMARK minimizedAffinity -3.50998759
REMARK minimizedRMSD -1
REMARK  0 active torsions:
REMARK  status: ('A' for Active; 'I' for Inactive)
ROOT
ATOM      1  O1  BZF d   1       0.344   0.714   2.423  0.00  0.00    -0.204 OA
ATOM      2  C2  BZF d   1      -0.885   1.090   2.931  0.00  0.00     0.174 A 
ATOM      3  C3  BZF d   1      -1.857   0.908   2.014  0.00  0.00    -0.012 A 
ATOM      4  C3A BZF d   1      -1.209   0.300   0.893  0.00  0.00    -0.107 A 
ATOM      5  C4  BZF d   1      -1.650  -0.136  -0.324  0.00  0.00     0.055 A 
ATOM      6  C5  BZF d   1      -0.748  -0.615  -1.221  0.00  0.00    -0.016 A 
ATOM      7  C6  BZF d   1       0.601  -0.667  -0.936  0.00  0.00     0.022 A 
ATOM      8  C7  BZF d   1       1.085  -0.251   0.259  0.00  0.00     0.029 A 
ATOM      9  C7A BZF d   1       0.172   0.203   1.180  0.00  0.00     0.058 A 
ENDROOT
TORSDOF 0
ENDMDL
