MODEL 1
REMARK minimizedAffinity -2.06617713
REMARK minimizedRMSD -1
REMARK  0 active torsions:
REMARK  status: ('A' for Active; 'I' for Inactive)
ROOT
ATOM      1  O1  BZF d   1       0.536   0.673   0.095  0.00  0.00    -0.204 OA
ATOM      2  C2  BZF d   1      -0.467  -0.222   0.413  0.00  0.00     0.174 A 
ATOM      3  C3  BZF d   1      -0.799  -0.969  -0.660  0.00  0.00    -0.012 A 
ATOM      4  C3A BZF d   1       0.113  -0.576  -1.689  0.00  0.00    -0.107 A 
ATOM      5  C4  BZF d   1       0.296  -0.973  -2.983  0.00  0.00     0.055 A 
ATOM      6  C5  BZF d   1       1.227  -0.338  -3.743  0.00  0.00    -0.016 A 
ATOM      7  C6  BZF d   1       1.989   0.698  -3.244  0.00  0.00     0.022 A 
ATOM      8  C7  BZF d   1       1.847   1.123  -1.965  0.00  0.00     0.029 A 
ATOM      9  C7A BZF d   1       0.930   0.462  -1.184  0.00  0.00     0.058 A 
ENDROOT
TORSDOF 0
ENDMDL
