MODEL 1
REMARK minimizedAffinity -0.860503793
REMARK minimizedRMSD -1
REMARK  0 active torsions:
REMARK  status: ('A' for Active; 'I' for Inactive)
ROOT
ATOM      1  O1  BZF d   1       1.769   0.785  -2.223  0.00  0.00    -0.204 OA
ATOM      2  C2  BZF d   1       1.125   0.370  -3.373  0.00  0.00     0.174 A 
ATOM      3  C3  BZF d   1       0.042  -0.375  -3.073  0.00  0.00    -0.012 A 
ATOM      4  C3A BZF d   1      -0.046  -0.353  -1.645  0.00  0.00    -0.107 A 
ATOM      5  C4  BZF d   1      -0.922  -0.898  -0.750  0.00  0.00     0.055 A 
ATOM      6  C5  BZF d   1      -0.684  -0.750   0.580  0.00  0.00    -0.016 A 
ATOM      7  C6  BZF d   1       0.419  -0.068   1.049  0.00  0.00     0.022 A 
ATOM      8  C7  BZF d   1       1.313   0.495   0.199  0.00  0.00     0.029 A 
ATOM      9  C7A BZF d   1       1.058   0.375  -1.145  0.00  0.00     0.058 A 
ENDROOT
TORSDOF 0
ENDMDL
