MODEL 1
REMARK minimizedAffinity 30.6498833
REMARK minimizedRMSD -1
REMARK  0 active torsions:
REMARK  status: ('A' for Active; 'I' for Inactive)
ROOT
ATOM      1  C   UNL d   1      -0.812  -1.380   1.702  0.00  0.00     0.124 A 
ATOM      2  C1  UNL d   1      -1.858  -0.482   1.861  0.00  0.00     0.062 A 
ATOM      3  C2  UNL d   1      -2.509  -0.375   3.087  0.00  0.00     0.162 A 
ATOM      4  C3  UNL d   1      -2.113  -1.167   4.165  0.00  0.00    -0.034 A 
ATOM      5  C4  UNL d   1      -1.061  -2.068   3.998  0.00  0.00     0.162 A 
ATOM      6  C5  UNL d   1      -0.414  -2.172   2.770  0.00  0.00     0.062 A 
ATOM      7  F   UNL d   1       0.597  -3.040   2.619  0.00  0.00    -0.097 F 
ATOM      8  F1  UNL d   1      -0.655  -2.845   5.013  0.00  0.00    -0.096 F 
ATOM      9  I   UNL d   1      -3.083  -1.009   6.000  0.00  0.00    -0.060 I 
ATOM     10  F2  UNL d   1      -3.517   0.501   3.212  0.00  0.00    -0.096 F 
ATOM     11  F3  UNL d   1      -2.245   0.283   0.830  0.00  0.00    -0.097 F 
ATOM     12  F4  UNL d   1      -0.189  -1.482   0.521  0.00  0.00    -0.092 F 
ENDROOT
TORSDOF 0
ENDMDL
