MODEL 1
REMARK minimizedAffinity 12.6490526
REMARK minimizedRMSD -1
REMARK  0 active torsions:
REMARK  status: ('A' for Active; 'I' for Inactive)
ROOT
ATOM      1  C   UNL d   1      -4.466   0.380   1.799  0.00  0.00     0.124 A 
ATOM      2  C1  UNL d   1      -3.437  -0.509   1.521  0.00  0.00     0.062 A 
ATOM      3  C2  UNL d   1      -2.112  -0.128   1.712  0.00  0.00     0.162 A 
ATOM      4  C3  UNL d   1      -1.808   1.149   2.184  0.00  0.00    -0.034 A 
ATOM      5  C4  UNL d   1      -2.848   2.038   2.461  0.00  0.00     0.162 A 
ATOM      6  C5  UNL d   1      -4.171   1.652   2.269  0.00  0.00     0.062 A 
ATOM      7  F   UNL d   1      -5.163   2.512   2.538  0.00  0.00    -0.097 F 
ATOM      8  F1  UNL d   1      -2.591   3.273   2.916  0.00  0.00    -0.096 F 
ATOM      9  I   UNL d   1       0.172   1.723   2.470  0.00  0.00    -0.060 I 
ATOM     10  F2  UNL d   1      -1.138  -1.007   1.435  0.00  0.00    -0.096 F 
ATOM     11  F3  UNL d   1      -3.719  -1.738   1.066  0.00  0.00    -0.097 F 
ATOM     12  F4  UNL d   1      -5.740   0.011   1.614  0.00  0.00    -0.092 F 
ENDROOT
TORSDOF 0
ENDMDL
