MODEL 1
REMARK minimizedAffinity 20.5354729
REMARK minimizedRMSD -1
REMARK  0 active torsions:
REMARK  status: ('A' for Active; 'I' for Inactive)
ROOT
ATOM      1  C   UNL d   1       0.839   0.090  -2.579  0.00  0.00     0.124 A 
ATOM      2  C1  UNL d   1       0.854   1.460  -2.353  0.00  0.00     0.062 A 
ATOM      3  C2  UNL d   1       1.678   2.286  -3.111  0.00  0.00     0.162 A 
ATOM      4  C3  UNL d   1       2.495   1.745  -4.104  0.00  0.00    -0.034 A 
ATOM      5  C4  UNL d   1       2.476   0.367  -4.325  0.00  0.00     0.162 A 
ATOM      6  C5  UNL d   1       1.650  -0.454  -3.565  0.00  0.00     0.062 A 
ATOM      7  F   UNL d   1       1.637  -1.777  -3.785  0.00  0.00    -0.097 F 
ATOM      8  F1  UNL d   1       3.248  -0.186  -5.272  0.00  0.00    -0.096 F 
ATOM      9  I   UNL d   1       3.729   2.977  -5.239  0.00  0.00    -0.060 I 
ATOM     10  F2  UNL d   1       1.672   3.606  -2.870  0.00  0.00    -0.096 F 
ATOM     11  F3  UNL d   1       0.072   1.989  -1.400  0.00  0.00    -0.097 F 
ATOM     12  F4  UNL d   1       0.045  -0.702  -1.848  0.00  0.00    -0.092 F 
ENDROOT
TORSDOF 0
ENDMDL
