MODEL 1
REMARK minimizedAffinity 19.4940453
REMARK minimizedRMSD -1
REMARK  0 active torsions:
REMARK  status: ('A' for Active; 'I' for Inactive)
ROOT
ATOM      1  C   UNL d   1      -1.332  -0.137   1.549  0.00  0.00     0.124 A 
ATOM      2  C1  UNL d   1      -1.816  -0.545   2.785  0.00  0.00     0.062 A 
ATOM      3  C2  UNL d   1      -2.769   0.220   3.451  0.00  0.00     0.162 A 
ATOM      4  C3  UNL d   1      -3.246   1.401   2.882  0.00  0.00    -0.034 A 
ATOM      5  C4  UNL d   1      -2.754   1.805   1.640  0.00  0.00     0.162 A 
ATOM      6  C5  UNL d   1      -1.802   1.037   0.978  0.00  0.00     0.062 A 
ATOM      7  F   UNL d   1      -1.336   1.433  -0.216  0.00  0.00    -0.097 F 
ATOM      8  F1  UNL d   1      -3.191   2.935   1.064  0.00  0.00    -0.096 F 
ATOM      9  I   UNL d   1      -4.671   2.548   3.875  0.00  0.00    -0.060 I 
ATOM     10  F2  UNL d   1      -3.218  -0.199   4.643  0.00  0.00    -0.096 F 
ATOM     11  F3  UNL d   1      -1.363  -1.679   3.339  0.00  0.00    -0.097 F 
ATOM     12  F4  UNL d   1      -0.415  -0.875   0.911  0.00  0.00    -0.092 F 
ENDROOT
TORSDOF 0
ENDMDL
