MODEL 1
REMARK minimizedAffinity 26.1398888
REMARK minimizedRMSD -1
REMARK  0 active torsions:
REMARK  status: ('A' for Active; 'I' for Inactive)
ROOT
ATOM      1  C   UNL d   1       2.119  -0.575  -4.662  0.00  0.00     0.124 A 
ATOM      2  C1  UNL d   1       1.007  -1.398  -4.556  0.00  0.00     0.062 A 
ATOM      3  C2  UNL d   1      -0.248  -0.931  -4.937  0.00  0.00     0.162 A 
ATOM      4  C3  UNL d   1      -0.397   0.366  -5.429  0.00  0.00    -0.034 A 
ATOM      5  C4  UNL d   1       0.727   1.188  -5.531  0.00  0.00     0.162 A 
ATOM      6  C5  UNL d   1       1.978   0.717  -5.149  0.00  0.00     0.062 A 
ATOM      7  F   UNL d   1       3.052   1.513  -5.252  0.00  0.00    -0.097 F 
ATOM      8  F1  UNL d   1       0.619   2.440  -6.000  0.00  0.00    -0.096 F 
ATOM      9  I   UNL d   1      -2.271   1.068  -6.000  0.00  0.00    -0.060 I 
ATOM     10  F2  UNL d   1      -1.306  -1.748  -4.824  0.00  0.00    -0.096 F 
ATOM     11  F3  UNL d   1       1.140  -2.646  -4.085  0.00  0.00    -0.097 F 
ATOM     12  F4  UNL d   1       3.325  -1.027  -4.294  0.00  0.00    -0.092 F 
ENDROOT
TORSDOF 0
ENDMDL
