MODEL 1
REMARK minimizedAffinity 22.1549072
REMARK minimizedRMSD -1
REMARK  0 active torsions:
REMARK  status: ('A' for Active; 'I' for Inactive)
ROOT
ATOM      1  C   UNL d   1      -2.307   0.784  -0.283  0.00  0.00     0.124 A 
ATOM      2  C1  UNL d   1      -3.133  -0.308  -0.058  0.00  0.00     0.062 A 
ATOM      3  C2  UNL d   1      -2.974  -1.082   1.088  0.00  0.00     0.162 A 
ATOM      4  C3  UNL d   1      -1.985  -0.766   2.019  0.00  0.00    -0.034 A 
ATOM      5  C4  UNL d   1      -1.158   0.334   1.785  0.00  0.00     0.162 A 
ATOM      6  C5  UNL d   1      -1.321   1.104   0.639  0.00  0.00     0.062 A 
ATOM      7  F   UNL d   1      -0.522   2.160   0.423  0.00  0.00    -0.097 F 
ATOM      8  F1  UNL d   1      -0.197   0.667   2.660  0.00  0.00    -0.096 F 
ATOM      9  I   UNL d   1      -1.744  -1.920   3.734  0.00  0.00    -0.060 I 
ATOM     10  F2  UNL d   1      -3.787  -2.132   1.279  0.00  0.00    -0.096 F 
ATOM     11  F3  UNL d   1      -4.087  -0.620  -0.948  0.00  0.00    -0.097 F 
ATOM     12  F4  UNL d   1      -2.462   1.527  -1.387  0.00  0.00    -0.092 F 
ENDROOT
TORSDOF 0
ENDMDL
