MODEL 1
REMARK minimizedAffinity 14.6846046
REMARK minimizedRMSD -1
REMARK  0 active torsions:
REMARK  status: ('A' for Active; 'I' for Inactive)
ROOT
ATOM      1  C   UNL d   1      -3.972   0.240   2.075  0.00  0.00     0.124 A 
ATOM      2  C1  UNL d   1      -3.065   0.950   1.301  0.00  0.00     0.062 A 
ATOM      3  C2  UNL d   1      -1.707   0.913   1.604  0.00  0.00     0.162 A 
ATOM      4  C3  UNL d   1      -1.247   0.163   2.686  0.00  0.00    -0.034 A 
ATOM      5  C4  UNL d   1      -2.166  -0.548   3.461  0.00  0.00     0.162 A 
ATOM      6  C5  UNL d   1      -3.522  -0.507   3.154  0.00  0.00     0.062 A 
ATOM      7  F   UNL d   1      -4.397  -1.194   3.903  0.00  0.00    -0.097 F 
ATOM      8  F1  UNL d   1      -1.758  -1.279   4.508  0.00  0.00    -0.096 F 
ATOM      9  I   UNL d   1       0.783   0.105   3.142  0.00  0.00    -0.060 I 
ATOM     10  F2  UNL d   1      -0.852   1.608   0.838  0.00  0.00    -0.096 F 
ATOM     11  F3  UNL d   1      -3.497   1.674   0.258  0.00  0.00    -0.097 F 
ATOM     12  F4  UNL d   1      -5.278   0.278   1.782  0.00  0.00    -0.092 F 
ENDROOT
TORSDOF 0
ENDMDL
