MODEL 1
REMARK minimizedAffinity 21.1127892
REMARK minimizedRMSD -1
REMARK  0 active torsions:
REMARK  status: ('A' for Active; 'I' for Inactive)
ROOT
ATOM      1  C   UNL d   1      -2.395   0.369   1.914  0.00  0.00     0.124 A 
ATOM      2  C1  UNL d   1      -3.708  -0.019   1.686  0.00  0.00     0.062 A 
ATOM      3  C2  UNL d   1      -4.739   0.911   1.775  0.00  0.00     0.162 A 
ATOM      4  C3  UNL d   1      -4.461   2.241   2.094  0.00  0.00    -0.034 A 
ATOM      5  C4  UNL d   1      -3.138   2.624   2.323  0.00  0.00     0.162 A 
ATOM      6  C5  UNL d   1      -2.111   1.690   2.232  0.00  0.00     0.062 A 
ATOM      7  F   UNL d   1      -0.843   2.067   2.452  0.00  0.00    -0.097 F 
ATOM      8  F1  UNL d   1      -2.836   3.894   2.631  0.00  0.00    -0.096 F 
ATOM      9  I   UNL d   1      -6.000   3.636   2.229  0.00  0.00    -0.060 I 
ATOM     10  F2  UNL d   1      -5.998   0.508   1.550  0.00  0.00    -0.096 F 
ATOM     11  F3  UNL d   1      -3.985  -1.295   1.379  0.00  0.00    -0.097 F 
ATOM     12  F4  UNL d   1      -1.405  -0.529   1.828  0.00  0.00    -0.092 F 
ENDROOT
TORSDOF 0
ENDMDL
