MODEL 1
REMARK minimizedAffinity 13.6384497
REMARK minimizedRMSD -1
REMARK  0 active torsions:
REMARK  status: ('A' for Active; 'I' for Inactive)
ROOT
ATOM      1  C   UNL d   1       3.031   4.261  -3.899  0.00  0.00     0.124 A 
ATOM      2  C1  UNL d   1       2.184   3.174  -3.734  0.00  0.00     0.062 A 
ATOM      3  C2  UNL d   1       2.485   1.954  -4.332  0.00  0.00     0.162 A 
ATOM      4  C3  UNL d   1       3.640   1.814  -5.103  0.00  0.00    -0.034 A 
ATOM      5  C4  UNL d   1       4.486   2.912  -5.266  0.00  0.00     0.162 A 
ATOM      6  C5  UNL d   1       4.181   4.129  -4.665  0.00  0.00     0.062 A 
ATOM      7  F   UNL d   1       5.000   5.178  -4.826  0.00  0.00    -0.097 F 
ATOM      8  F1  UNL d   1       5.605   2.813  -5.999  0.00  0.00    -0.096 F 
ATOM      9  I   UNL d   1       4.094  -0.008  -6.000  0.00  0.00    -0.060 I 
ATOM     10  F2  UNL d   1       1.649   0.920  -4.155  0.00  0.00    -0.096 F 
ATOM     11  F3  UNL d   1       1.072   3.299  -2.995  0.00  0.00    -0.097 F 
ATOM     12  F4  UNL d   1       2.738   5.434  -3.323  0.00  0.00    -0.092 F 
ENDROOT
TORSDOF 0
ENDMDL
