MODEL 1
REMARK minimizedAffinity 23.8432751
REMARK minimizedRMSD -1
REMARK  0 active torsions:
REMARK  status: ('A' for Active; 'I' for Inactive)
ROOT
ATOM      1  C   UNL d   1      -3.661  -3.017   0.518  0.00  0.00     0.124 A 
ATOM      2  C1  UNL d   1      -4.821  -2.258   0.469  0.00  0.00     0.062 A 
ATOM      3  C2  UNL d   1      -4.766  -0.881   0.668  0.00  0.00     0.162 A 
ATOM      4  C3  UNL d   1      -3.545  -0.255   0.917  0.00  0.00    -0.034 A 
ATOM      5  C4  UNL d   1      -2.382  -1.026   0.966  0.00  0.00     0.162 A 
ATOM      6  C5  UNL d   1      -2.443  -2.401   0.766  0.00  0.00     0.062 A 
ATOM      7  F   UNL d   1      -1.320  -3.133   0.814  0.00  0.00    -0.097 F 
ATOM      8  F1  UNL d   1      -1.191  -0.456   1.203  0.00  0.00    -0.096 F 
ATOM      9  I   UNL d   1      -3.458   1.803   1.216  0.00  0.00    -0.060 I 
ATOM     10  F2  UNL d   1      -5.903  -0.172   0.615  0.00  0.00    -0.096 F 
ATOM     11  F3  UNL d   1      -6.000  -2.851   0.230  0.00  0.00    -0.097 F 
ATOM     12  F4  UNL d   1      -3.717  -4.342   0.326  0.00  0.00    -0.092 F 
ENDROOT
TORSDOF 0
ENDMDL
