MODEL 1
REMARK minimizedAffinity 26.7586498
REMARK minimizedRMSD -1
REMARK  0 active torsions:
REMARK  status: ('A' for Active; 'I' for Inactive)
ROOT
ATOM      1  C   UNL d   1      -3.650  -3.583   0.368  0.00  0.00     0.124 A 
ATOM      2  C1  UNL d   1      -4.790  -2.793   0.416  0.00  0.00     0.062 A 
ATOM      3  C2  UNL d   1      -4.682  -1.418   0.602  0.00  0.00     0.162 A 
ATOM      4  C3  UNL d   1      -3.428  -0.823   0.742  0.00  0.00    -0.034 A 
ATOM      5  C4  UNL d   1      -2.286  -1.624   0.693  0.00  0.00     0.162 A 
ATOM      6  C5  UNL d   1      -2.399  -2.998   0.507  0.00  0.00     0.062 A 
ATOM      7  F   UNL d   1      -1.296  -3.759   0.461  0.00  0.00    -0.097 F 
ATOM      8  F1  UNL d   1      -1.064  -1.085   0.824  0.00  0.00    -0.096 F 
ATOM      9  I   UNL d   1      -3.262   1.233   1.021  0.00  0.00    -0.060 I 
ATOM     10  F2  UNL d   1      -5.801  -0.679   0.645  0.00  0.00    -0.096 F 
ATOM     11  F3  UNL d   1      -6.000  -3.356   0.283  0.00  0.00    -0.097 F 
ATOM     12  F4  UNL d   1      -3.757  -4.906   0.189  0.00  0.00    -0.092 F 
ENDROOT
TORSDOF 0
ENDMDL
