MODEL 1
REMARK minimizedAffinity 34.0895081
REMARK minimizedRMSD -1
REMARK  0 active torsions:
REMARK  status: ('A' for Active; 'I' for Inactive)
ROOT
ATOM      1  C   UNL d   1      -2.464   0.983   0.986  0.00  0.00     0.124 A 
ATOM      2  C1  UNL d   1      -1.931   2.260   1.100  0.00  0.00     0.062 A 
ATOM      3  C2  UNL d   1      -2.768   3.352   1.305  0.00  0.00     0.162 A 
ATOM      4  C3  UNL d   1      -4.149   3.173   1.398  0.00  0.00    -0.034 A 
ATOM      5  C4  UNL d   1      -4.678   1.887   1.282  0.00  0.00     0.162 A 
ATOM      6  C5  UNL d   1      -3.836   0.798   1.077  0.00  0.00     0.062 A 
ATOM      7  F   UNL d   1      -4.353  -0.435   0.967  0.00  0.00    -0.097 F 
ATOM      8  F1  UNL d   1      -6.000   1.679   1.367  0.00  0.00    -0.096 F 
ATOM      9  I   UNL d   1      -5.404   4.805   1.705  0.00  0.00    -0.060 I 
ATOM     10  F2  UNL d   1      -2.226   4.574   1.411  0.00  0.00    -0.096 F 
ATOM     11  F3  UNL d   1      -0.605   2.441   1.011  0.00  0.00    -0.097 F 
ATOM     12  F4  UNL d   1      -1.656  -0.066   0.788  0.00  0.00    -0.092 F 
ENDROOT
TORSDOF 0
ENDMDL
