MODEL 1
REMARK minimizedAffinity 22.7989979
REMARK minimizedRMSD -1
REMARK  0 active torsions:
REMARK  status: ('A' for Active; 'I' for Inactive)
ROOT
ATOM      1  C   UNL d   1       2.296   0.285  -3.211  0.00  0.00     0.124 A 
ATOM      2  C1  UNL d   1       2.314   1.579  -2.709  0.00  0.00     0.062 A 
ATOM      3  C2  UNL d   1       3.103   2.553  -3.314  0.00  0.00     0.162 A 
ATOM      4  C3  UNL d   1       3.879   2.237  -4.430  0.00  0.00    -0.034 A 
ATOM      5  C4  UNL d   1       3.856   0.933  -4.928  0.00  0.00     0.162 A 
ATOM      6  C5  UNL d   1       3.066  -0.037  -4.319  0.00  0.00     0.062 A 
ATOM      7  F   UNL d   1       3.050  -1.286  -4.805  0.00  0.00    -0.097 F 
ATOM      8  F1  UNL d   1       4.590   0.596  -5.999  0.00  0.00    -0.096 F 
ATOM      9  I   UNL d   1       5.059   3.691  -5.338  0.00  0.00    -0.060 I 
ATOM     10  F2  UNL d   1       3.101   3.795  -2.808  0.00  0.00    -0.096 F 
ATOM     11  F3  UNL d   1       1.572   1.891  -1.637  0.00  0.00    -0.097 F 
ATOM     12  F4  UNL d   1       1.537  -0.651  -2.626  0.00  0.00    -0.092 F 
ENDROOT
TORSDOF 0
ENDMDL
