MODEL 1
REMARK minimizedAffinity 24.4055576
REMARK minimizedRMSD -1
REMARK  0 active torsions:
REMARK  status: ('A' for Active; 'I' for Inactive)
ROOT
ATOM      1  C   UNL d   1      -2.830  -1.702   0.811  0.00  0.00     0.124 A 
ATOM      2  C1  UNL d   1      -2.137  -2.898   0.934  0.00  0.00     0.062 A 
ATOM      3  C2  UNL d   1      -2.743  -4.098   0.576  0.00  0.00     0.162 A 
ATOM      4  C3  UNL d   1      -4.051  -4.108   0.089  0.00  0.00    -0.034 A 
ATOM      5  C4  UNL d   1      -4.742  -2.901  -0.031  0.00  0.00     0.162 A 
ATOM      6  C5  UNL d   1      -4.131  -1.704   0.329  0.00  0.00     0.062 A 
ATOM      7  F   UNL d   1      -4.802  -0.549   0.210  0.00  0.00    -0.097 F 
ATOM      8  F1  UNL d   1      -6.000  -2.875  -0.495  0.00  0.00    -0.096 F 
ATOM      9  I   UNL d   1      -4.961  -5.901  -0.448  0.00  0.00    -0.060 I 
ATOM     10  F2  UNL d   1      -2.050  -5.239   0.705  0.00  0.00    -0.096 F 
ATOM     11  F3  UNL d   1      -0.880  -2.898   1.401  0.00  0.00    -0.097 F 
ATOM     12  F4  UNL d   1      -2.244  -0.548   1.158  0.00  0.00    -0.092 F 
ENDROOT
TORSDOF 0
ENDMDL
