MODEL 1
REMARK minimizedAffinity 19.6656914
REMARK minimizedRMSD -1
REMARK  0 active torsions:
REMARK  status: ('A' for Active; 'I' for Inactive)
ROOT
ATOM      1  C   UNL d   1      -2.391  -2.256   0.657  0.00  0.00     0.124 A 
ATOM      2  C1  UNL d   1      -1.562  -1.421   1.392  0.00  0.00     0.062 A 
ATOM      3  C2  UNL d   1      -1.876  -0.073   1.536  0.00  0.00     0.162 A 
ATOM      4  C3  UNL d   1      -3.027   0.449   0.945  0.00  0.00    -0.034 A 
ATOM      5  C4  UNL d   1      -3.856  -0.397   0.207  0.00  0.00     0.162 A 
ATOM      6  C5  UNL d   1      -3.537  -1.744   0.065  0.00  0.00     0.062 A 
ATOM      7  F   UNL d   1      -4.340  -2.550  -0.646  0.00  0.00    -0.097 F 
ATOM      8  F1  UNL d   1      -4.970   0.071  -0.375  0.00  0.00    -0.096 F 
ATOM      9  I   UNL d   1      -3.501   2.464   1.159  0.00  0.00    -0.060 I 
ATOM     10  F2  UNL d   1      -1.056   0.711   2.252  0.00  0.00    -0.096 F 
ATOM     11  F3  UNL d   1      -0.453  -1.913   1.964  0.00  0.00    -0.097 F 
ATOM     12  F4  UNL d   1      -2.086  -3.553   0.518  0.00  0.00    -0.092 F 
ENDROOT
TORSDOF 0
ENDMDL
