MODEL 1
REMARK minimizedAffinity 15.5101128
REMARK minimizedRMSD -1
REMARK  0 active torsions:
REMARK  status: ('A' for Active; 'I' for Inactive)
ROOT
ATOM      1  C   UNL d   1      -0.327   2.212   1.758  0.00  0.00     0.124 A 
ATOM      2  C1  UNL d   1      -0.798   3.361   2.378  0.00  0.00     0.062 A 
ATOM      3  C2  UNL d   1      -2.126   3.748   2.218  0.00  0.00     0.162 A 
ATOM      4  C3  UNL d   1      -2.993   2.985   1.437  0.00  0.00    -0.034 A 
ATOM      5  C4  UNL d   1      -2.511   1.831   0.816  0.00  0.00     0.162 A 
ATOM      6  C5  UNL d   1      -1.184   1.448   0.978  0.00  0.00     0.062 A 
ATOM      7  F   UNL d   1      -0.731   0.337   0.379  0.00  0.00    -0.097 F 
ATOM      8  F1  UNL d   1      -3.318   1.073   0.058  0.00  0.00    -0.096 F 
ATOM      9  I   UNL d   1      -4.978   3.560   1.196  0.00  0.00    -0.060 I 
ATOM     10  F2  UNL d   1      -2.553   4.864   2.829  0.00  0.00    -0.096 F 
ATOM     11  F3  UNL d   1       0.028   4.101   3.131  0.00  0.00    -0.097 F 
ATOM     12  F4  UNL d   1       0.951   1.842   1.912  0.00  0.00    -0.092 F 
ENDROOT
TORSDOF 0
ENDMDL
