MODEL 1
REMARK minimizedAffinity 18.0232944
REMARK minimizedRMSD -1
REMARK  0 active torsions:
REMARK  status: ('A' for Active; 'I' for Inactive)
ROOT
ATOM      1  C   UNL d   1      -0.028   1.938   2.213  0.00  0.00     0.124 A 
ATOM      2  C1  UNL d   1      -0.963   1.194   1.505  0.00  0.00     0.062 A 
ATOM      3  C2  UNL d   1      -2.247   1.692   1.306  0.00  0.00     0.162 A 
ATOM      4  C3  UNL d   1      -2.605   2.941   1.814  0.00  0.00    -0.034 A 
ATOM      5  C4  UNL d   1      -1.660   3.682   2.526  0.00  0.00     0.162 A 
ATOM      6  C5  UNL d   1      -0.378   3.180   2.723  0.00  0.00     0.062 A 
ATOM      7  F   UNL d   1       0.523   3.900   3.407  0.00  0.00    -0.097 F 
ATOM      8  F1  UNL d   1      -1.971   4.886   3.029  0.00  0.00    -0.096 F 
ATOM      9  I   UNL d   1      -4.525   3.688   1.518  0.00  0.00    -0.060 I 
ATOM     10  F2  UNL d   1      -3.130   0.952   0.618  0.00  0.00    -0.096 F 
ATOM     11  F3  UNL d   1      -0.628  -0.007   1.013  0.00  0.00    -0.097 F 
ATOM     12  F4  UNL d   1       1.207   1.456   2.405  0.00  0.00    -0.092 F 
ENDROOT
TORSDOF 0
ENDMDL
