MODEL 1
REMARK minimizedAffinity 0.477870643
REMARK minimizedRMSD -1
REMARK  0 active torsions:
REMARK  status: ('A' for Active; 'I' for Inactive)
ROOT
ATOM      1  O1  BZF d   1       1.109  -0.135   0.137  0.00  0.00    -0.204 OA
ATOM      2  C2  BZF d   1       0.828   0.966  -0.650  0.00  0.00     0.174 A 
ATOM      3  C3  BZF d   1      -0.463   0.957  -1.040  0.00  0.00    -0.012 A 
ATOM      4  C3A BZF d   1      -1.047  -0.173  -0.386  0.00  0.00    -0.107 A 
ATOM      5  C4  BZF d   1      -2.307  -0.700  -0.366  0.00  0.00     0.055 A 
ATOM      6  C5  BZF d   1      -2.530  -1.854   0.315  0.00  0.00    -0.016 A 
ATOM      7  C6  BZF d   1      -1.516  -2.511   0.982  0.00  0.00     0.022 A 
ATOM      8  C7  BZF d   1      -0.251  -2.025   0.996  0.00  0.00     0.029 A 
ATOM      9  C7A BZF d   1      -0.030  -0.841   0.336  0.00  0.00     0.058 A 
ENDROOT
TORSDOF 0
ENDMDL
