MODEL 1
REMARK minimizedAffinity -5.79343939
REMARK minimizedRMSD -1
REMARK  0 active torsions:
REMARK  status: ('A' for Active; 'I' for Inactive)
ROOT
ATOM      1  O1  BZF d   1      -1.909   1.008   1.233  0.00  0.00    -0.204 OA
ATOM      2  C2  BZF d   1      -3.001   0.720   2.029  0.00  0.00     0.174 A 
ATOM      3  C3  BZF d   1      -3.144  -0.613   2.181  0.00  0.00    -0.012 A 
ATOM      4  C3A BZF d   1      -2.021  -1.190   1.509  0.00  0.00    -0.107 A 
ATOM      5  C4  BZF d   1      -1.597  -2.475   1.323  0.00  0.00     0.055 A 
ATOM      6  C5  BZF d   1      -0.498  -2.704   0.556  0.00  0.00    -0.016 A 
ATOM      7  C6  BZF d   1       0.196  -1.674  -0.043  0.00  0.00     0.022 A 
ATOM      8  C7  BZF d   1      -0.183  -0.382   0.116  0.00  0.00     0.029 A 
ATOM      9  C7A BZF d   1      -1.273  -0.146   0.918  0.00  0.00     0.058 A 
ENDROOT
TORSDOF 0
ENDMDL
