MODEL 1
REMARK minimizedAffinity -5.01933479
REMARK minimizedRMSD -1
REMARK  0 active torsions:
REMARK  status: ('A' for Active; 'I' for Inactive)
ROOT
ATOM      1  O1  BZF d   1      -0.898   0.808   0.070  0.00  0.00    -0.204 OA
ATOM      2  C2  BZF d   1       0.342   1.184  -0.411  0.00  0.00     0.174 A 
ATOM      3  C3  BZF d   1       1.252   0.212  -0.197  0.00  0.00    -0.012 A 
ATOM      4  C3A BZF d   1       0.517  -0.873   0.375  0.00  0.00    -0.107 A 
ATOM      5  C4  BZF d   1       0.865  -2.126   0.792  0.00  0.00     0.055 A 
ATOM      6  C5  BZF d   1      -0.077  -2.915   1.373  0.00  0.00    -0.016 A 
ATOM      7  C6  BZF d   1      -1.374  -2.481   1.557  0.00  0.00     0.022 A 
ATOM      8  C7  BZF d   1      -1.767  -1.248   1.155  0.00  0.00     0.029 A 
ATOM      9  C7A BZF d   1      -0.826  -0.461   0.538  0.00  0.00     0.058 A 
ENDROOT
TORSDOF 0
ENDMDL
