MODEL 1
REMARK minimizedAffinity -3.87207818
REMARK minimizedRMSD -1
REMARK  0 active torsions:
REMARK  status: ('A' for Active; 'I' for Inactive)
ROOT
ATOM      1  O1  BZF d   1      -0.439   1.327   0.158  0.00  0.00    -0.204 OA
ATOM      2  C2  BZF d   1       0.660   1.491  -0.663  0.00  0.00     0.174 A 
ATOM      3  C3  BZF d   1       1.195   0.297  -0.991  0.00  0.00    -0.012 A 
ATOM      4  C3A BZF d   1       0.324  -0.678  -0.409  0.00  0.00    -0.107 A 
ATOM      5  C4  BZF d   1       0.317  -2.043  -0.399  0.00  0.00     0.055 A 
ATOM      6  C5  BZF d   1      -0.632  -2.694   0.324  0.00  0.00    -0.016 A 
ATOM      7  C6  BZF d   1      -1.585  -2.011   1.051  0.00  0.00     0.022 A 
ATOM      8  C7  BZF d   1      -1.621  -0.657   1.068  0.00  0.00     0.029 A 
ATOM      9  C7A BZF d   1      -0.683   0.003   0.312  0.00  0.00     0.058 A 
ENDROOT
TORSDOF 0
ENDMDL
