MODEL 1
REMARK minimizedAffinity -1.74721563
REMARK minimizedRMSD -1
REMARK  0 active torsions:
REMARK  status: ('A' for Active; 'I' for Inactive)
ROOT
ATOM      1  O1  BZF d   1      -0.053   1.534   0.279  0.00  0.00    -0.204 OA
ATOM      2  C2  BZF d   1       0.986   0.915  -0.389  0.00  0.00     0.174 A 
ATOM      3  C3  BZF d   1       0.727  -0.397  -0.565  0.00  0.00    -0.012 A 
ATOM      4  C3A BZF d   1      -0.594  -0.592  -0.052  0.00  0.00    -0.107 A 
ATOM      5  C4  BZF d   1      -1.415  -1.680   0.039  0.00  0.00     0.055 A 
ATOM      6  C5  BZF d   1      -2.616  -1.550   0.660  0.00  0.00    -0.016 A 
ATOM      7  C6  BZF d   1      -3.027  -0.351   1.205  0.00  0.00     0.022 A 
ATOM      8  C7  BZF d   1      -2.250   0.757   1.134  0.00  0.00     0.029 A 
ATOM      9  C7A BZF d   1      -1.049   0.638   0.478  0.00  0.00     0.058 A 
ENDROOT
TORSDOF 0
ENDMDL
