MODEL 1
REMARK minimizedAffinity -1.26234245
REMARK minimizedRMSD -1
REMARK  0 active torsions:
REMARK  status: ('A' for Active; 'I' for Inactive)
ROOT
ATOM      1  O1  BZF d   1      -1.495   0.418   0.248  0.00  0.00    -0.204 OA
ATOM      2  C2  BZF d   1      -0.761   1.470  -0.265  0.00  0.00     0.174 A 
ATOM      3  C3  BZF d   1       0.561   1.213  -0.186  0.00  0.00    -0.012 A 
ATOM      4  C3A BZF d   1       0.656  -0.118   0.330  0.00  0.00    -0.107 A 
ATOM      5  C4  BZF d   1       1.707  -0.941   0.617  0.00  0.00     0.055 A 
ATOM      6  C5  BZF d   1       1.462  -2.154   1.178  0.00  0.00    -0.016 A 
ATOM      7  C6  BZF d   1       0.181  -2.574   1.469  0.00  0.00     0.022 A 
ATOM      8  C7  BZF d   1      -0.894  -1.795   1.197  0.00  0.00     0.029 A 
ATOM      9  C7A BZF d   1      -0.652  -0.582   0.600  0.00  0.00     0.058 A 
ENDROOT
TORSDOF 0
ENDMDL
