MODEL 1
REMARK minimizedAffinity -2.32212996
REMARK minimizedRMSD -1
REMARK  0 active torsions:
REMARK  status: ('A' for Active; 'I' for Inactive)
ROOT
ATOM      1  O1  BZF d   1       1.245  -0.462   1.099  0.00  0.00    -0.204 OA
ATOM      2  C2  BZF d   1       1.297   0.605   0.223  0.00  0.00     0.174 A 
ATOM      3  C3  BZF d   1       0.142   0.717  -0.464  0.00  0.00    -0.012 A 
ATOM      4  C3A BZF d   1      -0.717  -0.291   0.077  0.00  0.00    -0.107 A 
ATOM      5  C4  BZF d   1      -2.003  -0.668  -0.184  0.00  0.00     0.055 A 
ATOM      6  C5  BZF d   1      -2.524  -1.739   0.471  0.00  0.00    -0.016 A 
ATOM      7  C6  BZF d   1      -1.785  -2.459   1.387  0.00  0.00     0.022 A 
ATOM      8  C7  BZF d   1      -0.507  -2.120   1.683  0.00  0.00     0.029 A 
ATOM      9  C7A BZF d   1       0.011  -1.018   1.048  0.00  0.00     0.058 A 
ENDROOT
TORSDOF 0
ENDMDL
