MODEL 1
REMARK minimizedAffinity -5.11787653
REMARK minimizedRMSD -1
REMARK  0 active torsions:
REMARK  status: ('A' for Active; 'I' for Inactive)
ROOT
ATOM      1  O1  BZF d   1       1.573   0.477  -0.031  0.00  0.00    -0.204 OA
ATOM      2  C2  BZF d   1       0.660   1.476  -0.307  0.00  0.00     0.174 A 
ATOM      3  C3  BZF d   1      -0.602   1.006  -0.231  0.00  0.00    -0.012 A 
ATOM      4  C3A BZF d   1      -0.472  -0.351   0.204  0.00  0.00    -0.107 A 
ATOM      5  C4  BZF d   1      -1.374  -1.339   0.479  0.00  0.00     0.055 A 
ATOM      6  C5  BZF d   1      -0.918  -2.575   0.812  0.00  0.00    -0.016 A 
ATOM      7  C6  BZF d   1       0.430  -2.859   0.874  0.00  0.00     0.022 A 
ATOM      8  C7  BZF d   1       1.363  -1.911   0.614  0.00  0.00     0.029 A 
ATOM      9  C7A BZF d   1       0.905  -0.652   0.310  0.00  0.00     0.058 A 
ENDROOT
TORSDOF 0
ENDMDL
