MODEL 1
REMARK minimizedAffinity -5.32040739
REMARK minimizedRMSD -1
REMARK  0 active torsions:
REMARK  status: ('A' for Active; 'I' for Inactive)
ROOT
ATOM      1  O1  BZF d   1      -0.143   1.118   0.597  0.00  0.00    -0.204 OA
ATOM      2  C2  BZF d   1       0.992   0.623  -0.015  0.00  0.00     0.174 A 
ATOM      3  C3  BZF d   1       0.980  -0.725  -0.027  0.00  0.00    -0.012 A 
ATOM      4  C3A BZF d   1      -0.282  -1.095   0.535  0.00  0.00    -0.107 A 
ATOM      5  C4  BZF d   1      -0.887  -2.296   0.775  0.00  0.00     0.055 A 
ATOM      6  C5  BZF d   1      -2.092  -2.314   1.404  0.00  0.00    -0.016 A 
ATOM      7  C6  BZF d   1      -2.717  -1.153   1.809  0.00  0.00     0.022 A 
ATOM      8  C7  BZF d   1      -2.159   0.062   1.588  0.00  0.00     0.029 A 
ATOM      9  C7A BZF d   1      -0.956   0.085   0.924  0.00  0.00     0.058 A 
ENDROOT
TORSDOF 0
ENDMDL
