MODEL 1
REMARK minimizedAffinity -0.829762101
REMARK minimizedRMSD -1
REMARK  0 active torsions:
REMARK  status: ('A' for Active; 'I' for Inactive)
ROOT
ATOM      1  O1  BZF d   1      -1.087   0.236  -0.350  0.00  0.00    -0.204 OA
ATOM      2  C2  BZF d   1       0.125   0.859  -0.577  0.00  0.00     0.174 A 
ATOM      3  C3  BZF d   1       1.124   0.209   0.053  0.00  0.00    -0.012 A 
ATOM      4  C3A BZF d   1       0.511  -0.943   0.640  0.00  0.00    -0.107 A 
ATOM      5  C4  BZF d   1       0.989  -1.985   1.382  0.00  0.00     0.055 A 
ATOM      6  C5  BZF d   1       0.115  -2.909   1.863  0.00  0.00    -0.016 A 
ATOM      7  C6  BZF d   1      -1.241  -2.818   1.626  0.00  0.00     0.022 A 
ATOM      8  C7  BZF d   1      -1.761  -1.805   0.891  0.00  0.00     0.029 A 
ATOM      9  C7A BZF d   1      -0.877  -0.889   0.376  0.00  0.00     0.058 A 
ENDROOT
TORSDOF 0
ENDMDL
