MODEL 1
REMARK minimizedAffinity -2.69735241
REMARK minimizedRMSD -1
REMARK  0 active torsions:
REMARK  status: ('A' for Active; 'I' for Inactive)
ROOT
ATOM      1  O1  BZF d   1       0.111   2.751  -0.226  0.00  0.00    -0.204 OA
ATOM      2  C2  BZF d   1       1.344   2.408  -0.747  0.00  0.00     0.174 A 
ATOM      3  C3  BZF d   1       1.526   1.073  -0.706  0.00  0.00    -0.012 A 
ATOM      4  C3A BZF d   1       0.294   0.540  -0.209  0.00  0.00    -0.107 A 
ATOM      5  C4  BZF d   1      -0.148  -0.727   0.041  0.00  0.00     0.055 A 
ATOM      6  C5  BZF d   1      -1.377  -0.901   0.594  0.00  0.00    -0.016 A 
ATOM      7  C6  BZF d   1      -2.187   0.169   0.914  0.00  0.00     0.022 A 
ATOM      8  C7  BZF d   1      -1.794   1.444   0.680  0.00  0.00     0.029 A 
ATOM      9  C7A BZF d   1      -0.566   1.622   0.091  0.00  0.00     0.058 A 
ENDROOT
TORSDOF 0
ENDMDL
