MODEL 1
REMARK minimizedAffinity -3.66653943
REMARK minimizedRMSD -1
REMARK  0 active torsions:
REMARK  status: ('A' for Active; 'I' for Inactive)
ROOT
ATOM      1  O1  BZF d   1      -1.031   1.372   0.519  0.00  0.00    -0.204 OA
ATOM      2  C2  BZF d   1       0.009   2.099  -0.028  0.00  0.00     0.174 A 
ATOM      3  C3  BZF d   1       1.036   1.289  -0.359  0.00  0.00    -0.012 A 
ATOM      4  C3A BZF d   1       0.575  -0.036  -0.082  0.00  0.00    -0.107 A 
ATOM      5  C4  BZF d   1       1.137  -1.274  -0.219  0.00  0.00     0.055 A 
ATOM      6  C5  BZF d   1       0.448  -2.363   0.213  0.00  0.00    -0.016 A 
ATOM      7  C6  BZF d   1      -0.800  -2.251   0.789  0.00  0.00     0.022 A 
ATOM      8  C7  BZF d   1      -1.400  -1.046   0.942  0.00  0.00     0.029 A 
ATOM      9  C7A BZF d   1      -0.721   0.054   0.477  0.00  0.00     0.058 A 
ENDROOT
TORSDOF 0
ENDMDL
