MODEL 1
REMARK minimizedAffinity -3.3575685
REMARK minimizedRMSD -1
REMARK  0 active torsions:
REMARK  status: ('A' for Active; 'I' for Inactive)
ROOT
ATOM      1  O1  BZF d   1      -2.071  -1.332   1.365  0.00  0.00    -0.204 OA
ATOM      2  C2  BZF d   1      -1.392  -2.500   1.651  0.00  0.00     0.174 A 
ATOM      3  C3  BZF d   1      -0.132  -2.451   1.171  0.00  0.00    -0.012 A 
ATOM      4  C3A BZF d   1       0.011  -1.136   0.625  0.00  0.00    -0.107 A 
ATOM      5  C4  BZF d   1       1.043  -0.480   0.017  0.00  0.00     0.055 A 
ATOM      6  C5  BZF d   1       0.835   0.773  -0.466  0.00  0.00    -0.016 A 
ATOM      7  C6  BZF d   1      -0.392   1.397  -0.363  0.00  0.00     0.022 A 
ATOM      8  C7  BZF d   1      -1.443   0.787   0.236  0.00  0.00     0.029 A 
ATOM      9  C7A BZF d   1      -1.227  -0.466   0.755  0.00  0.00     0.058 A 
ENDROOT
TORSDOF 0
ENDMDL
