MODEL 1
REMARK minimizedAffinity -3.56986141
REMARK minimizedRMSD -1
REMARK  0 active torsions:
REMARK  status: ('A' for Active; 'I' for Inactive)
ROOT
ATOM      1  O1  BZF d   1      -0.917   0.289  -0.065  0.00  0.00    -0.204 OA
ATOM      2  C2  BZF d   1       0.306   0.514  -0.667  0.00  0.00     0.174 A 
ATOM      3  C3  BZF d   1       1.214  -0.397  -0.261  0.00  0.00    -0.012 A 
ATOM      4  C3A BZF d   1       0.491  -1.299   0.581  0.00  0.00    -0.107 A 
ATOM      5  C4  BZF d   1       0.842  -2.424   1.272  0.00  0.00     0.055 A 
ATOM      6  C5  BZF d   1      -0.085  -3.032   2.059  0.00  0.00    -0.016 A 
ATOM      7  C6  BZF d   1      -1.368  -2.540   2.182  0.00  0.00     0.022 A 
ATOM      8  C7  BZF d   1      -1.764  -1.431   1.512  0.00  0.00     0.029 A 
ATOM      9  C7A BZF d   1      -0.840  -0.833   0.690  0.00  0.00     0.058 A 
ENDROOT
TORSDOF 0
ENDMDL
