MODEL 1
REMARK minimizedAffinity -4.21607399
REMARK minimizedRMSD -1
REMARK  0 active torsions:
REMARK  status: ('A' for Active; 'I' for Inactive)
ROOT
ATOM      1  O1  BZF d   1      -0.202   1.499   0.267  0.00  0.00    -0.204 OA
ATOM      2  C2  BZF d   1       0.996   1.006  -0.211  0.00  0.00     0.174 A 
ATOM      3  C3  BZF d   1       1.172  -0.276   0.167  0.00  0.00    -0.012 A 
ATOM      4  C3A BZF d   1      -0.032  -0.635   0.852  0.00  0.00    -0.107 A 
ATOM      5  C4  BZF d   1      -0.466  -1.784   1.447  0.00  0.00     0.055 A 
ATOM      6  C5  BZF d   1      -1.663  -1.783   2.091  0.00  0.00    -0.016 A 
ATOM      7  C6  BZF d   1      -2.447  -0.650   2.164  0.00  0.00     0.022 A 
ATOM      8  C7  BZF d   1      -2.060   0.512   1.585  0.00  0.00     0.029 A 
ATOM      9  C7A BZF d   1      -0.867   0.505   0.905  0.00  0.00     0.058 A 
ENDROOT
TORSDOF 0
ENDMDL
