MODEL 1
REMARK minimizedAffinity -2.17571425
REMARK minimizedRMSD -1
REMARK  0 active torsions:
REMARK  status: ('A' for Active; 'I' for Inactive)
ROOT
ATOM      1  O1  BZF d   1       0.942  -0.540  -0.184  0.00  0.00    -0.204 OA
ATOM      2  C2  BZF d   1      -0.257  -0.894   0.403  0.00  0.00     0.174 A 
ATOM      3  C3  BZF d   1      -1.281  -0.216  -0.156  0.00  0.00    -0.012 A 
ATOM      4  C3A BZF d   1      -0.695   0.545  -1.216  0.00  0.00    -0.107 A 
ATOM      5  C4  BZF d   1      -1.204   1.405  -2.146  0.00  0.00     0.055 A 
ATOM      6  C5  BZF d   1      -0.352   2.040  -2.995  0.00  0.00    -0.016 A 
ATOM      7  C6  BZF d   1       1.012   1.841  -2.937  0.00  0.00     0.022 A 
ATOM      8  C7  BZF d   1       1.563   0.993  -2.035  0.00  0.00     0.029 A 
ATOM      9  C7A BZF d   1       0.702   0.326  -1.198  0.00  0.00     0.058 A 
ENDROOT
TORSDOF 0
ENDMDL
