MODEL 1
REMARK minimizedAffinity -3.38203335
REMARK minimizedRMSD -1
REMARK  0 active torsions:
REMARK  status: ('A' for Active; 'I' for Inactive)
ROOT
ATOM      1  O1  BZF d   1      -0.956   0.473  -0.489  0.00  0.00    -0.204 OA
ATOM      2  C2  BZF d   1       0.183   1.249  -0.583  0.00  0.00     0.174 A 
ATOM      3  C3  BZF d   1       1.210   0.673   0.075  0.00  0.00    -0.012 A 
ATOM      4  C3A BZF d   1       0.704  -0.583   0.537  0.00  0.00    -0.107 A 
ATOM      5  C4  BZF d   1       1.254  -1.615   1.242  0.00  0.00     0.055 A 
ATOM      6  C5  BZF d   1       0.469  -2.667   1.595  0.00  0.00    -0.016 A 
ATOM      7  C6  BZF d   1      -0.869  -2.717   1.263  0.00  0.00     0.022 A 
ATOM      8  C7  BZF d   1      -1.459  -1.719   0.560  0.00  0.00     0.029 A 
ATOM      9  C7A BZF d   1      -0.660  -0.670   0.174  0.00  0.00     0.058 A 
ENDROOT
TORSDOF 0
ENDMDL
