MODEL 1
REMARK minimizedAffinity 10.0585699
REMARK minimizedRMSD -1
REMARK  0 active torsions:
REMARK  status: ('A' for Active; 'I' for Inactive)
ROOT
ATOM      1  C   UNL d   1       2.407  -0.336  -1.280  0.00  0.00     0.077 C 
ATOM      2  C1  UNL d   1       3.599   0.557  -1.103  0.00  0.00    -0.074 A 
ATOM      3  C2  UNL d   1       4.136   0.796   0.166  0.00  0.00    -0.005 A 
ATOM      4  C3  UNL d   1       5.251   1.622   0.314  0.00  0.00     0.006 A 
ATOM      5  C4  UNL d   1       5.839   2.215  -0.804  0.00  0.00    -0.005 A 
ATOM      6  C5  UNL d   1       5.316   1.987  -2.081  0.00  0.00    -0.074 A 
ATOM      7  C6  UNL d   1       5.942   2.609  -3.294  0.00  0.00     0.077 C 
ATOM      8  C7  UNL d   1       4.200   1.151  -2.222  0.00  0.00    -0.001 A 
ENDROOT
TORSDOF 0
ENDMDL
