MODEL 1
REMARK minimizedAffinity -0.647719383
REMARK minimizedRMSD -1
REMARK  0 active torsions:
REMARK  status: ('A' for Active; 'I' for Inactive)
ROOT
ATOM      1  C   UNL d   1       3.387   5.379   3.571  0.00  0.00     0.077 C 
ATOM      2  C1  UNL d   1       2.364   4.899   2.585  0.00  0.00    -0.074 A 
ATOM      3  C2  UNL d   1       1.179   5.612   2.374  0.00  0.00    -0.005 A 
ATOM      4  C3  UNL d   1       0.241   5.158   1.447  0.00  0.00     0.006 A 
ATOM      5  C4  UNL d   1       0.478   3.989   0.723  0.00  0.00    -0.005 A 
ATOM      6  C5  UNL d   1       1.657   3.264   0.920  0.00  0.00    -0.074 A 
ATOM      7  C6  UNL d   1       1.931   2.011   0.142  0.00  0.00     0.077 C 
ATOM      8  C7  UNL d   1       2.598   3.730   1.848  0.00  0.00    -0.001 A 
ENDROOT
TORSDOF 0
ENDMDL
