MODEL 1
REMARK minimizedAffinity 10.6863928
REMARK minimizedRMSD -1
REMARK  0 active torsions:
REMARK  status: ('A' for Active; 'I' for Inactive)
ROOT
ATOM      1  C   UNL d   1      -5.915   5.999   5.236  0.00  0.00     0.077 C 
ATOM      2  C1  UNL d   1      -5.571   5.246   3.985  0.00  0.00    -0.074 A 
ATOM      3  C2  UNL d   1      -5.820   3.874   3.880  0.00  0.00    -0.005 A 
ATOM      4  C3  UNL d   1      -5.504   3.190   2.707  0.00  0.00     0.006 A 
ATOM      5  C4  UNL d   1      -4.937   3.870   1.628  0.00  0.00    -0.005 A 
ATOM      6  C5  UNL d   1      -4.683   5.242   1.714  0.00  0.00    -0.074 A 
ATOM      7  C6  UNL d   1      -4.083   5.990   0.560  0.00  0.00     0.077 C 
ATOM      8  C7  UNL d   1      -5.009   5.924   2.894  0.00  0.00    -0.001 A 
ENDROOT
TORSDOF 0
ENDMDL
