MODEL 1
REMARK minimizedAffinity 8.85765362
REMARK minimizedRMSD -1
REMARK  0 active torsions:
REMARK  status: ('A' for Active; 'I' for Inactive)
ROOT
ATOM      1  C   UNL d   1       2.225   0.006  -0.747  0.00  0.00     0.077 C 
ATOM      2  C1  UNL d   1       3.484   0.811  -0.614  0.00  0.00    -0.074 A 
ATOM      3  C2  UNL d   1       4.030   1.089   0.643  0.00  0.00    -0.005 A 
ATOM      4  C3  UNL d   1       5.207   1.831   0.750  0.00  0.00     0.006 A 
ATOM      5  C4  UNL d   1       5.848   2.300  -0.397  0.00  0.00    -0.005 A 
ATOM      6  C5  UNL d   1       5.317   2.030  -1.663  0.00  0.00    -0.074 A 
ATOM      7  C6  UNL d   1       6.000   2.518  -2.906  0.00  0.00     0.077 C 
ATOM      8  C7  UNL d   1       4.139   1.279  -1.762  0.00  0.00    -0.001 A 
ENDROOT
TORSDOF 0
ENDMDL
