MODEL 1
REMARK minimizedAffinity 0.0377163962
REMARK minimizedRMSD -1
REMARK  0 active torsions:
REMARK  status: ('A' for Active; 'I' for Inactive)
ROOT
ATOM      1  C   UNL d   1      -0.301  -3.021  -2.179  0.00  0.00     0.077 C 
ATOM      2  C1  UNL d   1      -1.381  -3.081  -3.219  0.00  0.00    -0.074 A 
ATOM      3  C2  UNL d   1      -1.854  -4.308  -3.694  0.00  0.00    -0.005 A 
ATOM      4  C3  UNL d   1      -2.866  -4.348  -4.653  0.00  0.00     0.006 A 
ATOM      5  C4  UNL d   1      -3.414  -3.163  -5.147  0.00  0.00    -0.005 A 
ATOM      6  C5  UNL d   1      -2.954  -1.927  -4.683  0.00  0.00    -0.074 A 
ATOM      7  C6  UNL d   1      -3.538  -0.644  -5.195  0.00  0.00     0.077 C 
ATOM      8  C7  UNL d   1      -1.942  -1.895  -3.713  0.00  0.00    -0.001 A 
ENDROOT
TORSDOF 0
ENDMDL
