MODEL 1
REMARK minimizedAffinity 14.2532492
REMARK minimizedRMSD -1
REMARK  0 active torsions:
REMARK  status: ('A' for Active; 'I' for Inactive)
ROOT
ATOM      1  C   UNL d   1      -1.699   0.063  -0.854  0.00  0.00     0.077 C 
ATOM      2  C1  UNL d   1      -3.197   0.001  -0.811  0.00  0.00    -0.074 A 
ATOM      3  C2  UNL d   1      -3.926   0.810   0.067  0.00  0.00    -0.005 A 
ATOM      4  C3  UNL d   1      -5.319   0.748   0.089  0.00  0.00     0.006 A 
ATOM      5  C4  UNL d   1      -5.997  -0.121  -0.766  0.00  0.00    -0.005 A 
ATOM      6  C5  UNL d   1      -5.286  -0.936  -1.652  0.00  0.00    -0.074 A 
ATOM      7  C6  UNL d   1      -6.000  -1.869  -2.585  0.00  0.00     0.077 C 
ATOM      8  C7  UNL d   1      -3.886  -0.864  -1.673  0.00  0.00    -0.001 A 
ENDROOT
TORSDOF 0
ENDMDL
