MODEL 1
REMARK minimizedAffinity 12.3760424
REMARK minimizedRMSD -1
REMARK  0 active torsions:
REMARK  status: ('A' for Active; 'I' for Inactive)
ROOT
ATOM      1  C   UNL d   1       1.898   1.335   5.279  0.00  0.00     0.077 C 
ATOM      2  C1  UNL d   1       2.800   0.375   4.563  0.00  0.00    -0.074 A 
ATOM      3  C2  UNL d   1       2.539  -0.009   3.243  0.00  0.00    -0.005 A 
ATOM      4  C3  UNL d   1       3.393  -0.895   2.587  0.00  0.00     0.006 A 
ATOM      5  C4  UNL d   1       4.514  -1.406   3.242  0.00  0.00    -0.005 A 
ATOM      6  C5  UNL d   1       4.792  -1.032   4.560  0.00  0.00    -0.074 A 
ATOM      7  C6  UNL d   1       5.999  -1.564   5.275  0.00  0.00     0.077 C 
ATOM      8  C7  UNL d   1       3.933  -0.136   5.211  0.00  0.00    -0.001 A 
ENDROOT
TORSDOF 0
ENDMDL
