MODEL 1
REMARK minimizedAffinity 8.07497883
REMARK minimizedRMSD -1
REMARK  0 active torsions:
REMARK  status: ('A' for Active; 'I' for Inactive)
ROOT
ATOM      1  C   UNL d   1       2.484  -0.027  -0.750  0.00  0.00     0.077 C 
ATOM      2  C1  UNL d   1       3.706   0.830  -0.602  0.00  0.00    -0.074 A 
ATOM      3  C2  UNL d   1       4.307   1.017   0.646  0.00  0.00    -0.005 A 
ATOM      4  C3  UNL d   1       5.449   1.809   0.766  0.00  0.00     0.006 A 
ATOM      5  C4  UNL d   1       6.000   2.423  -0.360  0.00  0.00    -0.005 A 
ATOM      6  C5  UNL d   1       5.413   2.247  -1.617  0.00  0.00    -0.074 A 
ATOM      7  C6  UNL d   1       5.998   2.891  -2.839  0.00  0.00     0.077 C 
ATOM      8  C7  UNL d   1       4.270   1.443  -1.730  0.00  0.00    -0.001 A 
ENDROOT
TORSDOF 0
ENDMDL
