MODEL 1
REMARK minimizedAffinity 1.66447139
REMARK minimizedRMSD -1
REMARK  0 active torsions:
REMARK  status: ('A' for Active; 'I' for Inactive)
ROOT
ATOM      1  C   UNL d   1      -4.389   2.416   5.479  0.00  0.00     0.172 C 
ATOM      2  N   UNL d   1      -3.447   1.551   4.808  0.00  0.00    -0.070 N 
ATOM      3  C1  UNL d   1      -3.157   1.571   3.470  0.00  0.00    -0.004 A 
ATOM      4  C2  UNL d   1      -2.214   0.596   3.228  0.00  0.00    -0.047 A 
ATOM      5  C3  UNL d   1      -1.927  -0.032   4.463  0.00  0.00    -0.047 A 
ATOM      6  C4  UNL d   1      -2.705   0.578   5.424  0.00  0.00    -0.004 A 
ENDROOT
TORSDOF 0
ENDMDL
