MODEL 1
REMARK minimizedAffinity 2.58141541
REMARK minimizedRMSD -1
REMARK  0 active torsions:
REMARK  status: ('A' for Active; 'I' for Inactive)
ROOT
ATOM      1  C   UNL d   1      -1.442   0.053   4.855  0.00  0.00     0.172 C 
ATOM      2  N   UNL d   1      -1.475  -0.421   3.491  0.00  0.00    -0.070 N 
ATOM      3  C1  UNL d   1      -0.831  -1.533   3.017  0.00  0.00    -0.004 A 
ATOM      4  C2  UNL d   1      -1.112  -1.642   1.672  0.00  0.00    -0.047 A 
ATOM      5  C3  UNL d   1      -1.953  -0.558   1.326  0.00  0.00    -0.047 A 
ATOM      6  C4  UNL d   1      -2.162   0.182   2.471  0.00  0.00    -0.004 A 
ENDROOT
TORSDOF 0
ENDMDL
