MODEL 1
REMARK minimizedAffinity 4.00967264
REMARK minimizedRMSD -1
REMARK  0 active torsions:
REMARK  status: ('A' for Active; 'I' for Inactive)
ROOT
ATOM      1  C   UNL d   1      -4.752   2.351   5.948  0.00  0.00     0.172 C 
ATOM      2  N   UNL d   1      -3.727   1.661   5.200  0.00  0.00    -0.070 N 
ATOM      3  C1  UNL d   1      -2.759   0.852   5.731  0.00  0.00    -0.004 A 
ATOM      4  C2  UNL d   1      -1.981   0.387   4.693  0.00  0.00    -0.047 A 
ATOM      5  C3  UNL d   1      -2.499   0.937   3.497  0.00  0.00    -0.047 A 
ATOM      6  C4  UNL d   1      -3.580   1.722   3.839  0.00  0.00    -0.004 A 
ENDROOT
TORSDOF 0
ENDMDL
