MODEL 1
REMARK minimizedAffinity 6.76550484
REMARK minimizedRMSD -1
REMARK  0 active torsions:
REMARK  status: ('A' for Active; 'I' for Inactive)
ROOT
ATOM      1  C   UNL d   1      -4.325   2.206   4.840  0.00  0.00     0.172 C 
ATOM      2  N   UNL d   1      -3.291   1.371   4.277  0.00  0.00    -0.070 N 
ATOM      3  C1  UNL d   1      -3.116   1.106   2.945  0.00  0.00    -0.004 A 
ATOM      4  C2  UNL d   1      -2.025   0.273   2.819  0.00  0.00    -0.047 A 
ATOM      5  C3  UNL d   1      -1.528   0.027   4.122  0.00  0.00    -0.047 A 
ATOM      6  C4  UNL d   1      -2.330   0.719   5.004  0.00  0.00    -0.004 A 
ENDROOT
TORSDOF 0
ENDMDL
