MODEL 1
REMARK minimizedAffinity 6.01320744
REMARK minimizedRMSD -1
REMARK  0 active torsions:
REMARK  status: ('A' for Active; 'I' for Inactive)
ROOT
ATOM      1  C   UNL d   1      -5.988  -0.600  -2.984  0.00  0.00     0.172 C 
ATOM      2  N   UNL d   1      -5.879  -0.019  -1.666  0.00  0.00    -0.070 N 
ATOM      3  C1  UNL d   1      -5.642  -0.708  -0.507  0.00  0.00    -0.004 A 
ATOM      4  C2  UNL d   1      -5.610   0.203   0.527  0.00  0.00    -0.047 A 
ATOM      5  C3  UNL d   1      -5.836   1.484  -0.031  0.00  0.00    -0.047 A 
ATOM      6  C4  UNL d   1      -6.000   1.317  -1.390  0.00  0.00    -0.004 A 
ENDROOT
TORSDOF 0
ENDMDL
