MODEL 1
REMARK minimizedAffinity 1.82386518
REMARK minimizedRMSD -1
REMARK  0 active torsions:
REMARK  status: ('A' for Active; 'I' for Inactive)
ROOT
ATOM      1  C   UNL d   1       2.464  -4.861  -0.259  0.00  0.00     0.172 C 
ATOM      2  N   UNL d   1       3.901  -4.903  -0.395  0.00  0.00    -0.070 N 
ATOM      3  C1  UNL d   1       4.691  -6.000  -0.178  0.00  0.00    -0.004 A 
ATOM      4  C2  UNL d   1       5.998  -5.631  -0.414  0.00  0.00    -0.047 A 
ATOM      5  C3  UNL d   1       5.993  -4.266  -0.785  0.00  0.00    -0.047 A 
ATOM      6  C4  UNL d   1       4.682  -3.840  -0.765  0.00  0.00    -0.004 A 
ENDROOT
TORSDOF 0
ENDMDL
