MODEL 1
REMARK minimizedAffinity 5.53162336
REMARK minimizedRMSD -1
REMARK  0 active torsions:
REMARK  status: ('A' for Active; 'I' for Inactive)
ROOT
ATOM      1  C   UNL d   1      -4.441   2.697   5.524  0.00  0.00     0.172 C 
ATOM      2  N   UNL d   1      -3.477   1.805   4.924  0.00  0.00    -0.070 N 
ATOM      3  C1  UNL d   1      -2.543   1.066   5.600  0.00  0.00    -0.004 A 
ATOM      4  C2  UNL d   1      -1.821   0.349   4.671  0.00  0.00    -0.047 A 
ATOM      5  C3  UNL d   1      -2.337   0.668   3.393  0.00  0.00    -0.047 A 
ATOM      6  C4  UNL d   1      -3.362   1.572   3.579  0.00  0.00    -0.004 A 
ENDROOT
TORSDOF 0
ENDMDL
