MODEL 1
REMARK minimizedAffinity 4.43603086
REMARK minimizedRMSD -1
REMARK  0 active torsions:
REMARK  status: ('A' for Active; 'I' for Inactive)
ROOT
ATOM      1  C   UNL d   1      -5.082   1.991   4.747  0.00  0.00     0.172 C 
ATOM      2  N   UNL d   1      -3.725   1.500   4.767  0.00  0.00    -0.070 N 
ATOM      3  C1  UNL d   1      -2.806   1.654   3.763  0.00  0.00    -0.004 A 
ATOM      4  C2  UNL d   1      -1.636   1.047   4.165  0.00  0.00    -0.047 A 
ATOM      5  C3  UNL d   1      -1.860   0.508   5.455  0.00  0.00    -0.047 A 
ATOM      6  C4  UNL d   1      -3.161   0.804   5.803  0.00  0.00    -0.004 A 
ENDROOT
TORSDOF 0
ENDMDL
