MODEL 1
REMARK minimizedAffinity 5.79590321
REMARK minimizedRMSD -1
REMARK  0 active torsions:
REMARK  status: ('A' for Active; 'I' for Inactive)
ROOT
ATOM      1  C   UNL d   1      -1.914   0.973   3.955  0.00  0.00     0.172 C 
ATOM      2  N   UNL d   1      -1.508   0.016   2.953  0.00  0.00    -0.070 N 
ATOM      3  C1  UNL d   1      -2.346  -0.810   2.253  0.00  0.00    -0.004 A 
ATOM      4  C2  UNL d   1      -1.574  -1.566   1.397  0.00  0.00    -0.047 A 
ATOM      5  C3  UNL d   1      -0.226  -1.182   1.591  0.00  0.00    -0.047 A 
ATOM      6  C4  UNL d   1      -0.214  -0.201   2.560  0.00  0.00    -0.004 A 
ENDROOT
TORSDOF 0
ENDMDL
