MODEL 1
REMARK minimizedAffinity 5.52380753
REMARK minimizedRMSD -1
REMARK  0 active torsions:
REMARK  status: ('A' for Active; 'I' for Inactive)
ROOT
ATOM      1  C   UNL d   1      -4.166   2.527   5.284  0.00  0.00     0.172 C 
ATOM      2  N   UNL d   1      -3.097   1.737   4.720  0.00  0.00    -0.070 N 
ATOM      3  C1  UNL d   1      -2.909   1.485   3.387  0.00  0.00    -0.004 A 
ATOM      4  C2  UNL d   1      -1.785   0.697   3.262  0.00  0.00    -0.047 A 
ATOM      5  C3  UNL d   1      -1.281   0.467   4.564  0.00  0.00    -0.047 A 
ATOM      6  C4  UNL d   1      -2.113   1.122   5.448  0.00  0.00    -0.004 A 
ENDROOT
TORSDOF 0
ENDMDL
