MODEL 1
REMARK minimizedAffinity 6.98419762
REMARK minimizedRMSD -1
REMARK  0 active torsions:
REMARK  status: ('A' for Active; 'I' for Inactive)
ROOT
ATOM      1  C   UNL d   1      -3.187  -5.992  -2.951  0.00  0.00     0.172 C 
ATOM      2  N   UNL d   1      -1.894  -5.532  -3.402  0.00  0.00    -0.070 N 
ATOM      3  C1  UNL d   1      -1.221  -5.993  -4.501  0.00  0.00    -0.004 A 
ATOM      4  C2  UNL d   1      -0.031  -5.303  -4.588  0.00  0.00    -0.047 A 
ATOM      5  C3  UNL d   1       0.012  -4.396  -3.502  0.00  0.00    -0.047 A 
ATOM      6  C4  UNL d   1      -1.154  -4.559  -2.784  0.00  0.00    -0.004 A 
ENDROOT
TORSDOF 0
ENDMDL
