MODEL 1
REMARK minimizedAffinity 2.48062992
REMARK minimizedRMSD -1
REMARK  0 active torsions:
REMARK  status: ('A' for Active; 'I' for Inactive)
ROOT
ATOM      1  C   UNL d   1       1.162  -1.759   3.394  0.00  0.00     0.172 C 
ATOM      2  N   UNL d   1       0.150  -0.773   3.690  0.00  0.00    -0.070 N 
ATOM      3  C1  UNL d   1      -0.231  -0.370   4.942  0.00  0.00    -0.004 A 
ATOM      4  C2  UNL d   1      -1.218   0.581   4.798  0.00  0.00    -0.047 A 
ATOM      5  C3  UNL d   1      -1.440   0.755   3.411  0.00  0.00    -0.047 A 
ATOM      6  C4  UNL d   1      -0.580  -0.095   2.748  0.00  0.00    -0.004 A 
ENDROOT
TORSDOF 0
ENDMDL
