MODEL 1
REMARK minimizedAffinity 13.0478659
REMARK minimizedRMSD -1
REMARK  0 active torsions:
REMARK  status: ('A' for Active; 'I' for Inactive)
ROOT
ATOM      1  C   UNL d   1      -0.980  -3.705  -3.676  0.00  0.00     0.172 C 
ATOM      2  N   UNL d   1      -0.084  -4.593  -4.378  0.00  0.00    -0.070 N 
ATOM      3  C1  UNL d   1      -0.362  -5.246  -5.549  0.00  0.00    -0.004 A 
ATOM      4  C2  UNL d   1       0.746  -5.992  -5.890  0.00  0.00    -0.047 A 
ATOM      5  C3  UNL d   1       1.724  -5.780  -4.889  0.00  0.00    -0.047 A 
ATOM      6  C4  UNL d   1       1.184  -4.910  -3.965  0.00  0.00    -0.004 A 
ENDROOT
TORSDOF 0
ENDMDL
