MODEL 1
REMARK minimizedAffinity 7.37333202
REMARK minimizedRMSD -1
REMARK  0 active torsions:
REMARK  status: ('A' for Active; 'I' for Inactive)
ROOT
ATOM      1  C   UNL d   1       2.547   4.095  -2.254  0.00  0.00     0.172 C 
ATOM      2  N   UNL d   1       3.864   4.596  -1.935  0.00  0.00    -0.070 N 
ATOM      3  C1  UNL d   1       4.933   3.837  -1.542  0.00  0.00    -0.004 A 
ATOM      4  C2  UNL d   1       5.999   4.685  -1.335  0.00  0.00    -0.047 A 
ATOM      5  C3  UNL d   1       5.555   6.000  -1.613  0.00  0.00    -0.047 A 
ATOM      6  C4  UNL d   1       4.229   5.915  -1.982  0.00  0.00    -0.004 A 
ENDROOT
TORSDOF 0
ENDMDL
