MODEL 1
REMARK minimizedAffinity 3.26982188
REMARK minimizedRMSD -1
REMARK  0 active torsions:
REMARK  status: ('A' for Active; 'I' for Inactive)
ROOT
ATOM      1  C   UNL d   1       0.120  -2.956   2.279  0.00  0.00     0.172 C 
ATOM      2  N   UNL d   1      -0.108  -1.727   3.004  0.00  0.00    -0.070 N 
ATOM      3  C1  UNL d   1      -0.704  -0.602   2.500  0.00  0.00    -0.004 A 
ATOM      4  C2  UNL d   1      -0.733   0.345   3.501  0.00  0.00    -0.047 A 
ATOM      5  C3  UNL d   1      -0.131  -0.231   4.646  0.00  0.00    -0.047 A 
ATOM      6  C4  UNL d   1       0.246  -1.514   4.310  0.00  0.00    -0.004 A 
ENDROOT
TORSDOF 0
ENDMDL
