MODEL 1
REMARK minimizedAffinity 0.758479238
REMARK minimizedRMSD -1
REMARK  0 active torsions:
REMARK  status: ('A' for Active; 'I' for Inactive)
ROOT
ATOM      1  C   UNL d   1      -2.935  -5.996  -4.025  0.00  0.00     0.172 C 
ATOM      2  N   UNL d   1      -1.552  -5.680  -3.757  0.00  0.00    -0.070 N 
ATOM      3  C1  UNL d   1      -0.490  -5.999  -4.561  0.00  0.00    -0.004 A 
ATOM      4  C2  UNL d   1       0.654  -5.525  -3.956  0.00  0.00    -0.047 A 
ATOM      5  C3  UNL d   1       0.267  -4.901  -2.747  0.00  0.00    -0.047 A 
ATOM      6  C4  UNL d   1      -1.104  -5.011  -2.648  0.00  0.00    -0.004 A 
ENDROOT
TORSDOF 0
ENDMDL
