MODEL 1
REMARK minimizedAffinity 9.97106171
REMARK minimizedRMSD -1
REMARK  0 active torsions:
REMARK  status: ('A' for Active; 'I' for Inactive)
ROOT
ATOM      1  C   UNL d   1      -2.296   1.283   4.454  0.00  0.00     0.172 C 
ATOM      2  N   UNL d   1      -2.008   0.463   3.300  0.00  0.00    -0.070 N 
ATOM      3  C1  UNL d   1      -0.761   0.084   2.882  0.00  0.00    -0.004 A 
ATOM      4  C2  UNL d   1      -0.912  -0.690   1.751  0.00  0.00    -0.047 A 
ATOM      5  C3  UNL d   1      -2.298  -0.778   1.480  0.00  0.00    -0.047 A 
ATOM      6  C4  UNL d   1      -2.953  -0.055   2.455  0.00  0.00    -0.004 A 
ENDROOT
TORSDOF 0
ENDMDL
