MODEL 1
REMARK minimizedAffinity 1.19968164
REMARK minimizedRMSD -1
REMARK  0 active torsions:
REMARK  status: ('A' for Active; 'I' for Inactive)
ROOT
ATOM      1  C   UNL d   1       4.905  -2.765  -1.498  0.00  0.00     0.172 C 
ATOM      2  N   UNL d   1       4.885  -4.079  -0.900  0.00  0.00    -0.070 N 
ATOM      3  C1  UNL d   1       3.762  -4.791  -0.573  0.00  0.00    -0.004 A 
ATOM      4  C2  UNL d   1       4.166  -5.991  -0.029  0.00  0.00    -0.047 A 
ATOM      5  C3  UNL d   1       5.581  -6.000  -0.027  0.00  0.00    -0.047 A 
ATOM      6  C4  UNL d   1       6.000  -4.804  -0.572  0.00  0.00    -0.004 A 
ENDROOT
TORSDOF 0
ENDMDL
