MODEL 1
REMARK minimizedAffinity 15.8194742
REMARK minimizedRMSD -1
REMARK  0 active torsions:
REMARK  status: ('A' for Active; 'I' for Inactive)
ROOT
ATOM      1  C1  DEN d   1      -0.194  -1.845   1.325  0.00  0.00     0.130 A 
ATOM      2  C2  DEN d   1       0.780  -0.763   1.213  0.00  0.00    -0.031 A 
ATOM      3  C3  DEN d   1       0.904  -0.121   2.537  0.00  0.00     0.027 A 
ATOM      4  C4  DEN d   1      -0.307  -0.699   4.740  0.00  0.00     0.027 A 
ATOM      5  C5  DEN d   1      -1.234  -1.533   5.326  0.00  0.00    -0.003 A 
ATOM      6  C6  DEN d   1      -1.899  -2.499   4.618  0.00  0.00     0.001 A 
ATOM      7  C7  DEN d   1      -1.613  -2.685   3.291  0.00  0.00     0.017 A 
ATOM      8  C8  DEN d   1      -0.685  -1.844   2.691  0.00  0.00    -0.094 A 
ATOM      9  C9  DEN d   1      -0.014  -0.881   3.427  0.00  0.00    -0.072 A 
ENDROOT
TORSDOF 0
ENDMDL
