MODEL 1
REMARK minimizedAffinity 11.4637661
REMARK minimizedRMSD -1
REMARK  0 active torsions:
REMARK  status: ('A' for Active; 'I' for Inactive)
ROOT
ATOM      1  C1  DEN d   1       0.093   0.011   4.597  0.00  0.00     0.130 A 
ATOM      2  C2  DEN d   1       0.635  -0.457   3.325  0.00  0.00    -0.031 A 
ATOM      3  C3  DEN d   1      -0.248  -1.526   2.817  0.00  0.00     0.027 A 
ATOM      4  C4  DEN d   1      -2.394  -2.495   3.871  0.00  0.00     0.027 A 
ATOM      5  C5  DEN d   1      -3.243  -2.425   4.953  0.00  0.00    -0.003 A 
ATOM      6  C6  DEN d   1      -3.024  -1.569   5.999  0.00  0.00     0.001 A 
ATOM      7  C7  DEN d   1      -1.952  -0.716   5.966  0.00  0.00     0.017 A 
ATOM      8  C8  DEN d   1      -1.087  -0.786   4.882  0.00  0.00    -0.094 A 
ATOM      9  C9  DEN d   1      -1.333  -1.649   3.827  0.00  0.00    -0.072 A 
ENDROOT
TORSDOF 0
ENDMDL
