MODEL 1
REMARK minimizedAffinity 14.7079601
REMARK minimizedRMSD -1
REMARK  0 active torsions:
REMARK  status: ('A' for Active; 'I' for Inactive)
ROOT
ATOM      1  C1  DEN d   1       0.758  -0.440   3.431  0.00  0.00     0.130 A 
ATOM      2  C2  DEN d   1      -0.044  -1.601   3.053  0.00  0.00    -0.031 A 
ATOM      3  C3  DEN d   1       0.731  -2.393   2.077  0.00  0.00     0.027 A 
ATOM      4  C4  DEN d   1       3.084  -1.939   1.122  0.00  0.00     0.027 A 
ATOM      5  C5  DEN d   1       4.152  -1.070   1.135  0.00  0.00    -0.003 A 
ATOM      6  C6  DEN d   1       4.150   0.078   1.882  0.00  0.00     0.001 A 
ATOM      7  C7  DEN d   1       3.076   0.365   2.683  0.00  0.00     0.017 A 
ATOM      8  C8  DEN d   1       1.992  -0.503   2.669  0.00  0.00    -0.094 A 
ATOM      9  C9  DEN d   1       2.018  -1.664   1.916  0.00  0.00    -0.072 A 
ENDROOT
TORSDOF 0
ENDMDL
