MODEL 1
REMARK minimizedAffinity 7.64676952
REMARK minimizedRMSD -1
REMARK  0 active torsions:
REMARK  status: ('A' for Active; 'I' for Inactive)
ROOT
ATOM      1  C1  DEN d   1       0.764  -4.686  -2.620  0.00  0.00     0.130 A 
ATOM      2  C2  DEN d   1       0.072  -5.842  -3.182  0.00  0.00    -0.031 A 
ATOM      3  C3  DEN d   1       0.500  -5.992  -4.587  0.00  0.00     0.027 A 
ATOM      4  C4  DEN d   1       2.164  -4.557  -5.938  0.00  0.00     0.027 A 
ATOM      5  C5  DEN d   1       2.996  -3.460  -5.891  0.00  0.00    -0.003 A 
ATOM      6  C6  DEN d   1       3.116  -2.681  -4.771  0.00  0.00     0.001 A 
ATOM      7  C7  DEN d   1       2.426  -3.015  -3.635  0.00  0.00     0.017 A 
ATOM      8  C8  DEN d   1       1.579  -4.115  -3.677  0.00  0.00    -0.094 A 
ATOM      9  C9  DEN d   1       1.481  -4.897  -4.815  0.00  0.00    -0.072 A 
ENDROOT
TORSDOF 0
ENDMDL
