MODEL 1
REMARK minimizedAffinity 14.4764948
REMARK minimizedRMSD -1
REMARK  0 active torsions:
REMARK  status: ('A' for Active; 'I' for Inactive)
ROOT
ATOM      1  C1  DEN d   1      -4.705   1.874  -2.832  0.00  0.00     0.130 A 
ATOM      2  C2  DEN d   1      -6.000   1.721  -3.490  0.00  0.00    -0.031 A 
ATOM      3  C3  DEN d   1      -5.889   2.283  -4.852  0.00  0.00     0.027 A 
ATOM      4  C4  DEN d   1      -3.848   3.364  -6.000  0.00  0.00     0.027 A 
ATOM      5  C5  DEN d   1      -2.529   3.727  -5.836  0.00  0.00    -0.003 A 
ATOM      6  C6  DEN d   1      -1.859   3.530  -4.658  0.00  0.00     0.001 A 
ATOM      7  C7  DEN d   1      -2.492   2.914  -3.611  0.00  0.00     0.017 A 
ATOM      8  C8  DEN d   1      -3.824   2.551  -3.766  0.00  0.00    -0.094 A 
ATOM      9  C9  DEN d   1      -4.481   2.747  -4.970  0.00  0.00    -0.072 A 
ENDROOT
TORSDOF 0
ENDMDL
