MODEL 1
REMARK minimizedAffinity 8.19512939
REMARK minimizedRMSD -1
REMARK  0 active torsions:
REMARK  status: ('A' for Active; 'I' for Inactive)
ROOT
ATOM      1  C1  DEN d   1      -3.733  -6.000   0.136  0.00  0.00     0.130 A 
ATOM      2  C2  DEN d   1      -4.185  -5.021  -0.849  0.00  0.00    -0.031 A 
ATOM      3  C3  DEN d   1      -4.554  -3.786  -0.129  0.00  0.00     0.027 A 
ATOM      4  C4  DEN d   1      -4.464  -3.294   2.401  0.00  0.00     0.027 A 
ATOM      5  C5  DEN d   1      -4.160  -3.821   3.637  0.00  0.00    -0.003 A 
ATOM      6  C6  DEN d   1      -3.728  -5.111   3.794  0.00  0.00     0.001 A 
ATOM      7  C7  DEN d   1      -3.544  -5.905   2.693  0.00  0.00     0.017 A 
ATOM      8  C8  DEN d   1      -3.856  -5.383   1.444  0.00  0.00    -0.094 A 
ATOM      9  C9  DEN d   1      -4.280  -4.073   1.305  0.00  0.00    -0.072 A 
ENDROOT
TORSDOF 0
ENDMDL
