MODEL 1
REMARK minimizedAffinity 8.08056736
REMARK minimizedRMSD -1
REMARK  0 active torsions:
REMARK  status: ('A' for Active; 'I' for Inactive)
ROOT
ATOM      1  C1  DEN d   1       0.373  -2.096   0.727  0.00  0.00     0.130 A 
ATOM      2  C2  DEN d   1       1.622  -1.349   0.852  0.00  0.00    -0.031 A 
ATOM      3  C3  DEN d   1       1.614  -0.662   2.159  0.00  0.00     0.027 A 
ATOM      4  C4  DEN d   1      -0.199  -0.686   3.994  0.00  0.00     0.027 A 
ATOM      5  C5  DEN d   1      -1.442  -1.169   4.337  0.00  0.00    -0.003 A 
ATOM      6  C6  DEN d   1      -2.176  -1.961   3.495  0.00  0.00     0.001 A 
ATOM      7  C7  DEN d   1      -1.653  -2.331   2.283  0.00  0.00     0.017 A 
ATOM      8  C8  DEN d   1      -0.403  -1.841   1.927  0.00  0.00    -0.094 A 
ATOM      9  C9  DEN d   1       0.328  -1.052   2.798  0.00  0.00    -0.072 A 
ENDROOT
TORSDOF 0
ENDMDL
