MODEL 1
REMARK minimizedAffinity 22.4745502
REMARK minimizedRMSD -1
REMARK  0 active torsions:
REMARK  status: ('A' for Active; 'I' for Inactive)
ROOT
ATOM      1  C1  DEN d   1      -2.357  -1.278   2.993  0.00  0.00     0.130 A 
ATOM      2  C2  DEN d   1      -3.069  -2.509   2.663  0.00  0.00    -0.031 A 
ATOM      3  C3  DEN d   1      -2.132  -3.401   1.950  0.00  0.00     0.027 A 
ATOM      4  C4  DEN d   1       0.340  -2.998   1.333  0.00  0.00     0.027 A 
ATOM      5  C5  DEN d   1       1.379  -2.096   1.393  0.00  0.00    -0.003 A 
ATOM      6  C6  DEN d   1       1.238  -0.856   1.956  0.00  0.00     0.001 A 
ATOM      7  C7  DEN d   1       0.042  -0.499   2.522  0.00  0.00     0.017 A 
ATOM      8  C8  DEN d   1      -1.013  -1.400   2.458  0.00  0.00    -0.094 A 
ATOM      9  C9  DEN d   1      -0.846  -2.655   1.896  0.00  0.00    -0.072 A 
ENDROOT
TORSDOF 0
ENDMDL
