MODEL 1
REMARK minimizedAffinity 19.3470325
REMARK minimizedRMSD -1
REMARK  0 active torsions:
REMARK  status: ('A' for Active; 'I' for Inactive)
ROOT
ATOM      1  C1  DEN d   1      -1.023  -1.433   1.882  0.00  0.00     0.130 A 
ATOM      2  C2  DEN d   1       0.317  -1.251   1.332  0.00  0.00    -0.031 A 
ATOM      3  C3  DEN d   1       1.194  -0.770   2.419  0.00  0.00     0.027 A 
ATOM      4  C4  DEN d   1       0.611  -0.299   4.887  0.00  0.00     0.027 A 
ATOM      5  C5  DEN d   1      -0.402  -0.296   5.820  0.00  0.00    -0.003 A 
ATOM      6  C6  DEN d   1      -1.690  -0.637   5.501  0.00  0.00     0.001 A 
ATOM      7  C7  DEN d   1      -1.990  -1.038   4.226  0.00  0.00     0.017 A 
ATOM      8  C8  DEN d   1      -0.975  -1.036   3.277  0.00  0.00    -0.094 A 
ATOM      9  C9  DEN d   1       0.323  -0.700   3.623  0.00  0.00    -0.072 A 
ENDROOT
TORSDOF 0
ENDMDL
