MODEL 1
REMARK minimizedAffinity 14.7944622
REMARK minimizedRMSD -1
REMARK  0 active torsions:
REMARK  status: ('A' for Active; 'I' for Inactive)
ROOT
ATOM      1  C1  DEN d   1      -1.844  -1.111   3.459  0.00  0.00     0.130 A 
ATOM      2  C2  DEN d   1      -2.545  -2.357   3.160  0.00  0.00    -0.031 A 
ATOM      3  C3  DEN d   1      -1.751  -3.098   2.160  0.00  0.00     0.027 A 
ATOM      4  C4  DEN d   1       0.486  -2.445   1.055  0.00  0.00     0.027 A 
ATOM      5  C5  DEN d   1       1.460  -1.474   0.982  0.00  0.00    -0.003 A 
ATOM      6  C6  DEN d   1       1.385  -0.309   1.698  0.00  0.00     0.001 A 
ATOM      7  C7  DEN d   1       0.335  -0.104   2.553  0.00  0.00     0.017 A 
ATOM      8  C8  DEN d   1      -0.655  -1.075   2.627  0.00  0.00    -0.094 A 
ATOM      9  C9  DEN d   1      -0.555  -2.252   1.904  0.00  0.00    -0.072 A 
ENDROOT
TORSDOF 0
ENDMDL
