MODEL 1
REMARK minimizedAffinity 18.7727013
REMARK minimizedRMSD -1
REMARK  0 active torsions:
REMARK  status: ('A' for Active; 'I' for Inactive)
ROOT
ATOM      1  C1  DEN d   1       2.392   0.606   2.497  0.00  0.00     0.130 A 
ATOM      2  C2  DEN d   1       3.750   0.173   2.178  0.00  0.00    -0.031 A 
ATOM      3  C3  DEN d   1       3.665  -1.148   1.522  0.00  0.00     0.027 A 
ATOM      4  C4  DEN d   1       1.574  -2.552   0.966  0.00  0.00     0.027 A 
ATOM      5  C5  DEN d   1       0.201  -2.603   1.054  0.00  0.00    -0.003 A 
ATOM      6  C6  DEN d   1      -0.530  -1.613   1.654  0.00  0.00     0.001 A 
ATOM      7  C7  DEN d   1       0.106  -0.506   2.151  0.00  0.00     0.017 A 
ATOM      8  C8  DEN d   1       1.491  -0.450   2.072  0.00  0.00    -0.094 A 
ATOM      9  C9  DEN d   1       2.211  -1.456   1.450  0.00  0.00    -0.072 A 
ENDROOT
TORSDOF 0
ENDMDL
