MODEL 1
REMARK minimizedAffinity 8.63152409
REMARK minimizedRMSD -1
REMARK  0 active torsions:
REMARK  status: ('A' for Active; 'I' for Inactive)
ROOT
ATOM      1  C1  DEN d   1       1.817  -2.368   0.702  0.00  0.00     0.130 A 
ATOM      2  C2  DEN d   1       0.545  -3.046   0.938  0.00  0.00    -0.031 A 
ATOM      3  C3  DEN d   1       0.058  -2.651   2.275  0.00  0.00     0.027 A 
ATOM      4  C4  DEN d   1       1.140  -1.059   3.991  0.00  0.00     0.027 A 
ATOM      5  C5  DEN d   1       2.228  -0.253   4.245  0.00  0.00    -0.003 A 
ATOM      6  C6  DEN d   1       3.263  -0.123   3.357  0.00  0.00     0.001 A 
ATOM      7  C7  DEN d   1       3.210  -0.775   2.153  0.00  0.00     0.017 A 
ATOM      8  C8  DEN d   1       2.120  -1.595   1.893  0.00  0.00    -0.094 A 
ATOM      9  C9  DEN d   1       1.078  -1.704   2.799  0.00  0.00    -0.072 A 
ENDROOT
TORSDOF 0
ENDMDL
