MODEL 1
REMARK minimizedAffinity 13.0637817
REMARK minimizedRMSD -1
REMARK  0 active torsions:
REMARK  status: ('A' for Active; 'I' for Inactive)
ROOT
ATOM      1  C1  DEN d   1       1.563  -2.099   1.652  0.00  0.00     0.130 A 
ATOM      2  C2  DEN d   1       0.289  -1.609   1.135  0.00  0.00    -0.031 A 
ATOM      3  C3  DEN d   1       0.473  -0.202   0.726  0.00  0.00     0.027 A 
ATOM      4  C4  DEN d   1       2.597   1.257   0.840  0.00  0.00     0.027 A 
ATOM      5  C5  DEN d   1       3.922   1.282   1.215  0.00  0.00    -0.003 A 
ATOM      6  C6  DEN d   1       4.540   0.203   1.789  0.00  0.00     0.001 A 
ATOM      7  C7  DEN d   1       3.844  -0.964   1.963  0.00  0.00     0.017 A 
ATOM      8  C8  DEN d   1       2.505  -0.995   1.594  0.00  0.00    -0.094 A 
ATOM      9  C9  DEN d   1       1.902   0.103   1.004  0.00  0.00    -0.072 A 
ENDROOT
TORSDOF 0
ENDMDL
