MODEL 1
REMARK minimizedAffinity 8.95329475
REMARK minimizedRMSD -1
REMARK  0 active torsions:
REMARK  status: ('A' for Active; 'I' for Inactive)
ROOT
ATOM      1  C1  DEN d   1      -4.545  -4.644   0.401  0.00  0.00     0.130 A 
ATOM      2  C2  DEN d   1      -3.390  -3.753   0.329  0.00  0.00    -0.031 A 
ATOM      3  C3  DEN d   1      -3.004  -3.393   1.708  0.00  0.00     0.027 A 
ATOM      4  C4  DEN d   1      -4.075  -4.129   3.937  0.00  0.00     0.027 A 
ATOM      5  C5  DEN d   1      -5.085  -4.872   4.505  0.00  0.00    -0.003 A 
ATOM      6  C6  DEN d   1      -6.000  -5.558   3.751  0.00  0.00     0.001 A 
ATOM      7  C7  DEN d   1      -5.895  -5.552   2.385  0.00  0.00     0.017 A 
ATOM      8  C8  DEN d   1      -4.883  -4.799   1.804  0.00  0.00    -0.094 A 
ATOM      9  C9  DEN d   1      -3.961  -4.122   2.584  0.00  0.00    -0.072 A 
ENDROOT
TORSDOF 0
ENDMDL
