MODEL 1
REMARK minimizedAffinity -1.17482293
REMARK minimizedRMSD -1
REMARK  0 active torsions:
REMARK  status: ('A' for Active; 'I' for Inactive)
ROOT
ATOM      1  C1  DEN d   1      -5.896  -5.802   2.264  0.00  0.00     0.130 A 
ATOM      2  C2  DEN d   1      -5.246  -4.835   1.383  0.00  0.00    -0.031 A 
ATOM      3  C3  DEN d   1      -4.532  -3.856   2.227  0.00  0.00     0.027 A 
ATOM      4  C4  DEN d   1      -4.366  -3.747   4.798  0.00  0.00     0.027 A 
ATOM      5  C5  DEN d   1      -4.761  -4.344   5.975  0.00  0.00    -0.003 A 
ATOM      6  C6  DEN d   1      -5.582  -5.440   5.998  0.00  0.00     0.001 A 
ATOM      7  C7  DEN d   1      -6.000  -6.000   4.820  0.00  0.00     0.017 A 
ATOM      8  C8  DEN d   1      -5.612  -5.399   3.629  0.00  0.00    -0.094 A 
ATOM      9  C9  DEN d   1      -4.771  -4.299   3.627  0.00  0.00    -0.072 A 
ENDROOT
TORSDOF 0
ENDMDL
