MODEL 1
REMARK minimizedAffinity 17.3225632
REMARK minimizedRMSD -1
REMARK  0 active torsions:
REMARK  status: ('A' for Active; 'I' for Inactive)
ROOT
ATOM      1  C1  DEN d   1      -1.533   2.023  -2.418  0.00  0.00     0.130 A 
ATOM      2  C2  DEN d   1      -2.052   3.097  -3.260  0.00  0.00    -0.031 A 
ATOM      3  C3  DEN d   1      -1.273   4.319  -2.973  0.00  0.00     0.027 A 
ATOM      4  C4  DEN d   1       0.678   4.647  -1.319  0.00  0.00     0.027 A 
ATOM      5  C5  DEN d   1       1.465   4.027  -0.374  0.00  0.00    -0.003 A 
ATOM      6  C6  DEN d   1       1.288   2.715  -0.023  0.00  0.00     0.001 A 
ATOM      7  C7  DEN d   1       0.328   1.968  -0.653  0.00  0.00     0.017 A 
ATOM      8  C8  DEN d   1      -0.474   2.588  -1.601  0.00  0.00    -0.094 A 
ATOM      9  C9  DEN d   1      -0.271   3.912  -1.952  0.00  0.00    -0.072 A 
ENDROOT
TORSDOF 0
ENDMDL
