MODEL 1
REMARK minimizedAffinity -3.31571937
REMARK minimizedRMSD -1
REMARK  0 active torsions:
REMARK  status: ('A' for Active; 'I' for Inactive)
ROOT
ATOM      1  N1  IND d   1      -1.574   0.380   2.088  0.00  0.00    -0.196 N 
ATOM      2  C2  IND d   1      -0.945   1.478   2.604  0.00  0.00     0.054 A 
ATOM      3  C3  IND d   1       0.096   1.836   1.818  0.00  0.00    -0.031 A 
ATOM      4  C4  IND d   1       0.884   0.824  -0.413  0.00  0.00     0.051 A 
ATOM      5  C5  IND d   1       0.647  -0.216  -1.268  0.00  0.00    -0.031 A 
ATOM      6  C6  IND d   1      -0.365  -1.127  -1.045  0.00  0.00     0.015 A 
ATOM      7  C7  IND d   1      -1.189  -1.025   0.041  0.00  0.00    -0.016 A 
ATOM      8  C8  IND d   1      -0.946   0.025   0.915  0.00  0.00    -0.047 A 
ATOM      9  C9  IND d   1       0.107   0.928   0.716  0.00  0.00    -0.096 A 
ATOM     10  HN1 IND d   1      -2.249  -0.022   2.438  0.00  0.00     0.298 HD
ENDROOT
TORSDOF 0
ENDMDL
