MODEL 1
REMARK minimizedAffinity -2.92580986
REMARK minimizedRMSD -1
REMARK  0 active torsions:
REMARK  status: ('A' for Active; 'I' for Inactive)
ROOT
ATOM      1  N1  IND d   1       0.169   1.073   2.515  0.00  0.00    -0.196 N 
ATOM      2  C2  IND d   1      -1.085   1.331   2.994  0.00  0.00     0.054 A 
ATOM      3  C3  IND d   1      -2.016   1.025   2.063  0.00  0.00    -0.031 A 
ATOM      4  C4  IND d   1      -1.713  -0.009  -0.275  0.00  0.00     0.051 A 
ATOM      5  C5  IND d   1      -0.751  -0.387  -1.169  0.00  0.00    -0.031 A 
ATOM      6  C6  IND d   1       0.594  -0.298  -0.874  0.00  0.00     0.015 A 
ATOM      7  C7  IND d   1       1.029   0.163   0.336  0.00  0.00    -0.016 A 
ATOM      8  C8  IND d   1       0.055   0.555   1.244  0.00  0.00    -0.047 A 
ATOM      9  C9  IND d   1      -1.310   0.507   0.934  0.00  0.00    -0.096 A 
ATOM     10  HN1 IND d   1       0.906   1.212   2.937  0.00  0.00     0.298 HD
ENDROOT
TORSDOF 0
ENDMDL
