MODEL 1
REMARK minimizedAffinity -4.89253855
REMARK minimizedRMSD -1
REMARK  0 active torsions:
REMARK  status: ('A' for Active; 'I' for Inactive)
ROOT
ATOM      1  N1  IND d   1      -1.213  -0.623  -0.512  0.00  0.00    -0.196 N 
ATOM      2  C2  IND d   1      -2.550  -0.407  -0.328  0.00  0.00     0.054 A 
ATOM      3  C3  IND d   1      -2.754   0.394   0.743  0.00  0.00    -0.031 A 
ATOM      4  C4  IND d   1      -1.035   1.545   2.275  0.00  0.00     0.051 A 
ATOM      5  C5  IND d   1       0.307   1.619   2.523  0.00  0.00    -0.031 A 
ATOM      6  C6  IND d   1       1.230   0.938   1.755  0.00  0.00     0.015 A 
ATOM      7  C7  IND d   1       0.843   0.163   0.698  0.00  0.00    -0.016 A 
ATOM      8  C8  IND d   1      -0.519   0.080   0.448  0.00  0.00    -0.047 A 
ATOM      9  C9  IND d   1      -1.462   0.734   1.250  0.00  0.00    -0.096 A 
ATOM     10  HN1 IND d   1      -0.865  -1.116  -1.125  0.00  0.00     0.298 HD
ENDROOT
TORSDOF 0
ENDMDL
