MODEL 1
REMARK minimizedAffinity -3.04857206
REMARK minimizedRMSD -1
REMARK  0 active torsions:
REMARK  status: ('A' for Active; 'I' for Inactive)
ROOT
ATOM      1  N1  IND d   1       1.502   0.194  -0.568  0.00  0.00    -0.196 N 
ATOM      2  C2  IND d   1       0.612  -0.692  -0.027  0.00  0.00     0.054 A 
ATOM      3  C3  IND d   1      -0.015  -1.384  -1.004  0.00  0.00    -0.031 A 
ATOM      4  C4  IND d   1       0.335  -1.299  -3.553  0.00  0.00     0.051 A 
ATOM      5  C5  IND d   1       1.014  -0.619  -4.525  0.00  0.00    -0.031 A 
ATOM      6  C6  IND d   1       1.910   0.385  -4.221  0.00  0.00     0.015 A 
ATOM      7  C7  IND d   1       2.171   0.740  -2.928  0.00  0.00    -0.016 A 
ATOM      8  C8  IND d   1       1.478   0.057  -1.939  0.00  0.00    -0.047 A 
ATOM      9  C9  IND d   1       0.535  -0.934  -2.243  0.00  0.00    -0.096 A 
ATOM     10  HN1 IND d   1       1.994   0.744  -0.127  0.00  0.00     0.298 HD
ENDROOT
TORSDOF 0
ENDMDL
