MODEL 1
REMARK minimizedAffinity -4.74977875
REMARK minimizedRMSD -1
REMARK  0 active torsions:
REMARK  status: ('A' for Active; 'I' for Inactive)
ROOT
ATOM      1  N1  IND d   1      -0.811   1.548  -0.038  0.00  0.00    -0.196 N 
ATOM      2  C2  IND d   1      -0.670   2.086   1.210  0.00  0.00     0.054 A 
ATOM      3  C3  IND d   1       0.243   1.389   1.923  0.00  0.00    -0.031 A 
ATOM      4  C4  IND d   1       1.702  -0.607   1.204  0.00  0.00     0.051 A 
ATOM      5  C5  IND d   1       1.905  -1.475   0.168  0.00  0.00    -0.031 A 
ATOM      6  C6  IND d   1       1.201  -1.376  -1.015  0.00  0.00     0.015 A 
ATOM      7  C7  IND d   1       0.271  -0.394  -1.211  0.00  0.00    -0.016 A 
ATOM      8  C8  IND d   1       0.057   0.485  -0.158  0.00  0.00    -0.047 A 
ATOM      9  C9  IND d   1       0.739   0.364   1.060  0.00  0.00    -0.096 A 
ATOM     10  HN1 IND d   1      -1.351   1.826  -0.647  0.00  0.00     0.298 HD
ENDROOT
TORSDOF 0
ENDMDL
