MODEL 1
REMARK minimizedAffinity -3.82829571
REMARK minimizedRMSD -1
REMARK  0 active torsions:
REMARK  status: ('A' for Active; 'I' for Inactive)
ROOT
ATOM      1  N1  IND d   1       0.208  -1.071  -0.569  0.00  0.00    -0.196 N 
ATOM      2  C2  IND d   1       1.430  -1.298   0.001  0.00  0.00     0.054 A 
ATOM      3  C3  IND d   1       1.642  -0.434   1.019  0.00  0.00    -0.031 A 
ATOM      4  C4  IND d   1       0.078   1.367   1.988  0.00  0.00     0.051 A 
ATOM      5  C5  IND d   1      -1.130   1.971   1.778  0.00  0.00    -0.031 A 
ATOM      6  C6  IND d   1      -1.971   1.583   0.755  0.00  0.00     0.015 A 
ATOM      7  C7  IND d   1      -1.640   0.563  -0.091  0.00  0.00    -0.016 A 
ATOM      8  C8  IND d   1      -0.412  -0.048   0.115  0.00  0.00    -0.047 A 
ATOM      9  C9  IND d   1       0.465   0.370   1.124  0.00  0.00    -0.096 A 
ATOM     10  HN1 IND d   1      -0.119  -1.496  -1.241  0.00  0.00     0.298 HD
ENDROOT
TORSDOF 0
ENDMDL
