MODEL 1
REMARK minimizedAffinity 14.2272663
REMARK minimizedRMSD -1
REMARK  0 active torsions:
REMARK  status: ('A' for Active; 'I' for Inactive)
ROOT
ATOM      1  C4' PXY d   1      -1.500  -3.410  -3.359  0.00  0.00     0.077 C 
ATOM      2  C1' PXY d   1       2.606  -2.890   0.676  0.00  0.00     0.077 C 
ATOM      3  C1  PXY d   1       1.534  -3.038  -0.385  0.00  0.00    -0.082 A 
ATOM      4  C2  PXY d   1       0.987  -1.958  -0.918  0.00  0.00     0.003 A 
ATOM      5  C3  PXY d   1      -0.006  -2.073  -1.855  0.00  0.00     0.003 A 
ATOM      6  C4  PXY d   1      -0.407  -3.308  -2.291  0.00  0.00    -0.082 A 
ATOM      7  C5  PXY d   1       0.153  -4.415  -1.760  0.00  0.00     0.003 A 
ATOM      8  C6  PXY d   1       1.131  -4.277  -0.779  0.00  0.00     0.003 A 
ENDROOT
TORSDOF 0
ENDMDL
