MODEL 1
REMARK minimizedAffinity 7.72726822
REMARK minimizedRMSD -1
REMARK  0 active torsions:
REMARK  status: ('A' for Active; 'I' for Inactive)
ROOT
ATOM      1  C4' PXY d   1       1.905  -4.361   0.329  0.00  0.00     0.077 C 
ATOM      2  C1' PXY d   1      -1.396  -5.443  -4.291  0.00  0.00     0.077 C 
ATOM      3  C1  PXY d   1      -0.527  -5.172  -3.079  0.00  0.00    -0.082 A 
ATOM      4  C2  PXY d   1      -0.780  -4.122  -2.314  0.00  0.00     0.003 A 
ATOM      5  C3  PXY d   1       0.015  -3.844  -1.233  0.00  0.00     0.003 A 
ATOM      6  C4  PXY d   1       1.048  -4.679  -0.899  0.00  0.00    -0.082 A 
ATOM      7  C5  PXY d   1       1.306  -5.758  -1.669  0.00  0.00     0.003 A 
ATOM      8  C6  PXY d   1       0.512  -6.000  -2.786  0.00  0.00     0.003 A 
ENDROOT
TORSDOF 0
ENDMDL
