MODEL 1
REMARK minimizedAffinity -2.17261195
REMARK minimizedRMSD -1
REMARK  0 active torsions:
REMARK  status: ('A' for Active; 'I' for Inactive)
ROOT
ATOM      1  C4' PXY d   1       0.119   2.312   2.496  0.00  0.00     0.077 C 
ATOM      2  C1' PXY d   1      -0.976   5.212  -2.383  0.00  0.00     0.077 C 
ATOM      3  C1  PXY d   1      -0.695   4.461  -1.097  0.00  0.00    -0.082 A 
ATOM      4  C2  PXY d   1       0.326   3.622  -1.039  0.00  0.00     0.003 A 
ATOM      5  C3  PXY d   1       0.576   2.910   0.106  0.00  0.00     0.003 A 
ATOM      6  C4  PXY d   1      -0.197   3.099   1.221  0.00  0.00    -0.082 A 
ATOM      7  C5  PXY d   1      -1.234   3.961   1.174  0.00  0.00     0.003 A 
ATOM      8  C6  PXY d   1      -1.495   4.644  -0.011  0.00  0.00     0.003 A 
ENDROOT
TORSDOF 0
ENDMDL
