MODEL 1
REMARK minimizedAffinity 9.55849934
REMARK minimizedRMSD -1
REMARK  0 active torsions:
REMARK  status: ('A' for Active; 'I' for Inactive)
ROOT
ATOM      1  C4' PXY d   1      -1.273   3.950   0.993  0.00  0.00     0.077 C 
ATOM      2  C1' PXY d   1      -0.229   5.994  -4.312  0.00  0.00     0.077 C 
ATOM      3  C1  PXY d   1      -0.497   5.447  -2.924  0.00  0.00    -0.082 A 
ATOM      4  C2  PXY d   1      -1.481   5.955  -2.200  0.00  0.00     0.003 A 
ATOM      5  C3  PXY d   1      -1.716   5.493  -0.930  0.00  0.00     0.003 A 
ATOM      6  C4  PXY d   1      -0.972   4.465  -0.417  0.00  0.00    -0.082 A 
ATOM      7  C5  PXY d   1       0.027   3.934  -1.154  0.00  0.00     0.003 A 
ATOM      8  C6  PXY d   1       0.276   4.445  -2.425  0.00  0.00     0.003 A 
ENDROOT
TORSDOF 0
ENDMDL
