MODEL 1
REMARK minimizedAffinity 7.57334232
REMARK minimizedRMSD -1
REMARK  0 active torsions:
REMARK  status: ('A' for Active; 'I' for Inactive)
ROOT
ATOM      1  C4' PXY d   1      -1.230   5.997  -3.171  0.00  0.00     0.077 C 
ATOM      2  C1' PXY d   1       0.427   2.895   1.417  0.00  0.00     0.077 C 
ATOM      3  C1  PXY d   1      -0.017   3.714   0.221  0.00  0.00    -0.082 A 
ATOM      4  C2  PXY d   1       0.237   3.277  -1.002  0.00  0.00     0.003 A 
ATOM      5  C3  PXY d   1      -0.129   4.021  -2.094  0.00  0.00     0.003 A 
ATOM      6  C4  PXY d   1      -0.809   5.199  -1.934  0.00  0.00    -0.082 A 
ATOM      7  C5  PXY d   1      -1.082   5.646  -0.690  0.00  0.00     0.003 A 
ATOM      8  C6  PXY d   1      -0.665   4.896   0.406  0.00  0.00     0.003 A 
ENDROOT
TORSDOF 0
ENDMDL
