MODEL 1
REMARK minimizedAffinity 8.01163578
REMARK minimizedRMSD -1
REMARK  0 active torsions:
REMARK  status: ('A' for Active; 'I' for Inactive)
ROOT
ATOM      1  C4' PXY d   1      -1.494   5.994  -2.742  0.00  0.00     0.077 C 
ATOM      2  C1' PXY d   1       0.728   2.875   1.589  0.00  0.00     0.077 C 
ATOM      3  C1  PXY d   1       0.139   3.701   0.462  0.00  0.00    -0.082 A 
ATOM      4  C2  PXY d   1       0.022   3.171  -0.745  0.00  0.00     0.003 A 
ATOM      5  C3  PXY d   1      -0.478   3.914  -1.783  0.00  0.00     0.003 A 
ATOM      6  C4  PXY d   1      -0.914   5.195  -1.572  0.00  0.00    -0.082 A 
ATOM      7  C5  PXY d   1      -0.808   5.738  -0.341  0.00  0.00     0.003 A 
ATOM      8  C6  PXY d   1      -0.259   4.982   0.690  0.00  0.00     0.003 A 
ENDROOT
TORSDOF 0
ENDMDL
