MODEL 1
REMARK minimizedAffinity 2.13002348
REMARK minimizedRMSD -1
REMARK  0 active torsions:
REMARK  status: ('A' for Active; 'I' for Inactive)
ROOT
ATOM      1  C4' PXY d   1      -0.009   3.000   1.257  0.00  0.00     0.077 C 
ATOM      2  C1' PXY d   1      -1.298   5.995  -3.515  0.00  0.00     0.077 C 
ATOM      3  C1  PXY d   1      -0.959   5.221  -2.257  0.00  0.00    -0.082 A 
ATOM      4  C2  PXY d   1      -0.483   3.990  -2.355  0.00  0.00     0.003 A 
ATOM      5  C3  PXY d   1      -0.201   3.264  -1.227  0.00  0.00     0.003 A 
ATOM      6  C4  PXY d   1      -0.357   3.822   0.014  0.00  0.00    -0.082 A 
ATOM      7  C5  PXY d   1      -0.831   5.081   0.122  0.00  0.00     0.003 A 
ATOM      8  C6  PXY d   1      -1.151   5.787  -1.035  0.00  0.00     0.003 A 
ENDROOT
TORSDOF 0
ENDMDL
