MODEL 1
REMARK minimizedAffinity 6.66016436
REMARK minimizedRMSD -1
REMARK  0 active torsions:
REMARK  status: ('A' for Active; 'I' for Inactive)
ROOT
ATOM      1  C4' PXY d   1       0.469   0.919   3.718  0.00  0.00     0.077 C 
ATOM      2  C1' PXY d   1       0.911   5.183  -0.159  0.00  0.00     0.077 C 
ATOM      3  C1  PXY d   1       0.808   4.066   0.860  0.00  0.00    -0.082 A 
ATOM      4  C2  PXY d   1      -0.167   3.177   0.760  0.00  0.00     0.003 A 
ATOM      5  C3  PXY d   1      -0.294   2.179   1.692  0.00  0.00     0.003 A 
ATOM      6  C4  PXY d   1       0.617   2.058   2.706  0.00  0.00    -0.082 A 
ATOM      7  C5  PXY d   1       1.621   2.955   2.809  0.00  0.00     0.003 A 
ATOM      8  C6  PXY d   1       1.709   3.985   1.877  0.00  0.00     0.003 A 
ENDROOT
TORSDOF 0
ENDMDL
