MODEL 1
REMARK minimizedAffinity 14.5528631
REMARK minimizedRMSD -1
REMARK  0 active torsions:
REMARK  status: ('A' for Active; 'I' for Inactive)
ROOT
ATOM      1  C4' PXY d   1      -1.534  -4.076  -3.365  0.00  0.00     0.077 C 
ATOM      2  C1' PXY d   1       2.126  -2.925   0.959  0.00  0.00     0.077 C 
ATOM      3  C1  PXY d   1       1.174  -3.237  -0.178  0.00  0.00    -0.082 A 
ATOM      4  C2  PXY d   1       0.444  -2.267  -0.705  0.00  0.00     0.003 A 
ATOM      5  C3  PXY d   1      -0.446  -2.538  -1.713  0.00  0.00     0.003 A 
ATOM      6  C4  PXY d   1      -0.552  -3.805  -2.222  0.00  0.00    -0.082 A 
ATOM      7  C5  PXY d   1       0.197  -4.797  -1.697  0.00  0.00     0.003 A 
ATOM      8  C6  PXY d   1       1.065  -4.510  -0.647  0.00  0.00     0.003 A 
ENDROOT
TORSDOF 0
ENDMDL
