MODEL 1
REMARK minimizedAffinity 11.9655781
REMARK minimizedRMSD -1
REMARK  0 active torsions:
REMARK  status: ('A' for Active; 'I' for Inactive)
ROOT
ATOM      1  C4' PXY d   1      -1.320  -4.474  -2.304  0.00  0.00     0.077 C 
ATOM      2  C1' PXY d   1       2.805  -1.628   0.578  0.00  0.00     0.077 C 
ATOM      3  C1  PXY d   1       1.731  -2.385  -0.179  0.00  0.00    -0.082 A 
ATOM      4  C2  PXY d   1       0.765  -1.716  -0.787  0.00  0.00     0.003 A 
ATOM      5  C3  PXY d   1      -0.231  -2.385  -1.450  0.00  0.00     0.003 A 
ATOM      6  C4  PXY d   1      -0.210  -3.751  -1.536  0.00  0.00    -0.082 A 
ATOM      7  C5  PXY d   1       0.779  -4.441  -0.927  0.00  0.00     0.003 A 
ATOM      8  C6  PXY d   1       1.758  -3.744  -0.225  0.00  0.00     0.003 A 
ENDROOT
TORSDOF 0
ENDMDL
