MODEL 1
REMARK minimizedAffinity 0.558974326
REMARK minimizedRMSD -1
REMARK  0 active torsions:
REMARK  status: ('A' for Active; 'I' for Inactive)
ROOT
ATOM      1  C4' PXY d   1       0.859   2.252   1.072  0.00  0.00     0.077 C 
ATOM      2  C1' PXY d   1      -2.024   5.995  -2.259  0.00  0.00     0.077 C 
ATOM      3  C1  PXY d   1      -1.271   5.020  -1.375  0.00  0.00    -0.082 A 
ATOM      4  C2  PXY d   1      -0.300   4.285  -1.891  0.00  0.00     0.003 A 
ATOM      5  C3  PXY d   1       0.370   3.376  -1.113  0.00  0.00     0.003 A 
ATOM      6  C4  PXY d   1       0.078   3.256   0.219  0.00  0.00    -0.082 A 
ATOM      7  C5  PXY d   1      -0.905   4.010   0.755  0.00  0.00     0.003 A 
ATOM      8  C6  PXY d   1      -1.600   4.897  -0.061  0.00  0.00     0.003 A 
ENDROOT
TORSDOF 0
ENDMDL
