MODEL 1
REMARK minimizedAffinity -3.79631257
REMARK minimizedRMSD -1
REMARK  1 active torsions:
REMARK  status: ('A' for Active; 'I' for Inactive)
REMARK    1  A    between atoms: C1_2  and  C2_3 
ROOT
ATOM      1  C2  UNL d   1       0.052  -0.505   0.299  0.00  0.00    -0.076 A 
ATOM      2  C3  UNL d   1      -1.289  -0.143   0.084  0.00  0.00     0.004 A 
ATOM      3  C4  UNL d   1      -2.064   0.385   1.115  0.00  0.00    -0.003 A 
ATOM      4  C5  UNL d   1      -1.510   0.561   2.378  0.00  0.00     0.000 A 
ATOM      5  C6  UNL d   1      -0.176   0.223   2.605  0.00  0.00     0.000 A 
ATOM      6  C7  UNL d   1       0.624  -0.295   1.572  0.00  0.00    -0.073 A 
ATOM      7  C8  UNL d   1       2.055  -0.647   1.875  0.00  0.00     0.078 C 
ENDROOT
BRANCH   1   8
ATOM      8  C1  UNL d   1       0.836  -1.098  -0.850  0.00  0.00     0.053 C 
ATOM      9  C   UNL d   1       0.356  -0.597  -2.203  0.00  0.00     0.018 C 
ENDBRANCH   1   8
TORSDOF 1
ENDMDL
