MODEL 1
REMARK minimizedAffinity -3.06591344
REMARK minimizedRMSD -1
REMARK  1 active torsions:
REMARK  status: ('A' for Active; 'I' for Inactive)
REMARK    1  A    between atoms: C1_2  and  C2_3 
ROOT
ATOM      1  C2  UNL d   1      -1.780   0.065   0.444  0.00  0.00    -0.076 A 
ATOM      2  C3  UNL d   1      -1.849   0.628   1.731  0.00  0.00     0.004 A 
ATOM      3  C4  UNL d   1      -0.702   0.790   2.506  0.00  0.00    -0.003 A 
ATOM      4  C5  UNL d   1       0.533   0.393   2.006  0.00  0.00     0.000 A 
ATOM      5  C6  UNL d   1       0.623  -0.150   0.725  0.00  0.00     0.000 A 
ATOM      6  C7  UNL d   1      -0.521  -0.306  -0.076  0.00  0.00    -0.073 A 
ATOM      7  C8  UNL d   1      -0.367  -0.903  -1.447  0.00  0.00     0.078 C 
ENDROOT
BRANCH   1   8
ATOM      8  C1  UNL d   1      -3.061  -0.111  -0.339  0.00  0.00     0.053 C 
ATOM      9  C   UNL d   1      -4.117   0.919   0.031  0.00  0.00     0.018 C 
ENDBRANCH   1   8
TORSDOF 1
ENDMDL
