MODEL 1
REMARK minimizedAffinity 0.0697231889
REMARK minimizedRMSD -1
REMARK  1 active torsions:
REMARK  status: ('A' for Active; 'I' for Inactive)
REMARK    1  A    between atoms: C1_2  and  C2_3 
ROOT
ATOM      1  C2  UNL d   1       0.118   0.111   1.021  0.00  0.00    -0.076 A 
ATOM      2  C3  UNL d   1       1.491  -0.147   1.177  0.00  0.00     0.004 A 
ATOM      3  C4  UNL d   1       2.044  -0.349   2.441  0.00  0.00    -0.003 A 
ATOM      4  C5  UNL d   1       1.233  -0.296   3.569  0.00  0.00     0.000 A 
ATOM      5  C6  UNL d   1      -0.134  -0.058   3.432  0.00  0.00     0.000 A 
ATOM      6  C7  UNL d   1      -0.711   0.131   2.164  0.00  0.00    -0.073 A 
ATOM      7  C8  UNL d   1      -2.190   0.390   2.075  0.00  0.00     0.078 C 
ENDROOT
BRANCH   1   8
ATOM      8  C1  UNL d   1      -0.421   0.349  -0.371  0.00  0.00     0.053 C 
ATOM      9  C   UNL d   1      -1.532  -0.621  -0.740  0.00  0.00     0.018 C 
ENDBRANCH   1   8
TORSDOF 1
ENDMDL
