MODEL 1
REMARK minimizedAffinity -4.97273159
REMARK minimizedRMSD -1
REMARK  1 active torsions:
REMARK  status: ('A' for Active; 'I' for Inactive)
REMARK    1  A    between atoms: C1_2  and  C2_3 
ROOT
ATOM      1  C2  UNL d   1       0.989  -0.765  -0.936  0.00  0.00    -0.076 A 
ATOM      2  C3  UNL d   1       2.302  -0.977  -0.479  0.00  0.00     0.004 A 
ATOM      3  C4  UNL d   1       2.606  -0.922   0.881  0.00  0.00    -0.003 A 
ATOM      4  C5  UNL d   1       1.602  -0.655   1.805  0.00  0.00     0.000 A 
ATOM      5  C6  UNL d   1       0.291  -0.460   1.371  0.00  0.00     0.000 A 
ATOM      6  C7  UNL d   1      -0.035  -0.527   0.006  0.00  0.00    -0.073 A 
ATOM      7  C8  UNL d   1      -1.464  -0.303  -0.407  0.00  0.00     0.078 C 
ENDROOT
BRANCH   1   8
ATOM      8  C1  UNL d   1       0.724  -0.810  -2.423  0.00  0.00     0.053 C 
ATOM      9  C   UNL d   1       1.633   0.126  -3.206  0.00  0.00     0.018 C 
ENDBRANCH   1   8
TORSDOF 1
ENDMDL
