MODEL 1
REMARK minimizedAffinity -1.1433742
REMARK minimizedRMSD -1
REMARK  1 active torsions:
REMARK  status: ('A' for Active; 'I' for Inactive)
REMARK    1  A    between atoms: C1_2  and  C2_3 
ROOT
ATOM      1  C2  UNL d   1      -0.744  -0.120  -1.000  0.00  0.00    -0.076 A 
ATOM      2  C3  UNL d   1      -1.901   0.670  -0.884  0.00  0.00     0.004 A 
ATOM      3  C4  UNL d   1      -2.428   0.991   0.366  0.00  0.00    -0.003 A 
ATOM      4  C5  UNL d   1      -1.806   0.529   1.520  0.00  0.00     0.000 A 
ATOM      5  C6  UNL d   1      -0.647  -0.241   1.424  0.00  0.00     0.000 A 
ATOM      6  C7  UNL d   1      -0.094  -0.561   0.173  0.00  0.00    -0.073 A 
ATOM      7  C8  UNL d   1       1.154  -1.399   0.128  0.00  0.00     0.078 C 
ENDROOT
BRANCH   1   8
ATOM      8  C1  UNL d   1      -0.234  -0.459  -2.382  0.00  0.00     0.053 C 
ATOM      9  C   UNL d   1       0.626   0.647  -2.974  0.00  0.00     0.018 C 
ENDBRANCH   1   8
TORSDOF 1
ENDMDL
