MODEL 1
REMARK minimizedAffinity -3.65498948
REMARK minimizedRMSD -1
REMARK  3 active torsions:
REMARK  status: ('A' for Active; 'I' for Inactive)
REMARK    1  A    between atoms: C3'_2  and  C2'_3 
REMARK    2  A    between atoms: C2'_3  and  C1'_4 
REMARK    3  A    between atoms: C1'_4  and  C1_5 
ROOT
ATOM      1  C1  N4B d   1       0.340  -0.315  -0.198  0.00  0.00    -0.075 A 
ATOM      2  C2  N4B d   1       1.026  -1.227  -1.030  0.00  0.00     0.002 A 
ATOM      3  C3  N4B d   1       2.164  -1.848  -0.578  0.00  0.00     0.002 A 
ATOM      4  C4  N4B d   1       2.644  -1.560   0.691  0.00  0.00    -0.004 A 
ATOM      5  C5  N4B d   1       1.962  -0.697   1.498  0.00  0.00     0.002 A 
ATOM      6  C6  N4B d   1       0.815  -0.069   1.058  0.00  0.00     0.002 A 
ENDROOT
BRANCH   1   7
ATOM      7  C1' N4B d   1      -0.860   0.453  -0.680  0.00  0.00     0.057 C 
BRANCH   7   8
ATOM      8  C2' N4B d   1      -1.670   0.924   0.524  0.00  0.00     0.009 C 
BRANCH   8   9
ATOM      9  C3' N4B d   1      -3.164   0.771   0.298  0.00  0.00     0.004 C 
ATOM     10  C4' N4B d   1      -3.947   0.758   1.577  0.00  0.00     0.003 C 
ENDBRANCH   8   9
ENDBRANCH   7   8
ENDBRANCH   1   7
TORSDOF 3
ENDMDL
