MODEL 1
REMARK minimizedAffinity -6.10999727
REMARK minimizedRMSD -1
REMARK  3 active torsions:
REMARK  status: ('A' for Active; 'I' for Inactive)
REMARK    1  A    between atoms: C3'_2  and  C2'_3 
REMARK    2  A    between atoms: C2'_3  and  C1'_4 
REMARK    3  A    between atoms: C1'_4  and  C1_5 
ROOT
ATOM      1  C1  N4B d   1      -0.120  -0.136   0.260  0.00  0.00    -0.075 A 
ATOM      2  C2  N4B d   1       0.357  -1.370  -0.234  0.00  0.00     0.002 A 
ATOM      3  C3  N4B d   1       1.640  -1.772   0.046  0.00  0.00     0.002 A 
ATOM      4  C4  N4B d   1       2.467  -0.952   0.799  0.00  0.00    -0.004 A 
ATOM      5  C5  N4B d   1       1.990   0.227   1.294  0.00  0.00     0.002 A 
ATOM      6  C6  N4B d   1       0.702   0.642   1.024  0.00  0.00     0.002 A 
ENDROOT
BRANCH   1   7
ATOM      7  C1' N4B d   1      -1.487   0.386  -0.091  0.00  0.00     0.057 C 
BRANCH   7   8
ATOM      8  C2' N4B d   1      -1.955   1.340   1.003  0.00  0.00     0.009 C 
BRANCH   8   9
ATOM      9  C3' N4B d   1      -3.468   1.467   1.037  0.00  0.00     0.004 C 
ATOM     10  C4' N4B d   1      -4.141   0.241   1.579  0.00  0.00     0.003 C 
ENDBRANCH   8   9
ENDBRANCH   7   8
ENDBRANCH   1   7
TORSDOF 3
ENDMDL
