MODEL 1
REMARK minimizedAffinity -4.93959522
REMARK minimizedRMSD -1
REMARK  3 active torsions:
REMARK  status: ('A' for Active; 'I' for Inactive)
REMARK    1  A    between atoms: C3'_2  and  C2'_3 
REMARK    2  A    between atoms: C2'_3  and  C1'_4 
REMARK    3  A    between atoms: C1'_4  and  C1_5 
ROOT
ATOM      1  C1  N4B d   1       0.612  -0.416  -0.133  0.00  0.00    -0.075 A 
ATOM      2  C2  N4B d   1       1.364   0.773  -0.007  0.00  0.00     0.002 A 
ATOM      3  C3  N4B d   1       2.557   0.762   0.675  0.00  0.00     0.002 A 
ATOM      4  C4  N4B d   1       3.006  -0.416   1.252  0.00  0.00    -0.004 A 
ATOM      5  C5  N4B d   1       2.286  -1.565   1.104  0.00  0.00     0.002 A 
ATOM      6  C6  N4B d   1       1.088  -1.570   0.419  0.00  0.00     0.002 A 
ENDROOT
BRANCH   1   7
ATOM      7  C1' N4B d   1      -0.738  -0.435  -0.795  0.00  0.00     0.057 C 
BRANCH   7   8
ATOM      8  C2' N4B d   1      -1.561   0.746  -0.288  0.00  0.00     0.009 C 
BRANCH   8   9
ATOM      9  C3' N4B d   1      -2.047   0.530   1.135  0.00  0.00     0.004 C 
ATOM     10  C4' N4B d   1      -3.153   1.468   1.520  0.00  0.00     0.003 C 
ENDBRANCH   8   9
ENDBRANCH   7   8
ENDBRANCH   1   7
TORSDOF 3
ENDMDL
