MODEL 1
REMARK minimizedAffinity -4.93418121
REMARK minimizedRMSD -1
REMARK  3 active torsions:
REMARK  status: ('A' for Active; 'I' for Inactive)
REMARK    1  A    between atoms: C3'_2  and  C2'_3 
REMARK    2  A    between atoms: C2'_3  and  C1'_4 
REMARK    3  A    between atoms: C1'_4  and  C1_5 
ROOT
ATOM      1  C1  N4B d   1       0.006  -0.233  -0.438  0.00  0.00    -0.075 A 
ATOM      2  C2  N4B d   1       0.104  -1.536  -0.974  0.00  0.00     0.002 A 
ATOM      3  C3  N4B d   1       1.262  -2.258  -0.816  0.00  0.00     0.002 A 
ATOM      4  C4  N4B d   1       2.335  -1.694  -0.143  0.00  0.00    -0.004 A 
ATOM      5  C5  N4B d   1       2.223  -0.445   0.394  0.00  0.00     0.002 A 
ATOM      6  C6  N4B d   1       1.065   0.291   0.246  0.00  0.00     0.002 A 
ENDROOT
BRANCH   1   7
ATOM      7  C1' N4B d   1      -1.208   0.628  -0.660  0.00  0.00     0.057 C 
BRANCH   7   8
ATOM      8  C2' N4B d   1      -1.947   0.803   0.664  0.00  0.00     0.009 C 
BRANCH   8   9
ATOM      9  C3' N4B d   1      -3.425   1.085   0.456  0.00  0.00     0.004 C 
ATOM     10  C4' N4B d   1      -4.228   0.926   1.713  0.00  0.00     0.003 C 
ENDBRANCH   8   9
ENDBRANCH   7   8
ENDBRANCH   1   7
TORSDOF 3
ENDMDL
