MODEL 1
REMARK minimizedAffinity -3.5760262
REMARK minimizedRMSD -1
REMARK  0 active torsions:
REMARK  status: ('A' for Active; 'I' for Inactive)
ROOT
ATOM      1  C   UNL d   1      -1.048   0.729   2.839  0.00  0.00     0.078 C 
ATOM      2  C1  UNL d   1      -0.143   0.223   1.757  0.00  0.00    -0.077 A 
ATOM      3  C2  UNL d   1      -0.572   0.168   0.425  0.00  0.00    -0.001 A 
ATOM      4  C3  UNL d   1       0.279  -0.314  -0.571  0.00  0.00     0.003 A 
ATOM      5  C4  UNL d   1       1.563  -0.747  -0.246  0.00  0.00    -0.005 A 
ATOM      6  C5  UNL d   1       1.998  -0.698   1.077  0.00  0.00     0.003 A 
ATOM      7  C6  UNL d   1       1.149  -0.216   2.074  0.00  0.00    -0.001 A 
ENDROOT
TORSDOF 0
ENDMDL
