MODEL 1
REMARK minimizedAffinity -3.59416103
REMARK minimizedRMSD -1
REMARK  0 active torsions:
REMARK  status: ('A' for Active; 'I' for Inactive)
ROOT
ATOM      1  C   UNL d   1      -0.752   1.093   3.518  0.00  0.00     0.078 C 
ATOM      2  C1  UNL d   1      -0.341   0.450   2.227  0.00  0.00    -0.077 A 
ATOM      3  C2  UNL d   1      -1.269   0.239   1.199  0.00  0.00    -0.001 A 
ATOM      4  C3  UNL d   1      -0.875  -0.370   0.007  0.00  0.00     0.003 A 
ATOM      5  C4  UNL d   1       0.447  -0.774  -0.169  0.00  0.00    -0.005 A 
ATOM      6  C5  UNL d   1       1.377  -0.570   0.848  0.00  0.00     0.003 A 
ATOM      7  C6  UNL d   1       0.985   0.039   2.042  0.00  0.00    -0.001 A 
ENDROOT
TORSDOF 0
ENDMDL
