MODEL 1
REMARK minimizedAffinity -3.67524147
REMARK minimizedRMSD -1
REMARK  0 active torsions:
REMARK  status: ('A' for Active; 'I' for Inactive)
ROOT
ATOM      1  C   UNL d   1       1.354   0.999  -3.521  0.00  0.00     0.078 C 
ATOM      2  C1  UNL d   1       1.160   0.406  -2.157  0.00  0.00    -0.077 A 
ATOM      3  C2  UNL d   1       2.056  -0.544  -1.650  0.00  0.00    -0.001 A 
ATOM      4  C3  UNL d   1       1.858  -1.095  -0.383  0.00  0.00     0.003 A 
ATOM      5  C4  UNL d   1       0.765  -0.704   0.387  0.00  0.00    -0.005 A 
ATOM      6  C5  UNL d   1      -0.133   0.238  -0.110  0.00  0.00     0.003 A 
ATOM      7  C6  UNL d   1       0.063   0.791  -1.377  0.00  0.00    -0.001 A 
ENDROOT
TORSDOF 0
ENDMDL
