MODEL 1
REMARK minimizedAffinity -4.047194
REMARK minimizedRMSD -1
REMARK  0 active torsions:
REMARK  status: ('A' for Active; 'I' for Inactive)
ROOT
ATOM      1  C   UNL d   1      -1.726   0.483   1.875  0.00  0.00     0.078 C 
ATOM      2  C1  UNL d   1      -0.624  -0.041   1.002  0.00  0.00    -0.077 A 
ATOM      3  C2  UNL d   1      -0.859  -0.364  -0.340  0.00  0.00    -0.001 A 
ATOM      4  C3  UNL d   1       0.174  -0.860  -1.137  0.00  0.00     0.003 A 
ATOM      5  C4  UNL d   1       1.448  -1.038  -0.602  0.00  0.00    -0.005 A 
ATOM      6  C5  UNL d   1       1.690  -0.721   0.733  0.00  0.00     0.003 A 
ATOM      7  C6  UNL d   1       0.659  -0.225   1.532  0.00  0.00    -0.001 A 
ENDROOT
TORSDOF 0
ENDMDL
