MODEL 1
REMARK minimizedAffinity -0.645460486
REMARK minimizedRMSD -1
REMARK  0 active torsions:
REMARK  status: ('A' for Active; 'I' for Inactive)
ROOT
ATOM      1  C   UNL d   1       1.284  -0.187   0.333  0.00  0.00     0.078 C 
ATOM      2  C1  UNL d   1       0.357  -0.005   1.498  0.00  0.00    -0.077 A 
ATOM      3  C2  UNL d   1       0.854   0.246   2.783  0.00  0.00    -0.001 A 
ATOM      4  C3  UNL d   1      -0.021   0.403   3.859  0.00  0.00     0.003 A 
ATOM      5  C4  UNL d   1      -1.397   0.310   3.663  0.00  0.00    -0.005 A 
ATOM      6  C5  UNL d   1      -1.901   0.058   2.388  0.00  0.00     0.003 A 
ATOM      7  C6  UNL d   1      -1.028  -0.100   1.310  0.00  0.00    -0.001 A 
ENDROOT
TORSDOF 0
ENDMDL
