MODEL 1
REMARK minimizedAffinity 9.31160927
REMARK minimizedRMSD -1
REMARK  0 active torsions:
REMARK  status: ('A' for Active; 'I' for Inactive)
ROOT
ATOM      1  C4' PXY d   1      -3.751   0.577   0.992  0.00  0.00     0.077 C 
ATOM      2  C1' PXY d   1       1.405   0.070   3.557  0.00  0.00     0.077 C 
ATOM      3  C1  PXY d   1       0.048   0.194   2.893  0.00  0.00    -0.082 A 
ATOM      4  C2  PXY d   1      -0.030   0.591   1.633  0.00  0.00     0.003 A 
ATOM      5  C3  PXY d   1      -1.251   0.740   1.027  0.00  0.00     0.003 A 
ATOM      6  C4  PXY d   1      -2.401   0.428   1.700  0.00  0.00    -0.082 A 
ATOM      7  C5  PXY d   1      -2.330   0.013   2.983  0.00  0.00     0.003 A 
ATOM      8  C6  PXY d   1      -1.083  -0.092   3.593  0.00  0.00     0.003 A 
ENDROOT
TORSDOF 0
ENDMDL
