MODEL 1
REMARK minimizedAffinity 4.43288755
REMARK minimizedRMSD -1
REMARK  0 active torsions:
REMARK  status: ('A' for Active; 'I' for Inactive)
ROOT
ATOM      1  C4' PXY d   1      -2.769   0.140   1.045  0.00  0.00     0.077 C 
ATOM      2  C1' PXY d   1       1.034   2.538   4.678  0.00  0.00     0.077 C 
ATOM      3  C1  PXY d   1       0.043   1.898   3.726  0.00  0.00    -0.082 A 
ATOM      4  C2  PXY d   1      -0.648   2.658   2.893  0.00  0.00     0.003 A 
ATOM      5  C3  PXY d   1      -1.571   2.099   2.047  0.00  0.00     0.003 A 
ATOM      6  C4  PXY d   1      -1.751   0.742   2.018  0.00  0.00    -0.082 A 
ATOM      7  C5  PXY d   1      -1.042  -0.042   2.857  0.00  0.00     0.003 A 
ATOM      8  C6  PXY d   1      -0.139   0.550   3.737  0.00  0.00     0.003 A 
ENDROOT
TORSDOF 0
ENDMDL
