MODEL 1
REMARK minimizedAffinity 3.39790297
REMARK minimizedRMSD -1
REMARK  0 active torsions:
REMARK  status: ('A' for Active; 'I' for Inactive)
ROOT
ATOM      1  C4' PXY d   1      -5.999   5.996   6.000  0.00  0.00     0.077 C 
ATOM      2  C1' PXY d   1      -2.785   3.415   1.949  0.00  0.00     0.077 C 
ATOM      3  C1  PXY d   1      -3.618   4.099   3.014  0.00  0.00    -0.082 A 
ATOM      4  C2  PXY d   1      -4.635   3.456   3.563  0.00  0.00     0.003 A 
ATOM      5  C3  PXY d   1      -5.419   4.072   4.505  0.00  0.00     0.003 A 
ATOM      6  C4  PXY d   1      -5.125   5.341   4.928  0.00  0.00    -0.082 A 
ATOM      7  C5  PXY d   1      -4.082   6.000   4.380  0.00  0.00     0.003 A 
ATOM      8  C6  PXY d   1      -3.324   5.372   3.396  0.00  0.00     0.003 A 
ENDROOT
TORSDOF 0
ENDMDL
