MODEL 1
REMARK minimizedAffinity 2.00015402
REMARK minimizedRMSD -1
REMARK  0 active torsions:
REMARK  status: ('A' for Active; 'I' for Inactive)
ROOT
ATOM      1  C4' PXY d   1      -1.610  -0.979  -5.966  0.00  0.00     0.077 C 
ATOM      2  C1' PXY d   1      -5.074  -5.607  -5.999  0.00  0.00     0.077 C 
ATOM      3  C1  PXY d   1      -4.175  -4.386  -5.995  0.00  0.00    -0.082 A 
ATOM      4  C2  PXY d   1      -2.861  -4.542  -5.991  0.00  0.00     0.003 A 
ATOM      5  C3  PXY d   1      -2.033  -3.449  -5.956  0.00  0.00     0.003 A 
ATOM      6  C4  PXY d   1      -2.556  -2.183  -5.979  0.00  0.00    -0.082 A 
ATOM      7  C5  PXY d   1      -3.895  -2.017  -5.994  0.00  0.00     0.003 A 
ATOM      8  C6  PXY d   1      -4.718  -3.139  -5.988  0.00  0.00     0.003 A 
ENDROOT
TORSDOF 0
ENDMDL
