MODEL 1
REMARK minimizedAffinity 3.98015881
REMARK minimizedRMSD -1
REMARK  0 active torsions:
REMARK  status: ('A' for Active; 'I' for Inactive)
ROOT
ATOM      1  C4' PXY d   1      -5.790  -3.826  -5.991  0.00  0.00     0.077 C 
ATOM      2  C1' PXY d   1      -0.073  -2.969  -5.988  0.00  0.00     0.077 C 
ATOM      3  C1  PXY d   1      -1.570  -3.205  -5.994  0.00  0.00    -0.082 A 
ATOM      4  C2  PXY d   1      -2.396  -2.171  -5.999  0.00  0.00     0.003 A 
ATOM      5  C3  PXY d   1      -3.753  -2.367  -5.973  0.00  0.00     0.003 A 
ATOM      6  C4  PXY d   1      -4.270  -3.634  -5.994  0.00  0.00    -0.082 A 
ATOM      7  C5  PXY d   1      -3.435  -4.694  -6.000  0.00  0.00     0.003 A 
ATOM      8  C6  PXY d   1      -2.060  -4.475  -5.985  0.00  0.00     0.003 A 
ENDROOT
TORSDOF 0
ENDMDL
