MODEL 1
REMARK minimizedAffinity 12.2390623
REMARK minimizedRMSD -1
REMARK  0 active torsions:
REMARK  status: ('A' for Active; 'I' for Inactive)
ROOT
ATOM      1  C4' PXY d   1      -4.632  -4.133  -5.991  0.00  0.00     0.077 C 
ATOM      2  C1' PXY d   1      -0.954   0.327  -5.960  0.00  0.00     0.077 C 
ATOM      3  C1  PXY d   1      -1.909  -0.850  -5.973  0.00  0.00    -0.082 A 
ATOM      4  C2  PXY d   1      -3.215  -0.633  -5.974  0.00  0.00     0.003 A 
ATOM      5  C3  PXY d   1      -4.093  -1.686  -5.954  0.00  0.00     0.003 A 
ATOM      6  C4  PXY d   1      -3.630  -2.975  -5.987  0.00  0.00    -0.082 A 
ATOM      7  C5  PXY d   1      -2.300  -3.204  -5.997  0.00  0.00     0.003 A 
ATOM      8  C6  PXY d   1      -1.425  -2.122  -5.976  0.00  0.00     0.003 A 
ENDROOT
TORSDOF 0
ENDMDL
