MODEL 1
REMARK minimizedAffinity 8.28094292
REMARK minimizedRMSD -1
REMARK  0 active torsions:
REMARK  status: ('A' for Active; 'I' for Inactive)
ROOT
ATOM      1  C4' PXY d   1      -5.143   5.951   4.956  0.00  0.00     0.077 C 
ATOM      2  C1' PXY d   1      -5.658   0.194   4.870  0.00  0.00     0.077 C 
ATOM      3  C1  PXY d   1      -5.533   1.704   4.901  0.00  0.00    -0.082 A 
ATOM      4  C2  PXY d   1      -4.960   2.334   3.888  0.00  0.00     0.003 A 
ATOM      5  C3  PXY d   1      -4.810   3.697   3.914  0.00  0.00     0.003 A 
ATOM      6  C4  PXY d   1      -5.299   4.428   4.964  0.00  0.00    -0.082 A 
ATOM      7  C5  PXY d   1      -5.894   3.793   5.996  0.00  0.00     0.003 A 
ATOM      8  C6  PXY d   1      -6.000   2.406   5.969  0.00  0.00     0.003 A 
ENDROOT
TORSDOF 0
ENDMDL
