MODEL 1
REMARK minimizedAffinity 13.6816015
REMARK minimizedRMSD -1
REMARK  0 active torsions:
REMARK  status: ('A' for Active; 'I' for Inactive)
ROOT
ATOM      1  C4' PXY d   1      -5.692   6.000   4.953  0.00  0.00     0.077 C 
ATOM      2  C1' PXY d   1      -5.609   0.221   4.822  0.00  0.00     0.077 C 
ATOM      3  C1  PXY d   1      -5.629   1.737   4.843  0.00  0.00    -0.082 A 
ATOM      4  C2  PXY d   1      -5.303   2.380   5.953  0.00  0.00     0.003 A 
ATOM      5  C3  PXY d   1      -5.347   3.750   5.999  0.00  0.00     0.003 A 
ATOM      6  C4  PXY d   1      -5.676   4.470   4.883  0.00  0.00    -0.082 A 
ATOM      7  C5  PXY d   1      -5.999   3.822   3.743  0.00  0.00     0.003 A 
ATOM      8  C6  PXY d   1      -5.988   2.430   3.729  0.00  0.00     0.003 A 
ENDROOT
TORSDOF 0
ENDMDL
