MODEL 1
REMARK minimizedAffinity -2.33258057
REMARK minimizedRMSD -1
REMARK  0 active torsions:
REMARK  status: ('A' for Active; 'I' for Inactive)
ROOT
ATOM      1  C4' PXY d   1       0.426   2.068   4.501  0.00  0.00     0.077 C 
ATOM      2  C1' PXY d   1      -3.686   0.239   0.872  0.00  0.00     0.077 C 
ATOM      3  C1  PXY d   1      -2.604   0.706   1.826  0.00  0.00    -0.082 A 
ATOM      4  C2  PXY d   1      -2.725   1.877   2.430  0.00  0.00     0.003 A 
ATOM      5  C3  PXY d   1      -1.741   2.329   3.271  0.00  0.00     0.003 A 
ATOM      6  C4  PXY d   1      -0.647   1.551   3.538  0.00  0.00    -0.082 A 
ATOM      7  C5  PXY d   1      -0.521   0.351   2.934  0.00  0.00     0.003 A 
ATOM      8  C6  PXY d   1      -1.511  -0.072   2.052  0.00  0.00     0.003 A 
ENDROOT
TORSDOF 0
ENDMDL
