MODEL 1
REMARK minimizedAffinity 7.96542311
REMARK minimizedRMSD -1
REMARK  0 active torsions:
REMARK  status: ('A' for Active; 'I' for Inactive)
ROOT
ATOM      1  C4' PXY d   1       6.000  -5.148   2.198  0.00  0.00     0.077 C 
ATOM      2  C1' PXY d   1       0.225  -4.891   2.249  0.00  0.00     0.077 C 
ATOM      3  C1  PXY d   1       1.740  -4.965   2.247  0.00  0.00    -0.082 A 
ATOM      4  C2  PXY d   1       2.436  -4.085   1.545  0.00  0.00     0.003 A 
ATOM      5  C3  PXY d   1       3.805  -4.157   1.507  0.00  0.00     0.003 A 
ATOM      6  C4  PXY d   1       4.470  -5.106   2.237  0.00  0.00    -0.082 A 
ATOM      7  C5  PXY d   1       3.767  -6.000   2.963  0.00  0.00     0.003 A 
ATOM      8  C6  PXY d   1       2.376  -5.936   2.956  0.00  0.00     0.003 A 
ENDROOT
TORSDOF 0
ENDMDL
