MODEL 1
REMARK minimizedAffinity 6.83047104
REMARK minimizedRMSD -1
REMARK  0 active torsions:
REMARK  status: ('A' for Active; 'I' for Inactive)
ROOT
ATOM      1  C4' PXY d   1       5.290   1.097  -6.000  0.00  0.00     0.077 C 
ATOM      2  C1' PXY d   1       0.751  -1.377  -3.412  0.00  0.00     0.077 C 
ATOM      3  C1  PXY d   1       1.942  -0.719  -4.081  0.00  0.00    -0.082 A 
ATOM      4  C2  PXY d   1       2.121  -0.862  -5.384  0.00  0.00     0.003 A 
ATOM      5  C3  PXY d   1       3.210  -0.301  -6.000  0.00  0.00     0.003 A 
ATOM      6  C4  PXY d   1       4.096   0.459  -5.284  0.00  0.00    -0.082 A 
ATOM      7  C5  PXY d   1       3.914   0.618  -3.956  0.00  0.00     0.003 A 
ATOM      8  C6  PXY d   1       2.825   0.006  -3.342  0.00  0.00     0.003 A 
ENDROOT
TORSDOF 0
ENDMDL
