MODEL 1
REMARK minimizedAffinity 11.909627
REMARK minimizedRMSD -1
REMARK  0 active torsions:
REMARK  status: ('A' for Active; 'I' for Inactive)
ROOT
ATOM      1  C4' PXY d   1      -4.450  -1.899   0.161  0.00  0.00     0.077 C 
ATOM      2  C1' PXY d   1       0.022   0.885   2.542  0.00  0.00     0.077 C 
ATOM      3  C1  PXY d   1      -1.143   0.144   1.917  0.00  0.00    -0.082 A 
ATOM      4  C2  PXY d   1      -2.122   0.828   1.346  0.00  0.00     0.003 A 
ATOM      5  C3  PXY d   1      -3.199   0.175   0.804  0.00  0.00     0.003 A 
ATOM      6  C4  PXY d   1      -3.249  -1.193   0.798  0.00  0.00    -0.082 A 
ATOM      7  C5  PXY d   1      -2.249  -1.898   1.368  0.00  0.00     0.003 A 
ATOM      8  C6  PXY d   1      -1.184  -1.215   1.950  0.00  0.00     0.003 A 
ENDROOT
TORSDOF 0
ENDMDL
