MODEL 1
REMARK minimizedAffinity 9.12775517
REMARK minimizedRMSD -1
REMARK  0 active torsions:
REMARK  status: ('A' for Active; 'I' for Inactive)
ROOT
ATOM      1  C4' PXY d   1      -3.998   0.330   2.211  0.00  0.00     0.077 C 
ATOM      2  C1' PXY d   1       1.267   2.703   2.464  0.00  0.00     0.077 C 
ATOM      3  C1  PXY d   1      -0.109   2.068   2.398  0.00  0.00    -0.082 A 
ATOM      4  C2  PXY d   1      -1.114   2.740   1.860  0.00  0.00     0.003 A 
ATOM      5  C3  PXY d   1      -2.371   2.194   1.821  0.00  0.00     0.003 A 
ATOM      6  C4  PXY d   1      -2.591   0.927   2.290  0.00  0.00    -0.082 A 
ATOM      7  C5  PXY d   1      -1.568   0.231   2.832  0.00  0.00     0.003 A 
ATOM      8  C6  PXY d   1      -0.309   0.819   2.899  0.00  0.00     0.003 A 
ENDROOT
TORSDOF 0
ENDMDL
