MODEL 1
REMARK minimizedAffinity 9.39843655
REMARK minimizedRMSD -1
REMARK  0 active torsions:
REMARK  status: ('A' for Active; 'I' for Inactive)
ROOT
ATOM      1  C4' PXY d   1       5.922   0.427   0.301  0.00  0.00     0.077 C 
ATOM      2  C1' PXY d   1       5.886  -0.605   5.989  0.00  0.00     0.077 C 
ATOM      3  C1  PXY d   1       5.900  -0.347   4.495  0.00  0.00    -0.082 A 
ATOM      4  C2  PXY d   1       5.994   0.895   4.047  0.00  0.00     0.003 A 
ATOM      5  C3  PXY d   1       5.976   1.149   2.699  0.00  0.00     0.003 A 
ATOM      6  C4  PXY d   1       5.914   0.118   1.801  0.00  0.00    -0.082 A 
ATOM      7  C5  PXY d   1       5.828  -1.152   2.250  0.00  0.00     0.003 A 
ATOM      8  C6  PXY d   1       5.806  -1.386   3.622  0.00  0.00     0.003 A 
ENDROOT
TORSDOF 0
ENDMDL
