MODEL 1
REMARK minimizedAffinity 6.79219341
REMARK minimizedRMSD -1
REMARK  0 active torsions:
REMARK  status: ('A' for Active; 'I' for Inactive)
ROOT
ATOM      1  C4' PXY d   1      -0.423   0.740   2.625  0.00  0.00     0.077 C 
ATOM      2  C1' PXY d   1      -5.239  -1.209   0.091  0.00  0.00     0.077 C 
ATOM      3  C1  PXY d   1      -3.980  -0.686   0.753  0.00  0.00    -0.082 A 
ATOM      4  C2  PXY d   1      -2.912  -1.462   0.833  0.00  0.00     0.003 A 
ATOM      5  C3  PXY d   1      -1.775  -1.016   1.457  0.00  0.00     0.003 A 
ATOM      6  C4  PXY d   1      -1.713   0.257   1.957  0.00  0.00    -0.082 A 
ATOM      7  C5  PXY d   1      -2.795   1.059   1.869  0.00  0.00     0.003 A 
ATOM      8  C6  PXY d   1      -3.953   0.573   1.269  0.00  0.00     0.003 A 
ENDROOT
TORSDOF 0
ENDMDL
