MODEL 1
REMARK minimizedAffinity 4.06172657
REMARK minimizedRMSD -1
REMARK  0 active torsions:
REMARK  status: ('A' for Active; 'I' for Inactive)
ROOT
ATOM      1  C4' PXY d   1      -3.603   0.045   0.159  0.00  0.00     0.077 C 
ATOM      2  C1' PXY d   1       1.028   1.001   3.484  0.00  0.00     0.077 C 
ATOM      3  C1  PXY d   1      -0.178   0.749   2.601  0.00  0.00    -0.082 A 
ATOM      4  C2  PXY d   1      -1.364   1.209   2.967  0.00  0.00     0.003 A 
ATOM      5  C3  PXY d   1      -2.471   0.963   2.197  0.00  0.00     0.003 A 
ATOM      6  C4  PXY d   1      -2.355   0.284   1.014  0.00  0.00    -0.082 A 
ATOM      7  C5  PXY d   1      -1.147  -0.180   0.629  0.00  0.00     0.003 A 
ATOM      8  C6  PXY d   1      -0.043   0.045   1.445  0.00  0.00     0.003 A 
ENDROOT
TORSDOF 0
ENDMDL
