MODEL 1
REMARK minimizedAffinity 4.28610897
REMARK minimizedRMSD -1
REMARK  0 active torsions:
REMARK  status: ('A' for Active; 'I' for Inactive)
ROOT
ATOM      1  C4' PXY d   1      -0.213  -0.203   3.321  0.00  0.00     0.077 C 
ATOM      2  C1' PXY d   1      -5.384   1.336   1.245  0.00  0.00     0.077 C 
ATOM      3  C1  PXY d   1      -4.032   0.936   1.801  0.00  0.00    -0.082 A 
ATOM      4  C2  PXY d   1      -2.981   0.894   0.999  0.00  0.00     0.003 A 
ATOM      5  C3  PXY d   1      -1.757   0.503   1.478  0.00  0.00     0.003 A 
ATOM      6  C4  PXY d   1      -1.596   0.204   2.805  0.00  0.00    -0.082 A 
ATOM      7  C5  PXY d   1      -2.661   0.255   3.632  0.00  0.00     0.003 A 
ATOM      8  C6  PXY d   1      -3.903   0.614   3.117  0.00  0.00     0.003 A 
ENDROOT
TORSDOF 0
ENDMDL
