MODEL 1
REMARK minimizedAffinity 4.29669046
REMARK minimizedRMSD -1
REMARK  0 active torsions:
REMARK  status: ('A' for Active; 'I' for Inactive)
ROOT
ATOM      1  C4' PXY d   1      -3.868  -5.245  -5.961  0.00  0.00     0.077 C 
ATOM      2  C1' PXY d   1      -1.819   0.161  -5.970  0.00  0.00     0.077 C 
ATOM      3  C1  PXY d   1      -2.367  -1.252  -5.962  0.00  0.00    -0.082 A 
ATOM      4  C2  PXY d   1      -1.532  -2.278  -5.974  0.00  0.00     0.003 A 
ATOM      5  C3  PXY d   1      -2.011  -3.563  -6.000  0.00  0.00     0.003 A 
ATOM      6  C4  PXY d   1      -3.359  -3.800  -5.958  0.00  0.00    -0.082 A 
ATOM      7  C5  PXY d   1      -4.218  -2.759  -5.935  0.00  0.00     0.003 A 
ATOM      8  C6  PXY d   1      -3.712  -1.463  -5.951  0.00  0.00     0.003 A 
ENDROOT
TORSDOF 0
ENDMDL
