MODEL 1
REMARK minimizedAffinity 12.1994305
REMARK minimizedRMSD -1
REMARK  0 active torsions:
REMARK  status: ('A' for Active; 'I' for Inactive)
ROOT
ATOM      1  C4' PXY d   1       2.192   0.460   3.246  0.00  0.00     0.077 C 
ATOM      2  C1' PXY d   1      -3.286   1.077   1.507  0.00  0.00     0.077 C 
ATOM      3  C1  PXY d   1      -1.854   0.907   1.972  0.00  0.00    -0.082 A 
ATOM      4  C2  PXY d   1      -0.961   1.844   1.697  0.00  0.00     0.003 A 
ATOM      5  C3  PXY d   1       0.346   1.691   2.083  0.00  0.00     0.003 A 
ATOM      6  C4  PXY d   1       0.732   0.593   2.804  0.00  0.00    -0.082 A 
ATOM      7  C5  PXY d   1      -0.176  -0.362   3.099  0.00  0.00     0.003 A 
ATOM      8  C6  PXY d   1      -1.488  -0.208   2.662  0.00  0.00     0.003 A 
ENDROOT
TORSDOF 0
ENDMDL
