MODEL 1
REMARK minimizedAffinity 3.28208041
REMARK minimizedRMSD -1
REMARK  0 active torsions:
REMARK  status: ('A' for Active; 'I' for Inactive)
ROOT
ATOM      1  C4' PXY d   1      -0.717  -0.412   1.011  0.00  0.00     0.077 C 
ATOM      2  C1' PXY d   1       1.316   2.984   5.225  0.00  0.00     0.077 C 
ATOM      3  C1  PXY d   1       0.795   2.092   4.115  0.00  0.00    -0.082 A 
ATOM      4  C2  PXY d   1      -0.470   2.188   3.738  0.00  0.00     0.003 A 
ATOM      5  C3  PXY d   1      -0.966   1.366   2.758  0.00  0.00     0.003 A 
ATOM      6  C4  PXY d   1      -0.145   0.475   2.121  0.00  0.00    -0.082 A 
ATOM      7  C5  PXY d   1       1.149   0.379   2.492  0.00  0.00     0.003 A 
ATOM      8  C6  PXY d   1       1.623   1.193   3.517  0.00  0.00     0.003 A 
ENDROOT
TORSDOF 0
ENDMDL
