MODEL 1
REMARK minimizedAffinity -2.16886568
REMARK minimizedRMSD -1
REMARK  1 active torsions:
REMARK  status: ('A' for Active; 'I' for Inactive)
REMARK    1  A    between atoms: C3_4  and  O_7 
ROOT
ATOM      1  C   UNL d   1      -2.367   3.000  -2.131  0.00  0.00    -0.033 A 
ATOM      2  C1  UNL d   1      -2.774   1.667  -2.214  0.00  0.00     0.039 A 
ATOM      3  C2  UNL d   1      -3.025   1.088  -3.459  0.00  0.00    -0.080 A 
ATOM      4  C3  UNL d   1      -2.864   1.851  -4.613  0.00  0.00     0.150 A 
ATOM      5  C4  UNL d   1      -2.455   3.178  -4.538  0.00  0.00    -0.007 A 
ATOM      6  C5  UNL d   1      -2.206   3.755  -3.293  0.00  0.00     0.039 A 
ENDROOT
BRANCH   4   7
ATOM      7  O   UNL d   1      -3.101   1.331  -5.850  0.00  0.00    -0.526 OA
ATOM      8  H5  UNL d   1      -3.405   0.414  -5.745  0.00  0.00     0.418 HD
ENDBRANCH   4   7
TORSDOF 1
ENDMDL
