MODEL 1
REMARK minimizedAffinity 2.17187428
REMARK minimizedRMSD -1
REMARK  1 active torsions:
REMARK  status: ('A' for Active; 'I' for Inactive)
REMARK    1  A    between atoms: C3_4  and  O_7 
ROOT
ATOM      1  C   UNL d   1      -0.029  -0.795   0.552  0.00  0.00    -0.033 A 
ATOM      2  C1  UNL d   1      -0.588  -1.477   1.635  0.00  0.00     0.039 A 
ATOM      3  C2  UNL d   1      -1.967  -1.439   1.850  0.00  0.00    -0.080 A 
ATOM      4  C3  UNL d   1      -2.775  -0.716   0.976  0.00  0.00     0.150 A 
ATOM      5  C4  UNL d   1      -2.225  -0.037  -0.106  0.00  0.00    -0.007 A 
ATOM      6  C5  UNL d   1      -0.848  -0.076  -0.319  0.00  0.00     0.039 A 
ENDROOT
BRANCH   4   7
ATOM      7  O   UNL d   1      -4.125  -0.646   1.148  0.00  0.00    -0.526 OA
ATOM      8  H5  UNL d   1      -4.359  -1.139   1.952  0.00  0.00     0.418 HD
ENDBRANCH   4   7
TORSDOF 1
ENDMDL
