MODEL 1
REMARK minimizedAffinity -1.47665143
REMARK minimizedRMSD -1
REMARK  1 active torsions:
REMARK  status: ('A' for Active; 'I' for Inactive)
REMARK    1  A    between atoms: C3_4  and  O_7 
ROOT
ATOM      1  C   UNL d   1      -2.693  -0.265   3.746  0.00  0.00    -0.033 A 
ATOM      2  C1  UNL d   1      -1.463  -0.862   3.464  0.00  0.00     0.039 A 
ATOM      3  C2  UNL d   1      -0.889  -0.717   2.199  0.00  0.00    -0.080 A 
ATOM      4  C3  UNL d   1      -1.555   0.025   1.228  0.00  0.00     0.150 A 
ATOM      5  C4  UNL d   1      -2.779   0.625   1.503  0.00  0.00    -0.007 A 
ATOM      6  C5  UNL d   1      -3.351   0.480   2.767  0.00  0.00     0.039 A 
ENDROOT
BRANCH   4   7
ATOM      7  O   UNL d   1      -1.037   0.190  -0.023  0.00  0.00    -0.526 OA
ATOM      8  H5  UNL d   1      -0.202  -0.304  -0.077  0.00  0.00     0.418 HD
ENDBRANCH   4   7
TORSDOF 1
ENDMDL
