MODEL 1
REMARK minimizedAffinity -1.76319015
REMARK minimizedRMSD -1
REMARK  1 active torsions:
REMARK  status: ('A' for Active; 'I' for Inactive)
REMARK    1  A    between atoms: C3_4  and  O_7 
ROOT
ATOM      1  C   UNL d   1      -0.732   4.879   4.134  0.00  0.00    -0.033 A 
ATOM      2  C1  UNL d   1      -0.450   5.613   5.288  0.00  0.00     0.039 A 
ATOM      3  C2  UNL d   1       0.862   6.000   5.568  0.00  0.00    -0.080 A 
ATOM      4  C3  UNL d   1       1.881   5.648   4.687  0.00  0.00     0.150 A 
ATOM      5  C4  UNL d   1       1.607   4.921   3.534  0.00  0.00    -0.007 A 
ATOM      6  C5  UNL d   1       0.297   4.534   3.256  0.00  0.00     0.039 A 
ENDROOT
BRANCH   4   7
ATOM      7  O   UNL d   1       3.177   5.999   4.921  0.00  0.00    -0.526 OA
ATOM      8  H5  UNL d   1       3.220   6.473   5.768  0.00  0.00     0.418 HD
ENDBRANCH   4   7
TORSDOF 1
ENDMDL
