MODEL 1
REMARK minimizedAffinity 2.15895581
REMARK minimizedRMSD -1
REMARK  1 active torsions:
REMARK  status: ('A' for Active; 'I' for Inactive)
REMARK    1  A    between atoms: C3_4  and  O_7 
ROOT
ATOM      1  C   UNL d   1       0.619  -0.753  -0.580  0.00  0.00    -0.033 A 
ATOM      2  C1  UNL d   1      -0.279  -0.561  -1.633  0.00  0.00     0.039 A 
ATOM      3  C2  UNL d   1      -1.647  -0.452  -1.375  0.00  0.00    -0.080 A 
ATOM      4  C3  UNL d   1      -2.103  -0.536  -0.063  0.00  0.00     0.150 A 
ATOM      5  C4  UNL d   1      -1.215  -0.724   0.991  0.00  0.00    -0.007 A 
ATOM      6  C5  UNL d   1       0.151  -0.834   0.731  0.00  0.00     0.039 A 
ENDROOT
BRANCH   4   7
ATOM      7  O   UNL d   1      -3.430  -0.440   0.237  0.00  0.00    -0.526 OA
ATOM      8  H5  UNL d   1      -3.927  -0.341  -0.592  0.00  0.00     0.418 HD
ENDBRANCH   4   7
TORSDOF 1
ENDMDL
