MODEL 1
REMARK minimizedAffinity -3.84191895
REMARK minimizedRMSD -1
REMARK  1 active torsions:
REMARK  status: ('A' for Active; 'I' for Inactive)
REMARK    1  A    between atoms: C3_4  and  O_7 
ROOT
ATOM      1  C   UNL d   1      -2.505  -1.098   2.001  0.00  0.00    -0.033 A 
ATOM      2  C1  UNL d   1      -2.810  -0.653   0.713  0.00  0.00     0.039 A 
ATOM      3  C2  UNL d   1      -1.831  -0.665  -0.282  0.00  0.00    -0.080 A 
ATOM      4  C3  UNL d   1      -0.552  -1.124   0.023  0.00  0.00     0.150 A 
ATOM      5  C4  UNL d   1      -0.242  -1.572   1.303  0.00  0.00    -0.007 A 
ATOM      6  C5  UNL d   1      -1.222  -1.559   2.295  0.00  0.00     0.039 A 
ENDROOT
BRANCH   4   7
ATOM      7  O   UNL d   1       0.438  -1.149  -0.913  0.00  0.00    -0.526 OA
ATOM      8  H5  UNL d   1       0.087  -0.783  -1.743  0.00  0.00     0.418 HD
ENDBRANCH   4   7
TORSDOF 1
ENDMDL
