MODEL 1
REMARK minimizedAffinity 3.80893636
REMARK minimizedRMSD -1
REMARK  1 active torsions:
REMARK  status: ('A' for Active; 'I' for Inactive)
REMARK    1  A    between atoms: C3_4  and  O_7 
ROOT
ATOM      1  C   UNL d   1      -2.872  -0.273   2.695  0.00  0.00    -0.033 A 
ATOM      2  C1  UNL d   1      -3.391  -0.937   1.581  0.00  0.00     0.039 A 
ATOM      3  C2  UNL d   1      -2.594  -1.138   0.452  0.00  0.00    -0.080 A 
ATOM      4  C3  UNL d   1      -1.282  -0.672   0.450  0.00  0.00     0.150 A 
ATOM      5  C4  UNL d   1      -0.758  -0.014   1.558  0.00  0.00    -0.007 A 
ATOM      6  C5  UNL d   1      -1.555   0.187   2.683  0.00  0.00     0.039 A 
ENDROOT
BRANCH   4   7
ATOM      7  O   UNL d   1      -0.468  -0.840  -0.630  0.00  0.00    -0.526 OA
ATOM      8  H5  UNL d   1      -0.974  -1.285  -1.331  0.00  0.00     0.418 HD
ENDBRANCH   4   7
TORSDOF 1
ENDMDL
