MODEL 1
REMARK minimizedAffinity -1.356637
REMARK minimizedRMSD -1
REMARK  1 active torsions:
REMARK  status: ('A' for Active; 'I' for Inactive)
REMARK    1  A    between atoms: C3_4  and  O_7 
ROOT
ATOM      1  C   UNL d   1      -5.966   3.408  -5.632  0.00  0.00    -0.033 A 
ATOM      2  C1  UNL d   1      -4.843   4.155  -5.993  0.00  0.00     0.039 A 
ATOM      3  C2  UNL d   1      -3.715   4.165  -5.170  0.00  0.00    -0.080 A 
ATOM      4  C3  UNL d   1      -3.723   3.425  -3.991  0.00  0.00     0.150 A 
ATOM      5  C4  UNL d   1      -4.837   2.675  -3.627  0.00  0.00    -0.007 A 
ATOM      6  C5  UNL d   1      -5.962   2.667  -4.450  0.00  0.00     0.039 A 
ENDROOT
BRANCH   4   7
ATOM      7  O   UNL d   1      -2.648   3.408  -3.154  0.00  0.00    -0.526 OA
ATOM      8  H5  UNL d   1      -1.964   3.994  -3.519  0.00  0.00     0.418 HD
ENDBRANCH   4   7
TORSDOF 1
ENDMDL
