MODEL 1
REMARK minimizedAffinity 0.512355626
REMARK minimizedRMSD -1
REMARK  1 active torsions:
REMARK  status: ('A' for Active; 'I' for Inactive)
REMARK    1  A    between atoms: C3_4  and  O_7 
ROOT
ATOM      1  C   UNL d   1      -2.619   4.127   0.365  0.00  0.00    -0.033 A 
ATOM      2  C1  UNL d   1      -3.014   5.364  -0.148  0.00  0.00     0.039 A 
ATOM      3  C2  UNL d   1      -4.150   6.000   0.357  0.00  0.00    -0.080 A 
ATOM      4  C3  UNL d   1      -4.880   5.390   1.374  0.00  0.00     0.150 A 
ATOM      5  C4  UNL d   1      -4.490   4.160   1.892  0.00  0.00    -0.007 A 
ATOM      6  C5  UNL d   1      -3.356   3.526   1.386  0.00  0.00     0.039 A 
ENDROOT
BRANCH   4   7
ATOM      7  O   UNL d   1      -5.998   5.971   1.895  0.00  0.00    -0.526 OA
ATOM      8  H5  UNL d   1      -6.163   6.803   1.420  0.00  0.00     0.418 HD
ENDBRANCH   4   7
TORSDOF 1
ENDMDL
