MODEL 1
REMARK minimizedAffinity -1.37659109
REMARK minimizedRMSD -1
REMARK  1 active torsions:
REMARK  status: ('A' for Active; 'I' for Inactive)
REMARK    1  A    between atoms: C3_4  and  O_7 
ROOT
ATOM      1  C   UNL d   1      -1.694   2.991   0.722  0.00  0.00    -0.033 A 
ATOM      2  C1  UNL d   1      -1.766   4.151  -0.051  0.00  0.00     0.039 A 
ATOM      3  C2  UNL d   1      -2.646   5.176   0.304  0.00  0.00    -0.080 A 
ATOM      4  C3  UNL d   1      -3.445   5.029   1.434  0.00  0.00     0.150 A 
ATOM      5  C4  UNL d   1      -3.375   3.877   2.212  0.00  0.00    -0.007 A 
ATOM      6  C5  UNL d   1      -2.497   2.855   1.855  0.00  0.00     0.039 A 
ENDROOT
BRANCH   4   7
ATOM      7  O   UNL d   1      -4.322   5.999   1.818  0.00  0.00    -0.526 OA
ATOM      8  H5  UNL d   1      -4.282   6.723   1.171  0.00  0.00     0.418 HD
ENDBRANCH   4   7
TORSDOF 1
ENDMDL
