MODEL 1
REMARK minimizedAffinity 3.55468369
REMARK minimizedRMSD -1
REMARK  1 active torsions:
REMARK  status: ('A' for Active; 'I' for Inactive)
REMARK    1  A    between atoms: C3_4  and  O_7 
ROOT
ATOM      1  C   UNL d   1      -0.758   2.980  -0.755  0.00  0.00    -0.033 A 
ATOM      2  C1  UNL d   1       0.627   2.980  -0.571  0.00  0.00     0.039 A 
ATOM      3  C2  UNL d   1       1.408   3.991  -1.135  0.00  0.00    -0.080 A 
ATOM      4  C3  UNL d   1       0.793   4.994  -1.878  0.00  0.00     0.150 A 
ATOM      5  C4  UNL d   1      -0.585   5.003  -2.062  0.00  0.00    -0.007 A 
ATOM      6  C5  UNL d   1      -1.364   3.992  -1.500  0.00  0.00     0.039 A 
ENDROOT
BRANCH   4   7
ATOM      7  O   UNL d   1       1.514   5.999  -2.452  0.00  0.00    -0.526 OA
ATOM      8  H5  UNL d   1       2.456   5.848  -2.265  0.00  0.00     0.418 HD
ENDBRANCH   4   7
TORSDOF 1
ENDMDL
