MODEL 1
REMARK minimizedAffinity 2.54611754
REMARK minimizedRMSD -1
REMARK  1 active torsions:
REMARK  status: ('A' for Active; 'I' for Inactive)
REMARK    1  A    between atoms: C3_4  and  O_7 
ROOT
ATOM      1  C   UNL d   1      -4.126  -0.019   2.467  0.00  0.00    -0.033 A 
ATOM      2  C1  UNL d   1      -5.352  -0.686   2.415  0.00  0.00     0.039 A 
ATOM      3  C2  UNL d   1      -5.998  -1.056   3.596  0.00  0.00    -0.080 A 
ATOM      4  C3  UNL d   1      -5.409  -0.754   4.820  0.00  0.00     0.150 A 
ATOM      5  C4  UNL d   1      -4.190  -0.087   4.880  0.00  0.00    -0.007 A 
ATOM      6  C5  UNL d   1      -3.546   0.282   3.699  0.00  0.00     0.039 A 
ENDROOT
BRANCH   4   7
ATOM      7  O   UNL d   1      -5.999  -1.100   6.000  0.00  0.00    -0.526 OA
ATOM      8  H5  UNL d   1      -6.821  -1.580   5.803  0.00  0.00     0.418 HD
ENDBRANCH   4   7
TORSDOF 1
ENDMDL
