MODEL 1
REMARK minimizedAffinity 10.3202763
REMARK minimizedRMSD -1
REMARK  1 active torsions:
REMARK  status: ('A' for Active; 'I' for Inactive)
REMARK    1  A    between atoms: C3_4  and  O_7 
ROOT
ATOM      1  C   UNL d   1      -2.318   2.158  -3.409  0.00  0.00    -0.033 A 
ATOM      2  C1  UNL d   1      -2.591   0.848  -3.809  0.00  0.00     0.039 A 
ATOM      3  C2  UNL d   1      -3.804   0.249  -3.463  0.00  0.00    -0.080 A 
ATOM      4  C3  UNL d   1      -4.735   0.970  -2.720  0.00  0.00     0.150 A 
ATOM      5  C4  UNL d   1      -4.471   2.276  -2.322  0.00  0.00    -0.007 A 
ATOM      6  C5  UNL d   1      -3.259   2.873  -2.667  0.00  0.00     0.039 A 
ENDROOT
BRANCH   4   7
ATOM      7  O   UNL d   1      -5.930   0.426  -2.355  0.00  0.00    -0.526 OA
ATOM      8  H5  UNL d   1      -5.962  -0.491  -2.675  0.00  0.00     0.418 HD
ENDBRANCH   4   7
TORSDOF 1
ENDMDL
