MODEL 1
REMARK minimizedAffinity -3.28803945
REMARK minimizedRMSD -1
REMARK  0 active torsions:
REMARK  status: ('A' for Active; 'I' for Inactive)
ROOT
ATOM      1  C2' OXE d   1      -0.251   3.151  -1.605  0.00  0.00     0.078 C 
ATOM      2  C1' OXE d   1      -1.945   1.867   0.229  0.00  0.00     0.078 C 
ATOM      3  C1  OXE d   1      -0.793   1.075  -0.338  0.00  0.00    -0.078 A 
ATOM      4  C2  OXE d   1       0.003   1.697  -1.270  0.00  0.00    -0.078 A 
ATOM      5  C3  OXE d   1       1.111   1.030  -1.784  0.00  0.00     0.003 A 
ATOM      6  C4  OXE d   1       1.333  -0.318  -1.477  0.00  0.00    -0.002 A 
ATOM      7  C5  OXE d   1       0.511  -0.982  -0.561  0.00  0.00    -0.002 A 
ATOM      8  C6  OXE d   1      -0.529  -0.288   0.049  0.00  0.00     0.003 A 
ENDROOT
TORSDOF 0
ENDMDL
