MODEL 1
REMARK minimizedAffinity -4.54419947
REMARK minimizedRMSD -1
REMARK  0 active torsions:
REMARK  status: ('A' for Active; 'I' for Inactive)
ROOT
ATOM      1  C2' OXE d   1      -0.362   2.820  -1.456  0.00  0.00     0.078 C 
ATOM      2  C1' OXE d   1      -2.167   1.898   0.487  0.00  0.00     0.078 C 
ATOM      3  C1  OXE d   1      -1.132   0.929  -0.028  0.00  0.00    -0.078 A 
ATOM      4  C2  OXE d   1      -0.283   1.375  -1.012  0.00  0.00    -0.078 A 
ATOM      5  C3  OXE d   1       0.726   0.539  -1.484  0.00  0.00     0.003 A 
ATOM      6  C4  OXE d   1       0.785  -0.799  -1.076  0.00  0.00    -0.002 A 
ATOM      7  C5  OXE d   1      -0.095  -1.285  -0.103  0.00  0.00    -0.002 A 
ATOM      8  C6  OXE d   1      -1.030  -0.424   0.461  0.00  0.00     0.003 A 
ENDROOT
TORSDOF 0
ENDMDL
