MODEL 1
REMARK minimizedAffinity -3.49295092
REMARK minimizedRMSD -1
REMARK  0 active torsions:
REMARK  status: ('A' for Active; 'I' for Inactive)
ROOT
ATOM      1  C2' OXE d   1      -1.265  -0.431  -0.709  0.00  0.00     0.078 C 
ATOM      2  C1' OXE d   1       0.779  -0.390   1.214  0.00  0.00     0.078 C 
ATOM      3  C1  OXE d   1      -0.410   0.512   1.432  0.00  0.00    -0.078 A 
ATOM      4  C2  OXE d   1      -1.383   0.520   0.462  0.00  0.00    -0.078 A 
ATOM      5  C3  OXE d   1      -2.527   1.293   0.641  0.00  0.00     0.003 A 
ATOM      6  C4  OXE d   1      -2.624   2.177   1.722  0.00  0.00    -0.002 A 
ATOM      7  C5  OXE d   1      -1.625   2.213   2.701  0.00  0.00    -0.002 A 
ATOM      8  C6  OXE d   1      -0.534   1.358   2.593  0.00  0.00     0.003 A 
ENDROOT
TORSDOF 0
ENDMDL
