MODEL 1
REMARK minimizedAffinity -3.96102929
REMARK minimizedRMSD -1
REMARK  0 active torsions:
REMARK  status: ('A' for Active; 'I' for Inactive)
ROOT
ATOM      1  C2' OXE d   1       0.760  -0.365  -0.372  0.00  0.00     0.078 C 
ATOM      2  C1' OXE d   1      -0.500   1.968  -1.294  0.00  0.00     0.078 C 
ATOM      3  C1  OXE d   1      -0.960   1.393   0.022  0.00  0.00    -0.078 A 
ATOM      4  C2  OXE d   1      -0.370   0.225   0.443  0.00  0.00    -0.078 A 
ATOM      5  C3  OXE d   1      -0.720  -0.318   1.676  0.00  0.00     0.003 A 
ATOM      6  C4  OXE d   1      -1.773   0.229   2.419  0.00  0.00    -0.002 A 
ATOM      7  C5  OXE d   1      -2.414   1.395   1.989  0.00  0.00    -0.002 A 
ATOM      8  C6  OXE d   1      -1.992   2.013   0.817  0.00  0.00     0.003 A 
ENDROOT
TORSDOF 0
ENDMDL
