MODEL 1
REMARK minimizedAffinity -0.345532298
REMARK minimizedRMSD -1
REMARK  0 active torsions:
REMARK  status: ('A' for Active; 'I' for Inactive)
ROOT
ATOM      1  C2' OXE d   1      -0.560   1.882   3.637  0.00  0.00     0.078 C 
ATOM      2  C1' OXE d   1      -2.425   2.169   1.559  0.00  0.00     0.078 C 
ATOM      3  C1  OXE d   1      -1.282   1.207   1.351  0.00  0.00    -0.078 A 
ATOM      4  C2  OXE d   1      -0.348   1.108   2.354  0.00  0.00    -0.078 A 
ATOM      5  C3  OXE d   1       0.696   0.195   2.237  0.00  0.00     0.003 A 
ATOM      6  C4  OXE d   1       0.890  -0.510   1.043  0.00  0.00    -0.002 A 
ATOM      7  C5  OXE d   1      -0.027  -0.394  -0.007  0.00  0.00    -0.002 A 
ATOM      8  C6  OXE d   1      -1.140   0.426   0.147  0.00  0.00     0.003 A 
ENDROOT
TORSDOF 0
ENDMDL
