MODEL 1
REMARK minimizedAffinity -0.953107059
REMARK minimizedRMSD -1
REMARK  0 active torsions:
REMARK  status: ('A' for Active; 'I' for Inactive)
ROOT
ATOM      1  C2' OXE d   1      -0.394   2.363   3.902  0.00  0.00     0.078 C 
ATOM      2  C1' OXE d   1      -2.207   2.800   1.804  0.00  0.00     0.078 C 
ATOM      3  C1  OXE d   1      -1.339   1.568   1.738  0.00  0.00    -0.078 A 
ATOM      4  C2  OXE d   1      -0.422   1.387   2.746  0.00  0.00    -0.078 A 
ATOM      5  C3  OXE d   1       0.366   0.240   2.762  0.00  0.00     0.003 A 
ATOM      6  C4  OXE d   1       0.342  -0.653   1.684  0.00  0.00    -0.002 A 
ATOM      7  C5  OXE d   1      -0.557  -0.466   0.628  0.00  0.00    -0.002 A 
ATOM      8  C6  OXE d   1      -1.432   0.614   0.661  0.00  0.00     0.003 A 
ENDROOT
TORSDOF 0
ENDMDL
