MODEL 1
REMARK minimizedAffinity -3.56610203
REMARK minimizedRMSD -1
REMARK  0 active torsions:
REMARK  status: ('A' for Active; 'I' for Inactive)
ROOT
ATOM      1  C2' OXE d   1      -1.778   1.676   0.711  0.00  0.00     0.078 C 
ATOM      2  C1' OXE d   1      -0.317   2.409  -1.571  0.00  0.00     0.078 C 
ATOM      3  C1  OXE d   1       0.112   1.168  -0.830  0.00  0.00    -0.078 A 
ATOM      4  C2  OXE d   1      -0.579   0.843   0.312  0.00  0.00    -0.078 A 
ATOM      5  C3  OXE d   1      -0.259  -0.322   1.004  0.00  0.00     0.003 A 
ATOM      6  C4  OXE d   1       0.857  -1.082   0.634  0.00  0.00    -0.002 A 
ATOM      7  C5  OXE d   1       1.600  -0.746  -0.503  0.00  0.00    -0.002 A 
ATOM      8  C6  OXE d   1       1.215   0.349  -1.269  0.00  0.00     0.003 A 
ENDROOT
TORSDOF 0
ENDMDL
