MODEL 1
REMARK minimizedAffinity -0.197196603
REMARK minimizedRMSD -1
REMARK  0 active torsions:
REMARK  status: ('A' for Active; 'I' for Inactive)
ROOT
ATOM      1  C2' OXE d   1      -0.383  -0.338  -1.184  0.00  0.00     0.078 C 
ATOM      2  C1' OXE d   1       1.438  -1.789   0.383  0.00  0.00     0.078 C 
ATOM      3  C1  OXE d   1       0.869  -2.463  -0.840  0.00  0.00    -0.078 A 
ATOM      4  C2  OXE d   1      -0.057  -1.763  -1.575  0.00  0.00    -0.078 A 
ATOM      5  C3  OXE d   1      -0.572  -2.317  -2.743  0.00  0.00     0.003 A 
ATOM      6  C4  OXE d   1      -0.272  -3.640  -3.092  0.00  0.00    -0.002 A 
ATOM      7  C5  OXE d   1       0.638  -4.385  -2.335  0.00  0.00    -0.002 A 
ATOM      8  C6  OXE d   1       1.249  -3.798  -1.233  0.00  0.00     0.003 A 
ENDROOT
TORSDOF 0
ENDMDL
