MODEL 1
REMARK minimizedAffinity 0.732957006
REMARK minimizedRMSD -1
REMARK  0 active torsions:
REMARK  status: ('A' for Active; 'I' for Inactive)
ROOT
ATOM      1  C2' OXE d   1      -5.110  -2.242   2.410  0.00  0.00     0.078 C 
ATOM      2  C1' OXE d   1      -2.342  -2.447   1.993  0.00  0.00     0.078 C 
ATOM      3  C1  OXE d   1      -2.832  -2.325   3.414  0.00  0.00    -0.078 A 
ATOM      4  C2  OXE d   1      -4.185  -2.178   3.606  0.00  0.00    -0.078 A 
ATOM      5  C3  OXE d   1      -4.695  -2.117   4.900  0.00  0.00     0.003 A 
ATOM      6  C4  OXE d   1      -3.831  -2.049   6.000  0.00  0.00    -0.002 A 
ATOM      7  C5  OXE d   1      -2.448  -2.156   5.824  0.00  0.00    -0.002 A 
ATOM      8  C6  OXE d   1      -1.936  -2.338   4.544  0.00  0.00     0.003 A 
ENDROOT
TORSDOF 0
ENDMDL
