MODEL 1
REMARK minimizedAffinity -1.32953811
REMARK minimizedRMSD -1
REMARK  0 active torsions:
REMARK  status: ('A' for Active; 'I' for Inactive)
ROOT
ATOM      1  C2' OXE d   1       0.361   0.760  -0.362  0.00  0.00     0.078 C 
ATOM      2  C1' OXE d   1       2.831  -0.574  -0.346  0.00  0.00     0.078 C 
ATOM      3  C1  OXE d   1       1.605  -1.369  -0.718  0.00  0.00    -0.078 A 
ATOM      4  C2  OXE d   1       0.394  -0.720  -0.678  0.00  0.00    -0.078 A 
ATOM      5  C3  OXE d   1      -0.762  -1.392  -1.066  0.00  0.00     0.003 A 
ATOM      6  C4  OXE d   1      -0.724  -2.763  -1.347  0.00  0.00    -0.002 A 
ATOM      7  C5  OXE d   1       0.493  -3.452  -1.355  0.00  0.00    -0.002 A 
ATOM      8  C6  OXE d   1       1.670  -2.762  -1.085  0.00  0.00     0.003 A 
ENDROOT
TORSDOF 0
ENDMDL
