MODEL 1
REMARK minimizedAffinity -0.277673602
REMARK minimizedRMSD -1
REMARK  0 active torsions:
REMARK  status: ('A' for Active; 'I' for Inactive)
ROOT
ATOM      1  C2' OXE d   1      -5.386  -2.629   2.543  0.00  0.00     0.078 C 
ATOM      2  C1' OXE d   1      -2.666  -2.506   1.861  0.00  0.00     0.078 C 
ATOM      3  C1  OXE d   1      -3.026  -2.468   3.325  0.00  0.00    -0.078 A 
ATOM      4  C2  OXE d   1      -4.362  -2.482   3.647  0.00  0.00    -0.078 A 
ATOM      5  C3  OXE d   1      -4.748  -2.504   4.985  0.00  0.00     0.003 A 
ATOM      6  C4  OXE d   1      -3.795  -2.357   6.000  0.00  0.00    -0.002 A 
ATOM      7  C5  OXE d   1      -2.431  -2.302   5.691  0.00  0.00    -0.002 A 
ATOM      8  C6  OXE d   1      -2.029  -2.399   4.364  0.00  0.00     0.003 A 
ENDROOT
TORSDOF 0
ENDMDL
