MODEL 1
REMARK minimizedAffinity 1.65800655
REMARK minimizedRMSD -1
REMARK  0 active torsions:
REMARK  status: ('A' for Active; 'I' for Inactive)
ROOT
ATOM      1  C2' OXE d   1       0.755   0.790  -1.161  0.00  0.00     0.078 C 
ATOM      2  C1' OXE d   1       1.869  -0.921   0.765  0.00  0.00     0.078 C 
ATOM      3  C1  OXE d   1       1.288  -1.545  -0.479  0.00  0.00    -0.078 A 
ATOM      4  C2  OXE d   1       0.703  -0.704  -1.394  0.00  0.00    -0.078 A 
ATOM      5  C3  OXE d   1       0.201  -1.223  -2.584  0.00  0.00     0.003 A 
ATOM      6  C4  OXE d   1       0.148  -2.607  -2.788  0.00  0.00    -0.002 A 
ATOM      7  C5  OXE d   1       0.702  -3.484  -1.849  0.00  0.00    -0.002 A 
ATOM      8  C6  OXE d   1       1.313  -2.968  -0.712  0.00  0.00     0.003 A 
ENDROOT
TORSDOF 0
ENDMDL
