MODEL 1
REMARK minimizedAffinity -3.21458387
REMARK minimizedRMSD -1
REMARK  0 active torsions:
REMARK  status: ('A' for Active; 'I' for Inactive)
ROOT
ATOM      1  C2' OXE d   1      -2.077  -1.901   0.573  0.00  0.00     0.078 C 
ATOM      2  C1' OXE d   1      -0.996   0.498   1.550  0.00  0.00     0.078 C 
ATOM      3  C1  OXE d   1      -0.321  -0.147   0.366  0.00  0.00    -0.078 A 
ATOM      4  C2  OXE d   1      -0.828  -1.345  -0.077  0.00  0.00    -0.078 A 
ATOM      5  C3  OXE d   1      -0.277  -1.954  -1.200  0.00  0.00     0.003 A 
ATOM      6  C4  OXE d   1       0.884  -1.439  -1.788  0.00  0.00    -0.002 A 
ATOM      7  C5  OXE d   1       1.441  -0.240  -1.328  0.00  0.00    -0.002 A 
ATOM      8  C6  OXE d   1       0.827   0.439  -0.281  0.00  0.00     0.003 A 
ENDROOT
TORSDOF 0
ENDMDL
