MODEL 1
REMARK minimizedAffinity -4.50567245
REMARK minimizedRMSD -1
REMARK  0 active torsions:
REMARK  status: ('A' for Active; 'I' for Inactive)
ROOT
ATOM      1  C2' OXE d   1      -0.393  -1.096   2.836  0.00  0.00     0.078 C 
ATOM      2  C1' OXE d   1      -1.269   1.571   2.846  0.00  0.00     0.078 C 
ATOM      3  C1  OXE d   1      -0.744   1.008   1.549  0.00  0.00    -0.078 A 
ATOM      4  C2  OXE d   1      -0.274  -0.283   1.565  0.00  0.00    -0.078 A 
ATOM      5  C3  OXE d   1       0.170  -0.869   0.383  0.00  0.00     0.003 A 
ATOM      6  C4  OXE d   1       0.285  -0.108  -0.786  0.00  0.00    -0.002 A 
ATOM      7  C5  OXE d   1      -0.151   1.221  -0.814  0.00  0.00    -0.002 A 
ATOM      8  C6  OXE d   1      -0.707   1.780   0.332  0.00  0.00     0.003 A 
ENDROOT
TORSDOF 0
ENDMDL
