MODEL 1
REMARK minimizedAffinity -3.52087855
REMARK minimizedRMSD -1
REMARK  0 active torsions:
REMARK  status: ('A' for Active; 'I' for Inactive)
ROOT
ATOM      1  C2' OXE d   1      -1.140   1.660   2.732  0.00  0.00     0.078 C 
ATOM      2  C1' OXE d   1       0.647  -0.504   2.787  0.00  0.00     0.078 C 
ATOM      3  C1  OXE d   1       0.039  -0.127   1.459  0.00  0.00    -0.078 A 
ATOM      4  C2  OXE d   1      -0.870   0.904   1.450  0.00  0.00    -0.078 A 
ATOM      5  C3  OXE d   1      -1.418   1.328   0.243  0.00  0.00     0.003 A 
ATOM      6  C4  OXE d   1      -1.171   0.616  -0.937  0.00  0.00    -0.002 A 
ATOM      7  C5  OXE d   1      -0.279  -0.462  -0.943  0.00  0.00    -0.002 A 
ATOM      8  C6  OXE d   1       0.366  -0.818   0.237  0.00  0.00     0.003 A 
ENDROOT
TORSDOF 0
ENDMDL
