MODEL 1
REMARK minimizedAffinity -4.28347874
REMARK minimizedRMSD -1
REMARK  0 active torsions:
REMARK  status: ('A' for Active; 'I' for Inactive)
ROOT
ATOM      1  C2' OXE d   1      -1.761  -1.587  -2.386  0.00  0.00     0.078 C 
ATOM      2  C1' OXE d   1       0.162  -0.325  -0.775  0.00  0.00     0.078 C 
ATOM      3  C1  OXE d   1       0.331  -1.799  -1.050  0.00  0.00    -0.078 A 
ATOM      4  C2  OXE d   1      -0.640  -2.418  -1.800  0.00  0.00    -0.078 A 
ATOM      5  C3  OXE d   1      -0.504  -3.763  -2.129  0.00  0.00     0.003 A 
ATOM      6  C4  OXE d   1       0.531  -4.527  -1.575  0.00  0.00    -0.002 A 
ATOM      7  C5  OXE d   1       1.508  -3.925  -0.776  0.00  0.00    -0.002 A 
ATOM      8  C6  OXE d   1       1.447  -2.556  -0.539  0.00  0.00     0.003 A 
ENDROOT
TORSDOF 0
ENDMDL
