MODEL 1
REMARK minimizedAffinity -4.70116568
REMARK minimizedRMSD -1
REMARK  0 active torsions:
REMARK  status: ('A' for Active; 'I' for Inactive)
ROOT
ATOM      1  C2' OXE d   1       0.279  -1.279   3.065  0.00  0.00     0.078 C 
ATOM      2  C1' OXE d   1      -0.732   1.339   3.010  0.00  0.00     0.078 C 
ATOM      3  C1  OXE d   1      -0.550   0.627   1.693  0.00  0.00    -0.078 A 
ATOM      4  C2  OXE d   1      -0.011  -0.636   1.726  0.00  0.00    -0.078 A 
ATOM      5  C3  OXE d   1       0.127  -1.358   0.544  0.00  0.00     0.003 A 
ATOM      6  C4  OXE d   1      -0.134  -0.752  -0.691  0.00  0.00    -0.002 A 
ATOM      7  C5  OXE d   1      -0.647   0.548  -0.750  0.00  0.00    -0.002 A 
ATOM      8  C6  OXE d   1      -0.900   1.235   0.433  0.00  0.00     0.003 A 
ENDROOT
TORSDOF 0
ENDMDL
