MODEL 1
REMARK minimizedAffinity -1.41912329
REMARK minimizedRMSD -1
REMARK  0 active torsions:
REMARK  status: ('A' for Active; 'I' for Inactive)
ROOT
ATOM      1  C2' OXE d   1       0.135   1.680  -1.263  0.00  0.00     0.078 C 
ATOM      2  C1' OXE d   1       0.392  -1.097  -0.945  0.00  0.00     0.078 C 
ATOM      3  C1  OXE d   1      -0.042  -0.289   0.253  0.00  0.00    -0.078 A 
ATOM      4  C2  OXE d   1      -0.120   1.075   0.101  0.00  0.00    -0.078 A 
ATOM      5  C3  OXE d   1      -0.568   1.861   1.158  0.00  0.00     0.003 A 
ATOM      6  C4  OXE d   1      -0.791   1.294   2.418  0.00  0.00    -0.002 A 
ATOM      7  C5  OXE d   1      -0.679  -0.087   2.605  0.00  0.00    -0.002 A 
ATOM      8  C6  OXE d   1      -0.347  -0.897   1.524  0.00  0.00     0.003 A 
ENDROOT
TORSDOF 0
ENDMDL
