MODEL 1
REMARK minimizedAffinity 20.2688732
REMARK minimizedRMSD -1
REMARK  0 active torsions:
REMARK  status: ('A' for Active; 'I' for Inactive)
ROOT
ATOM      1  C   UNL d   1       3.195   2.711   0.399  0.00  0.00     0.124 A 
ATOM      2  C1  UNL d   1       2.953   1.737  -0.560  0.00  0.00     0.062 A 
ATOM      3  C2  UNL d   1       3.738   1.674  -1.707  0.00  0.00     0.162 A 
ATOM      4  C3  UNL d   1       4.774   2.588  -1.903  0.00  0.00    -0.034 A 
ATOM      5  C4  UNL d   1       5.011   3.565  -0.935  0.00  0.00     0.162 A 
ATOM      6  C5  UNL d   1       4.223   3.624   0.210  0.00  0.00     0.062 A 
ATOM      7  F   UNL d   1       4.459   4.566   1.135  0.00  0.00    -0.097 F 
ATOM      8  F1  UNL d   1       5.998   4.460  -1.091  0.00  0.00    -0.096 F 
ATOM      9  I   UNL d   1       5.950   2.497  -3.618  0.00  0.00    -0.060 I 
ATOM     10  F2  UNL d   1       3.482   0.722  -2.617  0.00  0.00    -0.096 F 
ATOM     11  F3  UNL d   1       1.960   0.854  -0.380  0.00  0.00    -0.097 F 
ATOM     12  F4  UNL d   1       2.438   2.770   1.502  0.00  0.00    -0.092 F 
ENDROOT
TORSDOF 0
ENDMDL
