MODEL 1
REMARK minimizedAffinity 26.5854092
REMARK minimizedRMSD -1
REMARK  0 active torsions:
REMARK  status: ('A' for Active; 'I' for Inactive)
ROOT
ATOM      1  C   UNL d   1      -4.616   3.206  -0.236  0.00  0.00     0.124 A 
ATOM      2  C1  UNL d   1      -4.184   4.385  -0.828  0.00  0.00     0.062 A 
ATOM      3  C2  UNL d   1      -3.574   4.358  -2.078  0.00  0.00     0.162 A 
ATOM      4  C3  UNL d   1      -3.391   3.148  -2.747  0.00  0.00    -0.034 A 
ATOM      5  C4  UNL d   1      -3.827   1.966  -2.145  0.00  0.00     0.162 A 
ATOM      6  C5  UNL d   1      -4.437   1.998  -0.895  0.00  0.00     0.062 A 
ATOM      7  F   UNL d   1      -4.853   0.857  -0.325  0.00  0.00    -0.097 F 
ATOM      8  F1  UNL d   1      -3.667   0.784  -2.760  0.00  0.00    -0.096 F 
ATOM      9  I   UNL d   1      -2.479   3.104  -4.616  0.00  0.00    -0.060 I 
ATOM     10  F2  UNL d   1      -3.167   5.513  -2.626  0.00  0.00    -0.096 F 
ATOM     11  F3  UNL d   1      -4.355   5.553  -0.193  0.00  0.00    -0.097 F 
ATOM     12  F4  UNL d   1      -5.202   3.234   0.968  0.00  0.00    -0.092 F 
ENDROOT
TORSDOF 0
ENDMDL
