MODEL 1
REMARK minimizedAffinity 31.1270962
REMARK minimizedRMSD -1
REMARK  0 active torsions:
REMARK  status: ('A' for Active; 'I' for Inactive)
ROOT
ATOM      1  C   UNL d   1      -0.321  -4.361  -0.013  0.00  0.00     0.124 A 
ATOM      2  C1  UNL d   1      -0.508  -4.643  -1.359  0.00  0.00     0.062 A 
ATOM      3  C2  UNL d   1      -0.784  -3.616  -2.257  0.00  0.00     0.162 A 
ATOM      4  C3  UNL d   1      -0.874  -2.297  -1.811  0.00  0.00    -0.034 A 
ATOM      5  C4  UNL d   1      -0.685  -2.022  -0.456  0.00  0.00     0.162 A 
ATOM      6  C5  UNL d   1      -0.409  -3.052   0.438  0.00  0.00     0.062 A 
ATOM      7  F   UNL d   1      -0.228  -2.778   1.738  0.00  0.00    -0.097 F 
ATOM      8  F1  UNL d   1      -0.764  -0.765   0.006  0.00  0.00    -0.096 F 
ATOM      9  I   UNL d   1      -1.287  -0.758  -3.151  0.00  0.00    -0.060 I 
ATOM     10  F2  UNL d   1      -0.961  -3.916  -3.552  0.00  0.00    -0.096 F 
ATOM     11  F3  UNL d   1      -0.424  -5.907  -1.796  0.00  0.00    -0.097 F 
ATOM     12  F4  UNL d   1      -0.056  -5.352   0.849  0.00  0.00    -0.092 F 
ENDROOT
TORSDOF 0
ENDMDL
