MODEL 1
REMARK minimizedAffinity 23.7897568
REMARK minimizedRMSD -1
REMARK  0 active torsions:
REMARK  status: ('A' for Active; 'I' for Inactive)
ROOT
ATOM      1  C   UNL d   1      -2.327   0.427   4.577  0.00  0.00     0.124 A 
ATOM      2  C1  UNL d   1      -1.784  -0.843   4.450  0.00  0.00     0.062 A 
ATOM      3  C2  UNL d   1      -1.676  -1.437   3.195  0.00  0.00     0.162 A 
ATOM      4  C3  UNL d   1      -2.113  -0.760   2.057  0.00  0.00    -0.034 A 
ATOM      5  C4  UNL d   1      -2.660   0.518   2.192  0.00  0.00     0.162 A 
ATOM      6  C5  UNL d   1      -2.765   1.106   3.448  0.00  0.00     0.062 A 
ATOM      7  F   UNL d   1      -3.290   2.334   3.569  0.00  0.00    -0.097 F 
ATOM      8  F1  UNL d   1      -3.089   1.197   1.118  0.00  0.00    -0.096 F 
ATOM      9  I   UNL d   1      -1.954  -1.644   0.179  0.00  0.00    -0.060 I 
ATOM     10  F2  UNL d   1      -1.147  -2.666   3.102  0.00  0.00    -0.096 F 
ATOM     11  F3  UNL d   1      -1.361  -1.502   5.538  0.00  0.00    -0.097 F 
ATOM     12  F4  UNL d   1      -2.430   0.996   5.785  0.00  0.00    -0.092 F 
ENDROOT
TORSDOF 0
ENDMDL
