MODEL 1
REMARK minimizedAffinity 30.5268307
REMARK minimizedRMSD -1
REMARK  0 active torsions:
REMARK  status: ('A' for Active; 'I' for Inactive)
ROOT
ATOM      1  C   UNL d   1       5.517   2.669   0.110  0.00  0.00     0.124 A 
ATOM      2  C1  UNL d   1       5.017   3.838   0.668  0.00  0.00     0.062 A 
ATOM      3  C2  UNL d   1       4.514   3.835   1.965  0.00  0.00     0.162 A 
ATOM      4  C3  UNL d   1       4.509   2.659   2.716  0.00  0.00    -0.034 A 
ATOM      5  C4  UNL d   1       5.013   1.487   2.148  0.00  0.00     0.162 A 
ATOM      6  C5  UNL d   1       5.514   1.495   0.851  0.00  0.00     0.062 A 
ATOM      7  F   UNL d   1       5.997   0.365   0.314  0.00  0.00    -0.097 F 
ATOM      8  F1  UNL d   1       5.023   0.339   2.841  0.00  0.00    -0.096 F 
ATOM      9  I   UNL d   1       3.757   2.651   4.657  0.00  0.00    -0.060 I 
ATOM     10  F2  UNL d   1       4.037   4.979   2.479  0.00  0.00    -0.096 F 
ATOM     11  F3  UNL d   1       5.018   4.973  -0.046  0.00  0.00    -0.097 F 
ATOM     12  F4  UNL d   1       6.000   2.675  -1.139  0.00  0.00    -0.092 F 
ENDROOT
TORSDOF 0
ENDMDL
