MODEL 1
REMARK minimizedAffinity 27.6465168
REMARK minimizedRMSD -1
REMARK  0 active torsions:
REMARK  status: ('A' for Active; 'I' for Inactive)
ROOT
ATOM      1  C   UNL d   1      -1.348  -3.225  -1.956  0.00  0.00     0.124 A 
ATOM      2  C1  UNL d   1      -2.060  -2.579  -2.957  0.00  0.00     0.062 A 
ATOM      3  C2  UNL d   1      -2.819  -1.451  -2.661  0.00  0.00     0.162 A 
ATOM      4  C3  UNL d   1      -2.869  -0.959  -1.357  0.00  0.00    -0.034 A 
ATOM      5  C4  UNL d   1      -2.151  -1.614  -0.354  0.00  0.00     0.162 A 
ATOM      6  C5  UNL d   1      -1.395  -2.742  -0.656  0.00  0.00     0.062 A 
ATOM      7  F   UNL d   1      -0.708  -3.364   0.313  0.00  0.00    -0.097 F 
ATOM      8  F1  UNL d   1      -2.178  -1.168   0.910  0.00  0.00    -0.096 F 
ATOM      9  I   UNL d   1      -4.002   0.728  -0.909  0.00  0.00    -0.060 I 
ATOM     10  F2  UNL d   1      -3.496  -0.847  -3.649  0.00  0.00    -0.096 F 
ATOM     11  F3  UNL d   1      -2.018  -3.044  -4.214  0.00  0.00    -0.097 F 
ATOM     12  F4  UNL d   1      -0.620  -4.311  -2.244  0.00  0.00    -0.092 F 
ENDROOT
TORSDOF 0
ENDMDL
