MODEL 1
REMARK minimizedAffinity 33.414875
REMARK minimizedRMSD -1
REMARK  0 active torsions:
REMARK  status: ('A' for Active; 'I' for Inactive)
ROOT
ATOM      1  C   UNL d   1       3.817  -0.836  -3.395  0.00  0.00     0.124 A 
ATOM      2  C1  UNL d   1       2.605  -0.754  -2.725  0.00  0.00     0.062 A 
ATOM      3  C2  UNL d   1       2.399   0.235  -1.768  0.00  0.00     0.162 A 
ATOM      4  C3  UNL d   1       3.409   1.151  -1.475  0.00  0.00    -0.034 A 
ATOM      5  C4  UNL d   1       4.627   1.062  -2.152  0.00  0.00     0.162 A 
ATOM      6  C5  UNL d   1       4.827   0.071  -3.108  0.00  0.00     0.062 A 
ATOM      7  F   UNL d   1       6.000  -0.007  -3.754  0.00  0.00    -0.097 F 
ATOM      8  F1  UNL d   1       5.620   1.926  -1.894  0.00  0.00    -0.096 F 
ATOM      9  I   UNL d   1       3.106   2.632  -0.044  0.00  0.00    -0.060 I 
ATOM     10  F2  UNL d   1       1.217   0.291  -1.136  0.00  0.00    -0.096 F 
ATOM     11  F3  UNL d   1       1.628  -1.630  -3.001  0.00  0.00    -0.097 F 
ATOM     12  F4  UNL d   1       4.013  -1.789  -4.315  0.00  0.00    -0.092 F 
ENDROOT
TORSDOF 0
ENDMDL
