MODEL 1
REMARK minimizedAffinity 22.0350971
REMARK minimizedRMSD -1
REMARK  0 active torsions:
REMARK  status: ('A' for Active; 'I' for Inactive)
ROOT
ATOM      1  C   UNL d   1      -1.414  -3.675   2.474  0.00  0.00     0.124 A 
ATOM      2  C1  UNL d   1      -2.018  -2.449   2.233  0.00  0.00     0.062 A 
ATOM      3  C2  UNL d   1      -2.065  -1.934   0.940  0.00  0.00     0.162 A 
ATOM      4  C3  UNL d   1      -1.507  -2.647  -0.122  0.00  0.00    -0.034 A 
ATOM      5  C4  UNL d   1      -0.901  -3.879   0.130  0.00  0.00     0.162 A 
ATOM      6  C5  UNL d   1      -0.857  -4.389   1.423  0.00  0.00     0.062 A 
ATOM      7  F   UNL d   1      -0.273  -5.574   1.655  0.00  0.00    -0.097 F 
ATOM      8  F1  UNL d   1      -0.356  -4.591  -0.868  0.00  0.00    -0.096 F 
ATOM      9  I   UNL d   1      -1.576  -1.882  -2.056  0.00  0.00    -0.060 I 
ATOM     10  F2  UNL d   1      -2.654  -0.747   0.736  0.00  0.00    -0.096 F 
ATOM     11  F3  UNL d   1      -2.556  -1.756   3.247  0.00  0.00    -0.097 F 
ATOM     12  F4  UNL d   1      -1.369  -4.167   3.719  0.00  0.00    -0.092 F 
ENDROOT
TORSDOF 0
ENDMDL
