MODEL 1
REMARK minimizedAffinity 12.0661592
REMARK minimizedRMSD -1
REMARK  0 active torsions:
REMARK  status: ('A' for Active; 'I' for Inactive)
ROOT
ATOM      1  C   UNL d   1      -2.016  -1.708   0.806  0.00  0.00     0.124 A 
ATOM      2  C1  UNL d   1      -2.050  -2.015   2.159  0.00  0.00     0.062 A 
ATOM      3  C2  UNL d   1      -1.568  -3.240   2.611  0.00  0.00     0.162 A 
ATOM      4  C3  UNL d   1      -1.046  -4.167   1.709  0.00  0.00    -0.034 A 
ATOM      5  C4  UNL d   1      -1.016  -3.851   0.349  0.00  0.00     0.162 A 
ATOM      6  C5  UNL d   1      -1.499  -2.626  -0.097  0.00  0.00     0.062 A 
ATOM      7  F   UNL d   1      -1.465  -2.330  -1.405  0.00  0.00    -0.097 F 
ATOM      8  F1  UNL d   1      -0.521  -4.719  -0.545  0.00  0.00    -0.096 F 
ATOM      9  I   UNL d   1      -0.324  -6.000   2.380  0.00  0.00    -0.060 I 
ATOM     10  F2  UNL d   1      -1.613  -3.510   3.924  0.00  0.00    -0.096 F 
ATOM     11  F3  UNL d   1      -2.550  -1.130   3.034  0.00  0.00    -0.097 F 
ATOM     12  F4  UNL d   1      -2.481  -0.529   0.374  0.00  0.00    -0.092 F 
ENDROOT
TORSDOF 0
ENDMDL
