MODEL 1
REMARK minimizedAffinity 22.2976341
REMARK minimizedRMSD -1
REMARK  0 active torsions:
REMARK  status: ('A' for Active; 'I' for Inactive)
ROOT
ATOM      1  C   UNL d   1      -0.963  -3.861   1.764  0.00  0.00     0.124 A 
ATOM      2  C1  UNL d   1      -1.122  -3.642   0.402  0.00  0.00     0.062 A 
ATOM      3  C2  UNL d   1      -1.979  -2.643  -0.050  0.00  0.00     0.162 A 
ATOM      4  C3  UNL d   1      -2.683  -1.854   0.860  0.00  0.00    -0.034 A 
ATOM      5  C4  UNL d   1      -2.518  -2.081   2.227  0.00  0.00     0.162 A 
ATOM      6  C5  UNL d   1      -1.661  -3.081   2.674  0.00  0.00     0.062 A 
ATOM      7  F   UNL d   1      -1.508  -3.291   3.990  0.00  0.00    -0.097 F 
ATOM      8  F1  UNL d   1      -3.180  -1.341   3.129  0.00  0.00    -0.096 F 
ATOM      9  I   UNL d   1      -3.965  -0.359   0.187  0.00  0.00    -0.060 I 
ATOM     10  F2  UNL d   1      -2.113  -2.453  -1.371  0.00  0.00    -0.096 F 
ATOM     11  F3  UNL d   1      -0.449  -4.395  -0.480  0.00  0.00    -0.097 F 
ATOM     12  F4  UNL d   1      -0.138  -4.824   2.196  0.00  0.00    -0.092 F 
ENDROOT
TORSDOF 0
ENDMDL
