MODEL 1
REMARK minimizedAffinity 15.6690569
REMARK minimizedRMSD -1
REMARK  0 active torsions:
REMARK  status: ('A' for Active; 'I' for Inactive)
ROOT
ATOM      1  C   UNL d   1      -1.819  -3.276  -1.538  0.00  0.00     0.124 A 
ATOM      2  C1  UNL d   1      -2.189  -2.019  -1.079  0.00  0.00     0.062 A 
ATOM      3  C2  UNL d   1      -2.127  -1.724   0.279  0.00  0.00     0.162 A 
ATOM      4  C3  UNL d   1      -1.693  -2.687   1.190  0.00  0.00    -0.034 A 
ATOM      5  C4  UNL d   1      -1.323  -3.949   0.721  0.00  0.00     0.162 A 
ATOM      6  C5  UNL d   1      -1.387  -4.240  -0.638  0.00  0.00     0.062 A 
ATOM      7  F   UNL d   1      -1.029  -5.454  -1.079  0.00  0.00    -0.097 F 
ATOM      8  F1  UNL d   1      -0.901  -4.898   1.569  0.00  0.00    -0.096 F 
ATOM      9  I   UNL d   1      -1.598  -2.249   3.222  0.00  0.00    -0.060 I 
ATOM     10  F2  UNL d   1      -2.491  -0.501   0.694  0.00  0.00    -0.096 F 
ATOM     11  F3  UNL d   1      -2.608  -1.087  -1.947  0.00  0.00    -0.097 F 
ATOM     12  F4  UNL d   1      -1.881  -3.558  -2.846  0.00  0.00    -0.092 F 
ENDROOT
TORSDOF 0
ENDMDL
