MODEL 1
REMARK minimizedAffinity 28.5392952
REMARK minimizedRMSD -1
REMARK  0 active torsions:
REMARK  status: ('A' for Active; 'I' for Inactive)
ROOT
ATOM      1  C   UNL d   1      -1.831  -1.562   1.434  0.00  0.00     0.124 A 
ATOM      2  C1  UNL d   1      -1.768  -2.048   2.733  0.00  0.00     0.062 A 
ATOM      3  C2  UNL d   1      -1.248  -3.314   2.982  0.00  0.00     0.162 A 
ATOM      4  C3  UNL d   1      -0.784  -4.105   1.930  0.00  0.00    -0.034 A 
ATOM      5  C4  UNL d   1      -0.852  -3.610   0.626  0.00  0.00     0.162 A 
ATOM      6  C5  UNL d   1      -1.373  -2.343   0.383  0.00  0.00     0.062 A 
ATOM      7  F   UNL d   1      -1.432  -1.875  -0.873  0.00  0.00    -0.097 F 
ATOM      8  F1  UNL d   1      -0.415  -4.343  -0.408  0.00  0.00    -0.096 F 
ATOM      9  I   UNL d   1      -0.005  -5.999   2.299  0.00  0.00    -0.060 I 
ATOM     10  F2  UNL d   1      -1.199  -3.758   4.247  0.00  0.00    -0.096 F 
ATOM     11  F3  UNL d   1      -2.211  -1.296   3.751  0.00  0.00    -0.097 F 
ATOM     12  F4  UNL d   1      -2.333  -0.344   1.197  0.00  0.00    -0.092 F 
ENDROOT
TORSDOF 0
ENDMDL
