MODEL 1
REMARK minimizedAffinity 10.8582277
REMARK minimizedRMSD -1
REMARK  0 active torsions:
REMARK  status: ('A' for Active; 'I' for Inactive)
ROOT
ATOM      1  C   UNL d   1      -1.873  -3.748   2.354  0.00  0.00     0.124 A 
ATOM      2  C1  UNL d   1      -2.518  -2.541   2.124  0.00  0.00     0.062 A 
ATOM      3  C2  UNL d   1      -2.425  -1.923   0.881  0.00  0.00     0.162 A 
ATOM      4  C3  UNL d   1      -1.683  -2.511  -0.144  0.00  0.00    -0.034 A 
ATOM      5  C4  UNL d   1      -1.036  -3.725   0.095  0.00  0.00     0.162 A 
ATOM      6  C5  UNL d   1      -1.132  -4.339   1.339  0.00  0.00     0.062 A 
ATOM      7  F   UNL d   1      -0.507  -5.505   1.560  0.00  0.00    -0.097 F 
ATOM      8  F1  UNL d   1      -0.315  -4.318  -0.868  0.00  0.00    -0.096 F 
ATOM      9  I   UNL d   1      -1.542  -1.590  -2.005  0.00  0.00    -0.060 I 
ATOM     10  F2  UNL d   1      -3.060  -0.757   0.687  0.00  0.00    -0.096 F 
ATOM     11  F3  UNL d   1      -3.234  -1.968   3.103  0.00  0.00    -0.097 F 
ATOM     12  F4  UNL d   1      -1.963  -4.340   3.552  0.00  0.00    -0.092 F 
ENDROOT
TORSDOF 0
ENDMDL
