MODEL 1
REMARK minimizedAffinity 20.7875805
REMARK minimizedRMSD -1
REMARK  0 active torsions:
REMARK  status: ('A' for Active; 'I' for Inactive)
ROOT
ATOM      1  C   UNL d   1      -0.735  -3.948  -0.126  0.00  0.00     0.124 A 
ATOM      2  C1  UNL d   1      -1.407  -2.736  -0.217  0.00  0.00     0.062 A 
ATOM      3  C2  UNL d   1      -2.014  -2.187   0.909  0.00  0.00     0.162 A 
ATOM      4  C3  UNL d   1      -1.953  -2.848   2.135  0.00  0.00    -0.034 A 
ATOM      5  C4  UNL d   1      -1.276  -4.066   2.219  0.00  0.00     0.162 A 
ATOM      6  C5  UNL d   1      -0.671  -4.611   1.091  0.00  0.00     0.062 A 
ATOM      7  F   UNL d   1      -0.022  -5.782   1.181  0.00  0.00    -0.097 F 
ATOM      8  F1  UNL d   1      -1.197  -4.728   3.383  0.00  0.00    -0.096 F 
ATOM      9  I   UNL d   1      -2.860  -2.029   3.820  0.00  0.00    -0.060 I 
ATOM     10  F2  UNL d   1      -2.657  -1.015   0.792  0.00  0.00    -0.096 F 
ATOM     11  F3  UNL d   1      -1.472  -2.094  -1.392  0.00  0.00    -0.097 F 
ATOM     12  F4  UNL d   1      -0.153  -4.475  -1.210  0.00  0.00    -0.092 F 
ENDROOT
TORSDOF 0
ENDMDL
