MODEL 1
REMARK minimizedAffinity 27.9240036
REMARK minimizedRMSD -1
REMARK  0 active torsions:
REMARK  status: ('A' for Active; 'I' for Inactive)
ROOT
ATOM      1  C   UNL d   1       1.837   0.267  -2.473  0.00  0.00     0.124 A 
ATOM      2  C1  UNL d   1       1.366   0.882  -1.321  0.00  0.00     0.062 A 
ATOM      3  C2  UNL d   1       0.149   0.496  -0.769  0.00  0.00     0.162 A 
ATOM      4  C3  UNL d   1      -0.607  -0.512  -1.368  0.00  0.00    -0.034 A 
ATOM      5  C4  UNL d   1      -0.128  -1.126  -2.526  0.00  0.00     0.162 A 
ATOM      6  C5  UNL d   1       1.090  -0.736  -3.074  0.00  0.00     0.062 A 
ATOM      7  F   UNL d   1       1.543  -1.331  -4.187  0.00  0.00    -0.097 F 
ATOM      8  F1  UNL d   1      -0.829  -2.098  -3.127  0.00  0.00    -0.096 F 
ATOM      9  I   UNL d   1      -2.429  -1.093  -0.545  0.00  0.00    -0.060 I 
ATOM     10  F2  UNL d   1      -0.282   1.107   0.344  0.00  0.00    -0.096 F 
ATOM     11  F3  UNL d   1       2.086   1.852  -0.739  0.00  0.00    -0.097 F 
ATOM     12  F4  UNL d   1       3.009   0.642  -3.003  0.00  0.00    -0.092 F 
ENDROOT
TORSDOF 0
ENDMDL
