MODEL 1
REMARK minimizedAffinity 18.4029484
REMARK minimizedRMSD -1
REMARK  0 active torsions:
REMARK  status: ('A' for Active; 'I' for Inactive)
ROOT
ATOM      1  C   UNL d   1      -0.798  -3.127  -1.578  0.00  0.00     0.124 A 
ATOM      2  C1  UNL d   1      -1.565  -2.002  -1.306  0.00  0.00     0.062 A 
ATOM      3  C2  UNL d   1      -2.063  -1.788  -0.024  0.00  0.00     0.162 A 
ATOM      4  C3  UNL d   1      -1.795  -2.700   0.997  0.00  0.00    -0.034 A 
ATOM      5  C4  UNL d   1      -1.024  -3.829   0.716  0.00  0.00     0.162 A 
ATOM      6  C5  UNL d   1      -0.528  -4.039  -0.567  0.00  0.00     0.062 A 
ATOM      7  F   UNL d   1       0.213  -5.126  -0.828  0.00  0.00    -0.097 F 
ATOM      8  F1  UNL d   1      -0.747  -4.726   1.674  0.00  0.00    -0.096 F 
ATOM      9  I   UNL d   1      -2.539  -2.384   2.915  0.00  0.00    -0.060 I 
ATOM     10  F2  UNL d   1      -2.802  -0.693   0.210  0.00  0.00    -0.096 F 
ATOM     11  F3  UNL d   1      -1.828  -1.120  -2.281  0.00  0.00    -0.097 F 
ATOM     12  F4  UNL d   1      -0.321  -3.331  -2.812  0.00  0.00    -0.092 F 
ENDROOT
TORSDOF 0
ENDMDL
