MODEL 1
REMARK minimizedAffinity 4.9198246
REMARK minimizedRMSD -1
REMARK  1 active torsions:
REMARK  status: ('A' for Active; 'I' for Inactive)
REMARK    1  A    between atoms: C3_4  and  O_7 
ROOT
ATOM      1  C   UNL d   1       2.704  -1.637   4.150  0.00  0.00    -0.033 A 
ATOM      2  C1  UNL d   1       3.244  -2.754   3.510  0.00  0.00     0.039 A 
ATOM      3  C2  UNL d   1       4.283  -3.469   4.109  0.00  0.00    -0.080 A 
ATOM      4  C3  UNL d   1       4.770  -3.060   5.347  0.00  0.00     0.150 A 
ATOM      5  C4  UNL d   1       4.233  -1.950   5.993  0.00  0.00    -0.007 A 
ATOM      6  C5  UNL d   1       3.197  -1.236   5.392  0.00  0.00     0.039 A 
ENDROOT
BRANCH   4   7
ATOM      7  O   UNL d   1       5.785  -3.724   5.969  0.00  0.00    -0.526 OA
ATOM      8  H5  UNL d   1       6.075  -4.451   5.393  0.00  0.00     0.418 HD
ENDBRANCH   4   7
TORSDOF 1
ENDMDL
