MODEL 1
REMARK minimizedAffinity 3.44528413
REMARK minimizedRMSD -1
REMARK  1 active torsions:
REMARK  status: ('A' for Active; 'I' for Inactive)
REMARK    1  A    between atoms: C3_4  and  O_7 
ROOT
ATOM      1  C   UNL d   1      -0.042  -2.506  -2.227  0.00  0.00    -0.033 A 
ATOM      2  C1  UNL d   1       0.281  -2.333  -0.879  0.00  0.00     0.039 A 
ATOM      3  C2  UNL d   1      -0.725  -2.341   0.089  0.00  0.00    -0.080 A 
ATOM      4  C3  UNL d   1      -2.048  -2.524  -0.302  0.00  0.00     0.150 A 
ATOM      5  C4  UNL d   1      -2.377  -2.701  -1.642  0.00  0.00    -0.007 A 
ATOM      6  C5  UNL d   1      -1.372  -2.692  -2.608  0.00  0.00     0.039 A 
ENDROOT
BRANCH   4   7
ATOM      7  O   UNL d   1      -3.065  -2.534   0.606  0.00  0.00    -0.526 OA
ATOM      8  H5  UNL d   1      -2.691  -2.371   1.488  0.00  0.00     0.418 HD
ENDBRANCH   4   7
TORSDOF 1
ENDMDL
