MODEL 1
REMARK minimizedAffinity -0.388095528
REMARK minimizedRMSD -1
REMARK  1 active torsions:
REMARK  status: ('A' for Active; 'I' for Inactive)
REMARK    1  A    between atoms: C3_4  and  O_7 
ROOT
ATOM      1  C   UNL d   1       5.548  -3.779   3.986  0.00  0.00    -0.033 A 
ATOM      2  C1  UNL d   1       4.508  -3.152   3.297  0.00  0.00     0.039 A 
ATOM      3  C2  UNL d   1       3.674  -2.250   3.960  0.00  0.00    -0.080 A 
ATOM      4  C3  UNL d   1       3.891  -1.982   5.309  0.00  0.00     0.150 A 
ATOM      5  C4  UNL d   1       4.928  -2.600   6.000  0.00  0.00    -0.007 A 
ATOM      6  C5  UNL d   1       5.760  -3.502   5.336  0.00  0.00     0.039 A 
ENDROOT
BRANCH   4   7
ATOM      7  O   UNL d   1       3.101  -1.113   5.999  0.00  0.00    -0.526 OA
ATOM      8  H5  UNL d   1       2.409  -0.784   5.401  0.00  0.00     0.418 HD
ENDBRANCH   4   7
TORSDOF 1
ENDMDL
