MODEL 1
REMARK minimizedAffinity 12.9475021
REMARK minimizedRMSD -1
REMARK  1 active torsions:
REMARK  status: ('A' for Active; 'I' for Inactive)
REMARK    1  A    between atoms: C3_4  and  O_7 
ROOT
ATOM      1  C   UNL d   1       3.381  -3.173  -3.270  0.00  0.00    -0.033 A 
ATOM      2  C1  UNL d   1       2.356  -3.842  -3.941  0.00  0.00     0.039 A 
ATOM      3  C2  UNL d   1       1.022  -3.579  -3.622  0.00  0.00    -0.080 A 
ATOM      4  C3  UNL d   1       0.728  -2.646  -2.632  0.00  0.00     0.150 A 
ATOM      5  C4  UNL d   1       1.744  -1.973  -1.962  0.00  0.00    -0.007 A 
ATOM      6  C5  UNL d   1       3.075  -2.237  -2.281  0.00  0.00     0.039 A 
ENDROOT
BRANCH   4   7
ATOM      7  O   UNL d   1      -0.559  -2.359  -2.283  0.00  0.00    -0.526 OA
ATOM      8  H5  UNL d   1      -1.152  -2.920  -2.809  0.00  0.00     0.418 HD
ENDBRANCH   4   7
TORSDOF 1
ENDMDL
