MODEL 1
REMARK minimizedAffinity 4.53125238
REMARK minimizedRMSD -1
REMARK  1 active torsions:
REMARK  status: ('A' for Active; 'I' for Inactive)
REMARK    1  A    between atoms: C3_4  and  O_7 
ROOT
ATOM      1  C   UNL d   1      -4.378   6.000   0.514  0.00  0.00    -0.033 A 
ATOM      2  C1  UNL d   1      -5.321   5.271  -0.213  0.00  0.00     0.039 A 
ATOM      3  C2  UNL d   1      -5.193   3.886  -0.334  0.00  0.00    -0.080 A 
ATOM      4  C3  UNL d   1      -4.120   3.243   0.277  0.00  0.00     0.150 A 
ATOM      5  C4  UNL d   1      -3.179   3.962   1.006  0.00  0.00    -0.007 A 
ATOM      6  C5  UNL d   1      -3.308   5.345   1.125  0.00  0.00     0.039 A 
ENDROOT
BRANCH   4   7
ATOM      7  O   UNL d   1      -3.951   1.893   0.183  0.00  0.00    -0.526 OA
ATOM      8  H5  UNL d   1      -4.660   1.532  -0.375  0.00  0.00     0.418 HD
ENDBRANCH   4   7
TORSDOF 1
ENDMDL
