MODEL 1
REMARK minimizedAffinity 0.572811604
REMARK minimizedRMSD -1
REMARK  1 active torsions:
REMARK  status: ('A' for Active; 'I' for Inactive)
REMARK    1  A    between atoms: C3_4  and  O_7 
ROOT
ATOM      1  C   UNL d   1      -4.151   0.030   5.974  0.00  0.00    -0.033 A 
ATOM      2  C1  UNL d   1      -3.919  -1.346   5.992  0.00  0.00     0.039 A 
ATOM      3  C2  UNL d   1      -2.612  -1.836   6.000  0.00  0.00    -0.080 A 
ATOM      4  C3  UNL d   1      -1.547  -0.939   5.990  0.00  0.00     0.150 A 
ATOM      5  C4  UNL d   1      -1.771   0.434   5.975  0.00  0.00    -0.007 A 
ATOM      6  C5  UNL d   1      -3.077   0.920   5.966  0.00  0.00     0.039 A 
ENDROOT
BRANCH   4   7
ATOM      7  O   UNL d   1      -0.253  -1.369   5.992  0.00  0.00    -0.526 OA
ATOM      8  H5  UNL d   1      -0.252  -2.341   5.973  0.00  0.00     0.418 HD
ENDBRANCH   4   7
TORSDOF 1
ENDMDL
