MODEL 1
REMARK minimizedAffinity 7.24537134
REMARK minimizedRMSD -1
REMARK  1 active torsions:
REMARK  status: ('A' for Active; 'I' for Inactive)
REMARK    1  A    between atoms: C3_4  and  O_7 
ROOT
ATOM      1  C   UNL d   1      -4.372  -0.291   5.998  0.00  0.00    -0.033 A 
ATOM      2  C1  UNL d   1      -3.509   0.807   5.992  0.00  0.00     0.039 A 
ATOM      3  C2  UNL d   1      -2.127   0.610   5.992  0.00  0.00    -0.080 A 
ATOM      4  C3  UNL d   1      -1.622  -0.688   5.996  0.00  0.00     0.150 A 
ATOM      5  C4  UNL d   1      -2.476  -1.785   5.997  0.00  0.00    -0.007 A 
ATOM      6  C5  UNL d   1      -3.856  -1.587   5.999  0.00  0.00     0.039 A 
ENDROOT
BRANCH   4   7
ATOM      7  O   UNL d   1      -0.280  -0.930   6.000  0.00  0.00    -0.526 OA
ATOM      8  H5  UNL d   1       0.186  -0.078   6.027  0.00  0.00     0.418 HD
ENDBRANCH   4   7
TORSDOF 1
ENDMDL
