MODEL 1
REMARK minimizedAffinity 1.40303886
REMARK minimizedRMSD -1
REMARK  1 active torsions:
REMARK  status: ('A' for Active; 'I' for Inactive)
REMARK    1  A    between atoms: C3_4  and  O_7 
ROOT
ATOM      1  C   UNL d   1      -2.900  -1.827   5.999  0.00  0.00    -0.033 A 
ATOM      2  C1  UNL d   1      -1.592  -1.352   5.891  0.00  0.00     0.039 A 
ATOM      3  C2  UNL d   1      -1.352   0.019   5.779  0.00  0.00    -0.080 A 
ATOM      4  C3  UNL d   1      -2.428   0.903   5.776  0.00  0.00     0.150 A 
ATOM      5  C4  UNL d   1      -3.734   0.436   5.887  0.00  0.00    -0.007 A 
ATOM      6  C5  UNL d   1      -3.971  -0.933   5.998  0.00  0.00     0.039 A 
ENDROOT
BRANCH   4   7
ATOM      7  O   UNL d   1      -2.244   2.249   5.664  0.00  0.00    -0.526 OA
ATOM      8  H5  UNL d   1      -1.293   2.423   5.566  0.00  0.00     0.418 HD
ENDBRANCH   4   7
TORSDOF 1
ENDMDL
