MODEL 1
REMARK minimizedAffinity 7.93420935
REMARK minimizedRMSD -1
REMARK  1 active torsions:
REMARK  status: ('A' for Active; 'I' for Inactive)
REMARK    1  A    between atoms: C3_4  and  O_7 
ROOT
ATOM      1  C   UNL d   1      -1.159   3.408   1.595  0.00  0.00    -0.033 A 
ATOM      2  C1  UNL d   1      -0.008   4.144   1.880  0.00  0.00     0.039 A 
ATOM      3  C2  UNL d   1       0.626   4.871   0.870  0.00  0.00    -0.080 A 
ATOM      4  C3  UNL d   1       0.097   4.854  -0.418  0.00  0.00     0.150 A 
ATOM      5  C4  UNL d   1      -1.052   4.126  -0.708  0.00  0.00    -0.007 A 
ATOM      6  C5  UNL d   1      -1.682   3.400   0.302  0.00  0.00     0.039 A 
ENDROOT
BRANCH   4   7
ATOM      7  O   UNL d   1       0.683   5.544  -1.438  0.00  0.00    -0.526 OA
ATOM      8  H5  UNL d   1       1.484   5.976  -1.097  0.00  0.00     0.418 HD
ENDBRANCH   4   7
TORSDOF 1
ENDMDL
