MODEL 1
REMARK minimizedAffinity 4.47814274
REMARK minimizedRMSD -1
REMARK  1 active torsions:
REMARK  status: ('A' for Active; 'I' for Inactive)
REMARK    1  A    between atoms: C3_4  and  O_7 
ROOT
ATOM      1  C   UNL d   1      -0.108  -2.336  -0.579  0.00  0.00    -0.033 A 
ATOM      2  C1  UNL d   1      -1.398  -1.895  -0.876  0.00  0.00     0.039 A 
ATOM      3  C2  UNL d   1      -1.829  -1.835  -2.203  0.00  0.00    -0.080 A 
ATOM      4  C3  UNL d   1      -0.961  -2.220  -3.221  0.00  0.00     0.150 A 
ATOM      5  C4  UNL d   1       0.324  -2.665  -2.932  0.00  0.00    -0.007 A 
ATOM      6  C5  UNL d   1       0.753  -2.723  -1.607  0.00  0.00     0.039 A 
ENDROOT
BRANCH   4   7
ATOM      7  O   UNL d   1      -1.335  -2.174  -4.532  0.00  0.00    -0.526 OA
ATOM      8  H5  UNL d   1      -2.239  -1.820  -4.582  0.00  0.00     0.418 HD
ENDBRANCH   4   7
TORSDOF 1
ENDMDL
