MODEL 1
REMARK minimizedAffinity 13.8039989
REMARK minimizedRMSD -1
REMARK  1 active torsions:
REMARK  status: ('A' for Active; 'I' for Inactive)
REMARK    1  A    between atoms: C3_4  and  O_7 
ROOT
ATOM      1  C   UNL d   1      -0.094  -2.452   0.586  0.00  0.00    -0.033 A 
ATOM      2  C1  UNL d   1       0.252  -3.499  -0.270  0.00  0.00     0.039 A 
ATOM      3  C2  UNL d   1      -0.091  -3.439  -1.622  0.00  0.00    -0.080 A 
ATOM      4  C3  UNL d   1      -0.777  -2.328  -2.105  0.00  0.00     0.150 A 
ATOM      5  C4  UNL d   1      -1.121  -1.279  -1.258  0.00  0.00    -0.007 A 
ATOM      6  C5  UNL d   1      -0.779  -1.341   0.092  0.00  0.00     0.039 A 
ENDROOT
BRANCH   4   7
ATOM      7  O   UNL d   1      -1.137  -2.227  -3.416  0.00  0.00    -0.526 OA
ATOM      8  H5  UNL d   1      -0.859  -3.037  -3.875  0.00  0.00     0.418 HD
ENDBRANCH   4   7
TORSDOF 1
ENDMDL
