MODEL 1
REMARK minimizedAffinity 5.37599325
REMARK minimizedRMSD -1
REMARK  1 active torsions:
REMARK  status: ('A' for Active; 'I' for Inactive)
REMARK    1  A    between atoms: C3_4  and  O_7 
ROOT
ATOM      1  C   UNL d   1      -3.873   2.116   5.676  0.00  0.00    -0.033 A 
ATOM      2  C1  UNL d   1      -4.803   1.126   5.999  0.00  0.00     0.039 A 
ATOM      3  C2  UNL d   1      -4.425  -0.218   5.993  0.00  0.00    -0.080 A 
ATOM      4  C3  UNL d   1      -3.116  -0.558   5.664  0.00  0.00     0.150 A 
ATOM      5  C4  UNL d   1      -2.183   0.423   5.345  0.00  0.00    -0.007 A 
ATOM      6  C5  UNL d   1      -2.563   1.765   5.350  0.00  0.00     0.039 A 
ENDROOT
BRANCH   4   7
ATOM      7  O   UNL d   1      -2.702  -1.857   5.640  0.00  0.00    -0.526 OA
ATOM      8  H5  UNL d   1      -3.460  -2.426   5.853  0.00  0.00     0.418 HD
ENDBRANCH   4   7
TORSDOF 1
ENDMDL
