MODEL 1
REMARK minimizedAffinity 10.0456724
REMARK minimizedRMSD -1
REMARK  1 active torsions:
REMARK  status: ('A' for Active; 'I' for Inactive)
REMARK    1  A    between atoms: C3_4  and  O_7 
ROOT
ATOM      1  C   UNL d   1      -2.832   3.074   0.355  0.00  0.00    -0.033 A 
ATOM      2  C1  UNL d   1      -1.707   2.279   0.582  0.00  0.00     0.039 A 
ATOM      3  C2  UNL d   1      -0.498   2.868   0.956  0.00  0.00    -0.080 A 
ATOM      4  C3  UNL d   1      -0.427   4.251   1.099  0.00  0.00     0.150 A 
ATOM      5  C4  UNL d   1      -1.544   5.049   0.878  0.00  0.00    -0.007 A 
ATOM      6  C5  UNL d   1      -2.751   4.459   0.504  0.00  0.00     0.039 A 
ENDROOT
BRANCH   4   7
ATOM      7  O   UNL d   1       0.733   4.872   1.457  0.00  0.00    -0.526 OA
ATOM      8  H5  UNL d   1       1.427   4.198   1.548  0.00  0.00     0.418 HD
ENDBRANCH   4   7
TORSDOF 1
ENDMDL
