MODEL 1
REMARK minimizedAffinity 3.77946806
REMARK minimizedRMSD -1
REMARK  1 active torsions:
REMARK  status: ('A' for Active; 'I' for Inactive)
REMARK    1  A    between atoms: C3_4  and  O_7 
ROOT
ATOM      1  C   UNL d   1      -0.551  -2.454  -2.795  0.00  0.00    -0.033 A 
ATOM      2  C1  UNL d   1       0.066  -2.138  -1.583  0.00  0.00     0.039 A 
ATOM      3  C2  UNL d   1      -0.695  -2.033  -0.417  0.00  0.00    -0.080 A 
ATOM      4  C3  UNL d   1      -2.069  -2.247  -0.476  0.00  0.00     0.150 A 
ATOM      5  C4  UNL d   1      -2.690  -2.566  -1.679  0.00  0.00    -0.007 A 
ATOM      6  C5  UNL d   1      -1.929  -2.669  -2.842  0.00  0.00     0.039 A 
ENDROOT
BRANCH   4   7
ATOM      7  O   UNL d   1      -2.853  -2.151   0.635  0.00  0.00    -0.526 OA
ATOM      8  H5  UNL d   1      -2.292  -1.896   1.387  0.00  0.00     0.418 HD
ENDBRANCH   4   7
TORSDOF 1
ENDMDL
