MODEL 1
REMARK minimizedAffinity 4.73467255
REMARK minimizedRMSD -1
REMARK  0 active torsions:
REMARK  status: ('A' for Active; 'I' for Inactive)
ROOT
ATOM      1  C1  BNZ d   1       1.578  -1.881   4.817  0.00  0.00     0.000 A 
ATOM      2  C2  BNZ d   1       1.238  -1.030   3.800  0.00  0.00     0.000 A 
ATOM      3  C3  BNZ d   1       1.600  -1.302   2.510  0.00  0.00     0.000 A 
ATOM      4  C4  BNZ d   1       2.335  -2.401   2.245  0.00  0.00     0.000 A 
ATOM      5  C5  BNZ d   1       2.694  -3.264   3.261  0.00  0.00     0.000 A 
ATOM      6  C6  BNZ d   1       2.294  -3.008   4.553  0.00  0.00     0.000 A 
ENDROOT
TORSDOF 0
ENDMDL
