MODEL 1
REMARK minimizedAffinity 9.44649315
REMARK minimizedRMSD -1
REMARK  0 active torsions:
REMARK  status: ('A' for Active; 'I' for Inactive)
ROOT
ATOM      1  C1  BNZ d   1      -3.225   2.253  -4.226  0.00  0.00     0.000 A 
ATOM      2  C2  BNZ d   1      -3.333   3.381  -4.994  0.00  0.00     0.000 A 
ATOM      3  C3  BNZ d   1      -3.812   4.546  -4.463  0.00  0.00     0.000 A 
ATOM      4  C4  BNZ d   1      -4.219   4.570  -3.178  0.00  0.00     0.000 A 
ATOM      5  C5  BNZ d   1      -4.125   3.438  -2.393  0.00  0.00     0.000 A 
ATOM      6  C6  BNZ d   1      -3.606   2.278  -2.920  0.00  0.00     0.000 A 
ENDROOT
TORSDOF 0
ENDMDL
