MODEL 1
REMARK minimizedAffinity -1.22275388
REMARK minimizedRMSD -1
REMARK  0 active torsions:
REMARK  status: ('A' for Active; 'I' for Inactive)
ROOT
ATOM      1  C1  BNZ d   1      -4.078   3.211  -2.316  0.00  0.00     0.000 A 
ATOM      2  C2  BNZ d   1      -4.462   4.510  -2.516  0.00  0.00     0.000 A 
ATOM      3  C3  BNZ d   1      -4.352   5.091  -3.748  0.00  0.00     0.000 A 
ATOM      4  C4  BNZ d   1      -3.820   4.387  -4.768  0.00  0.00     0.000 A 
ATOM      5  C5  BNZ d   1      -3.419   3.079  -4.581  0.00  0.00     0.000 A 
ATOM      6  C6  BNZ d   1      -3.568   2.485  -3.349  0.00  0.00     0.000 A 
ENDROOT
TORSDOF 0
ENDMDL
