MODEL 1
REMARK minimizedAffinity 7.24290085
REMARK minimizedRMSD -1
REMARK  0 active torsions:
REMARK  status: ('A' for Active; 'I' for Inactive)
ROOT
ATOM      1  C1  BNZ d   1      -3.190   1.959  -3.639  0.00  0.00     0.000 A 
ATOM      2  C2  BNZ d   1      -3.389   2.856  -4.655  0.00  0.00     0.000 A 
ATOM      3  C3  BNZ d   1      -3.926   4.088  -4.406  0.00  0.00     0.000 A 
ATOM      4  C4  BNZ d   1      -4.300   4.407  -3.150  0.00  0.00     0.000 A 
ATOM      5  C5  BNZ d   1      -4.114   3.510  -2.116  0.00  0.00     0.000 A 
ATOM      6  C6  BNZ d   1      -3.537   2.286  -2.365  0.00  0.00     0.000 A 
ENDROOT
TORSDOF 0
ENDMDL
