MODEL 1
REMARK minimizedAffinity 8.53349018
REMARK minimizedRMSD -1
REMARK  0 active torsions:
REMARK  status: ('A' for Active; 'I' for Inactive)
ROOT
ATOM      1  C1  BNZ d   1       1.014  -0.407   1.901  0.00  0.00     0.000 A 
ATOM      2  C2  BNZ d   1       1.927  -0.120   0.921  0.00  0.00     0.000 A 
ATOM      3  C3  BNZ d   1       2.847  -1.051   0.528  0.00  0.00     0.000 A 
ATOM      4  C4  BNZ d   1       2.881  -2.251   1.141  0.00  0.00     0.000 A 
ATOM      5  C5  BNZ d   1       1.974  -2.552   2.138  0.00  0.00     0.000 A 
ATOM      6  C6  BNZ d   1       1.023  -1.627   2.504  0.00  0.00     0.000 A 
ENDROOT
TORSDOF 0
ENDMDL
