MODEL 1
REMARK minimizedAffinity 1.48414421
REMARK minimizedRMSD -1
REMARK  0 active torsions:
REMARK  status: ('A' for Active; 'I' for Inactive)
ROOT
ATOM      1  C1  BNZ d   1       1.337  -0.867   3.039  0.00  0.00     0.000 A 
ATOM      2  C2  BNZ d   1       1.857  -2.114   2.811  0.00  0.00     0.000 A 
ATOM      3  C3  BNZ d   1       2.625  -2.735   3.756  0.00  0.00     0.000 A 
ATOM      4  C4  BNZ d   1       2.906  -2.093   4.909  0.00  0.00     0.000 A 
ATOM      5  C5  BNZ d   1       2.397  -0.832   5.149  0.00  0.00     0.000 A 
ATOM      6  C6  BNZ d   1       1.592  -0.226   4.212  0.00  0.00     0.000 A 
ENDROOT
TORSDOF 0
ENDMDL
