MODEL 1
REMARK minimizedAffinity 2.5233171
REMARK minimizedRMSD -1
REMARK  0 active torsions:
REMARK  status: ('A' for Active; 'I' for Inactive)
ROOT
ATOM      1  C1  BNZ d   1       2.454  -2.853   3.079  0.00  0.00     0.000 A 
ATOM      2  C2  BNZ d   1       2.146  -2.757   4.410  0.00  0.00     0.000 A 
ATOM      3  C3  BNZ d   1       1.543  -1.637   4.910  0.00  0.00     0.000 A 
ATOM      4  C4  BNZ d   1       1.284  -0.600   4.087  0.00  0.00     0.000 A 
ATOM      5  C5  BNZ d   1       1.597  -0.678   2.745  0.00  0.00     0.000 A 
ATOM      6  C6  BNZ d   1       2.169  -1.822   2.238  0.00  0.00     0.000 A 
ENDROOT
TORSDOF 0
ENDMDL
