MODEL 1
REMARK minimizedAffinity 3.90327573
REMARK minimizedRMSD -1
REMARK  0 active torsions:
REMARK  status: ('A' for Active; 'I' for Inactive)
ROOT
ATOM      1  C1  BNZ d   1      -0.099  -4.023   0.741  0.00  0.00     0.000 A 
ATOM      2  C2  BNZ d   1      -1.395  -3.612   0.905  0.00  0.00     0.000 A 
ATOM      3  C3  BNZ d   1      -2.280  -3.655  -0.136  0.00  0.00     0.000 A 
ATOM      4  C4  BNZ d   1      -1.857  -4.069  -1.348  0.00  0.00     0.000 A 
ATOM      5  C5  BNZ d   1      -0.551  -4.477  -1.531  0.00  0.00     0.000 A 
ATOM      6  C6  BNZ d   1       0.326  -4.470  -0.471  0.00  0.00     0.000 A 
ENDROOT
TORSDOF 0
ENDMDL
