MODEL 1
REMARK minimizedAffinity 0.936998546
REMARK minimizedRMSD -1
REMARK  0 active torsions:
REMARK  status: ('A' for Active; 'I' for Inactive)
ROOT
ATOM      1  C1  BNZ d   1       1.361  -1.282   4.636  0.00  0.00     0.000 A 
ATOM      2  C2  BNZ d   1       1.285  -0.805   3.354  0.00  0.00     0.000 A 
ATOM      3  C3  BNZ d   1       1.702  -1.565   2.298  0.00  0.00     0.000 A 
ATOM      4  C4  BNZ d   1       2.231  -2.784   2.527  0.00  0.00     0.000 A 
ATOM      5  C5  BNZ d   1       2.323  -3.276   3.814  0.00  0.00     0.000 A 
ATOM      6  C6  BNZ d   1       1.866  -2.523   4.872  0.00  0.00     0.000 A 
ENDROOT
TORSDOF 0
ENDMDL
