MODEL 1
REMARK minimizedAffinity 8.31057549
REMARK minimizedRMSD -1
REMARK  0 active torsions:
REMARK  status: ('A' for Active; 'I' for Inactive)
ROOT
ATOM      1  C1  BNZ d   1       0.461  -4.710   0.593  0.00  0.00     0.000 A 
ATOM      2  C2  BNZ d   1      -0.876  -4.611   0.871  0.00  0.00     0.000 A 
ATOM      3  C3  BNZ d   1      -1.812  -5.020  -0.038  0.00  0.00     0.000 A 
ATOM      4  C4  BNZ d   1      -1.411  -5.489  -1.237  0.00  0.00     0.000 A 
ATOM      5  C5  BNZ d   1      -0.067  -5.587  -1.536  0.00  0.00     0.000 A 
ATOM      6  C6  BNZ d   1       0.873  -5.210  -0.604  0.00  0.00     0.000 A 
ENDROOT
TORSDOF 0
ENDMDL
