MODEL 1
REMARK minimizedAffinity 8.66195107
REMARK minimizedRMSD -1
REMARK  0 active torsions:
REMARK  status: ('A' for Active; 'I' for Inactive)
ROOT
ATOM      1  C1  BNZ d   1       0.801  -1.161   4.865  0.00  0.00     0.000 A 
ATOM      2  C2  BNZ d   1       1.084  -1.878   5.996  0.00  0.00     0.000 A 
ATOM      3  C3  BNZ d   1       1.842  -3.014   5.934  0.00  0.00     0.000 A 
ATOM      4  C4  BNZ d   1       2.282  -3.452   4.737  0.00  0.00     0.000 A 
ATOM      5  C5  BNZ d   1       1.997  -2.746   3.586  0.00  0.00     0.000 A 
ATOM      6  C6  BNZ d   1       1.267  -1.582   3.657  0.00  0.00     0.000 A 
ENDROOT
TORSDOF 0
ENDMDL
