MODEL 1
REMARK minimizedAffinity -3.45390773
REMARK minimizedRMSD -1
REMARK  1 active torsions:
REMARK  status: ('A' for Active; 'I' for Inactive)
REMARK    1  A    between atoms: C1_2  and  C2_3 
ROOT
ATOM      1  C2  UNL d   1       2.165  -2.754  -0.003  0.00  0.00    -0.077 A 
ATOM      2  C3  UNL d   1       0.978  -3.299   0.505  0.00  0.00     0.002 A 
ATOM      3  C4  UNL d   1       0.020  -2.476   1.100  0.00  0.00     0.002 A 
ATOM      4  C5  UNL d   1       0.238  -1.103   1.189  0.00  0.00    -0.004 A 
ATOM      5  C6  UNL d   1       1.417  -0.551   0.688  0.00  0.00     0.002 A 
ATOM      6  C7  UNL d   1       2.375  -1.373   0.095  0.00  0.00     0.002 A 
ENDROOT
BRANCH   1   7
ATOM      7  C1  UNL d   1       3.177  -3.634  -0.689  0.00  0.00     0.055 C 
ATOM      8  C   UNL d   1       3.843  -4.583   0.296  0.00  0.00     0.019 C 
ENDBRANCH   1   7
TORSDOF 1
ENDMDL
