MODEL 1
REMARK minimizedAffinity -5.0934763
REMARK minimizedRMSD -1
REMARK  1 active torsions:
REMARK  status: ('A' for Active; 'I' for Inactive)
REMARK    1  A    between atoms: C1_2  and  C2_3 
ROOT
ATOM      1  C2  UNL d   1       2.531  -3.075  -0.019  0.00  0.00    -0.077 A 
ATOM      2  C3  UNL d   1       1.410  -3.904  -0.171  0.00  0.00     0.002 A 
ATOM      3  C4  UNL d   1       0.122  -3.369  -0.106  0.00  0.00     0.002 A 
ATOM      4  C5  UNL d   1      -0.057  -2.004   0.105  0.00  0.00    -0.004 A 
ATOM      5  C6  UNL d   1       1.051  -1.171   0.260  0.00  0.00     0.002 A 
ATOM      6  C7  UNL d   1       2.339  -1.705   0.197  0.00  0.00     0.002 A 
ENDROOT
BRANCH   1   7
ATOM      7  C1  UNL d   1       3.922  -3.642  -0.137  0.00  0.00     0.055 C 
ATOM      8  C   UNL d   1       3.915  -5.158   0.001  0.00  0.00     0.019 C 
ENDBRANCH   1   7
TORSDOF 1
ENDMDL
