MODEL 1
REMARK minimizedAffinity 0.719575226
REMARK minimizedRMSD -1
REMARK  1 active torsions:
REMARK  status: ('A' for Active; 'I' for Inactive)
REMARK    1  A    between atoms: C1_2  and  C2_3 
ROOT
ATOM      1  C2  UNL d   1       2.497  -1.653   0.886  0.00  0.00    -0.077 A 
ATOM      2  C3  UNL d   1       1.880  -2.830   0.440  0.00  0.00     0.002 A 
ATOM      3  C4  UNL d   1       0.494  -2.975   0.517  0.00  0.00     0.002 A 
ATOM      4  C5  UNL d   1      -0.288  -1.945   1.036  0.00  0.00    -0.004 A 
ATOM      5  C6  UNL d   1       0.316  -0.770   1.484  0.00  0.00     0.002 A 
ATOM      6  C7  UNL d   1       1.702  -0.625   1.408  0.00  0.00     0.002 A 
ENDROOT
BRANCH   1   7
ATOM      7  C1  UNL d   1       3.987  -1.475   0.757  0.00  0.00     0.055 C 
ATOM      8  C   UNL d   1       4.577  -0.829   2.003  0.00  0.00     0.019 C 
ENDBRANCH   1   7
TORSDOF 1
ENDMDL
