MODEL 1
REMARK minimizedAffinity -4.41991854
REMARK minimizedRMSD -1
REMARK  1 active torsions:
REMARK  status: ('A' for Active; 'I' for Inactive)
REMARK    1  A    between atoms: C1_2  and  C2_3 
ROOT
ATOM      1  C2  UNL d   1       1.088  -2.415   0.190  0.00  0.00    -0.077 A 
ATOM      2  C3  UNL d   1       2.175  -1.534   0.104  0.00  0.00     0.002 A 
ATOM      3  C4  UNL d   1       3.473  -2.025  -0.051  0.00  0.00     0.002 A 
ATOM      4  C5  UNL d   1       3.695  -3.398  -0.125  0.00  0.00    -0.004 A 
ATOM      5  C6  UNL d   1       2.621  -4.283  -0.038  0.00  0.00     0.002 A 
ATOM      6  C7  UNL d   1       1.324  -3.794   0.118  0.00  0.00     0.002 A 
ENDROOT
BRANCH   1   7
ATOM      7  C1  UNL d   1      -0.317  -1.886   0.308  0.00  0.00     0.055 C 
ATOM      8  C   UNL d   1      -0.399  -0.753   1.320  0.00  0.00     0.019 C 
ENDBRANCH   1   7
TORSDOF 1
ENDMDL
