MODEL 1
REMARK minimizedAffinity -6.3033309
REMARK minimizedRMSD -1
REMARK  1 active torsions:
REMARK  status: ('A' for Active; 'I' for Inactive)
REMARK    1  A    between atoms: C1_2  and  C2_3 
ROOT
ATOM      1  C2  UNL d   1       0.005  -1.581   1.178  0.00  0.00    -0.077 A 
ATOM      2  C3  UNL d   1       0.984  -0.597   0.982  0.00  0.00     0.002 A 
ATOM      3  C4  UNL d   1       2.252  -0.946   0.512  0.00  0.00     0.002 A 
ATOM      4  C5  UNL d   1       2.550  -2.277   0.230  0.00  0.00    -0.004 A 
ATOM      5  C6  UNL d   1       1.584  -3.263   0.423  0.00  0.00     0.002 A 
ATOM      6  C7  UNL d   1       0.317  -2.917   0.894  0.00  0.00     0.002 A 
ENDROOT
BRANCH   1   7
ATOM      7  C1  UNL d   1      -1.378  -1.201   1.638  0.00  0.00     0.055 C 
ATOM      8  C   UNL d   1      -1.649   0.280   1.412  0.00  0.00     0.019 C 
ENDBRANCH   1   7
TORSDOF 1
ENDMDL
