MODEL 1
REMARK minimizedAffinity -5.208498
REMARK minimizedRMSD -1
REMARK  1 active torsions:
REMARK  status: ('A' for Active; 'I' for Inactive)
REMARK    1  A    between atoms: C1_2  and  C2_3 
ROOT
ATOM      1  C2  UNL d   1       1.005  -2.644   0.195  0.00  0.00    -0.077 A 
ATOM      2  C3  UNL d   1       1.858  -1.672   0.737  0.00  0.00     0.002 A 
ATOM      3  C4  UNL d   1       1.387  -0.383   0.996  0.00  0.00     0.002 A 
ATOM      4  C5  UNL d   1       0.061  -0.056   0.720  0.00  0.00    -0.004 A 
ATOM      5  C6  UNL d   1      -0.795  -1.015   0.180  0.00  0.00     0.002 A 
ATOM      6  C7  UNL d   1      -0.326  -2.303  -0.081  0.00  0.00     0.002 A 
ENDROOT
BRANCH   1   7
ATOM      7  C1  UNL d   1       1.497  -4.048  -0.039  0.00  0.00     0.055 C 
ATOM      8  C   UNL d   1       3.002  -4.147   0.165  0.00  0.00     0.019 C 
ENDBRANCH   1   7
TORSDOF 1
ENDMDL
