MODEL 1
REMARK minimizedAffinity -1.82744527
REMARK minimizedRMSD -1
REMARK  1 active torsions:
REMARK  status: ('A' for Active; 'I' for Inactive)
REMARK    1  A    between atoms: C1_2  and  C2_3 
ROOT
ATOM      1  C2  UNL d   1       1.666  -2.859   0.421  0.00  0.00    -0.077 A 
ATOM      2  C3  UNL d   1       0.584  -3.670   0.050  0.00  0.00     0.002 A 
ATOM      3  C4  UNL d   1      -0.727  -3.222   0.227  0.00  0.00     0.002 A 
ATOM      4  C5  UNL d   1      -0.967  -1.963   0.771  0.00  0.00    -0.004 A 
ATOM      5  C6  UNL d   1       0.102  -1.150   1.145  0.00  0.00     0.002 A 
ATOM      6  C7  UNL d   1       1.413  -1.596   0.970  0.00  0.00     0.002 A 
ENDROOT
BRANCH   1   7
ATOM      7  C1  UNL d   1       3.081  -3.320   0.186  0.00  0.00     0.055 C 
ATOM      8  C   UNL d   1       3.127  -4.790  -0.204  0.00  0.00     0.019 C 
ENDBRANCH   1   7
TORSDOF 1
ENDMDL
