MODEL 1
REMARK minimizedAffinity 1.42320204
REMARK minimizedRMSD -1
REMARK  1 active torsions:
REMARK  status: ('A' for Active; 'I' for Inactive)
REMARK    1  A    between atoms: C1_2  and  C2_3 
ROOT
ATOM      1  C2  UNL d   1       2.621   3.464  -1.043  0.00  0.00    -0.077 A 
ATOM      2  C3  UNL d   1       1.913   3.121  -2.204  0.00  0.00     0.002 A 
ATOM      3  C4  UNL d   1       2.254   1.977  -2.927  0.00  0.00     0.002 A 
ATOM      4  C5  UNL d   1       3.300   1.163  -2.495  0.00  0.00    -0.004 A 
ATOM      5  C6  UNL d   1       4.011   1.497  -1.343  0.00  0.00     0.002 A 
ATOM      6  C7  UNL d   1       3.672   2.641  -0.620  0.00  0.00     0.002 A 
ENDROOT
BRANCH   1   7
ATOM      7  C1  UNL d   1       2.223   4.671  -0.235  0.00  0.00     0.055 C 
ATOM      8  C   UNL d   1       0.855   4.483   0.405  0.00  0.00     0.019 C 
ENDBRANCH   1   7
TORSDOF 1
ENDMDL
