MODEL 1
REMARK minimizedAffinity -0.487897813
REMARK minimizedRMSD -1
REMARK  1 active torsions:
REMARK  status: ('A' for Active; 'I' for Inactive)
REMARK    1  A    between atoms: C1_2  and  C2_3 
ROOT
ATOM      1  C2  UNL d   1       3.292  -4.377  -0.149  0.00  0.00    -0.077 A 
ATOM      2  C3  UNL d   1       1.925  -4.521   0.124  0.00  0.00     0.002 A 
ATOM      3  C4  UNL d   1       1.140  -3.402   0.408  0.00  0.00     0.002 A 
ATOM      4  C5  UNL d   1       1.712  -2.132   0.417  0.00  0.00    -0.004 A 
ATOM      5  C6  UNL d   1       3.072  -1.978   0.149  0.00  0.00     0.002 A 
ATOM      6  C7  UNL d   1       3.858  -3.096  -0.134  0.00  0.00     0.002 A 
ENDROOT
BRANCH   1   7
ATOM      7  C1  UNL d   1       4.130  -5.578  -0.504  0.00  0.00     0.055 C 
ATOM      8  C   UNL d   1       5.014  -6.000   0.661  0.00  0.00     0.019 C 
ENDBRANCH   1   7
TORSDOF 1
ENDMDL
