MODEL 1
REMARK minimizedAffinity 8.69940853
REMARK minimizedRMSD -1
REMARK  1 active torsions:
REMARK  status: ('A' for Active; 'I' for Inactive)
REMARK    1  A    between atoms: C1_2  and  C2_3 
ROOT
ATOM      1  C2  UNL d   1      -2.107   1.519   3.585  0.00  0.00    -0.077 A 
ATOM      2  C3  UNL d   1      -2.077   1.036   4.901  0.00  0.00     0.002 A 
ATOM      3  C4  UNL d   1      -1.170   0.039   5.267  0.00  0.00     0.002 A 
ATOM      4  C5  UNL d   1      -0.284  -0.479   4.325  0.00  0.00    -0.004 A 
ATOM      5  C6  UNL d   1      -0.308  -0.007   3.013  0.00  0.00     0.002 A 
ATOM      6  C7  UNL d   1      -1.214   0.988   2.645  0.00  0.00     0.002 A 
ENDROOT
BRANCH   1   7
ATOM      7  C1  UNL d   1      -3.050   2.628   3.200  0.00  0.00     0.055 C 
ATOM      8  C   UNL d   1      -4.045   2.920   4.314  0.00  0.00     0.019 C 
ENDBRANCH   1   7
TORSDOF 1
ENDMDL
