MODEL 1
REMARK minimizedAffinity -3.99872065
REMARK minimizedRMSD -1
REMARK  0 active torsions:
REMARK  status: ('A' for Active; 'I' for Inactive)
ROOT
ATOM      1  N1  IND d   1       0.553  -0.119  -0.793  0.00  0.00    -0.196 N 
ATOM      2  C2  IND d   1       1.415  -0.621   0.141  0.00  0.00     0.054 A 
ATOM      3  C3  IND d   1       0.984  -0.324   1.387  0.00  0.00    -0.031 A 
ATOM      4  C4  IND d   1      -1.162   0.890   2.129  0.00  0.00     0.051 A 
ATOM      5  C5  IND d   1      -2.244   1.564   1.635  0.00  0.00    -0.031 A 
ATOM      6  C6  IND d   1      -2.454   1.713   0.280  0.00  0.00     0.015 A 
ATOM      7  C7  IND d   1      -1.592   1.180  -0.637  0.00  0.00    -0.016 A 
ATOM      8  C8  IND d   1      -0.490   0.501  -0.140  0.00  0.00    -0.047 A 
ATOM      9  C9  IND d   1      -0.248   0.383   1.235  0.00  0.00    -0.096 A 
ATOM     10  HN1 IND d   1       0.646  -0.180  -1.646  0.00  0.00     0.298 HD
ENDROOT
TORSDOF 0
ENDMDL
