MODEL 1
REMARK minimizedAffinity -4.05133677
REMARK minimizedRMSD -1
REMARK  0 active torsions:
REMARK  status: ('A' for Active; 'I' for Inactive)
ROOT
ATOM      1  N1  IND d   1       0.571  -1.092  -0.226  0.00  0.00    -0.196 N 
ATOM      2  C2  IND d   1       0.253  -0.873  -1.538  0.00  0.00     0.054 A 
ATOM      3  C3  IND d   1      -0.591   0.178  -1.647  0.00  0.00    -0.031 A 
ATOM      4  C4  IND d   1      -1.500   1.744   0.182  0.00  0.00     0.051 A 
ATOM      5  C5  IND d   1      -1.519   1.920   1.538  0.00  0.00    -0.031 A 
ATOM      6  C6  IND d   1      -0.827   1.086   2.391  0.00  0.00     0.015 A 
ATOM      7  C7  IND d   1      -0.077   0.046   1.918  0.00  0.00    -0.016 A 
ATOM      8  C8  IND d   1      -0.060  -0.140   0.543  0.00  0.00    -0.047 A 
ATOM      9  C9  IND d   1      -0.795   0.678  -0.325  0.00  0.00    -0.096 A 
ATOM     10  HN1 IND d   1       1.079  -1.720   0.069  0.00  0.00     0.298 HD
ENDROOT
TORSDOF 0
ENDMDL
