MODEL 1
REMARK minimizedAffinity -4.69058752
REMARK minimizedRMSD -1
REMARK  0 active torsions:
REMARK  status: ('A' for Active; 'I' for Inactive)
ROOT
ATOM      1  N1  IND d   1      -1.356   2.572   0.240  0.00  0.00    -0.196 N 
ATOM      2  C2  IND d   1      -1.862   2.560   1.510  0.00  0.00     0.054 A 
ATOM      3  C3  IND d   1      -1.460   1.447   2.165  0.00  0.00    -0.031 A 
ATOM      4  C4  IND d   1       0.110  -0.436   1.381  0.00  0.00     0.051 A 
ATOM      5  C5  IND d   1       0.793  -0.882   0.284  0.00  0.00    -0.031 A 
ATOM      6  C6  IND d   1       0.796  -0.185  -0.907  0.00  0.00     0.015 A 
ATOM      7  C7  IND d   1       0.123   0.996  -1.042  0.00  0.00    -0.016 A 
ATOM      8  C8  IND d   1      -0.577   1.449   0.067  0.00  0.00    -0.047 A 
ATOM      9  C9  IND d   1      -0.619   0.724   1.265  0.00  0.00    -0.096 A 
ATOM     10  HN1 IND d   1      -1.501   3.178  -0.352  0.00  0.00     0.298 HD
ENDROOT
TORSDOF 0
ENDMDL
