MODEL 1
REMARK minimizedAffinity -5.22626019
REMARK minimizedRMSD -1
REMARK  0 active torsions:
REMARK  status: ('A' for Active; 'I' for Inactive)
ROOT
ATOM      1  N1  IND d   1       0.684   0.884  -1.455  0.00  0.00    -0.196 N 
ATOM      2  C2  IND d   1       1.461  -0.230  -1.304  0.00  0.00     0.054 A 
ATOM      3  C3  IND d   1       1.219  -0.813  -0.108  0.00  0.00    -0.031 A 
ATOM      4  C4  IND d   1      -0.483  -0.166   1.712  0.00  0.00     0.051 A 
ATOM      5  C5  IND d   1      -1.393   0.799   2.042  0.00  0.00    -0.031 A 
ATOM      6  C6  IND d   1      -1.664   1.862   1.205  0.00  0.00     0.015 A 
ATOM      7  C7  IND d   1      -1.041   1.994  -0.004  0.00  0.00    -0.016 A 
ATOM      8  C8  IND d   1      -0.112   1.019  -0.339  0.00  0.00    -0.047 A 
ATOM      9  C9  IND d   1       0.199  -0.038   0.525  0.00  0.00    -0.096 A 
ATOM     10  HN1 IND d   1       0.691   1.412  -2.134  0.00  0.00     0.298 HD
ENDROOT
TORSDOF 0
ENDMDL
