MODEL 1
REMARK minimizedAffinity 1.67299366
REMARK minimizedRMSD -1
REMARK  0 active torsions:
REMARK  status: ('A' for Active; 'I' for Inactive)
ROOT
ATOM      1  N1  IND d   1       1.109   1.706  -1.736  0.00  0.00    -0.196 N 
ATOM      2  C2  IND d   1       0.306   2.751  -2.099  0.00  0.00     0.054 A 
ATOM      3  C3  IND d   1      -0.938   2.587  -1.596  0.00  0.00    -0.031 A 
ATOM      4  C4  IND d   1      -1.850   0.728  -0.065  0.00  0.00     0.051 A 
ATOM      5  C5  IND d   1      -1.503  -0.463   0.507  0.00  0.00    -0.031 A 
ATOM      6  C6  IND d   1      -0.241  -1.002   0.360  0.00  0.00     0.015 A 
ATOM      7  C7  IND d   1       0.728  -0.361  -0.359  0.00  0.00    -0.016 A 
ATOM      8  C8  IND d   1       0.377   0.845  -0.947  0.00  0.00    -0.047 A 
ATOM      9  C9  IND d   1      -0.914   1.377  -0.836  0.00  0.00    -0.096 A 
ATOM     10  HN1 IND d   1       1.932   1.603  -1.962  0.00  0.00     0.298 HD
ENDROOT
TORSDOF 0
ENDMDL
