MODEL 1
REMARK minimizedAffinity -4.84694195
REMARK minimizedRMSD -1
REMARK  0 active torsions:
REMARK  status: ('A' for Active; 'I' for Inactive)
ROOT
ATOM      1  N1  IND d   1      -0.921  -0.241  -1.467  0.00  0.00    -0.196 N 
ATOM      2  C2  IND d   1       0.015  -1.235  -1.406  0.00  0.00     0.054 A 
ATOM      3  C3  IND d   1       0.530  -1.321  -0.159  0.00  0.00    -0.031 A 
ATOM      4  C4  IND d   1      -0.090   0.002   1.960  0.00  0.00     0.051 A 
ATOM      5  C5  IND d   1      -0.865   1.041   2.393  0.00  0.00    -0.031 A 
ATOM      6  C6  IND d   1      -1.717   1.719   1.545  0.00  0.00     0.015 A 
ATOM      7  C7  IND d   1      -1.835   1.372   0.228  0.00  0.00    -0.016 A 
ATOM      8  C8  IND d   1      -1.045   0.322  -0.216  0.00  0.00    -0.047 A 
ATOM      9  C9  IND d   1      -0.147  -0.342   0.630  0.00  0.00    -0.096 A 
ATOM     10  HN1 IND d   1      -1.359  -0.007  -2.169  0.00  0.00     0.298 HD
ENDROOT
TORSDOF 0
ENDMDL
