MODEL 1
REMARK minimizedAffinity -3.79859424
REMARK minimizedRMSD -1
REMARK  0 active torsions:
REMARK  status: ('A' for Active; 'I' for Inactive)
ROOT
ATOM      1  N1  IND d   1       1.043   2.089  -1.632  0.00  0.00    -0.196 N 
ATOM      2  C2  IND d   1       0.772   3.308  -2.188  0.00  0.00     0.054 A 
ATOM      3  C3  IND d   1      -0.378   3.810  -1.685  0.00  0.00    -0.031 A 
ATOM      4  C4  IND d   1      -1.924   2.847   0.135  0.00  0.00     0.051 A 
ATOM      5  C5  IND d   1      -2.111   1.741   0.915  0.00  0.00    -0.031 A 
ATOM      6  C6  IND d   1      -1.237   0.674   0.887  0.00  0.00     0.015 A 
ATOM      7  C7  IND d   1      -0.132   0.678   0.083  0.00  0.00    -0.016 A 
ATOM      8  C8  IND d   1       0.057   1.797  -0.715  0.00  0.00    -0.047 A 
ATOM      9  C9  IND d   1      -0.850   2.865  -0.723  0.00  0.00    -0.096 A 
ATOM     10  HN1 IND d   1       1.716   1.589  -1.822  0.00  0.00     0.298 HD
ENDROOT
TORSDOF 0
ENDMDL
