MODEL 1
REMARK minimizedAffinity -3.97325683
REMARK minimizedRMSD -1
REMARK  0 active torsions:
REMARK  status: ('A' for Active; 'I' for Inactive)
ROOT
ATOM      1  N1  IND d   1      -1.140   0.693   1.692  0.00  0.00    -0.196 N 
ATOM      2  C2  IND d   1      -1.926   1.796   1.511  0.00  0.00     0.054 A 
ATOM      3  C3  IND d   1      -1.551   2.464   0.397  0.00  0.00    -0.031 A 
ATOM      4  C4  IND d   1       0.259   1.869  -1.334  0.00  0.00     0.051 A 
ATOM      5  C5  IND d   1       1.263   0.974  -1.579  0.00  0.00    -0.031 A 
ATOM      6  C6  IND d   1       1.520  -0.083  -0.730  0.00  0.00     0.015 A 
ATOM      7  C7  IND d   1       0.773  -0.292   0.394  0.00  0.00    -0.016 A 
ATOM      8  C8  IND d   1      -0.242   0.619   0.650  0.00  0.00    -0.047 A 
ATOM      9  C9  IND d   1      -0.481   1.718  -0.185  0.00  0.00    -0.096 A 
ATOM     10  HN1 IND d   1      -1.196   0.139   2.347  0.00  0.00     0.298 HD
ENDROOT
TORSDOF 0
ENDMDL
