MODEL 1
REMARK minimizedAffinity -1.24632037
REMARK minimizedRMSD -1
REMARK  0 active torsions:
REMARK  status: ('A' for Active; 'I' for Inactive)
ROOT
ATOM      1  N1  IND d   1       1.229  -0.772  -1.200  0.00  0.00    -0.196 N 
ATOM      2  C2  IND d   1       0.821  -1.730  -0.315  0.00  0.00     0.054 A 
ATOM      3  C3  IND d   1      -0.210  -1.272   0.431  0.00  0.00    -0.031 A 
ATOM      4  C4  IND d   1      -1.451   0.979   0.300  0.00  0.00     0.051 A 
ATOM      5  C5  IND d   1      -1.417   2.193  -0.327  0.00  0.00    -0.031 A 
ATOM      6  C6  IND d   1      -0.482   2.486  -1.299  0.00  0.00     0.015 A 
ATOM      7  C7  IND d   1       0.451   1.567  -1.690  0.00  0.00    -0.016 A 
ATOM      8  C8  IND d   1       0.424   0.336  -1.050  0.00  0.00    -0.047 A 
ATOM      9  C9  IND d   1      -0.495   0.048  -0.033  0.00  0.00    -0.096 A 
ATOM     10  HN1 IND d   1       1.880  -0.848  -1.757  0.00  0.00     0.298 HD
ENDROOT
TORSDOF 0
ENDMDL
