MODEL 1
REMARK minimizedAffinity -3.15815473
REMARK minimizedRMSD -1
REMARK  0 active torsions:
REMARK  status: ('A' for Active; 'I' for Inactive)
ROOT
ATOM      1  N1  IND d   1      -0.712  -0.096  -1.344  0.00  0.00    -0.196 N 
ATOM      2  C2  IND d   1       0.176  -1.117  -1.537  0.00  0.00     0.054 A 
ATOM      3  C3  IND d   1       0.793  -1.430  -0.375  0.00  0.00    -0.031 A 
ATOM      4  C4  IND d   1       0.424  -0.466   1.984  0.00  0.00     0.051 A 
ATOM      5  C5  IND d   1      -0.259   0.510   2.654  0.00  0.00    -0.031 A 
ATOM      6  C6  IND d   1      -1.147   1.349   2.014  0.00  0.00     0.015 A 
ATOM      7  C7  IND d   1      -1.396   1.235   0.675  0.00  0.00    -0.016 A 
ATOM      8  C8  IND d   1      -0.699   0.250  -0.010  0.00  0.00    -0.047 A 
ATOM      9  C9  IND d   1       0.235  -0.577   0.626  0.00  0.00    -0.096 A 
ATOM     10  HN1 IND d   1      -1.198   0.269  -1.953  0.00  0.00     0.298 HD
ENDROOT
TORSDOF 0
ENDMDL
