MODEL 1
REMARK minimizedAffinity -3.2947638
REMARK minimizedRMSD -1
REMARK  0 active torsions:
REMARK  status: ('A' for Active; 'I' for Inactive)
ROOT
ATOM      1  N1  IND d   1      -0.507  -1.174  -1.555  0.00  0.00    -0.196 N 
ATOM      2  C2  IND d   1       0.838  -1.415  -1.582  0.00  0.00     0.054 A 
ATOM      3  C3  IND d   1       1.451  -0.776  -0.559  0.00  0.00    -0.031 A 
ATOM      4  C4  IND d   1       0.428   0.634   1.336  0.00  0.00     0.051 A 
ATOM      5  C5  IND d   1      -0.755   1.166   1.765  0.00  0.00    -0.031 A 
ATOM      6  C6  IND d   1      -1.941   0.938   1.097  0.00  0.00     0.015 A 
ATOM      7  C7  IND d   1      -1.990   0.157  -0.023  0.00  0.00    -0.016 A 
ATOM      8  C8  IND d   1      -0.788  -0.379  -0.465  0.00  0.00    -0.047 A 
ATOM      9  C9  IND d   1       0.425  -0.116   0.184  0.00  0.00    -0.096 A 
ATOM     10  HN1 IND d   1      -1.081  -1.469  -2.122  0.00  0.00     0.298 HD
ENDROOT
TORSDOF 0
ENDMDL
