MODEL 1
REMARK minimizedAffinity -5.01195717
REMARK minimizedRMSD -1
REMARK  0 active torsions:
REMARK  status: ('A' for Active; 'I' for Inactive)
ROOT
ATOM      1  N1  IND d   1       1.023  -0.400   0.915  0.00  0.00    -0.196 N 
ATOM      2  C2  IND d   1       0.988  -1.077  -0.272  0.00  0.00     0.054 A 
ATOM      3  C3  IND d   1      -0.086  -0.695  -0.999  0.00  0.00    -0.031 A 
ATOM      4  C4  IND d   1      -1.859   1.097  -0.481  0.00  0.00     0.051 A 
ATOM      5  C5  IND d   1      -2.267   1.957   0.501  0.00  0.00    -0.031 A 
ATOM      6  C6  IND d   1      -1.584   2.079   1.693  0.00  0.00     0.015 A 
ATOM      7  C7  IND d   1      -0.455   1.352   1.945  0.00  0.00    -0.016 A 
ATOM      8  C8  IND d   1      -0.042   0.473   0.954  0.00  0.00    -0.047 A 
ATOM      9  C9  IND d   1      -0.756   0.313  -0.241  0.00  0.00    -0.096 A 
ATOM     10  HN1 IND d   1       1.612  -0.502   1.534  0.00  0.00     0.298 HD
ENDROOT
TORSDOF 0
ENDMDL
