MODEL 1
REMARK minimizedAffinity -3.1303699
REMARK minimizedRMSD -1
REMARK  0 active torsions:
REMARK  status: ('A' for Active; 'I' for Inactive)
ROOT
ATOM      1  N1  IND d   1       1.013  -0.060   1.355  0.00  0.00    -0.196 N 
ATOM      2  C2  IND d   1       1.111  -0.686   0.144  0.00  0.00     0.054 A 
ATOM      3  C3  IND d   1       0.027  -0.413  -0.616  0.00  0.00    -0.031 A 
ATOM      4  C4  IND d   1      -1.980   1.118  -0.111  0.00  0.00     0.051 A 
ATOM      5  C5  IND d   1      -2.533   1.878   0.881  0.00  0.00    -0.031 A 
ATOM      6  C6  IND d   1      -1.917   2.036   2.106  0.00  0.00     0.015 A 
ATOM      7  C7  IND d   1      -0.716   1.447   2.381  0.00  0.00    -0.016 A 
ATOM      8  C8  IND d   1      -0.156   0.669   1.378  0.00  0.00    -0.047 A 
ATOM      9  C9  IND d   1      -0.796   0.470   0.148  0.00  0.00    -0.096 A 
ATOM     10  HN1 IND d   1       1.586  -0.112   1.995  0.00  0.00     0.298 HD
ENDROOT
TORSDOF 0
ENDMDL
