MODEL 1
REMARK minimizedAffinity -4.68396235
REMARK minimizedRMSD -1
REMARK  0 active torsions:
REMARK  status: ('A' for Active; 'I' for Inactive)
ROOT
ATOM      1  N1  IND d   1       1.299  -0.046  -0.121  0.00  0.00    -0.196 N 
ATOM      2  C2  IND d   1       1.219   0.732  -1.242  0.00  0.00     0.054 A 
ATOM      3  C3  IND d   1       0.084   1.467  -1.225  0.00  0.00    -0.031 A 
ATOM      4  C4  IND d   1      -1.733   1.627   0.592  0.00  0.00     0.051 A 
ATOM      5  C5  IND d   1      -2.116   1.079   1.784  0.00  0.00    -0.031 A 
ATOM      6  C6  IND d   1      -1.364   0.110   2.416  0.00  0.00     0.015 A 
ATOM      7  C7  IND d   1      -0.190  -0.341   1.883  0.00  0.00    -0.016 A 
ATOM      8  C8  IND d   1       0.199   0.209   0.669  0.00  0.00    -0.047 A 
ATOM      9  C9  IND d   1      -0.582   1.162   0.002  0.00  0.00    -0.096 A 
ATOM     10  HN1 IND d   1       1.930  -0.601   0.061  0.00  0.00     0.298 HD
ENDROOT
TORSDOF 0
ENDMDL
