MODEL 1
REMARK minimizedAffinity -5.02661324
REMARK minimizedRMSD -1
REMARK  0 active torsions:
REMARK  status: ('A' for Active; 'I' for Inactive)
ROOT
ATOM      1  N1  IND d   1       0.790   2.076  -0.930  0.00  0.00    -0.196 N 
ATOM      2  C2  IND d   1       1.275   0.846  -1.279  0.00  0.00     0.054 A 
ATOM      3  C3  IND d   1       0.818  -0.099  -0.427  0.00  0.00    -0.031 A 
ATOM      4  C4  IND d   1      -0.816   0.132   1.549  0.00  0.00     0.051 A 
ATOM      5  C5  IND d   1      -1.499   1.065   2.278  0.00  0.00    -0.031 A 
ATOM      6  C6  IND d   1      -1.456   2.408   1.967  0.00  0.00     0.015 A 
ATOM      7  C7  IND d   1      -0.734   2.871   0.904  0.00  0.00    -0.016 A 
ATOM      8  C8  IND d   1      -0.033   1.928   0.166  0.00  0.00    -0.047 A 
ATOM      9  C9  IND d   1      -0.038   0.568   0.502  0.00  0.00    -0.096 A 
ATOM     10  HN1 IND d   1       0.968   2.817  -1.328  0.00  0.00     0.298 HD
ENDROOT
TORSDOF 0
ENDMDL
