MODEL 1
REMARK minimizedAffinity -1.03304684
REMARK minimizedRMSD -1
REMARK  0 active torsions:
REMARK  status: ('A' for Active; 'I' for Inactive)
ROOT
ATOM      1  N1  IND d   1       0.643  -1.049  -0.341  0.00  0.00    -0.196 N 
ATOM      2  C2  IND d   1       0.974  -1.609   0.862  0.00  0.00     0.054 A 
ATOM      3  C3  IND d   1       0.416  -0.910   1.875  0.00  0.00    -0.031 A 
ATOM      4  C4  IND d   1      -1.159   1.125   1.786  0.00  0.00     0.051 A 
ATOM      5  C5  IND d   1      -1.719   2.016   0.915  0.00  0.00    -0.031 A 
ATOM      6  C6  IND d   1      -1.518   1.928  -0.448  0.00  0.00     0.015 A 
ATOM      7  C7  IND d   1      -0.755   0.934  -0.992  0.00  0.00    -0.016 A 
ATOM      8  C8  IND d   1      -0.180   0.031  -0.110  0.00  0.00    -0.047 A 
ATOM      9  C9  IND d   1      -0.345   0.140   1.277  0.00  0.00    -0.096 A 
ATOM     10  HN1 IND d   1       0.905  -1.325  -1.112  0.00  0.00     0.298 HD
ENDROOT
TORSDOF 0
ENDMDL
