MODEL 1
REMARK minimizedAffinity -4.34064293
REMARK minimizedRMSD -1
REMARK  0 active torsions:
REMARK  status: ('A' for Active; 'I' for Inactive)
ROOT
ATOM      1  N1  IND d   1       0.822   0.653  -0.019  0.00  0.00    -0.196 N 
ATOM      2  C2  IND d   1       0.859  -0.703  -0.188  0.00  0.00     0.054 A 
ATOM      3  C3  IND d   1      -0.315  -1.257   0.191  0.00  0.00    -0.031 A 
ATOM      4  C4  IND d   1      -2.469  -0.116   1.021  0.00  0.00     0.051 A 
ATOM      5  C5  IND d   1      -2.974   1.104   1.374  0.00  0.00    -0.031 A 
ATOM      6  C6  IND d   1      -2.226   2.259   1.276  0.00  0.00     0.015 A 
ATOM      7  C7  IND d   1      -0.943   2.239   0.808  0.00  0.00    -0.016 A 
ATOM      8  C8  IND d   1      -0.424   1.002   0.456  0.00  0.00    -0.047 A 
ATOM      9  C9  IND d   1      -1.163  -0.180   0.593  0.00  0.00    -0.096 A 
ATOM     10  HN1 IND d   1       1.467   1.197  -0.183  0.00  0.00     0.298 HD
ENDROOT
TORSDOF 0
ENDMDL
