MODEL 1
REMARK minimizedAffinity -2.78752232
REMARK minimizedRMSD -1
REMARK  0 active torsions:
REMARK  status: ('A' for Active; 'I' for Inactive)
ROOT
ATOM      1  C   UNL d   1      -3.220  -1.403   4.115  0.00  0.00     0.172 C 
ATOM      2  N   UNL d   1      -2.209  -0.437   3.758  0.00  0.00    -0.070 N 
ATOM      3  C1  UNL d   1      -1.037  -0.220   4.432  0.00  0.00    -0.004 A 
ATOM      4  C2  UNL d   1      -0.350   0.779   3.776  0.00  0.00    -0.047 A 
ATOM      5  C3  UNL d   1      -1.137   1.177   2.669  0.00  0.00    -0.047 A 
ATOM      6  C4  UNL d   1      -2.282   0.408   2.682  0.00  0.00    -0.004 A 
ENDROOT
TORSDOF 0
ENDMDL
