MODEL 1
REMARK minimizedAffinity -0.330291688
REMARK minimizedRMSD -1
REMARK  0 active torsions:
REMARK  status: ('A' for Active; 'I' for Inactive)
ROOT
ATOM      1  C   UNL d   1       0.097  -4.355  -5.474  0.00  0.00     0.172 C 
ATOM      2  N   UNL d   1      -0.512  -4.412  -4.166  0.00  0.00    -0.070 N 
ATOM      3  C1  UNL d   1      -1.570  -5.206  -3.811  0.00  0.00    -0.004 A 
ATOM      4  C2  UNL d   1      -1.849  -4.968  -2.483  0.00  0.00    -0.047 A 
ATOM      5  C3  UNL d   1      -0.927  -3.997  -2.023  0.00  0.00    -0.047 A 
ATOM      6  C4  UNL d   1      -0.111  -3.670  -3.086  0.00  0.00    -0.004 A 
ENDROOT
TORSDOF 0
ENDMDL
