MODEL 1
REMARK minimizedAffinity 2.40380096
REMARK minimizedRMSD -1
REMARK  0 active torsions:
REMARK  status: ('A' for Active; 'I' for Inactive)
ROOT
ATOM      1  C   UNL d   1      -2.973  -1.442   3.341  0.00  0.00     0.172 C 
ATOM      2  N   UNL d   1      -2.388  -0.329   2.630  0.00  0.00    -0.070 N 
ATOM      3  C1  UNL d   1      -1.134   0.180   2.838  0.00  0.00    -0.004 A 
ATOM      4  C2  UNL d   1      -0.955   1.231   1.964  0.00  0.00    -0.047 A 
ATOM      5  C3  UNL d   1      -2.143   1.358   1.206  0.00  0.00    -0.047 A 
ATOM      6  C4  UNL d   1      -3.013   0.380   1.638  0.00  0.00    -0.004 A 
ENDROOT
TORSDOF 0
ENDMDL
