MODEL 1
REMARK minimizedAffinity -1.71262503
REMARK minimizedRMSD -1
REMARK  0 active torsions:
REMARK  status: ('A' for Active; 'I' for Inactive)
ROOT
ATOM      1  C   UNL d   1       1.407  -2.386  -1.125  0.00  0.00     0.172 C 
ATOM      2  N   UNL d   1       0.863  -3.046  -2.288  0.00  0.00    -0.070 N 
ATOM      3  C1  UNL d   1      -0.082  -4.037  -2.274  0.00  0.00    -0.004 A 
ATOM      4  C2  UNL d   1      -0.333  -4.400  -3.580  0.00  0.00    -0.047 A 
ATOM      5  C3  UNL d   1       0.491  -3.599  -4.407  0.00  0.00    -0.047 A 
ATOM      6  C4  UNL d   1       1.221  -2.770  -3.581  0.00  0.00    -0.004 A 
ENDROOT
TORSDOF 0
ENDMDL
