MODEL 1
REMARK minimizedAffinity -0.528251946
REMARK minimizedRMSD -1
REMARK  0 active torsions:
REMARK  status: ('A' for Active; 'I' for Inactive)
ROOT
ATOM      1  C   UNL d   1      -3.401   0.945   0.946  0.00  0.00     0.172 C 
ATOM      2  N   UNL d   1      -2.093   0.802   1.541  0.00  0.00    -0.070 N 
ATOM      3  C1  UNL d   1      -1.128  -0.086   1.144  0.00  0.00    -0.004 A 
ATOM      4  C2  UNL d   1      -0.031   0.091   1.958  0.00  0.00    -0.047 A 
ATOM      5  C3  UNL d   1      -0.347   1.120   2.877  0.00  0.00    -0.047 A 
ATOM      6  C4  UNL d   1      -1.629   1.542   2.596  0.00  0.00    -0.004 A 
ENDROOT
TORSDOF 0
ENDMDL
