MODEL 1
REMARK minimizedAffinity 2.44805408
REMARK minimizedRMSD -1
REMARK  0 active torsions:
REMARK  status: ('A' for Active; 'I' for Inactive)
ROOT
ATOM      1  C   UNL d   1      -2.585  -1.434   2.255  0.00  0.00     0.172 C 
ATOM      2  N   UNL d   1      -2.174  -0.054   2.146  0.00  0.00    -0.070 N 
ATOM      3  C1  UNL d   1      -1.031   0.483   2.676  0.00  0.00    -0.004 A 
ATOM      4  C2  UNL d   1      -1.004   1.822   2.353  0.00  0.00    -0.047 A 
ATOM      5  C3  UNL d   1      -2.172   2.100   1.603  0.00  0.00    -0.047 A 
ATOM      6  C4  UNL d   1      -2.878   0.921   1.490  0.00  0.00    -0.004 A 
ENDROOT
TORSDOF 0
ENDMDL
