MODEL 1
REMARK minimizedAffinity 5.35633659
REMARK minimizedRMSD -1
REMARK  0 active torsions:
REMARK  status: ('A' for Active; 'I' for Inactive)
ROOT
ATOM      1  C   UNL d   1      -4.448   1.964  -0.044  0.00  0.00     0.172 C 
ATOM      2  N   UNL d   1      -3.334   1.434   0.707  0.00  0.00    -0.070 N 
ATOM      3  C1  UNL d   1      -2.500   2.159   1.516  0.00  0.00    -0.004 A 
ATOM      4  C2  UNL d   1      -1.571   1.291   2.049  0.00  0.00    -0.047 A 
ATOM      5  C3  UNL d   1      -1.856   0.001   1.542  0.00  0.00    -0.047 A 
ATOM      6  C4  UNL d   1      -2.953   0.118   0.714  0.00  0.00    -0.004 A 
ENDROOT
TORSDOF 0
ENDMDL
