MODEL 1
REMARK minimizedAffinity -3.0283494
REMARK minimizedRMSD -1
REMARK  0 active torsions:
REMARK  status: ('A' for Active; 'I' for Inactive)
ROOT
ATOM      1  C   UNL d   1      -0.453  -0.014   2.501  0.00  0.00     0.172 C 
ATOM      2  N   UNL d   1      -1.486   0.242   1.525  0.00  0.00    -0.070 N 
ATOM      3  C1  UNL d   1      -1.778  -0.548   0.445  0.00  0.00    -0.004 A 
ATOM      4  C2  UNL d   1      -2.823   0.038  -0.236  0.00  0.00    -0.047 A 
ATOM      5  C3  UNL d   1      -3.170   1.221   0.458  0.00  0.00    -0.047 A 
ATOM      6  C4  UNL d   1      -2.327   1.323   1.544  0.00  0.00    -0.004 A 
ENDROOT
TORSDOF 0
ENDMDL
