MODEL 1
REMARK minimizedAffinity 5.70408773
REMARK minimizedRMSD -1
REMARK  2 active torsions:
REMARK  status: ('A' for Active; 'I' for Inactive)
REMARK    1  A    between atoms: C1_2  and  C2_3 
REMARK    2  A    between atoms: C2_3  and  C3_4 
ROOT
ATOM      1  C3  UNL d   1       1.349   4.951  -0.746  0.00  0.00    -0.075 A 
ATOM      2  C4  UNL d   1       1.950   3.949   0.029  0.00  0.00     0.002 A 
ATOM      3  C5  UNL d   1       1.168   3.046   0.750  0.00  0.00     0.002 A 
ATOM      4  C6  UNL d   1      -0.222   3.139   0.712  0.00  0.00    -0.004 A 
ATOM      5  C7  UNL d   1      -0.829   4.141  -0.041  0.00  0.00     0.002 A 
ATOM      6  C8  UNL d   1      -0.049   5.043  -0.767  0.00  0.00     0.002 A 
ENDROOT
BRANCH   1   7
ATOM      7  C2  UNL d   1       2.189   5.913  -1.551  0.00  0.00     0.056 C 
BRANCH   7   8
ATOM      8  C1  UNL d   1       1.795   5.999  -3.030  0.00  0.00     0.007 C 
ATOM      9  C   UNL d   1       2.992   5.999  -3.971  0.00  0.00     0.009 C 
ENDBRANCH   7   8
ENDBRANCH   1   7
TORSDOF 2
ENDMDL
