MODEL 1
REMARK minimizedAffinity 6.62549162
REMARK minimizedRMSD -1
REMARK  2 active torsions:
REMARK  status: ('A' for Active; 'I' for Inactive)
REMARK    1  A    between atoms: C1_2  and  C2_3 
REMARK    2  A    between atoms: C2_3  and  C3_4 
ROOT
ATOM      1  C3  UNL d   1       0.796   3.473   0.134  0.00  0.00    -0.075 A 
ATOM      2  C4  UNL d   1      -0.377   4.074  -0.346  0.00  0.00     0.002 A 
ATOM      3  C5  UNL d   1      -0.331   5.322  -0.967  0.00  0.00     0.002 A 
ATOM      4  C6  UNL d   1       0.884   5.990  -1.106  0.00  0.00    -0.004 A 
ATOM      5  C7  UNL d   1       2.053   5.410  -0.617  0.00  0.00     0.002 A 
ATOM      6  C8  UNL d   1       2.010   4.159  -0.000  0.00  0.00     0.002 A 
ENDROOT
BRANCH   1   7
ATOM      7  C2  UNL d   1       0.756   2.109   0.780  0.00  0.00     0.056 C 
BRANCH   7   8
ATOM      8  C1  UNL d   1       1.480   1.020  -0.019  0.00  0.00     0.007 C 
ATOM      9  C   UNL d   1       1.064   0.971  -1.483  0.00  0.00     0.009 C 
ENDBRANCH   7   8
ENDBRANCH   1   7
TORSDOF 2
ENDMDL
