MODEL 1
REMARK minimizedAffinity 10.9100914
REMARK minimizedRMSD -1
REMARK  2 active torsions:
REMARK  status: ('A' for Active; 'I' for Inactive)
REMARK    1  A    between atoms: C1_2  and  C2_3 
REMARK    2  A    between atoms: C2_3  and  C3_4 
ROOT
ATOM      1  C3  UNL d   1      -3.073  -0.268  -2.643  0.00  0.00    -0.075 A 
ATOM      2  C4  UNL d   1      -4.327  -0.324  -2.018  0.00  0.00     0.002 A 
ATOM      3  C5  UNL d   1      -4.800   0.763  -1.282  0.00  0.00     0.002 A 
ATOM      4  C6  UNL d   1      -4.024   1.912  -1.153  0.00  0.00    -0.004 A 
ATOM      5  C7  UNL d   1      -2.770   1.973  -1.757  0.00  0.00     0.002 A 
ATOM      6  C8  UNL d   1      -2.295   0.889  -2.497  0.00  0.00     0.002 A 
ENDROOT
BRANCH   1   7
ATOM      7  C2  UNL d   1      -2.567  -1.429  -3.466  0.00  0.00     0.056 C 
BRANCH   7   8
ATOM      8  C1  UNL d   1      -1.967  -2.568  -2.634  0.00  0.00     0.007 C 
ATOM      9  C   UNL d   1      -1.648  -3.808  -3.458  0.00  0.00     0.009 C 
ENDBRANCH   7   8
ENDBRANCH   1   7
TORSDOF 2
ENDMDL
