MODEL 1
REMARK minimizedAffinity 2.18556976
REMARK minimizedRMSD -1
REMARK  2 active torsions:
REMARK  status: ('A' for Active; 'I' for Inactive)
REMARK    1  A    between atoms: C1_2  and  C2_3 
REMARK    2  A    between atoms: C2_3  and  C3_4 
ROOT
ATOM      1  C3  UNL d   1      -1.072  -1.348  -3.310  0.00  0.00    -0.075 A 
ATOM      2  C4  UNL d   1      -2.379  -1.036  -2.907  0.00  0.00     0.002 A 
ATOM      3  C5  UNL d   1      -2.731   0.278  -2.600  0.00  0.00     0.002 A 
ATOM      4  C6  UNL d   1      -1.781   1.294  -2.681  0.00  0.00    -0.004 A 
ATOM      5  C7  UNL d   1      -0.475   0.993  -3.063  0.00  0.00     0.002 A 
ATOM      6  C8  UNL d   1      -0.121  -0.320  -3.376  0.00  0.00     0.002 A 
ENDROOT
BRANCH   1   7
ATOM      7  C2  UNL d   1      -0.692  -2.764  -3.672  0.00  0.00     0.056 C 
BRANCH   7   8
ATOM      8  C1  UNL d   1      -1.194  -3.818  -2.679  0.00  0.00     0.007 C 
ATOM      9  C   UNL d   1      -0.086  -4.407  -1.818  0.00  0.00     0.009 C 
ENDBRANCH   7   8
ENDBRANCH   1   7
TORSDOF 2
ENDMDL
