MODEL 1
REMARK minimizedAffinity 7.78515482
REMARK minimizedRMSD -1
REMARK  2 active torsions:
REMARK  status: ('A' for Active; 'I' for Inactive)
REMARK    1  A    between atoms: C1_2  and  C2_3 
REMARK    2  A    between atoms: C2_3  and  C3_4 
ROOT
ATOM      1  C3  UNL d   1       0.268   2.717  -1.192  0.00  0.00    -0.075 A 
ATOM      2  C4  UNL d   1       0.956   3.896  -1.515  0.00  0.00     0.002 A 
ATOM      3  C5  UNL d   1       1.681   4.582  -0.540  0.00  0.00     0.002 A 
ATOM      4  C6  UNL d   1       1.719   4.106   0.769  0.00  0.00    -0.004 A 
ATOM      5  C7  UNL d   1       1.026   2.945   1.104  0.00  0.00     0.002 A 
ATOM      6  C8  UNL d   1       0.303   2.254   0.130  0.00  0.00     0.002 A 
ENDROOT
BRANCH   1   7
ATOM      7  C2  UNL d   1      -0.494   1.954  -2.249  0.00  0.00     0.056 C 
BRANCH   7   8
ATOM      8  C1  UNL d   1       0.311   0.830  -2.909  0.00  0.00     0.007 C 
ATOM      9  C   UNL d   1      -0.449   0.121  -4.023  0.00  0.00     0.009 C 
ENDBRANCH   7   8
ENDBRANCH   1   7
TORSDOF 2
ENDMDL
