MODEL 1
REMARK minimizedAffinity 4.38673878
REMARK minimizedRMSD -1
REMARK  2 active torsions:
REMARK  status: ('A' for Active; 'I' for Inactive)
REMARK    1  A    between atoms: C1_2  and  C2_3 
REMARK    2  A    between atoms: C2_3  and  C3_4 
ROOT
ATOM      1  C3  UNL d   1       0.926   0.656  -1.335  0.00  0.00    -0.075 A 
ATOM      2  C4  UNL d   1       0.667   1.596  -0.327  0.00  0.00     0.002 A 
ATOM      3  C5  UNL d   1      -0.336   2.552  -0.490  0.00  0.00     0.002 A 
ATOM      4  C6  UNL d   1      -1.085   2.587  -1.663  0.00  0.00    -0.004 A 
ATOM      5  C7  UNL d   1      -0.826   1.669  -2.679  0.00  0.00     0.002 A 
ATOM      6  C8  UNL d   1       0.174   0.709  -2.517  0.00  0.00     0.002 A 
ENDROOT
BRANCH   1   7
ATOM      7  C2  UNL d   1       1.990  -0.399  -1.154  0.00  0.00     0.056 C 
BRANCH   7   8
ATOM      8  C1  UNL d   1       2.094  -0.940   0.276  0.00  0.00     0.007 C 
ATOM      9  C   UNL d   1       3.479  -1.476   0.616  0.00  0.00     0.009 C 
ENDBRANCH   7   8
ENDBRANCH   1   7
TORSDOF 2
ENDMDL
