MODEL 1
REMARK minimizedAffinity 4.3458252
REMARK minimizedRMSD -1
REMARK  2 active torsions:
REMARK  status: ('A' for Active; 'I' for Inactive)
REMARK    1  A    between atoms: C1_2  and  C2_3 
REMARK    2  A    between atoms: C2_3  and  C3_4 
ROOT
ATOM      1  C3  UNL d   1       4.822  -3.591  -1.689  0.00  0.00    -0.075 A 
ATOM      2  C4  UNL d   1       5.456  -3.417  -2.928  0.00  0.00     0.002 A 
ATOM      3  C5  UNL d   1       5.512  -4.463  -3.849  0.00  0.00     0.002 A 
ATOM      4  C6  UNL d   1       4.945  -5.698  -3.540  0.00  0.00    -0.004 A 
ATOM      5  C7  UNL d   1       4.327  -5.888  -2.306  0.00  0.00     0.002 A 
ATOM      6  C8  UNL d   1       4.266  -4.841  -1.384  0.00  0.00     0.002 A 
ENDROOT
BRANCH   1   7
ATOM      7  C2  UNL d   1       4.732  -2.454  -0.700  0.00  0.00     0.056 C 
BRANCH   7   8
ATOM      8  C1  UNL d   1       3.420  -1.665  -0.774  0.00  0.00     0.007 C 
ATOM      9  C   UNL d   1       2.245  -2.394  -0.136  0.00  0.00     0.009 C 
ENDBRANCH   7   8
ENDBRANCH   1   7
TORSDOF 2
ENDMDL
