MODEL 1
REMARK minimizedAffinity 4.19730616
REMARK minimizedRMSD -1
REMARK  3 active torsions:
REMARK  status: ('A' for Active; 'I' for Inactive)
REMARK    1  A    between atoms: C3'_2  and  C2'_3 
REMARK    2  A    between atoms: C2'_3  and  C1'_4 
REMARK    3  A    between atoms: C1'_4  and  C1_5 
ROOT
ATOM      1  C1  N4B d   1       2.090  -0.222  -0.084  0.00  0.00    -0.075 A 
ATOM      2  C2  N4B d   1       0.948  -0.586  -0.831  0.00  0.00     0.002 A 
ATOM      3  C3  N4B d   1       0.604  -1.909  -0.957  0.00  0.00     0.002 A 
ATOM      4  C4  N4B d   1       1.393  -2.883  -0.364  0.00  0.00    -0.004 A 
ATOM      5  C5  N4B d   1       2.479  -2.522   0.378  0.00  0.00     0.002 A 
ATOM      6  C6  N4B d   1       2.835  -1.195   0.516  0.00  0.00     0.002 A 
ENDROOT
BRANCH   1   7
ATOM      7  C1' N4B d   1       2.555   1.205   0.011  0.00  0.00     0.057 C 
BRANCH   7   8
ATOM      8  C2' N4B d   1       1.515   2.022   0.773  0.00  0.00     0.009 C 
BRANCH   8   9
ATOM      9  C3' N4B d   1       1.030   3.215  -0.032  0.00  0.00     0.004 C 
ATOM     10  C4' N4B d   1      -0.466   3.309  -0.086  0.00  0.00     0.003 C 
ENDBRANCH   8   9
ENDBRANCH   7   8
ENDBRANCH   1   7
TORSDOF 3
ENDMDL
