MODEL 1
REMARK minimizedAffinity -2.80088711
REMARK minimizedRMSD -1
REMARK  3 active torsions:
REMARK  status: ('A' for Active; 'I' for Inactive)
REMARK    1  A    between atoms: C3'_2  and  C2'_3 
REMARK    2  A    between atoms: C2'_3  and  C1'_4 
REMARK    3  A    between atoms: C1'_4  and  C1_5 
ROOT
ATOM      1  C1  N4B d   1      -2.035   1.626   1.427  0.00  0.00    -0.075 A 
ATOM      2  C2  N4B d   1      -2.448   0.789   0.367  0.00  0.00     0.002 A 
ATOM      3  C3  N4B d   1      -3.786   0.610   0.115  0.00  0.00     0.002 A 
ATOM      4  C4  N4B d   1      -4.725   1.239   0.918  0.00  0.00    -0.004 A 
ATOM      5  C5  N4B d   1      -4.319   2.065   1.924  0.00  0.00     0.002 A 
ATOM      6  C6  N4B d   1      -2.977   2.258   2.186  0.00  0.00     0.002 A 
ENDROOT
BRANCH   1   7
ATOM      7  C1' N4B d   1      -0.585   1.785   1.795  0.00  0.00     0.057 C 
BRANCH   7   8
ATOM      8  C2' N4B d   1       0.136   2.531   0.676  0.00  0.00     0.009 C 
BRANCH   8   9
ATOM      9  C3' N4B d   1       0.938   1.591  -0.207  0.00  0.00     0.004 C 
ATOM     10  C4' N4B d   1       2.384   1.516   0.186  0.00  0.00     0.003 C 
ENDBRANCH   8   9
ENDBRANCH   7   8
ENDBRANCH   1   7
TORSDOF 3
ENDMDL
