MODEL 1
REMARK minimizedAffinity 3.33872581
REMARK minimizedRMSD -1
REMARK  3 active torsions:
REMARK  status: ('A' for Active; 'I' for Inactive)
REMARK    1  A    between atoms: C3'_2  and  C2'_3 
REMARK    2  A    between atoms: C2'_3  and  C1'_4 
REMARK    3  A    between atoms: C1'_4  and  C1_5 
ROOT
ATOM      1  C1  N4B d   1      -4.995   1.138  -2.965  0.00  0.00    -0.075 A 
ATOM      2  C2  N4B d   1      -5.584   2.043  -3.875  0.00  0.00     0.002 A 
ATOM      3  C3  N4B d   1      -4.828   2.595  -4.881  0.00  0.00     0.002 A 
ATOM      4  C4  N4B d   1      -3.483   2.272  -4.983  0.00  0.00    -0.004 A 
ATOM      5  C5  N4B d   1      -2.928   1.378  -4.115  0.00  0.00     0.002 A 
ATOM      6  C6  N4B d   1      -3.677   0.813  -3.103  0.00  0.00     0.002 A 
ENDROOT
BRANCH   1   7
ATOM      7  C1' N4B d   1      -5.760   0.576  -1.798  0.00  0.00     0.057 C 
BRANCH   7   8
ATOM      8  C2' N4B d   1      -4.808   0.385  -0.621  0.00  0.00     0.009 C 
BRANCH   8   9
ATOM      9  C3' N4B d   1      -5.286   1.116   0.622  0.00  0.00     0.004 C 
ATOM     10  C4' N4B d   1      -4.157   1.575   1.496  0.00  0.00     0.003 C 
ENDBRANCH   8   9
ENDBRANCH   7   8
ENDBRANCH   1   7
TORSDOF 3
ENDMDL
