MODEL 1
REMARK minimizedAffinity 4.22757626
REMARK minimizedRMSD -1
REMARK  3 active torsions:
REMARK  status: ('A' for Active; 'I' for Inactive)
REMARK    1  A    between atoms: C3'_2  and  C2'_3 
REMARK    2  A    between atoms: C2'_3  and  C1'_4 
REMARK    3  A    between atoms: C1'_4  and  C1_5 
ROOT
ATOM      1  C1  N4B d   1      -3.673   0.012  -3.301  0.00  0.00    -0.075 A 
ATOM      2  C2  N4B d   1      -4.201  -0.365  -4.555  0.00  0.00     0.002 A 
ATOM      3  C3  N4B d   1      -5.127   0.435  -5.179  0.00  0.00     0.002 A 
ATOM      4  C4  N4B d   1      -5.551   1.602  -4.562  0.00  0.00    -0.004 A 
ATOM      5  C5  N4B d   1      -5.017   1.973  -3.363  0.00  0.00     0.002 A 
ATOM      6  C6  N4B d   1      -4.083   1.181  -2.726  0.00  0.00     0.002 A 
ENDROOT
BRANCH   1   7
ATOM      7  C1' N4B d   1      -2.723  -0.872  -2.540  0.00  0.00     0.057 C 
BRANCH   7   8
ATOM      8  C2' N4B d   1      -1.298  -0.365  -2.740  0.00  0.00     0.009 C 
BRANCH   8   9
ATOM      9  C3' N4B d   1      -0.299  -1.505  -2.848  0.00  0.00     0.004 C 
ATOM     10  C4' N4B d   1       1.102  -1.082  -2.521  0.00  0.00     0.003 C 
ENDBRANCH   8   9
ENDBRANCH   7   8
ENDBRANCH   1   7
TORSDOF 3
ENDMDL
