MODEL 1
REMARK minimizedAffinity 10.6288328
REMARK minimizedRMSD -1
REMARK  0 active torsions:
REMARK  status: ('A' for Active; 'I' for Inactive)
ROOT
ATOM      1  C   UNL d   1       5.543  -4.829   0.610  0.00  0.00     0.077 C 
ATOM      2  C1  UNL d   1       4.367  -3.926   0.382  0.00  0.00    -0.074 A 
ATOM      3  C2  UNL d   1       3.059  -4.408   0.489  0.00  0.00    -0.005 A 
ATOM      4  C3  UNL d   1       1.975  -3.554   0.285  0.00  0.00     0.006 A 
ATOM      5  C4  UNL d   1       2.189  -2.211  -0.029  0.00  0.00    -0.005 A 
ATOM      6  C5  UNL d   1       3.490  -1.710  -0.139  0.00  0.00    -0.074 A 
ATOM      7  C6  UNL d   1       3.737  -0.267  -0.465  0.00  0.00     0.077 C 
ATOM      8  C7  UNL d   1       4.574  -2.573   0.075  0.00  0.00    -0.001 A 
ENDROOT
TORSDOF 0
ENDMDL
