MODEL 1
REMARK minimizedAffinity -2.85515213
REMARK minimizedRMSD -1
REMARK  0 active torsions:
REMARK  status: ('A' for Active; 'I' for Inactive)
ROOT
ATOM      1  C   UNL d   1       0.685   3.368  -6.000  0.00  0.00     0.077 C 
ATOM      2  C1  UNL d   1      -0.503   2.915  -5.204  0.00  0.00    -0.074 A 
ATOM      3  C2  UNL d   1      -1.505   3.817  -4.832  0.00  0.00    -0.005 A 
ATOM      4  C3  UNL d   1      -2.609   3.380  -4.100  0.00  0.00     0.006 A 
ATOM      5  C4  UNL d   1      -2.722   2.038  -3.733  0.00  0.00    -0.005 A 
ATOM      6  C5  UNL d   1      -1.730   1.122  -4.097  0.00  0.00    -0.074 A 
ATOM      7  C6  UNL d   1      -1.840  -0.326  -3.719  0.00  0.00     0.077 C 
ATOM      8  C7  UNL d   1      -0.627   1.568  -4.838  0.00  0.00    -0.001 A 
ENDROOT
TORSDOF 0
ENDMDL
