MODEL 1
REMARK minimizedAffinity 8.06087971
REMARK minimizedRMSD -1
REMARK  0 active torsions:
REMARK  status: ('A' for Active; 'I' for Inactive)
ROOT
ATOM      1  C   UNL d   1       4.174   3.220   2.719  0.00  0.00     0.077 C 
ATOM      2  C1  UNL d   1       4.137   4.184   3.867  0.00  0.00    -0.074 A 
ATOM      3  C2  UNL d   1       5.319   4.661   4.444  0.00  0.00    -0.005 A 
ATOM      4  C3  UNL d   1       5.269   5.565   5.505  0.00  0.00     0.006 A 
ATOM      5  C4  UNL d   1       4.039   6.000   6.000  0.00  0.00    -0.005 A 
ATOM      6  C5  UNL d   1       2.847   5.535   5.435  0.00  0.00    -0.074 A 
ATOM      7  C6  UNL d   1       1.516   6.000   5.949  0.00  0.00     0.077 C 
ATOM      8  C7  UNL d   1       2.906   4.632   4.365  0.00  0.00    -0.001 A 
ENDROOT
TORSDOF 0
ENDMDL
