MODEL 1
REMARK minimizedAffinity 10.5844078
REMARK minimizedRMSD -1
REMARK  0 active torsions:
REMARK  status: ('A' for Active; 'I' for Inactive)
ROOT
ATOM      1  C   UNL d   1       4.332  -4.446   2.413  0.00  0.00     0.077 C 
ATOM      2  C1  UNL d   1       3.267  -3.826   1.558  0.00  0.00    -0.074 A 
ATOM      3  C2  UNL d   1       3.578  -3.269   0.313  0.00  0.00    -0.005 A 
ATOM      4  C3  UNL d   1       2.576  -2.705  -0.476  0.00  0.00     0.006 A 
ATOM      5  C4  UNL d   1       1.254  -2.691  -0.028  0.00  0.00    -0.005 A 
ATOM      6  C5  UNL d   1       0.924  -3.244   1.213  0.00  0.00    -0.074 A 
ATOM      7  C6  UNL d   1      -0.494  -3.246   1.705  0.00  0.00     0.077 C 
ATOM      8  C7  UNL d   1       1.935  -3.815   1.997  0.00  0.00    -0.001 A 
ENDROOT
TORSDOF 0
ENDMDL
