MODEL 1
REMARK minimizedAffinity 2.0326817
REMARK minimizedRMSD -1
REMARK  0 active torsions:
REMARK  status: ('A' for Active; 'I' for Inactive)
ROOT
ATOM      1  C   UNL d   1       2.375   2.679  -6.000  0.00  0.00     0.077 C 
ATOM      2  C1  UNL d   1       1.024   2.397  -5.411  0.00  0.00    -0.074 A 
ATOM      3  C2  UNL d   1       0.014   3.364  -5.436  0.00  0.00    -0.005 A 
ATOM      4  C3  UNL d   1      -1.240   3.085  -4.893  0.00  0.00     0.006 A 
ATOM      5  C4  UNL d   1      -1.496   1.838  -4.321  0.00  0.00    -0.005 A 
ATOM      6  C5  UNL d   1      -0.499   0.858  -4.289  0.00  0.00    -0.074 A 
ATOM      7  C6  UNL d   1      -0.760  -0.491  -3.687  0.00  0.00     0.077 C 
ATOM      8  C7  UNL d   1       0.757   1.144  -4.843  0.00  0.00    -0.001 A 
ENDROOT
TORSDOF 0
ENDMDL
