MODEL 1
REMARK minimizedAffinity 4.3793726
REMARK minimizedRMSD -1
REMARK  0 active torsions:
REMARK  status: ('A' for Active; 'I' for Inactive)
ROOT
ATOM      1  C   UNL d   1      -0.611  -3.667   1.531  0.00  0.00     0.077 C 
ATOM      2  C1  UNL d   1       0.853  -3.632   1.208  0.00  0.00    -0.074 A 
ATOM      3  C2  UNL d   1       1.390  -2.618   0.408  0.00  0.00    -0.005 A 
ATOM      4  C3  UNL d   1       2.755  -2.593   0.125  0.00  0.00     0.006 A 
ATOM      5  C4  UNL d   1       3.597  -3.581   0.638  0.00  0.00    -0.005 A 
ATOM      6  C5  UNL d   1       3.079  -4.603   1.440  0.00  0.00    -0.074 A 
ATOM      7  C6  UNL d   1       3.971  -5.666   2.008  0.00  0.00     0.077 C 
ATOM      8  C7  UNL d   1       1.707  -4.616   1.726  0.00  0.00    -0.001 A 
ENDROOT
TORSDOF 0
ENDMDL
