MODEL 1
REMARK minimizedAffinity 4.42628241
REMARK minimizedRMSD -1
REMARK  0 active torsions:
REMARK  status: ('A' for Active; 'I' for Inactive)
ROOT
ATOM      1  C   UNL d   1      -3.990   3.041  -2.638  0.00  0.00     0.077 C 
ATOM      2  C1  UNL d   1      -2.697   3.109  -3.395  0.00  0.00    -0.074 A 
ATOM      3  C2  UNL d   1      -2.403   4.198  -4.222  0.00  0.00    -0.005 A 
ATOM      4  C3  UNL d   1      -1.192   4.252  -4.912  0.00  0.00     0.006 A 
ATOM      5  C4  UNL d   1      -0.264   3.218  -4.782  0.00  0.00    -0.005 A 
ATOM      6  C5  UNL d   1      -0.539   2.121  -3.960  0.00  0.00    -0.074 A 
ATOM      7  C6  UNL d   1       0.452   1.007  -3.802  0.00  0.00     0.077 C 
ATOM      8  C7  UNL d   1      -1.755   2.078  -3.264  0.00  0.00    -0.001 A 
ENDROOT
TORSDOF 0
ENDMDL
