MODEL 1
REMARK minimizedAffinity 5.22391319
REMARK minimizedRMSD -1
REMARK  0 active torsions:
REMARK  status: ('A' for Active; 'I' for Inactive)
ROOT
ATOM      1  C   UNL d   1      -0.349   3.807  -5.463  0.00  0.00     0.077 C 
ATOM      2  C1  UNL d   1      -1.538   3.277  -4.719  0.00  0.00    -0.074 A 
ATOM      3  C2  UNL d   1      -2.700   4.044  -4.580  0.00  0.00    -0.005 A 
ATOM      4  C3  UNL d   1      -3.802   3.534  -3.894  0.00  0.00     0.006 A 
ATOM      5  C4  UNL d   1      -3.754   2.254  -3.340  0.00  0.00    -0.005 A 
ATOM      6  C5  UNL d   1      -2.601   1.473  -3.468  0.00  0.00    -0.074 A 
ATOM      7  C6  UNL d   1      -2.536   0.092  -2.887  0.00  0.00     0.077 C 
ATOM      8  C7  UNL d   1      -1.501   1.989  -4.166  0.00  0.00    -0.001 A 
ENDROOT
TORSDOF 0
ENDMDL
