MODEL 1
REMARK minimizedAffinity -2.10972643
REMARK minimizedRMSD -1
REMARK  0 active torsions:
REMARK  status: ('A' for Active; 'I' for Inactive)
ROOT
ATOM      1  C2' OXE d   1       1.740   0.259   0.733  0.00  0.00     0.078 C 
ATOM      2  C1' OXE d   1       0.015  -1.700   1.766  0.00  0.00     0.078 C 
ATOM      3  C1  OXE d   1      -0.420  -0.964   0.523  0.00  0.00    -0.078 A 
ATOM      4  C2  OXE d   1       0.409   0.025   0.051  0.00  0.00    -0.078 A 
ATOM      5  C3  OXE d   1       0.082   0.697  -1.123  0.00  0.00     0.003 A 
ATOM      6  C4  OXE d   1      -1.155   0.481  -1.742  0.00  0.00    -0.002 A 
ATOM      7  C5  OXE d   1      -2.032  -0.494  -1.255  0.00  0.00    -0.002 A 
ATOM      8  C6  OXE d   1      -1.661  -1.254  -0.151  0.00  0.00     0.003 A 
ENDROOT
TORSDOF 0
ENDMDL
