MODEL 1
REMARK minimizedAffinity -4.00323772
REMARK minimizedRMSD -1
REMARK  0 active torsions:
REMARK  status: ('A' for Active; 'I' for Inactive)
ROOT
ATOM      1  C2' OXE d   1       1.522   0.040  -0.005  0.00  0.00     0.078 C 
ATOM      2  C1' OXE d   1      -0.209  -1.795   1.226  0.00  0.00     0.078 C 
ATOM      3  C1  OXE d   1      -0.762  -0.947   0.108  0.00  0.00    -0.078 A 
ATOM      4  C2  OXE d   1       0.079  -0.019  -0.457  0.00  0.00    -0.078 A 
ATOM      5  C3  OXE d   1      -0.364   0.751  -1.529  0.00  0.00     0.003 A 
ATOM      6  C4  OXE d   1      -1.702   0.697  -1.935  0.00  0.00    -0.002 A 
ATOM      7  C5  OXE d   1      -2.587  -0.213  -1.346  0.00  0.00    -0.002 A 
ATOM      8  C6  OXE d   1      -2.122  -1.070  -0.354  0.00  0.00     0.003 A 
ENDROOT
TORSDOF 0
ENDMDL
