MODEL 1
REMARK minimizedAffinity -2.94460511
REMARK minimizedRMSD -1
REMARK  0 active torsions:
REMARK  status: ('A' for Active; 'I' for Inactive)
ROOT
ATOM      1  C2' OXE d   1       1.453   0.683  -0.276  0.00  0.00     0.078 C 
ATOM      2  C1' OXE d   1      -0.250   1.004  -2.484  0.00  0.00     0.078 C 
ATOM      3  C1  OXE d   1      -0.726   0.131  -1.350  0.00  0.00    -0.078 A 
ATOM      4  C2  OXE d   1       0.133  -0.058  -0.294  0.00  0.00    -0.078 A 
ATOM      5  C3  OXE d   1      -0.278  -0.809   0.803  0.00  0.00     0.003 A 
ATOM      6  C4  OXE d   1      -1.496  -1.499   0.773  0.00  0.00    -0.002 A 
ATOM      7  C5  OXE d   1      -2.369  -1.352  -0.310  0.00  0.00    -0.002 A 
ATOM      8  C6  OXE d   1      -2.019  -0.509  -1.358  0.00  0.00     0.003 A 
ENDROOT
TORSDOF 0
ENDMDL
