MODEL 1
REMARK minimizedAffinity -0.504903615
REMARK minimizedRMSD -1
REMARK  0 active torsions:
REMARK  status: ('A' for Active; 'I' for Inactive)
ROOT
ATOM      1  C2' OXE d   1       1.627   0.563   0.584  0.00  0.00     0.078 C 
ATOM      2  C1' OXE d   1       0.234  -1.705   1.476  0.00  0.00     0.078 C 
ATOM      3  C1  OXE d   1      -0.315  -0.967   0.280  0.00  0.00    -0.078 A 
ATOM      4  C2  OXE d   1       0.347   0.168  -0.120  0.00  0.00    -0.078 A 
ATOM      5  C3  OXE d   1      -0.085   0.856  -1.250  0.00  0.00     0.003 A 
ATOM      6  C4  OXE d   1      -1.276   0.490  -1.890  0.00  0.00    -0.002 A 
ATOM      7  C5  OXE d   1      -1.988  -0.640  -1.474  0.00  0.00    -0.002 A 
ATOM      8  C6  OXE d   1      -1.498  -1.402  -0.419  0.00  0.00     0.003 A 
ENDROOT
TORSDOF 0
ENDMDL
