MODEL 1
REMARK minimizedAffinity -3.00191116
REMARK minimizedRMSD -1
REMARK  0 active torsions:
REMARK  status: ('A' for Active; 'I' for Inactive)
ROOT
ATOM      1  C2' OXE d   1       2.457   3.141   1.432  0.00  0.00     0.078 C 
ATOM      2  C1' OXE d   1       2.905   1.216   3.426  0.00  0.00     0.078 C 
ATOM      3  C1  OXE d   1       2.232   0.767   2.153  0.00  0.00    -0.078 A 
ATOM      4  C2  OXE d   1       1.974   1.725   1.202  0.00  0.00    -0.078 A 
ATOM      5  C3  OXE d   1       1.405   1.355  -0.012  0.00  0.00     0.003 A 
ATOM      6  C4  OXE d   1       0.952   0.045  -0.213  0.00  0.00    -0.002 A 
ATOM      7  C5  OXE d   1       1.169  -0.938   0.759  0.00  0.00    -0.002 A 
ATOM      8  C6  OXE d   1       1.844  -0.603   1.927  0.00  0.00     0.003 A 
ENDROOT
TORSDOF 0
ENDMDL
