MODEL 1
REMARK minimizedAffinity -1.19302344
REMARK minimizedRMSD -1
REMARK  0 active torsions:
REMARK  status: ('A' for Active; 'I' for Inactive)
ROOT
ATOM      1  C2' OXE d   1       2.761   0.913   0.378  0.00  0.00     0.078 C 
ATOM      2  C1' OXE d   1       2.436  -1.402   1.932  0.00  0.00     0.078 C 
ATOM      3  C1  OXE d   1       1.257  -0.929   1.119  0.00  0.00    -0.078 A 
ATOM      4  C2  OXE d   1       1.410   0.230   0.398  0.00  0.00    -0.078 A 
ATOM      5  C3  OXE d   1       0.372   0.681  -0.412  0.00  0.00     0.003 A 
ATOM      6  C4  OXE d   1      -0.877   0.050  -0.380  0.00  0.00    -0.002 A 
ATOM      7  C5  OXE d   1      -1.067  -1.111   0.378  0.00  0.00    -0.002 A 
ATOM      8  C6  OXE d   1      -0.000  -1.636   1.098  0.00  0.00     0.003 A 
ENDROOT
TORSDOF 0
ENDMDL
