MODEL 1
REMARK minimizedAffinity -1.7573061
REMARK minimizedRMSD -1
REMARK  0 active torsions:
REMARK  status: ('A' for Active; 'I' for Inactive)
ROOT
ATOM      1  C2' OXE d   1       4.110   1.873  -0.045  0.00  0.00     0.078 C 
ATOM      2  C1' OXE d   1       2.401   3.603   1.358  0.00  0.00     0.078 C 
ATOM      3  C1  OXE d   1       1.863   2.250   0.963  0.00  0.00    -0.078 A 
ATOM      4  C2  OXE d   1       2.690   1.428   0.236  0.00  0.00    -0.078 A 
ATOM      5  C3  OXE d   1       2.263   0.149  -0.107  0.00  0.00     0.003 A 
ATOM      6  C4  OXE d   1       0.945  -0.250   0.148  0.00  0.00    -0.002 A 
ATOM      7  C5  OXE d   1       0.073   0.587   0.852  0.00  0.00    -0.002 A 
ATOM      8  C6  OXE d   1       0.529   1.821   1.303  0.00  0.00     0.003 A 
ENDROOT
TORSDOF 0
ENDMDL
