MODEL 1
REMARK minimizedAffinity 2.65769887
REMARK minimizedRMSD -1
REMARK  0 active torsions:
REMARK  status: ('A' for Active; 'I' for Inactive)
ROOT
ATOM      1  C2' OXE d   1       0.839  -0.958   0.736  0.00  0.00     0.078 C 
ATOM      2  C1' OXE d   1      -1.242  -2.362   1.991  0.00  0.00     0.078 C 
ATOM      3  C1  OXE d   1      -1.555  -1.644   0.703  0.00  0.00    -0.078 A 
ATOM      4  C2  OXE d   1      -0.543  -0.920   0.120  0.00  0.00    -0.078 A 
ATOM      5  C3  OXE d   1      -0.763  -0.284  -1.098  0.00  0.00     0.003 A 
ATOM      6  C4  OXE d   1      -2.047  -0.246  -1.656  0.00  0.00    -0.002 A 
ATOM      7  C5  OXE d   1      -3.102  -0.943  -1.058  0.00  0.00    -0.002 A 
ATOM      8  C6  OXE d   1      -2.863  -1.680   0.097  0.00  0.00     0.003 A 
ENDROOT
TORSDOF 0
ENDMDL
