MODEL 1
REMARK minimizedAffinity 11.8965006
REMARK minimizedRMSD -1
REMARK  0 active torsions:
REMARK  status: ('A' for Active; 'I' for Inactive)
ROOT
ATOM      1  C2' OXE d   1       1.227  -1.088   1.255  0.00  0.00     0.078 C 
ATOM      2  C1' OXE d   1      -0.988  -2.553   2.166  0.00  0.00     0.078 C 
ATOM      3  C1  OXE d   1      -1.106  -1.855   0.835  0.00  0.00    -0.078 A 
ATOM      4  C2  OXE d   1      -0.034  -1.102   0.418  0.00  0.00    -0.078 A 
ATOM      5  C3  OXE d   1      -0.070  -0.482  -0.827  0.00  0.00     0.003 A 
ATOM      6  C4  OXE d   1      -1.244  -0.491  -1.591  0.00  0.00    -0.002 A 
ATOM      7  C5  OXE d   1      -2.360  -1.219  -1.167  0.00  0.00    -0.002 A 
ATOM      8  C6  OXE d   1      -2.293  -1.940   0.021  0.00  0.00     0.003 A 
ENDROOT
TORSDOF 0
ENDMDL
