MODEL 1
REMARK minimizedAffinity -3.0359633
REMARK minimizedRMSD -1
REMARK  0 active torsions:
REMARK  status: ('A' for Active; 'I' for Inactive)
ROOT
ATOM      1  C2' OXE d   1       3.221   1.873  -0.501  0.00  0.00     0.078 C 
ATOM      2  C1' OXE d   1       1.914   2.293   1.947  0.00  0.00     0.078 C 
ATOM      3  C1  OXE d   1       1.265   1.362   0.953  0.00  0.00    -0.078 A 
ATOM      4  C2  OXE d   1       1.888   1.199  -0.261  0.00  0.00    -0.078 A 
ATOM      5  C3  OXE d   1       1.361   0.309  -1.192  0.00  0.00     0.003 A 
ATOM      6  C4  OXE d   1       0.122  -0.303  -0.966  0.00  0.00    -0.002 A 
ATOM      7  C5  OXE d   1      -0.549  -0.119   0.248  0.00  0.00    -0.002 A 
ATOM      8  C6  OXE d   1       0.028   0.675   1.233  0.00  0.00     0.003 A 
ENDROOT
TORSDOF 0
ENDMDL
