MODEL 1
REMARK minimizedAffinity -0.361504257
REMARK minimizedRMSD -1
REMARK  0 active torsions:
REMARK  status: ('A' for Active; 'I' for Inactive)
ROOT
ATOM      1  C2' OXE d   1      -2.820  -1.306  -0.494  0.00  0.00     0.078 C 
ATOM      2  C1' OXE d   1      -1.219  -2.286   1.593  0.00  0.00     0.078 C 
ATOM      3  C1  OXE d   1      -0.639  -1.213   0.706  0.00  0.00    -0.078 A 
ATOM      4  C2  OXE d   1      -1.412  -0.772  -0.341  0.00  0.00    -0.078 A 
ATOM      5  C3  OXE d   1      -0.946   0.255  -1.157  0.00  0.00     0.003 A 
ATOM      6  C4  OXE d   1       0.361   0.736  -1.015  0.00  0.00    -0.002 A 
ATOM      7  C5  OXE d   1       1.180   0.272   0.020  0.00  0.00    -0.002 A 
ATOM      8  C6  OXE d   1       0.681  -0.669   0.914  0.00  0.00     0.003 A 
ENDROOT
TORSDOF 0
ENDMDL
