MODEL 1
REMARK minimizedAffinity -3.54862809
REMARK minimizedRMSD -1
REMARK  0 active torsions:
REMARK  status: ('A' for Active; 'I' for Inactive)
ROOT
ATOM      1  C2' OXE d   1      -0.036   1.327   2.028  0.00  0.00     0.078 C 
ATOM      2  C1' OXE d   1       1.555  -0.226   0.314  0.00  0.00     0.078 C 
ATOM      3  C1  OXE d   1       1.902   1.234   0.465  0.00  0.00    -0.078 A 
ATOM      4  C2  OXE d   1       1.089   1.997   1.269  0.00  0.00    -0.078 A 
ATOM      5  C3  OXE d   1       1.396   3.337   1.486  0.00  0.00     0.003 A 
ATOM      6  C4  OXE d   1       2.433   3.952   0.773  0.00  0.00    -0.002 A 
ATOM      7  C5  OXE d   1       3.248   3.202  -0.082  0.00  0.00    -0.002 A 
ATOM      8  C6  OXE d   1       3.023   1.836  -0.214  0.00  0.00     0.003 A 
ENDROOT
TORSDOF 0
ENDMDL
