MODEL 1
REMARK minimizedAffinity -1.74276817
REMARK minimizedRMSD -1
REMARK  0 active torsions:
REMARK  status: ('A' for Active; 'I' for Inactive)
ROOT
ATOM      1  C2' OXE d   1       1.208   3.059   1.454  0.00  0.00     0.078 C 
ATOM      2  C1' OXE d   1       3.075   1.320   0.283  0.00  0.00     0.078 C 
ATOM      3  C1  OXE d   1       1.611   1.019   0.082  0.00  0.00    -0.078 A 
ATOM      4  C2  OXE d   1       0.705   1.848   0.698  0.00  0.00    -0.078 A 
ATOM      5  C3  OXE d   1      -0.659   1.647   0.500  0.00  0.00     0.003 A 
ATOM      6  C4  OXE d   1      -1.115   0.519  -0.192  0.00  0.00    -0.002 A 
ATOM      7  C5  OXE d   1      -0.209  -0.361  -0.793  0.00  0.00    -0.002 A 
ATOM      8  C6  OXE d   1       1.154  -0.102  -0.702  0.00  0.00     0.003 A 
ENDROOT
TORSDOF 0
ENDMDL
