MODEL 1
REMARK minimizedAffinity 0.540642202
REMARK minimizedRMSD -1
REMARK  0 active torsions:
REMARK  status: ('A' for Active; 'I' for Inactive)
ROOT
ATOM      1  C2' OXE d   1       1.932  -0.739   0.877  0.00  0.00     0.078 C 
ATOM      2  C1' OXE d   1      -0.033   0.794  -0.415  0.00  0.00     0.078 C 
ATOM      3  C1  OXE d   1       1.113   1.525   0.238  0.00  0.00    -0.078 A 
ATOM      4  C2  OXE d   1       2.045   0.770   0.908  0.00  0.00    -0.078 A 
ATOM      5  C3  OXE d   1       3.152   1.390   1.482  0.00  0.00     0.003 A 
ATOM      6  C4  OXE d   1       3.244   2.786   1.515  0.00  0.00    -0.002 A 
ATOM      7  C5  OXE d   1       2.284   3.577   0.873  0.00  0.00    -0.002 A 
ATOM      8  C6  OXE d   1       1.238   2.962   0.195  0.00  0.00     0.003 A 
ENDROOT
TORSDOF 0
ENDMDL
