MODEL 1
REMARK minimizedAffinity 8.21285057
REMARK minimizedRMSD -1
REMARK  0 active torsions:
REMARK  status: ('A' for Active; 'I' for Inactive)
ROOT
ATOM      1  C4' PXY d   1       1.093   0.755   3.160  0.00  0.00     0.077 C 
ATOM      2  C1' PXY d   1       5.998  -0.788   0.519  0.00  0.00     0.077 C 
ATOM      3  C1  PXY d   1       4.711  -0.373   1.203  0.00  0.00    -0.082 A 
ATOM      4  C2  PXY d   1       4.504  -0.708   2.467  0.00  0.00     0.003 A 
ATOM      5  C3  PXY d   1       3.331  -0.369   3.091  0.00  0.00     0.003 A 
ATOM      6  C4  PXY d   1       2.383   0.366   2.432  0.00  0.00    -0.082 A 
ATOM      7  C5  PXY d   1       2.591   0.721   1.146  0.00  0.00     0.003 A 
ATOM      8  C6  PXY d   1       3.770   0.331   0.518  0.00  0.00     0.003 A 
ENDROOT
TORSDOF 0
ENDMDL
