MODEL 1
REMARK minimizedAffinity 1.76632905
REMARK minimizedRMSD -1
REMARK  0 active torsions:
REMARK  status: ('A' for Active; 'I' for Inactive)
ROOT
ATOM      1  C4' PXY d   1       1.448   2.244   0.801  0.00  0.00     0.077 C 
ATOM      2  C1' PXY d   1       5.997  -1.262   0.148  0.00  0.00     0.077 C 
ATOM      3  C1  PXY d   1       4.809  -0.334   0.311  0.00  0.00    -0.082 A 
ATOM      4  C2  PXY d   1       4.084  -0.388   1.416  0.00  0.00     0.003 A 
ATOM      5  C3  PXY d   1       2.987   0.421   1.566  0.00  0.00     0.003 A 
ATOM      6  C4  PXY d   1       2.661   1.332   0.598  0.00  0.00    -0.082 A 
ATOM      7  C5  PXY d   1       3.403   1.401  -0.528  0.00  0.00     0.003 A 
ATOM      8  C6  PXY d   1       4.488   0.542  -0.679  0.00  0.00     0.003 A 
ENDROOT
TORSDOF 0
ENDMDL
