MODEL 1
REMARK minimizedAffinity 17.7606983
REMARK minimizedRMSD -1
REMARK  0 active torsions:
REMARK  status: ('A' for Active; 'I' for Inactive)
ROOT
ATOM      1  C4' PXY d   1      -1.815  -2.601  -1.458  0.00  0.00     0.077 C 
ATOM      2  C1' PXY d   1      -6.000  -2.941  -5.431  0.00  0.00     0.077 C 
ATOM      3  C1  PXY d   1      -4.894  -2.856  -4.398  0.00  0.00    -0.082 A 
ATOM      4  C2  PXY d   1      -5.193  -2.932  -3.111  0.00  0.00     0.003 A 
ATOM      5  C3  PXY d   1      -4.209  -2.825  -2.162  0.00  0.00     0.003 A 
ATOM      6  C4  PXY d   1      -2.898  -2.691  -2.536  0.00  0.00    -0.082 A 
ATOM      7  C5  PXY d   1      -2.584  -2.624  -3.847  0.00  0.00     0.003 A 
ATOM      8  C6  PXY d   1      -3.602  -2.693  -4.793  0.00  0.00     0.003 A 
ENDROOT
TORSDOF 0
ENDMDL
