MODEL 1
REMARK minimizedAffinity 11.5229883
REMARK minimizedRMSD -1
REMARK  0 active torsions:
REMARK  status: ('A' for Active; 'I' for Inactive)
ROOT
ATOM      1  C4' PXY d   1       6.000  -1.137   0.703  0.00  0.00     0.077 C 
ATOM      2  C1' PXY d   1       1.333  -0.816   4.098  0.00  0.00     0.077 C 
ATOM      3  C1  PXY d   1       2.549  -0.903   3.198  0.00  0.00    -0.082 A 
ATOM      4  C2  PXY d   1       3.727  -1.208   3.717  0.00  0.00     0.003 A 
ATOM      5  C3  PXY d   1       4.843  -1.259   2.922  0.00  0.00     0.003 A 
ATOM      6  C4  PXY d   1       4.743  -1.048   1.573  0.00  0.00    -0.082 A 
ATOM      7  C5  PXY d   1       3.542  -0.747   1.034  0.00  0.00     0.003 A 
ATOM      8  C6  PXY d   1       2.429  -0.659   1.864  0.00  0.00     0.003 A 
ENDROOT
TORSDOF 0
ENDMDL
