MODEL 1
REMARK minimizedAffinity 9.24619484
REMARK minimizedRMSD -1
REMARK  0 active torsions:
REMARK  status: ('A' for Active; 'I' for Inactive)
ROOT
ATOM      1  C4' PXY d   1      -5.246   4.512   6.000  0.00  0.00     0.077 C 
ATOM      2  C1' PXY d   1      -4.359  -0.638   3.528  0.00  0.00     0.077 C 
ATOM      3  C1  PXY d   1      -4.602   0.707   4.183  0.00  0.00    -0.082 A 
ATOM      4  C2  PXY d   1      -4.200   1.812   3.576  0.00  0.00     0.003 A 
ATOM      5  C3  PXY d   1      -4.383   3.035   4.169  0.00  0.00     0.003 A 
ATOM      6  C4  PXY d   1      -5.031   3.132   5.371  0.00  0.00    -0.082 A 
ATOM      7  C5  PXY d   1      -5.453   2.010   5.992  0.00  0.00     0.003 A 
ATOM      8  C6  PXY d   1      -5.221   0.776   5.393  0.00  0.00     0.003 A 
ENDROOT
TORSDOF 0
ENDMDL
