MODEL 1
REMARK minimizedAffinity 8.97284889
REMARK minimizedRMSD -1
REMARK  0 active torsions:
REMARK  status: ('A' for Active; 'I' for Inactive)
ROOT
ATOM      1  C4' PXY d   1       4.360   1.923  -1.001  0.00  0.00     0.077 C 
ATOM      2  C1' PXY d   1       1.007   0.010   3.301  0.00  0.00     0.077 C 
ATOM      3  C1  PXY d   1       1.895   0.503   2.176  0.00  0.00    -0.082 A 
ATOM      4  C2  PXY d   1       1.713   1.717   1.683  0.00  0.00     0.003 A 
ATOM      5  C3  PXY d   1       2.487   2.167   0.644  0.00  0.00     0.003 A 
ATOM      6  C4  PXY d   1       3.493   1.387   0.141  0.00  0.00    -0.082 A 
ATOM      7  C5  PXY d   1       3.692   0.151   0.646  0.00  0.00     0.003 A 
ATOM      8  C6  PXY d   1       2.869  -0.303   1.672  0.00  0.00     0.003 A 
ENDROOT
TORSDOF 0
ENDMDL
