MODEL 1
REMARK minimizedAffinity 9.63137722
REMARK minimizedRMSD -1
REMARK  0 active torsions:
REMARK  status: ('A' for Active; 'I' for Inactive)
ROOT
ATOM      1  C4' PXY d   1      -6.000  -1.736   5.653  0.00  0.00     0.077 C 
ATOM      2  C1' PXY d   1      -4.041   3.203   3.375  0.00  0.00     0.077 C 
ATOM      3  C1  PXY d   1      -4.555   1.913   3.985  0.00  0.00    -0.082 A 
ATOM      4  C2  PXY d   1      -4.312   0.762   3.380  0.00  0.00     0.003 A 
ATOM      5  C3  PXY d   1      -4.797  -0.411   3.900  0.00  0.00     0.003 A 
ATOM      6  C4  PXY d   1      -5.492  -0.410   5.079  0.00  0.00    -0.082 A 
ATOM      7  C5  PXY d   1      -5.735   0.760   5.708  0.00  0.00     0.003 A 
ATOM      8  C6  PXY d   1      -5.270   1.943   5.142  0.00  0.00     0.003 A 
ENDROOT
TORSDOF 0
ENDMDL
