MODEL 1
REMARK minimizedAffinity 9.65327263
REMARK minimizedRMSD -1
REMARK  0 active torsions:
REMARK  status: ('A' for Active; 'I' for Inactive)
ROOT
ATOM      1  C4' PXY d   1       4.019   1.093  -1.596  0.00  0.00     0.077 C 
ATOM      2  C1' PXY d   1       4.744  -1.651   3.440  0.00  0.00     0.077 C 
ATOM      3  C1  PXY d   1       4.541  -0.934   2.120  0.00  0.00    -0.082 A 
ATOM      4  C2  PXY d   1       5.538  -0.865   1.253  0.00  0.00     0.003 A 
ATOM      5  C3  PXY d   1       5.382  -0.192   0.069  0.00  0.00     0.003 A 
ATOM      6  C4  PXY d   1       4.176   0.370  -0.255  0.00  0.00    -0.082 A 
ATOM      7  C5  PXY d   1       3.150   0.295   0.620  0.00  0.00     0.003 A 
ATOM      8  C6  PXY d   1       3.342  -0.357   1.835  0.00  0.00     0.003 A 
ENDROOT
TORSDOF 0
ENDMDL
