MODEL 1
REMARK minimizedAffinity 16.0699253
REMARK minimizedRMSD -1
REMARK  0 active torsions:
REMARK  status: ('A' for Active; 'I' for Inactive)
ROOT
ATOM      1  C4' PXY d   1       1.011   1.930   0.937  0.00  0.00     0.077 C 
ATOM      2  C1' PXY d   1       5.925  -1.109   1.098  0.00  0.00     0.077 C 
ATOM      3  C1  PXY d   1       4.643  -0.301   1.052  0.00  0.00    -0.082 A 
ATOM      4  C2  PXY d   1       3.600  -0.689   1.768  0.00  0.00     0.003 A 
ATOM      5  C3  PXY d   1       2.423   0.012   1.714  0.00  0.00     0.003 A 
ATOM      6  C4  PXY d   1       2.328   1.151   0.960  0.00  0.00    -0.082 A 
ATOM      7  C5  PXY d   1       3.392   1.559   0.235  0.00  0.00     0.003 A 
ATOM      8  C6  PXY d   1       4.565   0.810   0.272  0.00  0.00     0.003 A 
ENDROOT
TORSDOF 0
ENDMDL
