MODEL 1
REMARK minimizedAffinity 18.5867558
REMARK minimizedRMSD -1
REMARK  0 active torsions:
REMARK  status: ('A' for Active; 'I' for Inactive)
ROOT
ATOM      1  C4' PXY d   1      -3.219  -2.129   0.446  0.00  0.00     0.077 C 
ATOM      2  C1' PXY d   1      -0.773  -2.357  -4.787  0.00  0.00     0.077 C 
ATOM      3  C1  PXY d   1      -1.426  -2.300  -3.420  0.00  0.00    -0.082 A 
ATOM      4  C2  PXY d   1      -0.884  -1.561  -2.466  0.00  0.00     0.003 A 
ATOM      5  C3  PXY d   1      -1.443  -1.524  -1.214  0.00  0.00     0.003 A 
ATOM      6  C4  PXY d   1      -2.599  -2.208  -0.952  0.00  0.00    -0.082 A 
ATOM      7  C5  PXY d   1      -3.165  -2.956  -1.923  0.00  0.00     0.003 A 
ATOM      8  C6  PXY d   1      -2.559  -3.014  -3.174  0.00  0.00     0.003 A 
ENDROOT
TORSDOF 0
ENDMDL
