MODEL 1
REMARK minimizedAffinity 6.54656076
REMARK minimizedRMSD -1
REMARK  0 active torsions:
REMARK  status: ('A' for Active; 'I' for Inactive)
ROOT
ATOM      1  C4' PXY d   1      -6.000  -1.070   5.997  0.00  0.00     0.077 C 
ATOM      2  C1' PXY d   1      -4.184   3.441   2.871  0.00  0.00     0.077 C 
ATOM      3  C1  PXY d   1      -4.664   2.252   3.680  0.00  0.00    -0.082 A 
ATOM      4  C2  PXY d   1      -5.003   2.418   4.948  0.00  0.00     0.003 A 
ATOM      5  C3  PXY d   1      -5.409   1.347   5.703  0.00  0.00     0.003 A 
ATOM      6  C4  PXY d   1      -5.519   0.104   5.139  0.00  0.00    -0.082 A 
ATOM      7  C5  PXY d   1      -5.185  -0.071   3.843  0.00  0.00     0.003 A 
ATOM      8  C6  PXY d   1      -4.736   1.021   3.105  0.00  0.00     0.003 A 
ENDROOT
TORSDOF 0
ENDMDL
