MODEL 1
REMARK minimizedAffinity 3.92000866
REMARK minimizedRMSD -1
REMARK  0 active torsions:
REMARK  status: ('A' for Active; 'I' for Inactive)
ROOT
ATOM      1  C4' PXY d   1      -4.126   4.719   6.000  0.00  0.00     0.077 C 
ATOM      2  C1' PXY d   1      -5.748  -0.393   3.843  0.00  0.00     0.077 C 
ATOM      3  C1  PXY d   1      -5.334   0.949   4.413  0.00  0.00    -0.082 A 
ATOM      4  C2  PXY d   1      -4.319   1.604   3.875  0.00  0.00     0.003 A 
ATOM      5  C3  PXY d   1      -3.911   2.804   4.398  0.00  0.00     0.003 A 
ATOM      6  C4  PXY d   1      -4.584   3.365   5.451  0.00  0.00    -0.082 A 
ATOM      7  C5  PXY d   1      -5.628   2.708   5.999  0.00  0.00     0.003 A 
ATOM      8  C6  PXY d   1      -6.000   1.471   5.479  0.00  0.00     0.003 A 
ENDROOT
TORSDOF 0
ENDMDL
