MODEL 1
REMARK minimizedAffinity 13.0706863
REMARK minimizedRMSD -1
REMARK  0 active torsions:
REMARK  status: ('A' for Active; 'I' for Inactive)
ROOT
ATOM      1  C4' PXY d   1      -0.785   2.583   3.809  0.00  0.00     0.077 C 
ATOM      2  C1' PXY d   1       3.373  -0.495   1.229  0.00  0.00     0.077 C 
ATOM      3  C1  PXY d   1       2.287   0.323   1.900  0.00  0.00    -0.082 A 
ATOM      4  C2  PXY d   1       1.692  -0.146   2.985  0.00  0.00     0.003 A 
ATOM      5  C3  PXY d   1       0.686   0.567   3.586  0.00  0.00     0.003 A 
ATOM      6  C4  PXY d   1       0.323   1.795   3.103  0.00  0.00    -0.082 A 
ATOM      7  C5  PXY d   1       0.934   2.285   2.004  0.00  0.00     0.003 A 
ATOM      8  C6  PXY d   1       1.924   1.528   1.384  0.00  0.00     0.003 A 
ENDROOT
TORSDOF 0
ENDMDL
