MODEL 1
REMARK minimizedAffinity 11.2409878
REMARK minimizedRMSD -1
REMARK  0 active torsions:
REMARK  status: ('A' for Active; 'I' for Inactive)
ROOT
ATOM      1  C4' PXY d   1      -3.644  -5.896  -0.641  0.00  0.00     0.077 C 
ATOM      2  C1' PXY d   1      -5.990  -2.110  -4.326  0.00  0.00     0.077 C 
ATOM      3  C1  PXY d   1      -5.363  -3.098  -3.362  0.00  0.00    -0.082 A 
ATOM      4  C2  PXY d   1      -6.000  -4.221  -3.069  0.00  0.00     0.003 A 
ATOM      5  C3  PXY d   1      -5.462  -5.110  -2.175  0.00  0.00     0.003 A 
ATOM      6  C4  PXY d   1      -4.235  -4.874  -1.616  0.00  0.00    -0.082 A 
ATOM      7  C5  PXY d   1      -3.574  -3.736  -1.917  0.00  0.00     0.003 A 
ATOM      8  C6  PXY d   1      -4.156  -2.827  -2.796  0.00  0.00     0.003 A 
ENDROOT
TORSDOF 0
ENDMDL
