MODEL 1
REMARK minimizedAffinity 2.72550631
REMARK minimizedRMSD -1
REMARK  0 active torsions:
REMARK  status: ('A' for Active; 'I' for Inactive)
ROOT
ATOM      1  C4' PXY d   1      -6.000   5.645   1.237  0.00  0.00     0.077 C 
ATOM      2  C1' PXY d   1      -1.755   6.000  -2.671  0.00  0.00     0.077 C 
ATOM      3  C1  PXY d   1      -2.876   5.913  -1.654  0.00  0.00    -0.082 A 
ATOM      4  C2  PXY d   1      -2.587   5.746  -0.374  0.00  0.00     0.003 A 
ATOM      5  C3  PXY d   1      -3.589   5.634   0.555  0.00  0.00     0.003 A 
ATOM      6  C4  PXY d   1      -4.900   5.747   0.177  0.00  0.00    -0.082 A 
ATOM      7  C5  PXY d   1      -5.203   5.928  -1.126  0.00  0.00     0.003 A 
ATOM      8  C6  PXY d   1      -4.173   5.999  -2.059  0.00  0.00     0.003 A 
ENDROOT
TORSDOF 0
ENDMDL
