MODEL 1
REMARK minimizedAffinity 21.6152763
REMARK minimizedRMSD -1
REMARK  0 active torsions:
REMARK  status: ('A' for Active; 'I' for Inactive)
ROOT
ATOM      1  C4' PXY d   1      -2.627  -2.060  -2.179  0.00  0.00     0.077 C 
ATOM      2  C1' PXY d   1       0.325  -5.903  -5.329  0.00  0.00     0.077 C 
ATOM      3  C1  PXY d   1      -0.441  -4.886  -4.506  0.00  0.00    -0.082 A 
ATOM      4  C2  PXY d   1      -1.210  -5.296  -3.511  0.00  0.00     0.003 A 
ATOM      5  C3  PXY d   1      -1.934  -4.392  -2.777  0.00  0.00     0.003 A 
ATOM      6  C4  PXY d   1      -1.829  -3.050  -3.030  0.00  0.00    -0.082 A 
ATOM      7  C5  PXY d   1      -1.037  -2.624  -4.037  0.00  0.00     0.003 A 
ATOM      8  C6  PXY d   1      -0.342  -3.561  -4.797  0.00  0.00     0.003 A 
ENDROOT
TORSDOF 0
ENDMDL
