MODEL 1
REMARK minimizedAffinity 0.313188732
REMARK minimizedRMSD -1
REMARK  0 active torsions:
REMARK  status: ('A' for Active; 'I' for Inactive)
ROOT
ATOM      1  C4' PXY d   1      -5.247   3.415   5.999  0.00  0.00     0.077 C 
ATOM      2  C1' PXY d   1      -4.422  -1.004   2.366  0.00  0.00     0.077 C 
ATOM      3  C1  PXY d   1      -4.650   0.150   3.322  0.00  0.00    -0.082 A 
ATOM      4  C2  PXY d   1      -3.963   1.271   3.170  0.00  0.00     0.003 A 
ATOM      5  C3  PXY d   1      -4.134   2.313   4.044  0.00  0.00     0.003 A 
ATOM      6  C4  PXY d   1      -5.056   2.227   5.053  0.00  0.00    -0.082 A 
ATOM      7  C5  PXY d   1      -5.769   1.091   5.208  0.00  0.00     0.003 A 
ATOM      8  C6  PXY d   1      -5.551   0.030   4.334  0.00  0.00     0.003 A 
ENDROOT
TORSDOF 0
ENDMDL
