MODEL 1
REMARK minimizedAffinity 11.3150826
REMARK minimizedRMSD -1
REMARK  0 active torsions:
REMARK  status: ('A' for Active; 'I' for Inactive)
ROOT
ATOM      1  C4' PXY d   1      -4.148  -0.639   2.355  0.00  0.00     0.077 C 
ATOM      2  C1' PXY d   1      -4.582   3.826   6.000  0.00  0.00     0.077 C 
ATOM      3  C1  PXY d   1      -4.469   2.647   5.054  0.00  0.00    -0.082 A 
ATOM      4  C2  PXY d   1      -3.837   2.791   3.901  0.00  0.00     0.003 A 
ATOM      5  C3  PXY d   1      -3.754   1.744   3.019  0.00  0.00     0.003 A 
ATOM      6  C4  PXY d   1      -4.278   0.521   3.345  0.00  0.00    -0.082 A 
ATOM      7  C5  PXY d   1      -4.915   0.363   4.524  0.00  0.00     0.003 A 
ATOM      8  C6  PXY d   1      -5.024   1.450   5.387  0.00  0.00     0.003 A 
ENDROOT
TORSDOF 0
ENDMDL
