MODEL 1
REMARK minimizedAffinity 17.8382072
REMARK minimizedRMSD -1
REMARK  0 active torsions:
REMARK  status: ('A' for Active; 'I' for Inactive)
ROOT
ATOM      1  C4' PXY d   1       3.571  -0.447   0.815  0.00  0.00     0.077 C 
ATOM      2  C1' PXY d   1      -0.753   1.883   3.862  0.00  0.00     0.077 C 
ATOM      3  C1  PXY d   1       0.380   1.282   3.054  0.00  0.00    -0.082 A 
ATOM      4  C2  PXY d   1       0.650  -0.009   3.166  0.00  0.00     0.003 A 
ATOM      5  C3  PXY d   1       1.691  -0.563   2.467  0.00  0.00     0.003 A 
ATOM      6  C4  PXY d   1       2.431   0.201   1.604  0.00  0.00    -0.082 A 
ATOM      7  C5  PXY d   1       2.155   1.516   1.476  0.00  0.00     0.003 A 
ATOM      8  C6  PXY d   1       1.120   2.068   2.226  0.00  0.00     0.003 A 
ENDROOT
TORSDOF 0
ENDMDL
