MODEL 1
REMARK minimizedAffinity 6.42334986
REMARK minimizedRMSD -1
REMARK  0 active torsions:
REMARK  status: ('A' for Active; 'I' for Inactive)
ROOT
ATOM      1  C4' PXY d   1       1.887   4.817  -5.998  0.00  0.00     0.077 C 
ATOM      2  C1' PXY d   1       4.804   1.997  -1.880  0.00  0.00     0.077 C 
ATOM      3  C1  PXY d   1       4.047   2.731  -2.969  0.00  0.00    -0.082 A 
ATOM      4  C2  PXY d   1       3.390   3.841  -2.674  0.00  0.00     0.003 A 
ATOM      5  C3  PXY d   1       2.674   4.500  -3.640  0.00  0.00     0.003 A 
ATOM      6  C4  PXY d   1       2.673   4.047  -4.932  0.00  0.00    -0.082 A 
ATOM      7  C5  PXY d   1       3.350   2.922  -5.243  0.00  0.00     0.003 A 
ATOM      8  C6  PXY d   1       4.037   2.244  -4.240  0.00  0.00     0.003 A 
ENDROOT
TORSDOF 0
ENDMDL
