MODEL 1
REMARK minimizedAffinity 11.6648188
REMARK minimizedRMSD -1
REMARK  0 active torsions:
REMARK  status: ('A' for Active; 'I' for Inactive)
ROOT
ATOM      1  C   UNL d   1       6.000   1.122   1.097  0.00  0.00     0.020 A 
ATOM      2  C1  UNL d   1       5.758   2.278   1.838  0.00  0.00     0.020 A 
ATOM      3  C2  UNL d   1       4.452   2.617   2.196  0.00  0.00     0.034 A 
ATOM      4  C3  UNL d   1       3.382   1.801   1.811  0.00  0.00     0.017 A 
ATOM      5  C4  UNL d   1       3.625   0.641   1.067  0.00  0.00     0.017 A 
ATOM      6  C5  UNL d   1       4.936   0.305   0.712  0.00  0.00     0.034 A 
ATOM      7 Cl   UNL d   1       2.357  -0.416   0.557  0.00  0.00    -0.070 Cl
ATOM      8 Cl1  UNL d   1       1.792   2.282   2.288  0.00  0.00    -0.070 Cl
ENDROOT
TORSDOF 0
ENDMDL
