MODEL 1
REMARK minimizedAffinity 7.4765029
REMARK minimizedRMSD -1
REMARK  0 active torsions:
REMARK  status: ('A' for Active; 'I' for Inactive)
ROOT
ATOM      1  C   UNL d   1      -1.136   1.195  -2.229  0.00  0.00     0.020 A 
ATOM      2  C1  UNL d   1      -2.531   1.194  -2.228  0.00  0.00     0.020 A 
ATOM      3  C2  UNL d   1      -3.230   1.491  -3.399  0.00  0.00     0.034 A 
ATOM      4  C3  UNL d   1      -2.535   1.790  -4.577  0.00  0.00     0.017 A 
ATOM      5  C4  UNL d   1      -1.136   1.790  -4.577  0.00  0.00     0.017 A 
ATOM      6  C5  UNL d   1      -0.440   1.492  -3.401  0.00  0.00     0.034 A 
ATOM      7 Cl   UNL d   1      -0.209   2.148  -5.991  0.00  0.00    -0.070 Cl
ATOM      8 Cl1  UNL d   1      -3.464   2.147  -5.989  0.00  0.00    -0.070 Cl
ENDROOT
TORSDOF 0
ENDMDL
