MODEL 1
REMARK minimizedAffinity 3.59814167
REMARK minimizedRMSD -1
REMARK  0 active torsions:
REMARK  status: ('A' for Active; 'I' for Inactive)
ROOT
ATOM      1  C   UNL d   1       5.936   2.497   1.862  0.00  0.00     0.020 A 
ATOM      2  C1  UNL d   1       6.000   1.304   1.144  0.00  0.00     0.020 A 
ATOM      3  C2  UNL d   1       4.828   0.606   0.844  0.00  0.00     0.034 A 
ATOM      4  C3  UNL d   1       3.587   1.102   1.261  0.00  0.00     0.017 A 
ATOM      5  C4  UNL d   1       3.524   2.300   1.982  0.00  0.00     0.017 A 
ATOM      6  C5  UNL d   1       4.701   2.994   2.280  0.00  0.00     0.034 A 
ATOM      7 Cl   UNL d   1       2.030   2.973   2.531  0.00  0.00    -0.070 Cl
ATOM      8 Cl1  UNL d   1       2.179   0.187   0.854  0.00  0.00    -0.070 Cl
ENDROOT
TORSDOF 0
ENDMDL
