MODEL 1
REMARK minimizedAffinity 4.5534687
REMARK minimizedRMSD -1
REMARK  0 active torsions:
REMARK  status: ('A' for Active; 'I' for Inactive)
ROOT
ATOM      1  C   UNL d   1       1.876  -4.522   1.610  0.00  0.00     0.020 A 
ATOM      2  C1  UNL d   1       2.303  -3.195   1.619  0.00  0.00     0.020 A 
ATOM      3  C2  UNL d   1       1.469  -2.197   2.128  0.00  0.00     0.034 A 
ATOM      4  C3  UNL d   1       0.205  -2.524   2.631  0.00  0.00     0.017 A 
ATOM      5  C4  UNL d   1      -0.223  -3.857   2.622  0.00  0.00     0.017 A 
ATOM      6  C5  UNL d   1       0.616  -4.852   2.110  0.00  0.00     0.034 A 
ATOM      7 Cl   UNL d   1      -1.769  -4.338   3.225  0.00  0.00    -0.070 Cl
ATOM      8 Cl1  UNL d   1      -0.773  -1.239   3.246  0.00  0.00    -0.070 Cl
ENDROOT
TORSDOF 0
ENDMDL
