MODEL 1
REMARK minimizedAffinity 11.2181702
REMARK minimizedRMSD -1
REMARK  0 active torsions:
REMARK  status: ('A' for Active; 'I' for Inactive)
ROOT
ATOM      1  C   UNL d   1       1.036  -1.373   2.357  0.00  0.00     0.020 A 
ATOM      2  C1  UNL d   1       0.776  -1.842   1.070  0.00  0.00     0.020 A 
ATOM      3  C2  UNL d   1       1.373  -3.023   0.624  0.00  0.00     0.034 A 
ATOM      4  C3  UNL d   1       2.232  -3.739   1.466  0.00  0.00     0.017 A 
ATOM      5  C4  UNL d   1       2.492  -3.268   2.757  0.00  0.00     0.017 A 
ATOM      6  C5  UNL d   1       1.892  -2.084   3.199  0.00  0.00     0.034 A 
ATOM      7 Cl   UNL d   1       3.541  -4.096   3.853  0.00  0.00    -0.070 Cl
ATOM      8 Cl1  UNL d   1       2.934  -5.192   0.848  0.00  0.00    -0.070 Cl
ENDROOT
TORSDOF 0
ENDMDL
