MODEL 1
REMARK minimizedAffinity 1.5386976
REMARK minimizedRMSD -1
REMARK  0 active torsions:
REMARK  status: ('A' for Active; 'I' for Inactive)
ROOT
ATOM      1  C   UNL d   1       2.952   2.270   0.478  0.00  0.00     0.020 A 
ATOM      2  C1  UNL d   1       3.216   0.922   0.715  0.00  0.00     0.020 A 
ATOM      3  C2  UNL d   1       2.386  -0.059   0.168  0.00  0.00     0.034 A 
ATOM      4  C3  UNL d   1       1.288   0.308  -0.619  0.00  0.00     0.017 A 
ATOM      5  C4  UNL d   1       1.023   1.661  -0.856  0.00  0.00     0.017 A 
ATOM      6  C5  UNL d   1       1.858   2.639  -0.305  0.00  0.00     0.034 A 
ATOM      7 Cl   UNL d   1      -0.313   2.191  -1.815  0.00  0.00    -0.070 Cl
ATOM      8 Cl1  UNL d   1       0.304  -0.958  -1.263  0.00  0.00    -0.070 Cl
ENDROOT
TORSDOF 0
ENDMDL
