MODEL 1
REMARK minimizedAffinity 3.70007539
REMARK minimizedRMSD -1
REMARK  0 active torsions:
REMARK  status: ('A' for Active; 'I' for Inactive)
ROOT
ATOM      1  C   UNL d   1       5.999   2.053   1.868  0.00  0.00     0.020 A 
ATOM      2  C1  UNL d   1       5.999   0.889   1.101  0.00  0.00     0.020 A 
ATOM      3  C2  UNL d   1       4.790   0.294   0.734  0.00  0.00     0.034 A 
ATOM      4  C3  UNL d   1       3.576   0.862   1.135  0.00  0.00     0.017 A 
ATOM      5  C4  UNL d   1       3.576   2.031   1.906  0.00  0.00     0.017 A 
ATOM      6  C5  UNL d   1       4.790   2.622   2.270  0.00  0.00     0.034 A 
ATOM      7 Cl   UNL d   1       2.118   2.791   2.438  0.00  0.00    -0.070 Cl
ATOM      8 Cl1  UNL d   1       2.118   0.074   0.646  0.00  0.00    -0.070 Cl
ENDROOT
TORSDOF 0
ENDMDL
