MODEL 1
REMARK minimizedAffinity 5.16534472
REMARK minimizedRMSD -1
REMARK  0 active torsions:
REMARK  status: ('A' for Active; 'I' for Inactive)
ROOT
ATOM      1  C   UNL d   1       2.702  -4.164   1.262  0.00  0.00     0.020 A 
ATOM      2  C1  UNL d   1       2.256  -4.126   2.582  0.00  0.00     0.020 A 
ATOM      3  C2  UNL d   1       1.385  -3.116   2.996  0.00  0.00     0.034 A 
ATOM      4  C3  UNL d   1       0.956  -2.141   2.089  0.00  0.00     0.017 A 
ATOM      5  C4  UNL d   1       1.404  -2.180   0.763  0.00  0.00     0.017 A 
ATOM      6  C5  UNL d   1       2.277  -3.193   0.354  0.00  0.00     0.034 A 
ATOM      7 Cl   UNL d   1       0.919  -1.011  -0.414  0.00  0.00    -0.070 Cl
ATOM      8 Cl1  UNL d   1      -0.122  -0.922   2.669  0.00  0.00    -0.070 Cl
ENDROOT
TORSDOF 0
ENDMDL
