MODEL 1
REMARK minimizedAffinity 0.981953681
REMARK minimizedRMSD -1
REMARK  0 active torsions:
REMARK  status: ('A' for Active; 'I' for Inactive)
ROOT
ATOM      1  C   UNL d   1       5.994   1.599  -3.593  0.00  0.00     0.020 A 
ATOM      2  C1  UNL d   1       5.983   0.207  -3.669  0.00  0.00     0.020 A 
ATOM      3  C2  UNL d   1       5.976  -0.556  -2.500  0.00  0.00     0.034 A 
ATOM      4  C3  UNL d   1       5.981   0.073  -1.249  0.00  0.00     0.017 A 
ATOM      5  C4  UNL d   1       5.992   1.470  -1.174  0.00  0.00     0.017 A 
ATOM      6  C5  UNL d   1       5.999   2.229  -2.348  0.00  0.00     0.034 A 
ATOM      7 Cl   UNL d   1       5.999   2.317   0.332  0.00  0.00    -0.070 Cl
ATOM      8 Cl1  UNL d   1       5.971  -0.933   0.156  0.00  0.00    -0.070 Cl
ENDROOT
TORSDOF 0
ENDMDL
