MODEL 1
REMARK minimizedAffinity 2.48906517
REMARK minimizedRMSD -1
REMARK  0 active torsions:
REMARK  status: ('A' for Active; 'I' for Inactive)
ROOT
ATOM      1  C   UNL d   1       5.991   0.328  -3.406  0.00  0.00     0.020 A 
ATOM      2  C1  UNL d   1       5.991   1.723  -3.401  0.00  0.00     0.020 A 
ATOM      3  C2  UNL d   1       5.994   2.417  -2.190  0.00  0.00     0.034 A 
ATOM      4  C3  UNL d   1       5.996   1.717  -0.978  0.00  0.00     0.017 A 
ATOM      5  C4  UNL d   1       5.996   0.318  -0.983  0.00  0.00     0.017 A 
ATOM      6  C5  UNL d   1       5.993  -0.372  -2.199  0.00  0.00     0.034 A 
ATOM      7 Cl   UNL d   1       5.998  -0.615   0.472  0.00  0.00    -0.070 Cl
ATOM      8 Cl1  UNL d   1       6.000   2.641   0.483  0.00  0.00    -0.070 Cl
ENDROOT
TORSDOF 0
ENDMDL
