MODEL 1
REMARK minimizedAffinity -0.680011272
REMARK minimizedRMSD -1
REMARK  0 active torsions:
REMARK  status: ('A' for Active; 'I' for Inactive)
ROOT
ATOM      1  C   UNL d   1       5.995   0.423  -3.061  0.00  0.00     0.020 A 
ATOM      2  C1  UNL d   1       5.998   1.801  -2.845  0.00  0.00     0.020 A 
ATOM      3  C2  UNL d   1       5.998   2.303  -1.542  0.00  0.00     0.034 A 
ATOM      4  C3  UNL d   1       5.995   1.428  -0.450  0.00  0.00     0.017 A 
ATOM      5  C4  UNL d   1       5.993   0.045  -0.668  0.00  0.00     0.017 A 
ATOM      6  C5  UNL d   1       5.993  -0.453  -1.974  0.00  0.00     0.034 A 
ATOM      7 Cl   UNL d   1       5.990  -1.098   0.629  0.00  0.00    -0.070 Cl
ATOM      8 Cl1  UNL d   1       5.996   2.118   1.134  0.00  0.00    -0.070 Cl
ENDROOT
TORSDOF 0
ENDMDL
