MODEL 1
REMARK minimizedAffinity -5.17122555
REMARK minimizedRMSD -1
REMARK  0 active torsions:
REMARK  status: ('A' for Active; 'I' for Inactive)
ROOT
ATOM      1  C1  BNZ d   1      -1.086   0.087  -0.590  0.00  0.00     0.000 A 
ATOM      2  C2  BNZ d   1      -2.374  -0.330  -0.798  0.00  0.00     0.000 A 
ATOM      3  C3  BNZ d   1      -2.956  -1.246   0.033  0.00  0.00     0.000 A 
ATOM      4  C4  BNZ d   1      -2.237  -1.773   1.045  0.00  0.00     0.000 A 
ATOM      5  C5  BNZ d   1      -0.935  -1.369   1.263  0.00  0.00     0.000 A 
ATOM      6  C6  BNZ d   1      -0.365  -0.418   0.448  0.00  0.00     0.000 A 
ENDROOT
TORSDOF 0
ENDMDL
