MODEL 1
REMARK minimizedAffinity -4.03199911
REMARK minimizedRMSD -1
REMARK  0 active torsions:
REMARK  status: ('A' for Active; 'I' for Inactive)
ROOT
ATOM      1  C1  BNZ d   1       2.128   0.750   0.317  0.00  0.00     0.000 A 
ATOM      2  C2  BNZ d   1       3.042   1.704   0.677  0.00  0.00     0.000 A 
ATOM      3  C3  BNZ d   1       2.640   2.878   1.250  0.00  0.00     0.000 A 
ATOM      4  C4  BNZ d   1       1.323   3.113   1.425  0.00  0.00     0.000 A 
ATOM      5  C5  BNZ d   1       0.389   2.165   1.059  0.00  0.00     0.000 A 
ATOM      6  C6  BNZ d   1       0.800   0.969   0.518  0.00  0.00     0.000 A 
ENDROOT
TORSDOF 0
ENDMDL
