MODEL 1
REMARK minimizedAffinity -5.47974253
REMARK minimizedRMSD -1
REMARK  0 active torsions:
REMARK  status: ('A' for Active; 'I' for Inactive)
ROOT
ATOM      1  C1  BNZ d   1      -2.268  -2.483   0.999  0.00  0.00     0.000 A 
ATOM      2  C2  BNZ d   1      -0.975  -2.196   1.347  0.00  0.00     0.000 A 
ATOM      3  C3  BNZ d   1      -0.354  -1.077   0.866  0.00  0.00     0.000 A 
ATOM      4  C4  BNZ d   1      -1.011  -0.270   0.009  0.00  0.00     0.000 A 
ATOM      5  C5  BNZ d   1      -2.312  -0.551  -0.358  0.00  0.00     0.000 A 
ATOM      6  C6  BNZ d   1      -2.948  -1.657   0.158  0.00  0.00     0.000 A 
ENDROOT
TORSDOF 0
ENDMDL
