MODEL 1
REMARK minimizedAffinity -3.31823993
REMARK minimizedRMSD -1
REMARK  0 active torsions:
REMARK  status: ('A' for Active; 'I' for Inactive)
ROOT
ATOM      1  C1  BNZ d   1       0.024   1.042  -0.213  0.00  0.00     0.000 A 
ATOM      2  C2  BNZ d   1      -1.081   0.319   0.151  0.00  0.00     0.000 A 
ATOM      3  C3  BNZ d   1      -0.953  -0.876   0.802  0.00  0.00     0.000 A 
ATOM      4  C4  BNZ d   1       0.279  -1.365   1.053  0.00  0.00     0.000 A 
ATOM      5  C5  BNZ d   1       1.403  -0.653   0.684  0.00  0.00     0.000 A 
ATOM      6  C6  BNZ d   1       1.269   0.568   0.064  0.00  0.00     0.000 A 
ENDROOT
TORSDOF 0
ENDMDL
