MODEL 1
REMARK minimizedAffinity -4.2772665
REMARK minimizedRMSD -1
REMARK  0 active torsions:
REMARK  status: ('A' for Active; 'I' for Inactive)
ROOT
ATOM      1  C1  BNZ d   1      -1.958  -0.084  -1.077  0.00  0.00     0.000 A 
ATOM      2  C2  BNZ d   1      -0.697   0.091  -1.581  0.00  0.00     0.000 A 
ATOM      3  C3  BNZ d   1       0.403  -0.064  -0.785  0.00  0.00     0.000 A 
ATOM      4  C4  BNZ d   1       0.240  -0.354   0.522  0.00  0.00     0.000 A 
ATOM      5  C5  BNZ d   1      -1.025  -0.524   1.048  0.00  0.00     0.000 A 
ATOM      6  C6  BNZ d   1      -2.129  -0.406   0.235  0.00  0.00     0.000 A 
ENDROOT
TORSDOF 0
ENDMDL
