MODEL 1
REMARK minimizedAffinity -2.27590299
REMARK minimizedRMSD -1
REMARK  0 active torsions:
REMARK  status: ('A' for Active; 'I' for Inactive)
ROOT
ATOM      1  C1  BNZ d   1       2.357   3.857   0.756  0.00  0.00     0.000 A 
ATOM      2  C2  BNZ d   1       1.674   3.060  -0.123  0.00  0.00     0.000 A 
ATOM      3  C3  BNZ d   1       1.775   1.699  -0.057  0.00  0.00     0.000 A 
ATOM      4  C4  BNZ d   1       2.590   1.138   0.860  0.00  0.00     0.000 A 
ATOM      5  C5  BNZ d   1       3.293   1.928   1.747  0.00  0.00     0.000 A 
ATOM      6  C6  BNZ d   1       3.158   3.297   1.703  0.00  0.00     0.000 A 
ENDROOT
TORSDOF 0
ENDMDL
