MODEL 1
REMARK minimizedAffinity -4.59787989
REMARK minimizedRMSD -1
REMARK  0 active torsions:
REMARK  status: ('A' for Active; 'I' for Inactive)
ROOT
ATOM      1  C1  BNZ d   1      -0.002  -0.365  -0.089  0.00  0.00     0.000 A 
ATOM      2  C2  BNZ d   1      -0.173  -1.441   0.740  0.00  0.00     0.000 A 
ATOM      3  C3  BNZ d   1      -1.312  -2.195   0.683  0.00  0.00     0.000 A 
ATOM      4  C4  BNZ d   1      -2.293  -1.849  -0.175  0.00  0.00     0.000 A 
ATOM      5  C5  BNZ d   1      -2.139  -0.762  -1.012  0.00  0.00     0.000 A 
ATOM      6  C6  BNZ d   1      -0.976  -0.028  -0.978  0.00  0.00     0.000 A 
ENDROOT
TORSDOF 0
ENDMDL
