MODEL 1
REMARK minimizedAffinity -4.69230413
REMARK minimizedRMSD -1
REMARK  0 active torsions:
REMARK  status: ('A' for Active; 'I' for Inactive)
ROOT
ATOM      1  C1  BNZ d   1      -0.695  -1.045   1.105  0.00  0.00     0.000 A 
ATOM      2  C2  BNZ d   1      -1.637  -0.814   0.137  0.00  0.00     0.000 A 
ATOM      3  C3  BNZ d   1      -2.681  -1.678  -0.044  0.00  0.00     0.000 A 
ATOM      4  C4  BNZ d   1      -2.760  -2.790   0.714  0.00  0.00     0.000 A 
ATOM      5  C5  BNZ d   1      -1.814  -3.042   1.688  0.00  0.00     0.000 A 
ATOM      6  C6  BNZ d   1      -0.786  -2.151   1.894  0.00  0.00     0.000 A 
ENDROOT
TORSDOF 0
ENDMDL
