MODEL 1
REMARK minimizedAffinity -0.764160216
REMARK minimizedRMSD -1
REMARK  0 active torsions:
REMARK  status: ('A' for Active; 'I' for Inactive)
ROOT
ATOM      1  C1  BNZ d   1       3.239   3.610  -0.060  0.00  0.00     0.000 A 
ATOM      2  C2  BNZ d   1       3.049   3.990   1.242  0.00  0.00     0.000 A 
ATOM      3  C3  BNZ d   1       2.567   3.105   2.166  0.00  0.00     0.000 A 
ATOM      4  C4  BNZ d   1       2.240   1.855   1.780  0.00  0.00     0.000 A 
ATOM      5  C5  BNZ d   1       2.418   1.460   0.469  0.00  0.00     0.000 A 
ATOM      6  C6  BNZ d   1       2.939   2.342  -0.450  0.00  0.00     0.000 A 
ENDROOT
TORSDOF 0
ENDMDL
