MODEL 1
REMARK minimizedAffinity -3.88731956
REMARK minimizedRMSD -1
REMARK  0 active torsions:
REMARK  status: ('A' for Active; 'I' for Inactive)
ROOT
ATOM      1  C1  BNZ d   1      -0.037  -0.206   0.519  0.00  0.00     0.000 A 
ATOM      2  C2  BNZ d   1      -1.349  -0.398   0.861  0.00  0.00     0.000 A 
ATOM      3  C3  BNZ d   1      -2.323  -0.444  -0.097  0.00  0.00     0.000 A 
ATOM      4  C4  BNZ d   1      -1.989  -0.258  -1.390  0.00  0.00     0.000 A 
ATOM      5  C5  BNZ d   1      -0.672  -0.055  -1.751  0.00  0.00     0.000 A 
ATOM      6  C6  BNZ d   1       0.310  -0.048  -0.787  0.00  0.00     0.000 A 
ENDROOT
TORSDOF 0
ENDMDL
