MODEL 1
REMARK minimizedAffinity -4.8330822
REMARK minimizedRMSD -1
REMARK  0 active torsions:
REMARK  status: ('A' for Active; 'I' for Inactive)
ROOT
ATOM      1  C1  BNZ d   1      -2.130  -0.137  -0.831  0.00  0.00     0.000 A 
ATOM      2  C2  BNZ d   1      -0.914   0.404  -1.151  0.00  0.00     0.000 A 
ATOM      3  C3  BNZ d   1       0.152   0.280  -0.303  0.00  0.00     0.000 A 
ATOM      4  C4  BNZ d   1      -0.011  -0.349   0.878  0.00  0.00     0.000 A 
ATOM      5  C5  BNZ d   1      -1.233  -0.892   1.219  0.00  0.00     0.000 A 
ATOM      6  C6  BNZ d   1      -2.294  -0.799   0.347  0.00  0.00     0.000 A 
ENDROOT
TORSDOF 0
ENDMDL
