MODEL 1
REMARK minimizedAffinity -5.06204367
REMARK minimizedRMSD -1
REMARK  0 active torsions:
REMARK  status: ('A' for Active; 'I' for Inactive)
ROOT
ATOM      1  C1  BNZ d   1      -0.501   0.134  -1.593  0.00  0.00     0.000 A 
ATOM      2  C2  BNZ d   1      -1.864   0.003  -1.622  0.00  0.00     0.000 A 
ATOM      3  C3  BNZ d   1      -2.560  -0.322  -0.491  0.00  0.00     0.000 A 
ATOM      4  C4  BNZ d   1      -1.890  -0.553   0.656  0.00  0.00     0.000 A 
ATOM      5  C5  BNZ d   1      -0.516  -0.433   0.700  0.00  0.00     0.000 A 
ATOM      6  C6  BNZ d   1       0.178  -0.068  -0.431  0.00  0.00     0.000 A 
ENDROOT
TORSDOF 0
ENDMDL
