MODEL 1
REMARK minimizedAffinity 5.09702778
REMARK minimizedRMSD -1
REMARK  2 active torsions:
REMARK  status: ('A' for Active; 'I' for Inactive)
REMARK    1  A    between atoms: C2'_3  and  C1'_4 
REMARK    2  A    between atoms: C1'_4  and  C1_5 
ROOT
ATOM      1  C1  I4B d   1       1.337   0.865   1.212  0.00  0.00    -0.075 A 
ATOM      2  C2  I4B d   1       1.087   1.584   0.070  0.00  0.00     0.003 A 
ATOM      3  C3  I4B d   1      -0.142   2.270  -0.086  0.00  0.00     0.002 A 
ATOM      4  C4  I4B d   1      -1.106   2.169   0.896  0.00  0.00    -0.004 A 
ATOM      5  C5  I4B d   1      -0.842   1.458   2.063  0.00  0.00     0.002 A 
ATOM      6  C6  I4B d   1       0.391   0.812   2.228  0.00  0.00     0.003 A 
ENDROOT
BRANCH   1   7
ATOM      7  C1' I4B d   1       2.632   0.126   1.329  0.00  0.00     0.060 C 
BRANCH   7   8
ATOM      8  C2' I4B d   1       2.377  -1.323   0.966  0.00  0.00    -0.013 C 
ATOM      9  C4' I4B d   1       3.131  -1.714  -0.278  0.00  0.00     0.013 C 
ATOM     10  C3' I4B d   1       2.783  -2.171   2.134  0.00  0.00     0.013 C 
ENDBRANCH   7   8
ENDBRANCH   1   7
TORSDOF 2
ENDMDL
