MODEL 1
REMARK minimizedAffinity 0.0606591031
REMARK minimizedRMSD -1
REMARK  2 active torsions:
REMARK  status: ('A' for Active; 'I' for Inactive)
REMARK    1  A    between atoms: C2'_3  and  C1'_4 
REMARK    2  A    between atoms: C1'_4  and  C1_5 
ROOT
ATOM      1  C1  I4B d   1       1.086   0.736  -0.310  0.00  0.00    -0.075 A 
ATOM      2  C2  I4B d   1       1.986   1.378   0.503  0.00  0.00     0.003 A 
ATOM      3  C3  I4B d   1       3.195   0.738   0.872  0.00  0.00     0.002 A 
ATOM      4  C4  I4B d   1       3.437  -0.553   0.450  0.00  0.00    -0.004 A 
ATOM      5  C5  I4B d   1       2.534  -1.193  -0.393  0.00  0.00     0.002 A 
ATOM      6  C6  I4B d   1       1.356  -0.541  -0.786  0.00  0.00     0.003 A 
ENDROOT
BRANCH   1   7
ATOM      7  C1' I4B d   1      -0.195   1.428  -0.654  0.00  0.00     0.060 C 
BRANCH   7   8
ATOM      8  C2' I4B d   1      -0.961   0.541  -1.615  0.00  0.00    -0.013 C 
ATOM      9  C4' I4B d   1      -2.344   0.243  -1.097  0.00  0.00     0.013 C 
ATOM     10  C3' I4B d   1      -1.018   1.237  -2.942  0.00  0.00     0.013 C 
ENDBRANCH   7   8
ENDBRANCH   1   7
TORSDOF 2
ENDMDL
