MODEL 1
REMARK minimizedAffinity 3.28955269
REMARK minimizedRMSD -1
REMARK  2 active torsions:
REMARK  status: ('A' for Active; 'I' for Inactive)
REMARK    1  A    between atoms: C2'_3  and  C1'_4 
REMARK    2  A    between atoms: C1'_4  and  C1_5 
ROOT
ATOM      1  C1  I4B d   1       2.949  -0.078  -0.121  0.00  0.00    -0.075 A 
ATOM      2  C2  I4B d   1       1.770   0.595   0.081  0.00  0.00     0.003 A 
ATOM      3  C3  I4B d   1       1.773   1.998   0.273  0.00  0.00     0.002 A 
ATOM      4  C4  I4B d   1       2.975   2.676   0.306  0.00  0.00    -0.004 A 
ATOM      5  C5  I4B d   1       4.167   1.996   0.078  0.00  0.00     0.002 A 
ATOM      6  C6  I4B d   1       4.154   0.612  -0.149  0.00  0.00     0.003 A 
ENDROOT
BRANCH   1   7
ATOM      7  C1' I4B d   1       2.911  -1.564  -0.288  0.00  0.00     0.060 C 
BRANCH   7   8
ATOM      8  C2' I4B d   1       1.984  -2.129   0.768  0.00  0.00    -0.013 C 
ATOM      9  C4' I4B d   1       1.316  -3.391   0.289  0.00  0.00     0.013 C 
ATOM     10  C3' I4B d   1       2.791  -2.380   2.007  0.00  0.00     0.013 C 
ENDBRANCH   7   8
ENDBRANCH   1   7
TORSDOF 2
ENDMDL
