MODEL 1
REMARK minimizedAffinity -4.68266058
REMARK minimizedRMSD -1
REMARK  1 active torsions:
REMARK  status: ('A' for Active; 'I' for Inactive)
REMARK    1  A    between atoms: C1_2  and  C2_3 
ROOT
ATOM      1  C2  UNL d   1      -0.374   0.267   1.341  0.00  0.00    -0.077 A 
ATOM      2  C3  UNL d   1      -1.290  -0.140   0.360  0.00  0.00     0.002 A 
ATOM      3  C4  UNL d   1      -0.874  -0.943  -0.704  0.00  0.00     0.002 A 
ATOM      4  C5  UNL d   1       0.455  -1.349  -0.795  0.00  0.00    -0.004 A 
ATOM      5  C6  UNL d   1       1.373  -0.948   0.175  0.00  0.00     0.002 A 
ATOM      6  C7  UNL d   1       0.961  -0.145   1.238  0.00  0.00     0.002 A 
ENDROOT
BRANCH   1   7
ATOM      7  C1  UNL d   1      -0.831   1.092   2.516  0.00  0.00     0.055 C 
ATOM      8  C   UNL d   1      -1.155   0.214   3.716  0.00  0.00     0.019 C 
ENDBRANCH   1   7
TORSDOF 1
ENDMDL
