MODEL 1
REMARK minimizedAffinity -6.07399225
REMARK minimizedRMSD -1
REMARK  1 active torsions:
REMARK  status: ('A' for Active; 'I' for Inactive)
REMARK    1  A    between atoms: C1_2  and  C2_3 
ROOT
ATOM      1  C2  UNL d   1       0.649   0.313   1.026  0.00  0.00    -0.077 A 
ATOM      2  C3  UNL d   1      -0.563   0.854   1.479  0.00  0.00     0.002 A 
ATOM      3  C4  UNL d   1      -0.808   0.990   2.847  0.00  0.00     0.002 A 
ATOM      4  C5  UNL d   1       0.155   0.593   3.772  0.00  0.00    -0.004 A 
ATOM      5  C6  UNL d   1       1.363   0.053   3.332  0.00  0.00     0.002 A 
ATOM      6  C7  UNL d   1       1.609  -0.086   1.965  0.00  0.00     0.002 A 
ENDROOT
BRANCH   1   7
ATOM      7  C1  UNL d   1       0.936   0.211  -0.449  0.00  0.00     0.055 C 
ATOM      8  C   UNL d   1       1.098  -1.239  -0.882  0.00  0.00     0.019 C 
ENDBRANCH   1   7
TORSDOF 1
ENDMDL
