MODEL 1
REMARK minimizedAffinity -5.00560951
REMARK minimizedRMSD -1
REMARK  1 active torsions:
REMARK  status: ('A' for Active; 'I' for Inactive)
REMARK    1  A    between atoms: C1_2  and  C2_3 
ROOT
ATOM      1  C2  UNL d   1      -0.204   0.037  -0.121  0.00  0.00    -0.077 A 
ATOM      2  C3  UNL d   1       0.626   0.280   0.983  0.00  0.00     0.002 A 
ATOM      3  C4  UNL d   1       0.103   0.841   2.150  0.00  0.00     0.002 A 
ATOM      4  C5  UNL d   1      -1.251   1.161   2.225  0.00  0.00    -0.004 A 
ATOM      5  C6  UNL d   1      -2.084   0.925   1.132  0.00  0.00     0.002 A 
ATOM      6  C7  UNL d   1      -1.563   0.365  -0.035  0.00  0.00     0.002 A 
ENDROOT
BRANCH   1   7
ATOM      7  C1  UNL d   1       0.348  -0.614  -1.362  0.00  0.00     0.055 C 
ATOM      8  C   UNL d   1       0.998   0.409  -2.281  0.00  0.00     0.019 C 
ENDBRANCH   1   7
TORSDOF 1
ENDMDL
