MODEL 1
REMARK minimizedAffinity -5.68270826
REMARK minimizedRMSD -1
REMARK  1 active torsions:
REMARK  status: ('A' for Active; 'I' for Inactive)
REMARK    1  A    between atoms: C1_2  and  C2_3 
ROOT
ATOM      1  C2  UNL d   1       0.038   0.513   0.780  0.00  0.00    -0.077 A 
ATOM      2  C3  UNL d   1       1.037  -0.282   1.359  0.00  0.00     0.002 A 
ATOM      3  C4  UNL d   1       1.212  -0.299   2.744  0.00  0.00     0.002 A 
ATOM      4  C5  UNL d   1       0.389   0.473   3.562  0.00  0.00    -0.004 A 
ATOM      5  C6  UNL d   1      -0.606   1.268   2.995  0.00  0.00     0.002 A 
ATOM      6  C7  UNL d   1      -0.782   1.288   1.611  0.00  0.00     0.002 A 
ENDROOT
BRANCH   1   7
ATOM      7  C1  UNL d   1      -0.185   0.495  -0.710  0.00  0.00     0.055 C 
ATOM      8  C   UNL d   1       0.431  -0.742  -1.346  0.00  0.00     0.019 C 
ENDBRANCH   1   7
TORSDOF 1
ENDMDL
