MODEL 1
REMARK minimizedAffinity -5.98103857
REMARK minimizedRMSD -1
REMARK  1 active torsions:
REMARK  status: ('A' for Active; 'I' for Inactive)
REMARK    1  A    between atoms: C1_2  and  C2_3 
ROOT
ATOM      1  C2  UNL d   1      -0.585   0.236   0.738  0.00  0.00    -0.077 A 
ATOM      2  C3  UNL d   1       0.758  -0.117   0.934  0.00  0.00     0.002 A 
ATOM      3  C4  UNL d   1       1.375   0.109   2.166  0.00  0.00     0.002 A 
ATOM      4  C5  UNL d   1       0.656   0.686   3.211  0.00  0.00    -0.004 A 
ATOM      5  C6  UNL d   1      -0.679   1.042   3.025  0.00  0.00     0.002 A 
ATOM      6  C7  UNL d   1      -1.297   0.817   1.794  0.00  0.00     0.002 A 
ENDROOT
BRANCH   1   7
ATOM      7  C1  UNL d   1      -1.266  -0.053  -0.574  0.00  0.00     0.055 C 
ATOM      8  C   UNL d   1      -2.721   0.393  -0.553  0.00  0.00     0.019 C 
ENDBRANCH   1   7
TORSDOF 1
ENDMDL
