MODEL 1
REMARK minimizedAffinity 0.971309245
REMARK minimizedRMSD -1
REMARK  1 active torsions:
REMARK  status: ('A' for Active; 'I' for Inactive)
REMARK    1  A    between atoms: N_2  and  C1_3 
ROOT
ATOM      1  C1  UNL d   1       0.785   1.589   1.711  0.00  0.00     0.143 A 
ATOM      2  C2  UNL d   1       1.766   2.246   2.463  0.00  0.00    -0.057 A 
ATOM      3  C3  UNL d   1       2.212   3.526   2.114  0.00  0.00     0.033 A 
ATOM      4  C4  UNL d   1       1.704   4.163   0.986  0.00  0.00    -0.042 A 
ATOM      5  C5  UNL d   1       0.747   3.519   0.210  0.00  0.00     0.033 A 
ATOM      6  C6  UNL d   1       0.301   2.243   0.567  0.00  0.00    -0.057 A 
ENDROOT
BRANCH   1   7
ATOM      7  N   UNL d   1       0.371   0.277   1.950  0.00  0.00    -0.732 N 
ATOM      8  C   UNL d   1      -0.082  -0.563   0.862  0.00  0.00     0.284 C 
ATOM      9  H3  UNL d   1       0.965  -0.201   2.624  0.00  0.00     0.395 HD
ENDBRANCH   1   7
TORSDOF 1
ENDMDL
