MODEL 1
REMARK minimizedAffinity 2.23852253
REMARK minimizedRMSD -1
REMARK  1 active torsions:
REMARK  status: ('A' for Active; 'I' for Inactive)
REMARK    1  A    between atoms: N_2  and  C1_3 
ROOT
ATOM      1  C1  UNL d   1       0.455   0.819   0.462  0.00  0.00     0.143 A 
ATOM      2  C2  UNL d   1       0.647   0.574   1.826  0.00  0.00    -0.057 A 
ATOM      3  C3  UNL d   1       0.054   1.387   2.800  0.00  0.00     0.033 A 
ATOM      4  C4  UNL d   1      -0.720   2.481   2.424  0.00  0.00    -0.042 A 
ATOM      5  C5  UNL d   1      -0.903   2.758   1.074  0.00  0.00     0.033 A 
ATOM      6  C6  UNL d   1      -0.314   1.938   0.107  0.00  0.00    -0.057 A 
ENDROOT
BRANCH   1   7
ATOM      7  N   UNL d   1       1.098   0.106  -0.553  0.00  0.00    -0.732 N 
ATOM      8  C   UNL d   1       2.405  -0.474  -0.333  0.00  0.00     0.284 C 
ATOM      9  H3  UNL d   1       0.459  -0.493  -1.071  0.00  0.00     0.395 HD
ENDBRANCH   1   7
TORSDOF 1
ENDMDL
