MODEL 1
REMARK minimizedAffinity 4.67319441
REMARK minimizedRMSD -1
REMARK  1 active torsions:
REMARK  status: ('A' for Active; 'I' for Inactive)
REMARK    1  A    between atoms: N_2  and  C1_3 
ROOT
ATOM      1  C1  UNL d   1      -0.691   2.934  -0.574  0.00  0.00     0.143 A 
ATOM      2  C2  UNL d   1      -1.317   3.988   0.101  0.00  0.00    -0.057 A 
ATOM      3  C3  UNL d   1      -1.408   4.003   1.498  0.00  0.00     0.033 A 
ATOM      4  C4  UNL d   1      -0.898   2.947   2.246  0.00  0.00    -0.042 A 
ATOM      5  C5  UNL d   1      -0.294   1.877   1.595  0.00  0.00     0.033 A 
ATOM      6  C6  UNL d   1      -0.200   1.871   0.200  0.00  0.00    -0.057 A 
ENDROOT
BRANCH   1   7
ATOM      7  N   UNL d   1      -0.656   2.813  -1.965  0.00  0.00    -0.732 N 
ATOM      8  C   UNL d   1      -0.194   1.591  -2.588  0.00  0.00     0.284 C 
ATOM      9  H3  UNL d   1      -1.473   3.225  -2.411  0.00  0.00     0.395 HD
ENDBRANCH   1   7
TORSDOF 1
ENDMDL
