MODEL 1
REMARK minimizedAffinity -1.66465592
REMARK minimizedRMSD -1
REMARK  1 active torsions:
REMARK  status: ('A' for Active; 'I' for Inactive)
REMARK    1  A    between atoms: N_2  and  C1_3 
ROOT
ATOM      1  C1  UNL d   1      -0.932   2.375   0.666  0.00  0.00     0.143 A 
ATOM      2  C2  UNL d   1      -1.143   3.558  -0.049  0.00  0.00    -0.057 A 
ATOM      3  C3  UNL d   1      -1.271   3.551  -1.443  0.00  0.00     0.033 A 
ATOM      4  C4  UNL d   1      -1.161   2.359  -2.152  0.00  0.00    -0.042 A 
ATOM      5  C5  UNL d   1      -0.926   1.174  -1.463  0.00  0.00     0.033 A 
ATOM      6  C6  UNL d   1      -0.806   1.187  -0.070  0.00  0.00    -0.057 A 
ENDROOT
BRANCH   1   7
ATOM      7  N   UNL d   1      -0.699   2.330   2.043  0.00  0.00    -0.732 N 
ATOM      8  C   UNL d   1      -0.078   1.170   2.648  0.00  0.00     0.284 C 
ATOM      9  H3  UNL d   1      -0.366   3.218   2.410  0.00  0.00     0.395 HD
ENDBRANCH   1   7
TORSDOF 1
ENDMDL
