MODEL 1
REMARK minimizedAffinity 1.56718802
REMARK minimizedRMSD -1
REMARK  1 active torsions:
REMARK  status: ('A' for Active; 'I' for Inactive)
REMARK    1  A    between atoms: N_2  and  C1_3 
ROOT
ATOM      1  C1  UNL d   1       3.274  -3.571  -1.762  0.00  0.00     0.143 A 
ATOM      2  C2  UNL d   1       3.905  -2.397  -2.187  0.00  0.00    -0.057 A 
ATOM      3  C3  UNL d   1       3.442  -1.138  -1.786  0.00  0.00     0.033 A 
ATOM      4  C4  UNL d   1       2.318  -1.029  -0.974  0.00  0.00    -0.042 A 
ATOM      5  C5  UNL d   1       1.660  -2.182  -0.561  0.00  0.00     0.033 A 
ATOM      6  C6  UNL d   1       2.131  -3.436  -0.959  0.00  0.00    -0.057 A 
ENDROOT
BRANCH   1   7
ATOM      7  N   UNL d   1       3.626  -4.848  -2.206  0.00  0.00    -0.732 N 
ATOM      8  C   UNL d   1       2.661  -5.684  -2.886  0.00  0.00     0.284 C 
ATOM      9  H3  UNL d   1       4.559  -4.874  -2.612  0.00  0.00     0.395 HD
ENDBRANCH   1   7
TORSDOF 1
ENDMDL
