MODEL 1
REMARK minimizedAffinity 5.7931757
REMARK minimizedRMSD -1
REMARK  1 active torsions:
REMARK  status: ('A' for Active; 'I' for Inactive)
REMARK    1  A    between atoms: N_2  and  C1_3 
ROOT
ATOM      1  C1  UNL d   1       1.170  -0.340   1.966  0.00  0.00     0.143 A 
ATOM      2  C2  UNL d   1       0.605   0.156   3.146  0.00  0.00    -0.057 A 
ATOM      3  C3  UNL d   1      -0.439   1.089   3.116  0.00  0.00     0.033 A 
ATOM      4  C4  UNL d   1      -0.918   1.565   1.901  0.00  0.00    -0.042 A 
ATOM      5  C5  UNL d   1      -0.356   1.106   0.715  0.00  0.00     0.033 A 
ATOM      6  C6  UNL d   1       0.682   0.169   0.752  0.00  0.00    -0.057 A 
ENDROOT
BRANCH   1   7
ATOM      7  N   UNL d   1       2.275  -1.193   1.931  0.00  0.00    -0.732 N 
ATOM      8  C   UNL d   1       3.153  -1.309   3.075  0.00  0.00     0.284 C 
ATOM      9  H3  UNL d   1       2.068  -2.078   1.474  0.00  0.00     0.395 HD
ENDBRANCH   1   7
TORSDOF 1
ENDMDL
