MODEL 1
REMARK minimizedAffinity 3.03705215
REMARK minimizedRMSD -1
REMARK  1 active torsions:
REMARK  status: ('A' for Active; 'I' for Inactive)
REMARK    1  A    between atoms: N_2  and  C1_3 
ROOT
ATOM      1  C1  UNL d   1       4.890  -5.036  -2.109  0.00  0.00     0.143 A 
ATOM      2  C2  UNL d   1       5.180  -5.956  -1.096  0.00  0.00    -0.057 A 
ATOM      3  C3  UNL d   1       4.434  -5.991   0.088  0.00  0.00     0.033 A 
ATOM      4  C4  UNL d   1       3.399  -5.085   0.292  0.00  0.00    -0.042 A 
ATOM      5  C5  UNL d   1       3.109  -4.145  -0.691  0.00  0.00     0.033 A 
ATOM      6  C6  UNL d   1       3.853  -4.119  -1.874  0.00  0.00    -0.057 A 
ENDROOT
BRANCH   1   7
ATOM      7  N   UNL d   1       5.658  -4.886  -3.267  0.00  0.00    -0.732 N 
ATOM      8  C   UNL d   1       5.515  -3.710  -4.099  0.00  0.00     0.284 C 
ATOM      9  H3  UNL d   1       6.620  -5.188  -3.137  0.00  0.00     0.395 HD
ENDBRANCH   1   7
TORSDOF 1
ENDMDL
