MODEL 1
REMARK minimizedAffinity -3.95308638
REMARK minimizedRMSD -1
REMARK  1 active torsions:
REMARK  status: ('A' for Active; 'I' for Inactive)
REMARK    1  A    between atoms: C3_4  and  O_7 
ROOT
ATOM      1  C   UNL d   1       1.314   0.658  -4.391  0.00  0.00    -0.033 A 
ATOM      2  C1  UNL d   1       2.075  -0.250  -3.652  0.00  0.00     0.039 A 
ATOM      3  C2  UNL d   1       1.621  -0.697  -2.410  0.00  0.00    -0.080 A 
ATOM      4  C3  UNL d   1       0.405  -0.229  -1.919  0.00  0.00     0.150 A 
ATOM      5  C4  UNL d   1      -0.360   0.672  -2.651  0.00  0.00    -0.007 A 
ATOM      6  C5  UNL d   1       0.096   1.118  -3.891  0.00  0.00     0.039 A 
ENDROOT
BRANCH   4   7
ATOM      7  O   UNL d   1      -0.078  -0.633  -0.709  0.00  0.00    -0.526 OA
ATOM      8  H5  UNL d   1       0.570  -1.233  -0.304  0.00  0.00     0.418 HD
ENDBRANCH   4   7
TORSDOF 1
ENDMDL
