MODEL 1
REMARK minimizedAffinity -3.78302765
REMARK minimizedRMSD -1
REMARK  1 active torsions:
REMARK  status: ('A' for Active; 'I' for Inactive)
REMARK    1  A    between atoms: C3_4  and  O_7 
ROOT
ATOM      1  C   UNL d   1      -0.314  -0.032  -0.227  0.00  0.00    -0.033 A 
ATOM      2  C1  UNL d   1       0.728   0.513   0.525  0.00  0.00     0.039 A 
ATOM      3  C2  UNL d   1       0.471   1.069   1.780  0.00  0.00    -0.080 A 
ATOM      4  C3  UNL d   1      -0.832   1.072   2.271  0.00  0.00     0.150 A 
ATOM      5  C4  UNL d   1      -1.875   0.527   1.529  0.00  0.00    -0.007 A 
ATOM      6  C5  UNL d   1      -1.616  -0.026   0.276  0.00  0.00     0.039 A 
ENDROOT
BRANCH   4   7
ATOM      7  O   UNL d   1      -1.133   1.607   3.488  0.00  0.00    -0.526 OA
ATOM      8  H5  UNL d   1      -0.319   1.972   3.874  0.00  0.00     0.418 HD
ENDBRANCH   4   7
TORSDOF 1
ENDMDL
