MODEL 1
REMARK minimizedAffinity -3.78576422
REMARK minimizedRMSD -1
REMARK  1 active torsions:
REMARK  status: ('A' for Active; 'I' for Inactive)
REMARK    1  A    between atoms: C3_4  and  O_7 
ROOT
ATOM      1  C   UNL d   1       0.010  -1.011  -0.601  0.00  0.00    -0.033 A 
ATOM      2  C1  UNL d   1       1.000  -0.442   0.203  0.00  0.00     0.039 A 
ATOM      3  C2  UNL d   1       0.645   0.316   1.321  0.00  0.00    -0.080 A 
ATOM      4  C3  UNL d   1      -0.702   0.496   1.624  0.00  0.00     0.150 A 
ATOM      5  C4  UNL d   1      -1.693  -0.071   0.830  0.00  0.00    -0.007 A 
ATOM      6  C5  UNL d   1      -1.336  -0.826  -0.286  0.00  0.00     0.039 A 
ENDROOT
BRANCH   4   7
ATOM      7  O   UNL d   1      -1.097   1.231   2.702  0.00  0.00    -0.526 OA
ATOM      8  H5  UNL d   1      -0.306   1.585   3.140  0.00  0.00     0.418 HD
ENDBRANCH   4   7
TORSDOF 1
ENDMDL
