MODEL 1
REMARK minimizedAffinity -5.00502491
REMARK minimizedRMSD -1
REMARK  1 active torsions:
REMARK  status: ('A' for Active; 'I' for Inactive)
REMARK    1  A    between atoms: C3_4  and  O_7 
ROOT
ATOM      1  C   UNL d   1      -0.194   0.055  -0.219  0.00  0.00    -0.033 A 
ATOM      2  C1  UNL d   1       0.836   0.354   0.676  0.00  0.00     0.039 A 
ATOM      3  C2  UNL d   1       0.539   0.879   1.935  0.00  0.00    -0.080 A 
ATOM      4  C3  UNL d   1      -0.790   1.100   2.287  0.00  0.00     0.150 A 
ATOM      5  C4  UNL d   1      -1.821   0.801   1.402  0.00  0.00    -0.007 A 
ATOM      6  C5  UNL d   1      -1.522   0.277   0.145  0.00  0.00     0.039 A 
ENDROOT
BRANCH   4   7
ATOM      7  O   UNL d   1      -1.129   1.615   3.502  0.00  0.00    -0.526 OA
ATOM      8  H5  UNL d   1      -0.313   1.800   3.997  0.00  0.00     0.418 HD
ENDBRANCH   4   7
TORSDOF 1
ENDMDL
