MODEL 1
REMARK minimizedAffinity -4.08362675
REMARK minimizedRMSD -1
REMARK  1 active torsions:
REMARK  status: ('A' for Active; 'I' for Inactive)
REMARK    1  A    between atoms: C3_4  and  O_7 
ROOT
ATOM      1  C   UNL d   1      -0.721   1.011   2.523  0.00  0.00    -0.033 A 
ATOM      2  C1  UNL d   1      -1.770   0.674   1.665  0.00  0.00     0.039 A 
ATOM      3  C2  UNL d   1      -1.499   0.262   0.358  0.00  0.00    -0.080 A 
ATOM      4  C3  UNL d   1      -0.179   0.190  -0.076  0.00  0.00     0.150 A 
ATOM      5  C4  UNL d   1       0.871   0.520   0.775  0.00  0.00    -0.007 A 
ATOM      6  C5  UNL d   1       0.599   0.932   2.079  0.00  0.00     0.039 A 
ENDROOT
BRANCH   4   7
ATOM      7  O   UNL d   1       0.134  -0.202  -1.344  0.00  0.00    -0.526 OA
ATOM      8  H5  UNL d   1      -0.692  -0.371  -1.826  0.00  0.00     0.418 HD
ENDBRANCH   4   7
TORSDOF 1
ENDMDL
