MODEL 1
REMARK minimizedAffinity -1.78330278
REMARK minimizedRMSD -1
REMARK  1 active torsions:
REMARK  status: ('A' for Active; 'I' for Inactive)
REMARK    1  A    between atoms: C3_4  and  O_7 
ROOT
ATOM      1  C   UNL d   1      -1.590   0.463   2.575  0.00  0.00    -0.033 A 
ATOM      2  C1  UNL d   1      -2.344   0.789   1.446  0.00  0.00     0.039 A 
ATOM      3  C2  UNL d   1      -1.813   0.597   0.169  0.00  0.00    -0.080 A 
ATOM      4  C3  UNL d   1      -0.528   0.077   0.035  0.00  0.00     0.150 A 
ATOM      5  C4  UNL d   1       0.227  -0.255   1.155  0.00  0.00    -0.007 A 
ATOM      6  C5  UNL d   1      -0.305  -0.061   2.429  0.00  0.00     0.039 A 
ENDROOT
BRANCH   4   7
ATOM      7  O   UNL d   1       0.035  -0.125  -1.190  0.00  0.00    -0.526 OA
ATOM      8  H5  UNL d   1      -0.592   0.176  -1.869  0.00  0.00     0.418 HD
ENDBRANCH   4   7
TORSDOF 1
ENDMDL
