MODEL 1
REMARK minimizedAffinity -4.71336889
REMARK minimizedRMSD -1
REMARK  0 active torsions:
REMARK  status: ('A' for Active; 'I' for Inactive)
ROOT
ATOM      1  C   UNL d   1      -1.777  -0.456   3.421  0.00  0.00    -0.002 A 
ATOM      2  C1  UNL d   1      -2.748  -0.464   2.429  0.00  0.00     0.010 A 
ATOM      3  C2  UNL d   1      -2.394  -0.295   1.089  0.00  0.00     0.041 A 
ATOM      4  C3  UNL d   1      -1.036  -0.119   0.759  0.00  0.00    -0.075 A 
ATOM      5  S   UNL d   1      -0.368   0.104  -0.815  0.00  0.00     0.015 SA
ATOM      6  C4  UNL d   1       1.220   0.214  -0.207  0.00  0.00     0.022 A 
ATOM      7  C5  UNL d   1       1.259   0.085   1.161  0.00  0.00     0.026 A 
ATOM      8  C6  UNL d   1      -0.040  -0.109   1.740  0.00  0.00    -0.082 A 
ATOM      9  C7  UNL d   1      -0.431  -0.281   3.090  0.00  0.00     0.045 A 
ENDROOT
TORSDOF 0
ENDMDL
