MODEL 1
REMARK minimizedAffinity 1.42773652
REMARK minimizedRMSD -1
REMARK  0 active torsions:
REMARK  status: ('A' for Active; 'I' for Inactive)
ROOT
ATOM      1  C   UNL d   1       1.426   0.646   2.385  0.00  0.00    -0.002 A 
ATOM      2  C1  UNL d   1       0.061   0.422   2.497  0.00  0.00     0.010 A 
ATOM      3  C2  UNL d   1      -0.694   0.062   1.379  0.00  0.00     0.041 A 
ATOM      4  C3  UNL d   1      -0.047  -0.072   0.135  0.00  0.00    -0.075 A 
ATOM      5  S   UNL d   1      -0.769  -0.505  -1.370  0.00  0.00     0.015 SA
ATOM      6  C4  UNL d   1       0.718  -0.403  -2.197  0.00  0.00     0.022 A 
ATOM      7  C5  UNL d   1       1.750  -0.049  -1.361  0.00  0.00     0.026 A 
ATOM      8  C6  UNL d   1       1.326   0.147  -0.003  0.00  0.00    -0.082 A 
ATOM      9  C7  UNL d   1       2.064   0.512   1.149  0.00  0.00     0.045 A 
ENDROOT
TORSDOF 0
ENDMDL
