MODEL 1
REMARK minimizedAffinity -5.09813118
REMARK minimizedRMSD -1
REMARK  0 active torsions:
REMARK  status: ('A' for Active; 'I' for Inactive)
ROOT
ATOM      1  C   UNL d   1      -3.151   0.228   2.256  0.00  0.00    -0.002 A 
ATOM      2  C1  UNL d   1      -3.227   0.355   0.876  0.00  0.00     0.010 A 
ATOM      3  C2  UNL d   1      -2.068   0.348   0.097  0.00  0.00     0.041 A 
ATOM      4  C3  UNL d   1      -0.820   0.206   0.734  0.00  0.00    -0.075 A 
ATOM      5  S   UNL d   1       0.732   0.169  -0.016  0.00  0.00     0.015 SA
ATOM      6  C4  UNL d   1       1.532  -0.018   1.477  0.00  0.00     0.022 A 
ATOM      7  C5  UNL d   1       0.652  -0.053   2.533  0.00  0.00     0.026 A 
ATOM      8  C6  UNL d   1      -0.718   0.075   2.122  0.00  0.00    -0.082 A 
ATOM      9  C7  UNL d   1      -1.911   0.088   2.884  0.00  0.00     0.045 A 
ENDROOT
TORSDOF 0
ENDMDL
