MODEL 1
REMARK minimizedAffinity -1.63786316
REMARK minimizedRMSD -1
REMARK  0 active torsions:
REMARK  status: ('A' for Active; 'I' for Inactive)
ROOT
ATOM      1  C   UNL d   1       1.309   0.108   2.628  0.00  0.00    -0.002 A 
ATOM      2  C1  UNL d   1       1.500   0.145   1.254  0.00  0.00     0.010 A 
ATOM      3  C2  UNL d   1       0.409   0.238   0.388  0.00  0.00     0.041 A 
ATOM      4  C3  UNL d   1      -0.890   0.295   0.931  0.00  0.00    -0.075 A 
ATOM      5  S   UNL d   1      -2.376   0.411   0.064  0.00  0.00     0.015 SA
ATOM      6  C4  UNL d   1      -3.298   0.415   1.497  0.00  0.00     0.022 A 
ATOM      7  C5  UNL d   1      -2.508   0.330   2.619  0.00  0.00     0.026 A 
ATOM      8  C6  UNL d   1      -1.107   0.260   2.312  0.00  0.00    -0.082 A 
ATOM      9  C7  UNL d   1       0.020   0.165   3.163  0.00  0.00     0.045 A 
ENDROOT
TORSDOF 0
ENDMDL
