MODEL 1
REMARK minimizedAffinity -5.18878651
REMARK minimizedRMSD -1
REMARK  0 active torsions:
REMARK  status: ('A' for Active; 'I' for Inactive)
ROOT
ATOM      1  C   UNL d   1       0.361  -0.685   2.933  0.00  0.00    -0.002 A 
ATOM      2  C1  UNL d   1       1.083  -0.630   1.750  0.00  0.00     0.010 A 
ATOM      3  C2  UNL d   1       0.460  -0.271   0.553  0.00  0.00     0.041 A 
ATOM      4  C3  UNL d   1      -0.915   0.036   0.567  0.00  0.00    -0.075 A 
ATOM      5  S   UNL d   1      -1.889   0.502  -0.778  0.00  0.00     0.015 SA
ATOM      6  C4  UNL d   1      -3.287   0.640   0.188  0.00  0.00     0.022 A 
ATOM      7  C5  UNL d   1      -3.035   0.342   1.506  0.00  0.00     0.026 A 
ATOM      8  C6  UNL d   1      -1.663  -0.011   1.746  0.00  0.00    -0.082 A 
ATOM      9  C7  UNL d   1      -1.003  -0.379   2.943  0.00  0.00     0.045 A 
ENDROOT
TORSDOF 0
ENDMDL
