MODEL 1
REMARK minimizedAffinity -3.79291987
REMARK minimizedRMSD -1
REMARK  0 active torsions:
REMARK  status: ('A' for Active; 'I' for Inactive)
ROOT
ATOM      1  C   UNL d   1       2.271   1.698   0.869  0.00  0.00    -0.002 A 
ATOM      2  C1  UNL d   1       2.820   1.014   1.944  0.00  0.00     0.010 A 
ATOM      3  C2  UNL d   1       2.116  -0.021   2.562  0.00  0.00     0.041 A 
ATOM      4  C3  UNL d   1       0.838  -0.361   2.076  0.00  0.00    -0.075 A 
ATOM      5  S   UNL d   1      -0.208  -1.594   2.675  0.00  0.00     0.015 SA
ATOM      6  C4  UNL d   1      -1.408  -1.242   1.517  0.00  0.00     0.022 A 
ATOM      7  C5  UNL d   1      -1.037  -0.212   0.686  0.00  0.00     0.026 A 
ATOM      8  C6  UNL d   1       0.264   0.312   0.994  0.00  0.00    -0.082 A 
ATOM      9  C7  UNL d   1       1.003   1.358   0.389  0.00  0.00     0.045 A 
ENDROOT
TORSDOF 0
ENDMDL
