MODEL 1
REMARK minimizedAffinity -5.13598871
REMARK minimizedRMSD -1
REMARK  0 active torsions:
REMARK  status: ('A' for Active; 'I' for Inactive)
ROOT
ATOM      1  C   UNL d   1      -2.730   0.232   2.464  0.00  0.00    -0.002 A 
ATOM      2  C1  UNL d   1      -2.933   0.468   1.112  0.00  0.00     0.010 A 
ATOM      3  C2  UNL d   1      -1.853   0.514   0.228  0.00  0.00     0.041 A 
ATOM      4  C3  UNL d   1      -0.552   0.315   0.731  0.00  0.00    -0.075 A 
ATOM      5  S   UNL d   1       0.921   0.327  -0.163  0.00  0.00     0.015 SA
ATOM      6  C4  UNL d   1       1.856   0.018   1.228  0.00  0.00     0.022 A 
ATOM      7  C5  UNL d   1       1.079  -0.094   2.356  0.00  0.00     0.026 A 
ATOM      8  C6  UNL d   1      -0.322   0.075   2.089  0.00  0.00    -0.082 A 
ATOM      9  C7  UNL d   1      -1.438   0.035   2.959  0.00  0.00     0.045 A 
ENDROOT
TORSDOF 0
ENDMDL
