MODEL 1
REMARK minimizedAffinity -1.09758425
REMARK minimizedRMSD -1
REMARK  0 active torsions:
REMARK  status: ('A' for Active; 'I' for Inactive)
ROOT
ATOM      1  C   UNL d   1       2.091  -1.830  -4.266  0.00  0.00    -0.002 A 
ATOM      2  C1  UNL d   1       2.983  -1.258  -3.370  0.00  0.00     0.010 A 
ATOM      3  C2  UNL d   1       2.551  -0.303  -2.448  0.00  0.00     0.041 A 
ATOM      4  C3  UNL d   1       1.192   0.070  -2.440  0.00  0.00    -0.075 A 
ATOM      5  S   UNL d   1       0.436   1.219  -1.400  0.00  0.00     0.015 SA
ATOM      6  C4  UNL d   1      -1.090   0.977  -2.120  0.00  0.00     0.022 A 
ATOM      7  C5  UNL d   1      -1.042   0.047  -3.131  0.00  0.00     0.026 A 
ATOM      8  C6  UNL d   1       0.274  -0.492  -3.332  0.00  0.00    -0.082 A 
ATOM      9  C7  UNL d   1       0.744  -1.457  -4.255  0.00  0.00     0.045 A 
ENDROOT
TORSDOF 0
ENDMDL
