MODEL 1
REMARK minimizedAffinity -3.33681178
REMARK minimizedRMSD -1
REMARK  0 active torsions:
REMARK  status: ('A' for Active; 'I' for Inactive)
ROOT
ATOM      1  C   UNL d   1      -3.148   0.702   2.829  0.00  0.00    -0.002 A 
ATOM      2  C1  UNL d   1      -3.229   0.900   1.458  0.00  0.00     0.010 A 
ATOM      3  C2  UNL d   1      -2.204   0.463   0.616  0.00  0.00     0.041 A 
ATOM      4  C3  UNL d   1      -1.087  -0.183   1.180  0.00  0.00    -0.075 A 
ATOM      5  S   UNL d   1       0.287  -0.804   0.344  0.00  0.00     0.015 SA
ATOM      6  C4  UNL d   1       1.014  -1.346   1.787  0.00  0.00     0.022 A 
ATOM      7  C5  UNL d   1       0.241  -1.069   2.889  0.00  0.00     0.026 A 
ATOM      8  C6  UNL d   1      -0.983  -0.395   2.558  0.00  0.00    -0.082 A 
ATOM      9  C7  UNL d   1      -2.038   0.060   3.385  0.00  0.00     0.045 A 
ENDROOT
TORSDOF 0
ENDMDL
