MODEL 1
REMARK minimizedAffinity -3.29185915
REMARK minimizedRMSD -1
REMARK  0 active torsions:
REMARK  status: ('A' for Active; 'I' for Inactive)
ROOT
ATOM      1  C   UNL d   1       1.374  -0.114   2.890  0.00  0.00    -0.002 A 
ATOM      2  C1  UNL d   1      -0.005  -0.188   3.025  0.00  0.00     0.010 A 
ATOM      3  C2  UNL d   1      -0.837  -0.002   1.919  0.00  0.00     0.041 A 
ATOM      4  C3  UNL d   1      -0.255   0.259   0.664  0.00  0.00    -0.075 A 
ATOM      5  S   UNL d   1      -1.077   0.519  -0.830  0.00  0.00     0.015 SA
ATOM      6  C4  UNL d   1       0.384   0.733  -1.682  0.00  0.00     0.022 A 
ATOM      7  C5  UNL d   1       1.481   0.613  -0.863  0.00  0.00     0.026 A 
ATOM      8  C6  UNL d   1       1.131   0.337   0.503  0.00  0.00    -0.082 A 
ATOM      9  C7  UNL d   1       1.949   0.145   1.643  0.00  0.00     0.045 A 
ENDROOT
TORSDOF 0
ENDMDL
