MODEL 1
REMARK minimizedAffinity 3.07699656
REMARK minimizedRMSD -1
REMARK  0 active torsions:
REMARK  status: ('A' for Active; 'I' for Inactive)
ROOT
ATOM      1  C   UNL d   1       1.895   1.349   1.220  0.00  0.00    -0.002 A 
ATOM      2  C1  UNL d   1       1.994  -0.016   1.452  0.00  0.00     0.010 A 
ATOM      3  C2  UNL d   1       1.084  -0.902   0.872  0.00  0.00     0.041 A 
ATOM      4  C3  UNL d   1       0.065  -0.389   0.046  0.00  0.00    -0.075 A 
ATOM      5  S   UNL d   1      -1.161  -1.285  -0.771  0.00  0.00     0.015 SA
ATOM      6  C4  UNL d   1      -1.844   0.122  -1.448  0.00  0.00     0.022 A 
ATOM      7  C5  UNL d   1      -1.166   1.257  -1.070  0.00  0.00     0.026 A 
ATOM      8  C6  UNL d   1      -0.054   0.981  -0.203  0.00  0.00    -0.082 A 
ATOM      9  C7  UNL d   1       0.883   1.854   0.400  0.00  0.00     0.045 A 
ENDROOT
TORSDOF 0
ENDMDL
