MODEL 1
REMARK minimizedAffinity 10.8150358
REMARK minimizedRMSD -1
REMARK  0 active torsions:
REMARK  status: ('A' for Active; 'I' for Inactive)
ROOT
ATOM      1  C   UNL d   1       1.741   1.712   2.723  0.00  0.00    -0.002 A 
ATOM      2  C1  UNL d   1       0.390   1.741   3.039  0.00  0.00     0.010 A 
ATOM      3  C2  UNL d   1      -0.567   1.344   2.103  0.00  0.00     0.041 A 
ATOM      4  C3  UNL d   1      -0.140   0.911   0.833  0.00  0.00    -0.075 A 
ATOM      5  S   UNL d   1      -1.132   0.377  -0.472  0.00  0.00     0.015 SA
ATOM      6  C4  UNL d   1       0.214   0.096  -1.479  0.00  0.00     0.022 A 
ATOM      7  C5  UNL d   1       1.399   0.398  -0.852  0.00  0.00     0.026 A 
ATOM      8  C6  UNL d   1       1.215   0.872   0.491  0.00  0.00    -0.082 A 
ATOM      9  C7  UNL d   1       2.161   1.282   1.461  0.00  0.00     0.045 A 
ENDROOT
TORSDOF 0
ENDMDL
