MODEL 1
REMARK minimizedAffinity -3.25381064
REMARK minimizedRMSD -1
REMARK  0 active torsions:
REMARK  status: ('A' for Active; 'I' for Inactive)
ROOT
ATOM      1  C   UNL d   1      -1.628  -1.244   2.737  0.00  0.00    -0.002 A 
ATOM      2  C1  UNL d   1      -0.676  -0.619   3.531  0.00  0.00     0.010 A 
ATOM      3  C2  UNL d   1       0.315   0.179   2.957  0.00  0.00     0.041 A 
ATOM      4  C3  UNL d   1       0.333   0.343   1.558  0.00  0.00    -0.075 A 
ATOM      5  S   UNL d   1       1.451   1.275   0.634  0.00  0.00     0.015 SA
ATOM      6  C4  UNL d   1       0.692   0.867  -0.836  0.00  0.00     0.022 A 
ATOM      7  C5  UNL d   1      -0.390   0.040  -0.646  0.00  0.00     0.026 A 
ATOM      8  C6  UNL d   1      -0.615  -0.275   0.737  0.00  0.00    -0.082 A 
ATOM      9  C7  UNL d   1      -1.607  -1.079   1.349  0.00  0.00     0.045 A 
ENDROOT
TORSDOF 0
ENDMDL
