MODEL 1
REMARK minimizedAffinity -0.991847575
REMARK minimizedRMSD -1
REMARK  1 active torsions:
REMARK  status: ('A' for Active; 'I' for Inactive)
REMARK    1  A    between atoms: C1_2  and  C2_3 
ROOT
ATOM      1  C2  UNL d   1      -0.761  -0.404   0.154  0.00  0.00    -0.077 A 
ATOM      2  C3  UNL d   1      -1.834   0.343   0.661  0.00  0.00     0.002 A 
ATOM      3  C4  UNL d   1      -1.998   1.681   0.297  0.00  0.00     0.002 A 
ATOM      4  C5  UNL d   1      -1.096   2.282  -0.579  0.00  0.00    -0.004 A 
ATOM      5  C6  UNL d   1      -0.025   1.548  -1.087  0.00  0.00     0.002 A 
ATOM      6  C7  UNL d   1       0.142   0.211  -0.723  0.00  0.00     0.002 A 
ENDROOT
BRANCH   1   7
ATOM      7  C1  UNL d   1      -0.610  -1.861   0.507  0.00  0.00     0.055 C 
ATOM      8  C   UNL d   1      -1.238  -2.171   1.858  0.00  0.00     0.019 C 
ENDBRANCH   1   7
TORSDOF 1
ENDMDL
