MODEL 1
REMARK minimizedAffinity -2.05648136
REMARK minimizedRMSD -1
REMARK  1 active torsions:
REMARK  status: ('A' for Active; 'I' for Inactive)
REMARK    1  A    between atoms: C1_2  and  C2_3 
ROOT
ATOM      1  C2  UNL d   1      -0.341   0.024  -0.211  0.00  0.00    -0.077 A 
ATOM      2  C3  UNL d   1      -1.034  -0.996   0.455  0.00  0.00     0.002 A 
ATOM      3  C4  UNL d   1      -0.339  -2.055   1.043  0.00  0.00     0.002 A 
ATOM      4  C5  UNL d   1       1.052  -2.101   0.973  0.00  0.00    -0.004 A 
ATOM      5  C6  UNL d   1       1.750  -1.093   0.310  0.00  0.00     0.002 A 
ATOM      6  C7  UNL d   1       1.057  -0.034  -0.278  0.00  0.00     0.002 A 
ENDROOT
BRANCH   1   7
ATOM      7  C1  UNL d   1      -1.085   1.193  -0.803  0.00  0.00     0.055 C 
ATOM      8  C   UNL d   1      -1.907   0.771  -2.012  0.00  0.00     0.019 C 
ENDBRANCH   1   7
TORSDOF 1
ENDMDL
