MODEL 1
REMARK minimizedAffinity -3.47621632
REMARK minimizedRMSD -1
REMARK  1 active torsions:
REMARK  status: ('A' for Active; 'I' for Inactive)
REMARK    1  A    between atoms: C1_2  and  C2_3 
ROOT
ATOM      1  C2  UNL d   1      -1.124   2.027  -1.435  0.00  0.00    -0.077 A 
ATOM      2  C3  UNL d   1      -1.907   1.519  -2.481  0.00  0.00     0.002 A 
ATOM      3  C4  UNL d   1      -1.969   2.187  -3.706  0.00  0.00     0.002 A 
ATOM      4  C5  UNL d   1      -1.248   3.364  -3.897  0.00  0.00    -0.004 A 
ATOM      5  C6  UNL d   1      -0.468   3.878  -2.862  0.00  0.00     0.002 A 
ATOM      6  C7  UNL d   1      -0.406   3.213  -1.637  0.00  0.00     0.002 A 
ENDROOT
BRANCH   1   7
ATOM      7  C1  UNL d   1      -1.017   1.282  -0.130  0.00  0.00     0.055 C 
ATOM      8  C   UNL d   1       0.252   0.444  -0.074  0.00  0.00     0.019 C 
ENDBRANCH   1   7
TORSDOF 1
ENDMDL
