MODEL 1
REMARK minimizedAffinity -3.14303398
REMARK minimizedRMSD -1
REMARK  1 active torsions:
REMARK  status: ('A' for Active; 'I' for Inactive)
REMARK    1  A    between atoms: C1_2  and  C2_3 
ROOT
ATOM      1  C2  UNL d   1      -1.403   2.133  -1.849  0.00  0.00    -0.077 A 
ATOM      2  C3  UNL d   1      -2.163   1.453  -2.811  0.00  0.00     0.002 A 
ATOM      3  C4  UNL d   1      -2.294   1.969  -4.102  0.00  0.00     0.002 A 
ATOM      4  C5  UNL d   1      -1.664   3.165  -4.443  0.00  0.00    -0.004 A 
ATOM      5  C6  UNL d   1      -0.908   3.849  -3.492  0.00  0.00     0.002 A 
ATOM      6  C7  UNL d   1      -0.777   3.335  -2.201  0.00  0.00     0.002 A 
ENDROOT
BRANCH   1   7
ATOM      7  C1  UNL d   1      -1.221   1.552  -0.471  0.00  0.00     0.055 C 
ATOM      8  C   UNL d   1      -0.645   0.145  -0.535  0.00  0.00     0.019 C 
ENDBRANCH   1   7
TORSDOF 1
ENDMDL
