MODEL 1
REMARK minimizedAffinity -1.27940333
REMARK minimizedRMSD -1
REMARK  1 active torsions:
REMARK  status: ('A' for Active; 'I' for Inactive)
REMARK    1  A    between atoms: C1_2  and  C2_3 
ROOT
ATOM      1  C2  UNL d   1       0.529   1.677  -0.174  0.00  0.00    -0.077 A 
ATOM      2  C3  UNL d   1      -0.809   1.262  -0.227  0.00  0.00     0.002 A 
ATOM      3  C4  UNL d   1      -1.130  -0.096  -0.180  0.00  0.00     0.002 A 
ATOM      4  C5  UNL d   1      -0.120  -1.050  -0.078  0.00  0.00    -0.004 A 
ATOM      5  C6  UNL d   1       1.214  -0.647  -0.027  0.00  0.00     0.002 A 
ATOM      6  C7  UNL d   1       1.537   0.710  -0.074  0.00  0.00     0.002 A 
ENDROOT
BRANCH   1   7
ATOM      7  C1  UNL d   1       0.874   3.143  -0.174  0.00  0.00     0.055 C 
ATOM      8  C   UNL d   1       2.352   3.363   0.113  0.00  0.00     0.019 C 
ENDBRANCH   1   7
TORSDOF 1
ENDMDL
