MODEL 1
REMARK minimizedAffinity -4.96166754
REMARK minimizedRMSD -1
REMARK  1 active torsions:
REMARK  status: ('A' for Active; 'I' for Inactive)
REMARK    1  A    between atoms: C1_2  and  C2_3 
ROOT
ATOM      1  C2  UNL d   1       1.497   1.877  -0.324  0.00  0.00    -0.077 A 
ATOM      2  C3  UNL d   1       2.808   2.303  -0.579  0.00  0.00     0.002 A 
ATOM      3  C4  UNL d   1       3.192   3.615  -0.296  0.00  0.00     0.002 A 
ATOM      4  C5  UNL d   1       2.273   4.510   0.248  0.00  0.00    -0.004 A 
ATOM      5  C6  UNL d   1       0.966   4.096   0.504  0.00  0.00     0.002 A 
ATOM      6  C7  UNL d   1       0.580   2.786   0.219  0.00  0.00     0.002 A 
ENDROOT
BRANCH   1   7
ATOM      7  C1  UNL d   1       1.094   0.449  -0.584  0.00  0.00     0.055 C 
ATOM      8  C   UNL d   1      -0.391   0.237  -0.327  0.00  0.00     0.019 C 
ENDBRANCH   1   7
TORSDOF 1
ENDMDL
