MODEL 1
REMARK minimizedAffinity -2.7796886
REMARK minimizedRMSD -1
REMARK  1 active torsions:
REMARK  status: ('A' for Active; 'I' for Inactive)
REMARK    1  A    between atoms: C1_2  and  C2_3 
ROOT
ATOM      1  C2  UNL d   1      -0.853   2.979  -2.338  0.00  0.00    -0.077 A 
ATOM      2  C3  UNL d   1      -1.107   3.744  -3.485  0.00  0.00     0.002 A 
ATOM      3  C4  UNL d   1      -2.063   3.327  -4.414  0.00  0.00     0.002 A 
ATOM      4  C5  UNL d   1      -2.774   2.148  -4.203  0.00  0.00    -0.004 A 
ATOM      5  C6  UNL d   1      -2.527   1.380  -3.067  0.00  0.00     0.002 A 
ATOM      6  C7  UNL d   1      -1.571   1.793  -2.138  0.00  0.00     0.002 A 
ENDROOT
BRANCH   1   7
ATOM      7  C1  UNL d   1       0.143   3.451  -1.311  0.00  0.00     0.055 C 
ATOM      8  C   UNL d   1       0.162   2.534  -0.096  0.00  0.00     0.019 C 
ENDBRANCH   1   7
TORSDOF 1
ENDMDL
