MODEL 1
REMARK minimizedAffinity -3.84866381
REMARK minimizedRMSD -1
REMARK  1 active torsions:
REMARK  status: ('A' for Active; 'I' for Inactive)
REMARK    1  A    between atoms: C1_2  and  C2_3 
ROOT
ATOM      1  C2  UNL d   1       0.248  -0.322  -0.542  0.00  0.00    -0.077 A 
ATOM      2  C3  UNL d   1       1.403  -0.097   0.220  0.00  0.00     0.002 A 
ATOM      3  C4  UNL d   1       1.919  -1.107   1.035  0.00  0.00     0.002 A 
ATOM      4  C5  UNL d   1       1.290  -2.348   1.092  0.00  0.00    -0.004 A 
ATOM      5  C6  UNL d   1       0.139  -2.581   0.340  0.00  0.00     0.002 A 
ATOM      6  C7  UNL d   1      -0.379  -1.573  -0.474  0.00  0.00     0.002 A 
ENDROOT
BRANCH   1   7
ATOM      7  C1  UNL d   1      -0.282   0.749  -1.459  0.00  0.00     0.055 C 
ATOM      8  C   UNL d   1      -1.782   0.937  -1.281  0.00  0.00     0.019 C 
ENDBRANCH   1   7
TORSDOF 1
ENDMDL
