MODEL 1
REMARK minimizedAffinity -3.73868966
REMARK minimizedRMSD -1
REMARK  1 active torsions:
REMARK  status: ('A' for Active; 'I' for Inactive)
REMARK    1  A    between atoms: C1_2  and  C2_3 
ROOT
ATOM      1  C2  UNL d   1       1.731  -0.328  -0.088  0.00  0.00    -0.077 A 
ATOM      2  C3  UNL d   1       0.340  -0.479  -0.176  0.00  0.00     0.002 A 
ATOM      3  C4  UNL d   1      -0.303  -1.516   0.504  0.00  0.00     0.002 A 
ATOM      4  C5  UNL d   1       0.437  -2.406   1.279  0.00  0.00    -0.004 A 
ATOM      5  C6  UNL d   1       1.821  -2.266   1.371  0.00  0.00     0.002 A 
ATOM      6  C7  UNL d   1       2.465  -1.231   0.691  0.00  0.00     0.002 A 
ENDROOT
BRANCH   1   7
ATOM      7  C1  UNL d   1       2.419   0.818  -0.781  0.00  0.00     0.055 C 
ATOM      8  C   UNL d   1       2.134   2.139  -0.082  0.00  0.00     0.019 C 
ENDBRANCH   1   7
TORSDOF 1
ENDMDL
