MODEL 1
REMARK minimizedAffinity -2.20383096
REMARK minimizedRMSD -1
REMARK  1 active torsions:
REMARK  status: ('A' for Active; 'I' for Inactive)
REMARK    1  A    between atoms: C1_2  and  C2_3 
ROOT
ATOM      1  C2  UNL d   1       1.535  -1.152   1.306  0.00  0.00    -0.077 A 
ATOM      2  C3  UNL d   1       0.266  -1.710   1.098  0.00  0.00     0.002 A 
ATOM      3  C4  UNL d   1      -0.664  -1.066   0.278  0.00  0.00     0.002 A 
ATOM      4  C5  UNL d   1      -0.332   0.136  -0.343  0.00  0.00    -0.004 A 
ATOM      5  C6  UNL d   1       0.927   0.701  -0.141  0.00  0.00     0.002 A 
ATOM      6  C7  UNL d   1       1.856   0.059   0.679  0.00  0.00     0.002 A 
ENDROOT
BRANCH   1   7
ATOM      7  C1  UNL d   1       2.556  -1.869   2.150  0.00  0.00     0.055 C 
ATOM      8  C   UNL d   1       3.690  -0.939   2.556  0.00  0.00     0.019 C 
ENDBRANCH   1   7
TORSDOF 1
ENDMDL
