MODEL 1
REMARK minimizedAffinity -3.13313508
REMARK minimizedRMSD -1
REMARK  0 active torsions:
REMARK  status: ('A' for Active; 'I' for Inactive)
ROOT
ATOM      1  C4' PXY d   1      -0.336   1.188  -2.320  0.00  0.00     0.077 C 
ATOM      2  C1' PXY d   1       0.436  -1.339   2.822  0.00  0.00     0.077 C 
ATOM      3  C1  PXY d   1       0.245  -0.681   1.469  0.00  0.00    -0.082 A 
ATOM      4  C2  PXY d   1      -0.589   0.340   1.350  0.00  0.00     0.003 A 
ATOM      5  C3  PXY d   1      -0.797   0.926   0.129  0.00  0.00     0.003 A 
ATOM      6  C4  PXY d   1      -0.105   0.498  -0.972  0.00  0.00    -0.082 A 
ATOM      7  C5  PXY d   1       0.756  -0.535  -0.857  0.00  0.00     0.003 A 
ATOM      8  C6  PXY d   1       0.922  -1.144   0.384  0.00  0.00     0.003 A 
ENDROOT
TORSDOF 0
ENDMDL
