MODEL 1
REMARK minimizedAffinity -1.76279116
REMARK minimizedRMSD -1
REMARK  0 active torsions:
REMARK  status: ('A' for Active; 'I' for Inactive)
ROOT
ATOM      1  C4' PXY d   1      -0.740   3.400  -1.819  0.00  0.00     0.077 C 
ATOM      2  C1' PXY d   1       2.159  -1.430  -0.524  0.00  0.00     0.077 C 
ATOM      3  C1  PXY d   1       1.389  -0.170  -0.867  0.00  0.00    -0.082 A 
ATOM      4  C2  PXY d   1       2.047   0.939  -1.163  0.00  0.00     0.003 A 
ATOM      5  C3  PXY d   1       1.365   2.095  -1.444  0.00  0.00     0.003 A 
ATOM      6  C4  PXY d   1      -0.003   2.103  -1.475  0.00  0.00    -0.082 A 
ATOM      7  C5  PXY d   1      -0.682   0.972  -1.185  0.00  0.00     0.003 A 
ATOM      8  C6  PXY d   1       0.028  -0.180  -0.862  0.00  0.00     0.003 A 
ENDROOT
TORSDOF 0
ENDMDL
