MODEL 1
REMARK minimizedAffinity 0.115585893
REMARK minimizedRMSD -1
REMARK  0 active torsions:
REMARK  status: ('A' for Active; 'I' for Inactive)
ROOT
ATOM      1  C4' PXY d   1      -1.458   3.526  -2.211  0.00  0.00     0.077 C 
ATOM      2  C1' PXY d   1       1.978  -0.690  -0.253  0.00  0.00     0.077 C 
ATOM      3  C1  PXY d   1       1.067   0.407  -0.768  0.00  0.00    -0.082 A 
ATOM      4  C2  PXY d   1       1.590   1.465  -1.365  0.00  0.00     0.003 A 
ATOM      5  C3  PXY d   1       0.783   2.481  -1.808  0.00  0.00     0.003 A 
ATOM      6  C4  PXY d   1      -0.577   2.389  -1.685  0.00  0.00    -0.082 A 
ATOM      7  C5  PXY d   1      -1.119   1.308  -1.085  0.00  0.00     0.003 A 
ATOM      8  C6  PXY d   1      -0.280   0.306  -0.606  0.00  0.00     0.003 A 
ENDROOT
TORSDOF 0
ENDMDL
