MODEL 1
REMARK minimizedAffinity -1.83790529
REMARK minimizedRMSD -1
REMARK  0 active torsions:
REMARK  status: ('A' for Active; 'I' for Inactive)
ROOT
ATOM      1  C4' PXY d   1      -0.769   0.749  -1.403  0.00  0.00     0.077 C 
ATOM      2  C1' PXY d   1       1.956  -2.636   2.409  0.00  0.00     0.077 C 
ATOM      3  C1  PXY d   1       1.231  -1.749   1.417  0.00  0.00    -0.082 A 
ATOM      4  C2  PXY d   1       1.638  -1.706   0.158  0.00  0.00     0.003 A 
ATOM      5  C3  PXY d   1       1.013  -0.884  -0.745  0.00  0.00     0.003 A 
ATOM      6  C4  PXY d   1      -0.072  -0.139  -0.369  0.00  0.00    -0.082 A 
ATOM      7  C5  PXY d   1      -0.500  -0.186   0.911  0.00  0.00     0.003 A 
ATOM      8  C6  PXY d   1       0.173  -0.995   1.822  0.00  0.00     0.003 A 
ENDROOT
TORSDOF 0
ENDMDL
