MODEL 1
REMARK minimizedAffinity -4.9730258
REMARK minimizedRMSD -1
REMARK  0 active torsions:
REMARK  status: ('A' for Active; 'I' for Inactive)
ROOT
ATOM      1  C4' PXY d   1      -0.981   0.995  -1.476  0.00  0.00     0.077 C 
ATOM      2  C1' PXY d   1       1.765  -1.526   2.942  0.00  0.00     0.077 C 
ATOM      3  C1  PXY d   1       1.033  -0.867   1.789  0.00  0.00    -0.082 A 
ATOM      4  C2  PXY d   1       1.624  -0.771   0.608  0.00  0.00     0.003 A 
ATOM      5  C3  PXY d   1       0.989  -0.150  -0.436  0.00  0.00     0.003 A 
ATOM      6  C4  PXY d   1      -0.284   0.330  -0.287  0.00  0.00    -0.082 A 
ATOM      7  C5  PXY d   1      -0.898   0.226   0.911  0.00  0.00     0.003 A 
ATOM      8  C6  PXY d   1      -0.220  -0.371   1.971  0.00  0.00     0.003 A 
ENDROOT
TORSDOF 0
ENDMDL
