MODEL 1
REMARK minimizedAffinity -4.56575584
REMARK minimizedRMSD -1
REMARK  0 active torsions:
REMARK  status: ('A' for Active; 'I' for Inactive)
ROOT
ATOM      1  C4' PXY d   1      -0.002  -1.371   2.685  0.00  0.00     0.077 C 
ATOM      2  C1' PXY d   1      -1.076   1.869  -1.981  0.00  0.00     0.077 C 
ATOM      3  C1  PXY d   1      -0.781   1.018  -0.761  0.00  0.00    -0.082 A 
ATOM      4  C2  PXY d   1      -1.764   0.353  -0.175  0.00  0.00     0.003 A 
ATOM      5  C3  PXY d   1      -1.521  -0.396   0.948  0.00  0.00     0.003 A 
ATOM      6  C4  PXY d   1      -0.251  -0.507   1.445  0.00  0.00    -0.082 A 
ATOM      7  C5  PXY d   1       0.759   0.160   0.847  0.00  0.00     0.003 A 
ATOM      8  C6  PXY d   1       0.485   0.947  -0.268  0.00  0.00     0.003 A 
ENDROOT
TORSDOF 0
ENDMDL
