MODEL 1
REMARK minimizedAffinity -2.92672133
REMARK minimizedRMSD -1
REMARK  0 active torsions:
REMARK  status: ('A' for Active; 'I' for Inactive)
ROOT
ATOM      1  C4' PXY d   1      -0.597   1.902  -1.273  0.00  0.00     0.077 C 
ATOM      2  C1' PXY d   1       1.381  -1.410   3.033  0.00  0.00     0.077 C 
ATOM      3  C1  PXY d   1       0.870  -0.548   1.895  0.00  0.00    -0.082 A 
ATOM      4  C2  PXY d   1       0.332   0.632   2.159  0.00  0.00     0.003 A 
ATOM      5  C3  PXY d   1      -0.164   1.411   1.146  0.00  0.00     0.003 A 
ATOM      6  C4  PXY d   1      -0.059   1.001  -0.157  0.00  0.00    -0.082 A 
ATOM      7  C5  PXY d   1       0.498  -0.196  -0.435  0.00  0.00     0.003 A 
ATOM      8  C6  PXY d   1       0.958  -0.990   0.611  0.00  0.00     0.003 A 
ENDROOT
TORSDOF 0
ENDMDL
