MODEL 1
REMARK minimizedAffinity -1.46442139
REMARK minimizedRMSD -1
REMARK  0 active torsions:
REMARK  status: ('A' for Active; 'I' for Inactive)
ROOT
ATOM      1  C4' PXY d   1       0.127  -1.024   2.761  0.00  0.00     0.077 C 
ATOM      2  C1' PXY d   1      -0.620   2.186  -1.988  0.00  0.00     0.077 C 
ATOM      3  C1  PXY d   1      -0.418   1.355  -0.736  0.00  0.00    -0.082 A 
ATOM      4  C2  PXY d   1      -0.346   0.037  -0.831  0.00  0.00     0.003 A 
ATOM      5  C3  PXY d   1      -0.196  -0.732   0.294  0.00  0.00     0.003 A 
ATOM      6  C4  PXY d   1      -0.066  -0.144   1.523  0.00  0.00    -0.082 A 
ATOM      7  C5  PXY d   1      -0.128   1.201   1.627  0.00  0.00     0.003 A 
ATOM      8  C6  PXY d   1      -0.321   1.961   0.478  0.00  0.00     0.003 A 
ENDROOT
TORSDOF 0
ENDMDL
