MODEL 1
REMARK minimizedAffinity 0.904633641
REMARK minimizedRMSD -1
REMARK  0 active torsions:
REMARK  status: ('A' for Active; 'I' for Inactive)
ROOT
ATOM      1  C4' PXY d   1      -1.869  -0.830  -0.208  0.00  0.00     0.077 C 
ATOM      2  C1' PXY d   1       2.537  -0.810   3.535  0.00  0.00     0.077 C 
ATOM      3  C1  PXY d   1       1.373  -0.819   2.563  0.00  0.00    -0.082 A 
ATOM      4  C2  PXY d   1       1.606  -0.931   1.265  0.00  0.00     0.003 A 
ATOM      5  C3  PXY d   1       0.568  -0.909   0.370  0.00  0.00     0.003 A 
ATOM      6  C4  PXY d   1      -0.726  -0.825   0.811  0.00  0.00    -0.082 A 
ATOM      7  C5  PXY d   1      -0.972  -0.722   2.134  0.00  0.00     0.003 A 
ATOM      8  C6  PXY d   1       0.098  -0.704   3.024  0.00  0.00     0.003 A 
ENDROOT
TORSDOF 0
ENDMDL
