MODEL 1
REMARK minimizedAffinity 16.7866497
REMARK minimizedRMSD -1
REMARK  0 active torsions:
REMARK  status: ('A' for Active; 'I' for Inactive)
ROOT
ATOM      1  C2' OXE d   1       1.963  -0.640  -4.797  0.00  0.00     0.078 C 
ATOM      2  C1' OXE d   1      -0.092  -2.078  -3.536  0.00  0.00     0.078 C 
ATOM      3  C1  OXE d   1       0.955  -1.435  -2.662  0.00  0.00    -0.078 A 
ATOM      4  C2  OXE d   1       1.983  -0.773  -3.289  0.00  0.00    -0.078 A 
ATOM      5  C3  OXE d   1       2.946  -0.115  -2.529  0.00  0.00     0.003 A 
ATOM      6  C4  OXE d   1       2.963  -0.252  -1.135  0.00  0.00    -0.002 A 
ATOM      7  C5  OXE d   1       1.948  -0.955  -0.478  0.00  0.00    -0.002 A 
ATOM      8  C6  OXE d   1       0.915  -1.515  -1.222  0.00  0.00     0.003 A 
ENDROOT
TORSDOF 0
ENDMDL
