MODEL 1
REMARK minimizedAffinity 10.5072813
REMARK minimizedRMSD -1
REMARK  0 active torsions:
REMARK  status: ('A' for Active; 'I' for Inactive)
ROOT
ATOM      1  C2' OXE d   1       1.349   0.016  -3.704  0.00  0.00     0.078 C 
ATOM      2  C1' OXE d   1       2.501   0.355  -1.166  0.00  0.00     0.078 C 
ATOM      3  C1  OXE d   1       2.142  -1.046  -1.595  0.00  0.00    -0.078 A 
ATOM      4  C2  OXE d   1       1.536  -1.197  -2.819  0.00  0.00    -0.078 A 
ATOM      5  C3  OXE d   1       1.234  -2.473  -3.285  0.00  0.00     0.003 A 
ATOM      6  C4  OXE d   1       1.401  -3.589  -2.456  0.00  0.00    -0.002 A 
ATOM      7  C5  OXE d   1       1.979  -3.453  -1.190  0.00  0.00    -0.002 A 
ATOM      8  C6  OXE d   1       2.394  -2.196  -0.762  0.00  0.00     0.003 A 
ENDROOT
TORSDOF 0
ENDMDL
