MODEL 1
REMARK minimizedAffinity 13.9969702
REMARK minimizedRMSD -1
REMARK  0 active torsions:
REMARK  status: ('A' for Active; 'I' for Inactive)
ROOT
ATOM      1  C2' OXE d   1       0.191  -0.623  -2.882  0.00  0.00     0.078 C 
ATOM      2  C1' OXE d   1       0.147  -3.424  -3.070  0.00  0.00     0.078 C 
ATOM      3  C1  OXE d   1       1.025  -2.804  -2.012  0.00  0.00    -0.078 A 
ATOM      4  C2  OXE d   1       1.076  -1.431  -1.958  0.00  0.00    -0.078 A 
ATOM      5  C3  OXE d   1       1.828  -0.808  -0.965  0.00  0.00     0.003 A 
ATOM      6  C4  OXE d   1       2.651  -1.563  -0.121  0.00  0.00    -0.002 A 
ATOM      7  C5  OXE d   1       2.644  -2.960  -0.186  0.00  0.00    -0.002 A 
ATOM      8  C6  OXE d   1       1.806  -3.596  -1.095  0.00  0.00     0.003 A 
ENDROOT
TORSDOF 0
ENDMDL
