MODEL 1
REMARK minimizedAffinity 16.7282009
REMARK minimizedRMSD -1
REMARK  0 active torsions:
REMARK  status: ('A' for Active; 'I' for Inactive)
ROOT
ATOM      1  C2' OXE d   1       2.019  -1.672  -0.380  0.00  0.00     0.078 C 
ATOM      2  C1' OXE d   1       1.865  -0.194  -2.762  0.00  0.00     0.078 C 
ATOM      3  C1  OXE d   1       2.676   0.381  -1.628  0.00  0.00    -0.078 A 
ATOM      4  C2  OXE d   1       2.708  -0.326  -0.450  0.00  0.00    -0.078 A 
ATOM      5  C3  OXE d   1       3.486   0.133   0.609  0.00  0.00     0.003 A 
ATOM      6  C4  OXE d   1       4.111   1.383   0.539  0.00  0.00    -0.002 A 
ATOM      7  C5  OXE d   1       4.059   2.139  -0.637  0.00  0.00    -0.002 A 
ATOM      8  C6  OXE d   1       3.382   1.633  -1.742  0.00  0.00     0.003 A 
ENDROOT
TORSDOF 0
ENDMDL
