MODEL 1
REMARK minimizedAffinity 15.179101
REMARK minimizedRMSD -1
REMARK  0 active torsions:
REMARK  status: ('A' for Active; 'I' for Inactive)
ROOT
ATOM      1  C2' OXE d   1      -2.551  -6.000  -1.552  0.00  0.00     0.078 C 
ATOM      2  C1' OXE d   1      -0.051  -4.742  -1.777  0.00  0.00     0.078 C 
ATOM      3  C1  OXE d   1      -1.213  -4.138  -2.526  0.00  0.00    -0.078 A 
ATOM      4  C2  OXE d   1      -2.422  -4.787  -2.448  0.00  0.00    -0.078 A 
ATOM      5  C3  OXE d   1      -3.538  -4.242  -3.075  0.00  0.00     0.003 A 
ATOM      6  C4  OXE d   1      -3.408  -3.125  -3.910  0.00  0.00    -0.002 A 
ATOM      7  C5  OXE d   1      -2.177  -2.472  -4.035  0.00  0.00    -0.002 A 
ATOM      8  C6  OXE d   1      -1.082  -2.939  -3.317  0.00  0.00     0.003 A 
ENDROOT
TORSDOF 0
ENDMDL
