MODEL 1
REMARK minimizedAffinity 15.5033102
REMARK minimizedRMSD -1
REMARK  0 active torsions:
REMARK  status: ('A' for Active; 'I' for Inactive)
ROOT
ATOM      1  C2' OXE d   1       2.250   1.496   1.909  0.00  0.00     0.078 C 
ATOM      2  C1' OXE d   1      -0.497   1.782   2.411  0.00  0.00     0.078 C 
ATOM      3  C1  OXE d   1       0.437   1.776   3.595  0.00  0.00    -0.078 A 
ATOM      4  C2  OXE d   1       1.775   1.589   3.343  0.00  0.00    -0.078 A 
ATOM      5  C3  OXE d   1       2.686   1.630   4.395  0.00  0.00     0.003 A 
ATOM      6  C4  OXE d   1       2.237   1.706   5.719  0.00  0.00    -0.002 A 
ATOM      7  C5  OXE d   1       0.875   1.857   6.000  0.00  0.00    -0.002 A 
ATOM      8  C6  OXE d   1      -0.032   1.936   4.949  0.00  0.00     0.003 A 
ENDROOT
TORSDOF 0
ENDMDL
