MODEL 1
REMARK minimizedAffinity 3.53469253
REMARK minimizedRMSD -1
REMARK  0 active torsions:
REMARK  status: ('A' for Active; 'I' for Inactive)
ROOT
ATOM      1  C2' OXE d   1      -2.773  -1.015   0.377  0.00  0.00     0.078 C 
ATOM      2  C1' OXE d   1      -2.636  -3.708   1.159  0.00  0.00     0.078 C 
ATOM      3  C1  OXE d   1      -1.446  -3.122   0.440  0.00  0.00    -0.078 A 
ATOM      4  C2  OXE d   1      -1.540  -1.817   0.020  0.00  0.00    -0.078 A 
ATOM      5  C3  OXE d   1      -0.451  -1.211  -0.598  0.00  0.00     0.003 A 
ATOM      6  C4  OXE d   1       0.682  -1.963  -0.934  0.00  0.00    -0.002 A 
ATOM      7  C5  OXE d   1       0.783  -3.305  -0.551  0.00  0.00    -0.002 A 
ATOM      8  C6  OXE d   1      -0.252  -3.886   0.173  0.00  0.00     0.003 A 
ENDROOT
TORSDOF 0
ENDMDL
