MODEL 1
REMARK minimizedAffinity 24.4684696
REMARK minimizedRMSD -1
REMARK  0 active torsions:
REMARK  status: ('A' for Active; 'I' for Inactive)
ROOT
ATOM      1  C2' OXE d   1       3.650   0.581   0.478  0.00  0.00     0.078 C 
ATOM      2  C1' OXE d   1       3.025   1.887  -1.926  0.00  0.00     0.078 C 
ATOM      3  C1  OXE d   1       2.285   0.613  -1.605  0.00  0.00    -0.078 A 
ATOM      4  C2  OXE d   1       2.630  -0.044  -0.449  0.00  0.00    -0.078 A 
ATOM      5  C3  OXE d   1       1.940  -1.195  -0.078  0.00  0.00     0.003 A 
ATOM      6  C4  OXE d   1       1.005  -1.772  -0.946  0.00  0.00    -0.002 A 
ATOM      7  C5  OXE d   1       0.667  -1.139  -2.147  0.00  0.00    -0.002 A 
ATOM      8  C6  OXE d   1       1.265   0.073  -2.470  0.00  0.00     0.003 A 
ENDROOT
TORSDOF 0
ENDMDL
