MODEL 1
REMARK minimizedAffinity 9.35194778
REMARK minimizedRMSD -1
REMARK  0 active torsions:
REMARK  status: ('A' for Active; 'I' for Inactive)
ROOT
ATOM      1  C2' OXE d   1      -0.345   1.874   6.000  0.00  0.00     0.078 C 
ATOM      2  C1' OXE d   1      -0.401   1.606   3.206  0.00  0.00     0.078 C 
ATOM      3  C1  OXE d   1      -1.716   1.788   3.922  0.00  0.00    -0.078 A 
ATOM      4  C2  OXE d   1      -1.684   1.871   5.293  0.00  0.00    -0.078 A 
ATOM      5  C3  OXE d   1      -2.863   2.093   5.998  0.00  0.00     0.003 A 
ATOM      6  C4  OXE d   1      -4.097   2.080   5.338  0.00  0.00    -0.002 A 
ATOM      7  C5  OXE d   1      -4.156   1.956   3.946  0.00  0.00    -0.002 A 
ATOM      8  C6  OXE d   1      -2.975   1.853   3.220  0.00  0.00     0.003 A 
ENDROOT
TORSDOF 0
ENDMDL
