MODEL 1
REMARK minimizedAffinity 16.6122456
REMARK minimizedRMSD -1
REMARK  0 active torsions:
REMARK  status: ('A' for Active; 'I' for Inactive)
ROOT
ATOM      1  C2' OXE d   1       1.325   0.247  -3.770  0.00  0.00     0.078 C 
ATOM      2  C1' OXE d   1       2.649   0.484  -1.305  0.00  0.00     0.078 C 
ATOM      3  C1  OXE d   1       1.842  -0.766  -1.553  0.00  0.00    -0.078 A 
ATOM      4  C2  OXE d   1       1.160  -0.852  -2.743  0.00  0.00    -0.078 A 
ATOM      5  C3  OXE d   1       0.445  -2.008  -3.045  0.00  0.00     0.003 A 
ATOM      6  C4  OXE d   1       0.289  -3.016  -2.086  0.00  0.00    -0.002 A 
ATOM      7  C5  OXE d   1       0.943  -2.930  -0.853  0.00  0.00    -0.002 A 
ATOM      8  C6  OXE d   1       1.756  -1.833  -0.588  0.00  0.00     0.003 A 
ENDROOT
TORSDOF 0
ENDMDL
