MODEL 1
REMARK minimizedAffinity 14.9119654
REMARK minimizedRMSD -1
REMARK  0 active torsions:
REMARK  status: ('A' for Active; 'I' for Inactive)
ROOT
ATOM      1  C2' OXE d   1       2.657   1.686  -2.124  0.00  0.00     0.078 C 
ATOM      2  C1' OXE d   1       4.221   0.418  -0.167  0.00  0.00     0.078 C 
ATOM      3  C1  OXE d   1       3.084  -0.364  -0.774  0.00  0.00    -0.078 A 
ATOM      4  C2  OXE d   1       2.295   0.280  -1.697  0.00  0.00    -0.078 A 
ATOM      5  C3  OXE d   1       1.266  -0.414  -2.327  0.00  0.00     0.003 A 
ATOM      6  C4  OXE d   1       0.931  -1.711  -1.920  0.00  0.00    -0.002 A 
ATOM      7  C5  OXE d   1       1.697  -2.371  -0.953  0.00  0.00    -0.002 A 
ATOM      8  C6  OXE d   1       2.800  -1.728  -0.402  0.00  0.00     0.003 A 
ENDROOT
TORSDOF 0
ENDMDL
