MODEL 1
REMARK minimizedAffinity 0.872846246
REMARK minimizedRMSD -1
REMARK  0 active torsions:
REMARK  status: ('A' for Active; 'I' for Inactive)
ROOT
ATOM      1  C2' OXE d   1      -5.178  -3.174  -5.615  0.00  0.00     0.078 C 
ATOM      2  C1' OXE d   1      -4.964  -5.946  -6.000  0.00  0.00     0.078 C 
ATOM      3  C1  OXE d   1      -3.914  -5.270  -5.154  0.00  0.00    -0.078 A 
ATOM      4  C2  OXE d   1      -4.001  -3.906  -5.009  0.00  0.00    -0.078 A 
ATOM      5  C3  OXE d   1      -3.090  -3.240  -4.194  0.00  0.00     0.003 A 
ATOM      6  C4  OXE d   1      -1.998  -3.923  -3.646  0.00  0.00    -0.002 A 
ATOM      7  C5  OXE d   1      -1.868  -5.306  -3.814  0.00  0.00    -0.002 A 
ATOM      8  C6  OXE d   1      -2.839  -5.999  -4.528  0.00  0.00     0.003 A 
ENDROOT
TORSDOF 0
ENDMDL
