MODEL 1
REMARK minimizedAffinity 11.0966091
REMARK minimizedRMSD -1
REMARK  0 active torsions:
REMARK  status: ('A' for Active; 'I' for Inactive)
ROOT
ATOM      1  C2' OXE d   1       0.001  -5.999  -2.906  0.00  0.00     0.078 C 
ATOM      2  C1' OXE d   1      -0.771  -6.000  -5.605  0.00  0.00     0.078 C 
ATOM      3  C1  OXE d   1      -1.421  -4.995  -4.688  0.00  0.00    -0.078 A 
ATOM      4  C2  OXE d   1      -1.072  -5.032  -3.360  0.00  0.00    -0.078 A 
ATOM      5  C3  OXE d   1      -1.601  -4.092  -2.481  0.00  0.00     0.003 A 
ATOM      6  C4  OXE d   1      -2.600  -3.208  -2.906  0.00  0.00    -0.002 A 
ATOM      7  C5  OXE d   1      -2.999  -3.179  -4.247  0.00  0.00    -0.002 A 
ATOM      8  C6  OXE d   1      -2.390  -4.035  -5.157  0.00  0.00     0.003 A 
ENDROOT
TORSDOF 0
ENDMDL
