MODEL 1
REMARK minimizedAffinity 1.82649207
REMARK minimizedRMSD -1
REMARK  0 active torsions:
REMARK  status: ('A' for Active; 'I' for Inactive)
ROOT
ATOM      1  C2' OXE d   1      -4.940  -3.226  -5.684  0.00  0.00     0.078 C 
ATOM      2  C1' OXE d   1      -4.648  -6.000  -5.999  0.00  0.00     0.078 C 
ATOM      3  C1  OXE d   1      -3.671  -5.287  -5.098  0.00  0.00    -0.078 A 
ATOM      4  C2  OXE d   1      -3.793  -3.923  -4.986  0.00  0.00    -0.078 A 
ATOM      5  C3  OXE d   1      -2.952  -3.224  -4.125  0.00  0.00     0.003 A 
ATOM      6  C4  OXE d   1      -1.887  -3.875  -3.490  0.00  0.00    -0.002 A 
ATOM      7  C5  OXE d   1      -1.721  -5.258  -3.622  0.00  0.00    -0.002 A 
ATOM      8  C6  OXE d   1      -2.628  -5.984  -4.386  0.00  0.00     0.003 A 
ENDROOT
TORSDOF 0
ENDMDL
