MODEL 1
REMARK minimizedAffinity -2.26527143
REMARK minimizedRMSD -1
REMARK  0 active torsions:
REMARK  status: ('A' for Active; 'I' for Inactive)
ROOT
ATOM      1  C2' OXE d   1      -4.535  -2.807  -5.259  0.00  0.00     0.078 C 
ATOM      2  C1' OXE d   1      -4.741  -5.531  -5.904  0.00  0.00     0.078 C 
ATOM      3  C1  OXE d   1      -3.514  -5.077  -5.154  0.00  0.00    -0.078 A 
ATOM      4  C2  OXE d   1      -3.400  -3.735  -4.883  0.00  0.00    -0.078 A 
ATOM      5  C3  OXE d   1      -2.314  -3.270  -4.146  0.00  0.00     0.003 A 
ATOM      6  C4  OXE d   1      -1.263  -4.133  -3.812  0.00  0.00    -0.002 A 
ATOM      7  C5  OXE d   1      -1.341  -5.497  -4.113  0.00  0.00    -0.002 A 
ATOM      8  C6  OXE d   1      -2.477  -5.991  -4.744  0.00  0.00     0.003 A 
ENDROOT
TORSDOF 0
ENDMDL
