MODEL 1
REMARK minimizedAffinity 10.7559595
REMARK minimizedRMSD -1
REMARK  0 active torsions:
REMARK  status: ('A' for Active; 'I' for Inactive)
ROOT
ATOM      1  C2' OXE d   1       3.975  -1.865   0.205  0.00  0.00     0.078 C 
ATOM      2  C1' OXE d   1       2.985   0.584  -0.743  0.00  0.00     0.078 C 
ATOM      3  C1  OXE d   1       2.174  -0.657  -1.021  0.00  0.00    -0.078 A 
ATOM      4  C2  OXE d   1       2.690  -1.857  -0.593  0.00  0.00    -0.078 A 
ATOM      5  C3  OXE d   1       1.956  -3.026  -0.775  0.00  0.00     0.003 A 
ATOM      6  C4  OXE d   1       0.773  -3.011  -1.524  0.00  0.00    -0.002 A 
ATOM      7  C5  OXE d   1       0.251  -1.805  -2.002  0.00  0.00    -0.002 A 
ATOM      8  C6  OXE d   1       0.916  -0.616  -1.723  0.00  0.00     0.003 A 
ENDROOT
TORSDOF 0
ENDMDL
