MODEL 1
REMARK minimizedAffinity 13.4854403
REMARK minimizedRMSD -1
REMARK  0 active torsions:
REMARK  status: ('A' for Active; 'I' for Inactive)
ROOT
ATOM      1  C2' OXE d   1       1.544   0.561  -3.699  0.00  0.00     0.078 C 
ATOM      2  C1' OXE d   1       2.910  -1.566  -4.918  0.00  0.00     0.078 C 
ATOM      3  C1  OXE d   1       2.530  -1.714  -3.465  0.00  0.00    -0.078 A 
ATOM      4  C2  OXE d   1       1.904  -0.649  -2.864  0.00  0.00    -0.078 A 
ATOM      5  C3  OXE d   1       1.483  -0.754  -1.542  0.00  0.00     0.003 A 
ATOM      6  C4  OXE d   1       1.828  -1.873  -0.774  0.00  0.00    -0.002 A 
ATOM      7  C5  OXE d   1       2.501  -2.952  -1.356  0.00  0.00    -0.002 A 
ATOM      8  C6  OXE d   1       2.821  -2.907  -2.709  0.00  0.00     0.003 A 
ENDROOT
TORSDOF 0
ENDMDL
