MODEL 1
REMARK minimizedAffinity 15.3554478
REMARK minimizedRMSD -1
REMARK  0 active torsions:
REMARK  status: ('A' for Active; 'I' for Inactive)
ROOT
ATOM      1  C2' OXE d   1      -5.774   3.130   3.393  0.00  0.00     0.078 C 
ATOM      2  C1' OXE d   1      -4.723   3.054   5.995  0.00  0.00     0.078 C 
ATOM      3  C1  OXE d   1      -4.304   1.968   5.035  0.00  0.00    -0.078 A 
ATOM      4  C2  OXE d   1      -4.860   1.987   3.778  0.00  0.00    -0.078 A 
ATOM      5  C3  OXE d   1      -4.466   1.041   2.836  0.00  0.00     0.003 A 
ATOM      6  C4  OXE d   1      -3.628  -0.019   3.204  0.00  0.00    -0.002 A 
ATOM      7  C5  OXE d   1      -3.083  -0.080   4.490  0.00  0.00    -0.002 A 
ATOM      8  C6  OXE d   1      -3.376   0.927   5.403  0.00  0.00     0.003 A 
ENDROOT
TORSDOF 0
ENDMDL
