MODEL 1
REMARK minimizedAffinity 3.05481195
REMARK minimizedRMSD -1
REMARK  0 active torsions:
REMARK  status: ('A' for Active; 'I' for Inactive)
ROOT
ATOM      1  C   UNL d   1       0.993  -0.876   0.972  0.00  0.00     0.172 C 
ATOM      2  N   UNL d   1      -0.249  -0.499   0.339  0.00  0.00    -0.070 N 
ATOM      3  C1  UNL d   1      -0.570   0.756  -0.105  0.00  0.00    -0.004 A 
ATOM      4  C2  UNL d   1      -1.837   0.702  -0.645  0.00  0.00    -0.047 A 
ATOM      5  C3  UNL d   1      -2.294  -0.632  -0.519  0.00  0.00    -0.047 A 
ATOM      6  C4  UNL d   1      -1.291  -1.354   0.093  0.00  0.00    -0.004 A 
ENDROOT
TORSDOF 0
ENDMDL
