MODEL 1
REMARK minimizedAffinity -3.51167011
REMARK minimizedRMSD -1
REMARK  0 active torsions:
REMARK  status: ('A' for Active; 'I' for Inactive)
ROOT
ATOM      1  C   UNL d   1      -0.646   0.547   3.062  0.00  0.00     0.172 C 
ATOM      2  N   UNL d   1      -0.432  -0.009   1.747  0.00  0.00    -0.070 N 
ATOM      3  C1  UNL d   1      -1.387  -0.155   0.777  0.00  0.00    -0.004 A 
ATOM      4  C2  UNL d   1      -0.786  -0.722  -0.326  0.00  0.00    -0.047 A 
ATOM      5  C3  UNL d   1       0.578  -0.924  -0.008  0.00  0.00    -0.047 A 
ATOM      6  C4  UNL d   1       0.770  -0.474   1.282  0.00  0.00    -0.004 A 
ENDROOT
TORSDOF 0
ENDMDL
