MODEL 1
REMARK minimizedAffinity -2.50297189
REMARK minimizedRMSD -1
REMARK  0 active torsions:
REMARK  status: ('A' for Active; 'I' for Inactive)
ROOT
ATOM      1  C   UNL d   1      -1.378   0.878   2.305  0.00  0.00     0.172 C 
ATOM      2  N   UNL d   1      -0.703   0.359   1.139  0.00  0.00    -0.070 N 
ATOM      3  C1  UNL d   1      -1.305  -0.009  -0.035  0.00  0.00    -0.004 A 
ATOM      4  C2  UNL d   1      -0.321  -0.449  -0.894  0.00  0.00    -0.047 A 
ATOM      5  C3  UNL d   1       0.915  -0.343  -0.213  0.00  0.00    -0.047 A 
ATOM      6  C4  UNL d   1       0.649   0.160   1.043  0.00  0.00    -0.004 A 
ENDROOT
TORSDOF 0
ENDMDL
