MODEL 1
REMARK minimizedAffinity -1.22197151
REMARK minimizedRMSD -1
REMARK  0 active torsions:
REMARK  status: ('A' for Active; 'I' for Inactive)
ROOT
ATOM      1  C   UNL d   1      -1.899   0.225   0.253  0.00  0.00     0.172 C 
ATOM      2  N   UNL d   1      -0.518  -0.144   0.050  0.00  0.00    -0.070 N 
ATOM      3  C1  UNL d   1       0.033  -0.554  -1.135  0.00  0.00    -0.004 A 
ATOM      4  C2  UNL d   1       1.369  -0.811  -0.913  0.00  0.00    -0.047 A 
ATOM      5  C3  UNL d   1       1.629  -0.548   0.453  0.00  0.00    -0.047 A 
ATOM      6  C4  UNL d   1       0.444  -0.137   1.025  0.00  0.00    -0.004 A 
ENDROOT
TORSDOF 0
ENDMDL
