MODEL 1
REMARK minimizedAffinity -3.7147429
REMARK minimizedRMSD -1
REMARK  0 active torsions:
REMARK  status: ('A' for Active; 'I' for Inactive)
ROOT
ATOM      1  C   UNL d   1       1.490  -0.065   1.891  0.00  0.00     0.172 C 
ATOM      2  N   UNL d   1       0.162   0.373   1.529  0.00  0.00    -0.070 N 
ATOM      3  C1  UNL d   1      -0.511   0.022   0.390  0.00  0.00    -0.004 A 
ATOM      4  C2  UNL d   1      -1.741   0.645   0.418  0.00  0.00    -0.047 A 
ATOM      5  C3  UNL d   1      -1.808   1.396   1.615  0.00  0.00    -0.047 A 
ATOM      6  C4  UNL d   1      -0.617   1.209   2.284  0.00  0.00    -0.004 A 
ENDROOT
TORSDOF 0
ENDMDL
