MODEL 1
REMARK minimizedAffinity -0.150929809
REMARK minimizedRMSD -1
REMARK  0 active torsions:
REMARK  status: ('A' for Active; 'I' for Inactive)
ROOT
ATOM      1  C   UNL d   1       3.018   1.623  -2.470  0.00  0.00     0.172 C 
ATOM      2  N   UNL d   1       1.805   1.017  -2.967  0.00  0.00    -0.070 N 
ATOM      3  C1  UNL d   1       1.307   1.154  -4.235  0.00  0.00    -0.004 A 
ATOM      4  C2  UNL d   1       0.140   0.424  -4.311  0.00  0.00    -0.047 A 
ATOM      5  C3  UNL d   1      -0.071  -0.171  -3.044  0.00  0.00    -0.047 A 
ATOM      6  C4  UNL d   1       0.975   0.213  -2.232  0.00  0.00    -0.004 A 
ENDROOT
TORSDOF 0
ENDMDL
