MODEL 1
REMARK minimizedAffinity -4.12252188
REMARK minimizedRMSD -1
REMARK  0 active torsions:
REMARK  status: ('A' for Active; 'I' for Inactive)
ROOT
ATOM      1  C   UNL d   1       0.561  -0.647  -0.433  0.00  0.00     0.172 C 
ATOM      2  N   UNL d   1       0.244   0.015   0.810  0.00  0.00    -0.070 N 
ATOM      3  C1  UNL d   1      -0.922   0.677   1.087  0.00  0.00    -0.004 A 
ATOM      4  C2  UNL d   1      -0.835   1.167   2.373  0.00  0.00    -0.047 A 
ATOM      5  C3  UNL d   1       0.428   0.786   2.886  0.00  0.00    -0.047 A 
ATOM      6  C4  UNL d   1       1.075   0.074   1.898  0.00  0.00    -0.004 A 
ENDROOT
TORSDOF 0
ENDMDL
