MODEL 1
REMARK minimizedAffinity 1.64461076
REMARK minimizedRMSD -1
REMARK  2 active torsions:
REMARK  status: ('A' for Active; 'I' for Inactive)
REMARK    1  A    between atoms: C2'_3  and  C1'_4 
REMARK    2  A    between atoms: C1'_4  and  C1_5 
ROOT
ATOM      1  C1  I4B d   1       0.561  -3.391   0.487  0.00  0.00    -0.075 A 
ATOM      2  C2  I4B d   1       0.523  -4.671  -0.010  0.00  0.00     0.003 A 
ATOM      3  C3  I4B d   1       0.515  -4.893  -1.408  0.00  0.00     0.002 A 
ATOM      4  C4  I4B d   1       0.493  -3.814  -2.268  0.00  0.00    -0.004 A 
ATOM      5  C5  I4B d   1       0.555  -2.518  -1.763  0.00  0.00     0.002 A 
ATOM      6  C6  I4B d   1       0.601  -2.305  -0.378  0.00  0.00     0.003 A 
ENDROOT
BRANCH   1   7
ATOM      7  C1' I4B d   1       0.535  -3.192   1.969  0.00  0.00     0.060 C 
BRANCH   7   8
ATOM      8  C2' I4B d   1      -0.863  -2.756   2.358  0.00  0.00    -0.013 C 
ATOM      9  C4' I4B d   1      -0.827  -1.735   3.464  0.00  0.00     0.013 C 
ATOM     10  C3' I4B d   1      -1.533  -2.206   1.134  0.00  0.00     0.013 C 
ENDBRANCH   7   8
ENDBRANCH   1   7
TORSDOF 2
ENDMDL
