MODEL 1
REMARK minimizedAffinity 4.78771639
REMARK minimizedRMSD -1
REMARK  2 active torsions:
REMARK  status: ('A' for Active; 'I' for Inactive)
REMARK    1  A    between atoms: C2'_3  and  C1'_4 
REMARK    2  A    between atoms: C1'_4  and  C1_5 
ROOT
ATOM      1  C1  I4B d   1      -1.309   2.264  -0.816  0.00  0.00    -0.075 A 
ATOM      2  C2  I4B d   1      -2.387   2.565  -1.610  0.00  0.00     0.003 A 
ATOM      3  C3  I4B d   1      -2.996   3.841  -1.533  0.00  0.00     0.002 A 
ATOM      4  C4  I4B d   1      -2.529   4.762  -0.618  0.00  0.00    -0.004 A 
ATOM      5  C5  I4B d   1      -1.421   4.464   0.170  0.00  0.00     0.002 A 
ATOM      6  C6  I4B d   1      -0.799   3.212   0.062  0.00  0.00     0.003 A 
ENDROOT
BRANCH   1   7
ATOM      7  C1' I4B d   1      -0.711   0.895  -0.900  0.00  0.00     0.060 C 
BRANCH   7   8
ATOM      8  C2' I4B d   1       0.492   0.967  -1.818  0.00  0.00    -0.013 C 
ATOM      9  C4' I4B d   1       1.745   1.297  -1.050  0.00  0.00     0.013 C 
ATOM     10  C3' I4B d   1       0.619  -0.353  -2.519  0.00  0.00     0.013 C 
ENDBRANCH   7   8
ENDBRANCH   1   7
TORSDOF 2
ENDMDL
