MODEL 1
REMARK minimizedAffinity 1.81719995
REMARK minimizedRMSD -1
REMARK  2 active torsions:
REMARK  status: ('A' for Active; 'I' for Inactive)
REMARK    1  A    between atoms: C2'_3  and  C1'_4 
REMARK    2  A    between atoms: C1'_4  and  C1_5 
ROOT
ATOM      1  C1  I4B d   1      -0.772  -2.346   0.257  0.00  0.00    -0.075 A 
ATOM      2  C2  I4B d   1      -0.585  -2.840   1.524  0.00  0.00     0.003 A 
ATOM      3  C3  I4B d   1      -0.951  -2.067   2.652  0.00  0.00     0.002 A 
ATOM      4  C4  I4B d   1      -1.451  -0.794   2.471  0.00  0.00    -0.004 A 
ATOM      5  C5  I4B d   1      -1.661  -0.303   1.185  0.00  0.00     0.002 A 
ATOM      6  C6  I4B d   1      -1.332  -1.088   0.071  0.00  0.00     0.003 A 
ENDROOT
BRANCH   1   7
ATOM      7  C1' I4B d   1      -0.343  -3.176  -0.911  0.00  0.00     0.060 C 
BRANCH   7   8
ATOM      8  C2' I4B d   1      -0.490  -2.332  -2.161  0.00  0.00    -0.013 C 
ATOM      9  C4' I4B d   1       0.483  -1.183  -2.160  0.00  0.00     0.013 C 
ATOM     10  C3' I4B d   1      -0.274  -3.223  -3.348  0.00  0.00     0.013 C 
ENDBRANCH   7   8
ENDBRANCH   1   7
TORSDOF 2
ENDMDL
