MODEL 1
REMARK minimizedAffinity -3.57676435
REMARK minimizedRMSD -1
REMARK  2 active torsions:
REMARK  status: ('A' for Active; 'I' for Inactive)
REMARK    1  A    between atoms: C2'_3  and  C1'_4 
REMARK    2  A    between atoms: C1'_4  and  C1_5 
ROOT
ATOM      1  C1  I4B d   1       0.414  -2.848   0.460  0.00  0.00    -0.075 A 
ATOM      2  C2  I4B d   1       0.331  -4.104  -0.088  0.00  0.00     0.003 A 
ATOM      3  C3  I4B d   1       0.297  -4.268  -1.494  0.00  0.00     0.002 A 
ATOM      4  C4  I4B d   1       0.297  -3.153  -2.308  0.00  0.00    -0.004 A 
ATOM      5  C5  I4B d   1       0.404  -1.882  -1.751  0.00  0.00     0.002 A 
ATOM      6  C6  I4B d   1       0.475  -1.729  -0.359  0.00  0.00     0.003 A 
ENDROOT
BRANCH   1   7
ATOM      7  C1' I4B d   1       0.415  -2.710   1.950  0.00  0.00     0.060 C 
BRANCH   7   8
ATOM      8  C2' I4B d   1      -1.008  -2.437   2.394  0.00  0.00    -0.013 C 
ATOM      9  C4' I4B d   1      -1.050  -1.381   3.467  0.00  0.00     0.013 C 
ATOM     10  C3' I4B d   1      -1.796  -2.017   1.189  0.00  0.00     0.013 C 
ENDBRANCH   7   8
ENDBRANCH   1   7
TORSDOF 2
ENDMDL
