MODEL 1
REMARK minimizedAffinity 8.99044991
REMARK minimizedRMSD -1
REMARK  2 active torsions:
REMARK  status: ('A' for Active; 'I' for Inactive)
REMARK    1  A    between atoms: C2'_3  and  C1'_4 
REMARK    2  A    between atoms: C1'_4  and  C1_5 
ROOT
ATOM      1  C1  I4B d   1       0.953  -1.271  -1.417  0.00  0.00    -0.075 A 
ATOM      2  C2  I4B d   1       0.180  -0.294  -1.994  0.00  0.00     0.003 A 
ATOM      3  C3  I4B d   1       0.672   1.029  -2.109  0.00  0.00     0.002 A 
ATOM      4  C4  I4B d   1       1.913   1.340  -1.592  0.00  0.00    -0.004 A 
ATOM      5  C5  I4B d   1       2.704   0.344  -1.028  0.00  0.00     0.002 A 
ATOM      6  C6  I4B d   1       2.227  -0.973  -0.951  0.00  0.00     0.003 A 
ENDROOT
BRANCH   1   7
ATOM      7  C1' I4B d   1       0.390  -2.650  -1.282  0.00  0.00     0.060 C 
BRANCH   7   8
ATOM      8  C2' I4B d   1      -0.750  -2.593  -0.286  0.00  0.00    -0.013 C 
ATOM      9  C4' I4B d   1      -2.041  -3.058  -0.906  0.00  0.00     0.013 C 
ATOM     10  C3' I4B d   1      -0.379  -3.443   0.892  0.00  0.00     0.013 C 
ENDBRANCH   7   8
ENDBRANCH   1   7
TORSDOF 2
ENDMDL
