MODEL 1
REMARK minimizedAffinity 4.01961184
REMARK minimizedRMSD -1
REMARK  2 active torsions:
REMARK  status: ('A' for Active; 'I' for Inactive)
REMARK    1  A    between atoms: C2'_3  and  C1'_4 
REMARK    2  A    between atoms: C1'_4  and  C1_5 
ROOT
ATOM      1  C1  I4B d   1       0.510  -0.511  -2.010  0.00  0.00    -0.075 A 
ATOM      2  C2  I4B d   1       0.234  -1.386  -0.990  0.00  0.00     0.003 A 
ATOM      3  C3  I4B d   1      -0.192  -2.705  -1.278  0.00  0.00     0.002 A 
ATOM      4  C4  I4B d   1      -0.376  -3.088  -2.591  0.00  0.00    -0.004 A 
ATOM      5  C5  I4B d   1      -0.074  -2.206  -3.625  0.00  0.00     0.002 A 
ATOM      6  C6  I4B d   1       0.384  -0.913  -3.333  0.00  0.00     0.003 A 
ENDROOT
BRANCH   1   7
ATOM      7  C1' I4B d   1       0.927   0.885  -1.669  0.00  0.00     0.060 C 
BRANCH   7   8
ATOM      8  C2' I4B d   1       2.438   0.956  -1.757  0.00  0.00    -0.013 C 
ATOM      9  C4' I4B d   1       2.889   2.282  -2.310  0.00  0.00     0.013 C 
ATOM     10  C3' I4B d   1       2.993   0.725  -0.384  0.00  0.00     0.013 C 
ENDBRANCH   7   8
ENDBRANCH   1   7
TORSDOF 2
ENDMDL
