MODEL 1
REMARK minimizedAffinity 8.92294979
REMARK minimizedRMSD -1
REMARK  2 active torsions:
REMARK  status: ('A' for Active; 'I' for Inactive)
REMARK    1  A    between atoms: C2'_3  and  C1'_4 
REMARK    2  A    between atoms: C1'_4  and  C1_5 
ROOT
ATOM      1  C1  I4B d   1      -0.124  -2.310  -0.876  0.00  0.00    -0.075 A 
ATOM      2  C2  I4B d   1      -0.396  -3.398  -1.668  0.00  0.00     0.003 A 
ATOM      3  C3  I4B d   1      -0.085  -3.370  -3.049  0.00  0.00     0.002 A 
ATOM      4  C4  I4B d   1       0.446  -2.224  -3.603  0.00  0.00    -0.004 A 
ATOM      5  C5  I4B d   1       0.743  -1.130  -2.795  0.00  0.00     0.002 A 
ATOM      6  C6  I4B d   1       0.467  -1.178  -1.421  0.00  0.00     0.003 A 
ENDROOT
BRANCH   1   7
ATOM      7  C1' I4B d   1      -0.495  -2.362   0.572  0.00  0.00     0.060 C 
BRANCH   7   8
ATOM      8  C2' I4B d   1      -1.654  -1.410   0.790  0.00  0.00    -0.013 C 
ATOM      9  C4' I4B d   1      -1.354  -0.047   0.226  0.00  0.00     0.013 C 
ATOM     10  C3' I4B d   1      -2.870  -2.007   0.147  0.00  0.00     0.013 C 
ENDBRANCH   7   8
ENDBRANCH   1   7
TORSDOF 2
ENDMDL
