MODEL 1
REMARK minimizedAffinity 3.37563062
REMARK minimizedRMSD -1
REMARK  2 active torsions:
REMARK  status: ('A' for Active; 'I' for Inactive)
REMARK    1  A    between atoms: C2'_3  and  C1'_4 
REMARK    2  A    between atoms: C1'_4  and  C1_5 
ROOT
ATOM      1  C1  I4B d   1       1.077  -0.800  -1.024  0.00  0.00    -0.075 A 
ATOM      2  C2  I4B d   1       2.223  -1.112  -0.336  0.00  0.00     0.003 A 
ATOM      3  C3  I4B d   1       2.973  -0.092   0.299  0.00  0.00     0.002 A 
ATOM      4  C4  I4B d   1       2.571   1.222   0.179  0.00  0.00    -0.004 A 
ATOM      5  C5  I4B d   1       1.396   1.534  -0.499  0.00  0.00     0.002 A 
ATOM      6  C6  I4B d   1       0.637   0.516  -1.094  0.00  0.00     0.003 A 
ENDROOT
BRANCH   1   7
ATOM      7  C1' I4B d   1       0.327  -1.897  -1.710  0.00  0.00     0.060 C 
BRANCH   7   8
ATOM      8  C2' I4B d   1       0.069  -2.992  -0.695  0.00  0.00    -0.013 C 
ATOM      9  C4' I4B d   1      -1.199  -2.735   0.075  0.00  0.00     0.013 C 
ATOM     10  C3' I4B d   1       0.001  -4.298  -1.430  0.00  0.00     0.013 C 
ENDBRANCH   7   8
ENDBRANCH   1   7
TORSDOF 2
ENDMDL
