MODEL 1
REMARK minimizedAffinity 3.99834919
REMARK minimizedRMSD -1
REMARK  2 active torsions:
REMARK  status: ('A' for Active; 'I' for Inactive)
REMARK    1  A    between atoms: C2'_3  and  C1'_4 
REMARK    2  A    between atoms: C1'_4  and  C1_5 
ROOT
ATOM      1  C1  I4B d   1      -2.032  -3.194  -0.129  0.00  0.00    -0.075 A 
ATOM      2  C2  I4B d   1      -2.167  -1.832  -0.236  0.00  0.00     0.003 A 
ATOM      3  C3  I4B d   1      -1.486  -0.976   0.663  0.00  0.00     0.002 A 
ATOM      4  C4  I4B d   1      -0.728  -1.521   1.679  0.00  0.00    -0.004 A 
ATOM      5  C5  I4B d   1      -0.574  -2.901   1.772  0.00  0.00     0.002 A 
ATOM      6  C6  I4B d   1      -1.220  -3.743   0.855  0.00  0.00     0.003 A 
ENDROOT
BRANCH   1   7
ATOM      7  C1' I4B d   1      -2.791  -4.070  -1.075  0.00  0.00     0.060 C 
BRANCH   7   8
ATOM      8  C2' I4B d   1      -2.230  -3.852  -2.465  0.00  0.00    -0.013 C 
ATOM      9  C4' I4B d   1      -1.032  -4.731  -2.713  0.00  0.00     0.013 C 
ATOM     10  C3' I4B d   1      -3.322  -4.132  -3.454  0.00  0.00     0.013 C 
ENDBRANCH   7   8
ENDBRANCH   1   7
TORSDOF 2
ENDMDL
