MODEL 1
REMARK minimizedAffinity 9.42785263
REMARK minimizedRMSD -1
REMARK  2 active torsions:
REMARK  status: ('A' for Active; 'I' for Inactive)
REMARK    1  A    between atoms: C2'_3  and  C1'_4 
REMARK    2  A    between atoms: C1'_4  and  C1_5 
ROOT
ATOM      1  C1  I4B d   1       0.623  -0.826  -1.903  0.00  0.00    -0.075 A 
ATOM      2  C2  I4B d   1      -0.077  -1.718  -1.129  0.00  0.00     0.003 A 
ATOM      3  C3  I4B d   1      -0.573  -2.917  -1.696  0.00  0.00     0.002 A 
ATOM      4  C4  I4B d   1      -0.392  -3.158  -3.043  0.00  0.00    -0.004 A 
ATOM      5  C5  I4B d   1       0.338  -2.263  -3.820  0.00  0.00     0.002 A 
ATOM      6  C6  I4B d   1       0.859  -1.095  -3.244  0.00  0.00     0.003 A 
ENDROOT
BRANCH   1   7
ATOM      7  C1' I4B d   1       1.104   0.446  -1.279  0.00  0.00     0.060 C 
BRANCH   7   8
ATOM      8  C2' I4B d   1       2.592   0.561  -1.541  0.00  0.00    -0.013 C 
ATOM      9  C4' I4B d   1       2.926   1.860  -2.226  0.00  0.00     0.013 C 
ATOM     10  C3' I4B d   1       3.303   0.442  -0.226  0.00  0.00     0.013 C 
ENDBRANCH   7   8
ENDBRANCH   1   7
TORSDOF 2
ENDMDL
