MODEL 1
REMARK minimizedAffinity 16.6005096
REMARK minimizedRMSD -1
REMARK  2 active torsions:
REMARK  status: ('A' for Active; 'I' for Inactive)
REMARK    1  A    between atoms: C2'_3  and  C1'_4 
REMARK    2  A    between atoms: C1'_4  and  C1_5 
ROOT
ATOM      1  C1  I4B d   1       2.969  -0.358  -0.208  0.00  0.00    -0.075 A 
ATOM      2  C2  I4B d   1       2.061  -1.214  -0.780  0.00  0.00     0.003 A 
ATOM      3  C3  I4B d   1       1.126  -0.732  -1.727  0.00  0.00     0.002 A 
ATOM      4  C4  I4B d   1       1.100   0.614  -2.033  0.00  0.00    -0.004 A 
ATOM      5  C5  I4B d   1       2.036   1.476  -1.469  0.00  0.00     0.002 A 
ATOM      6  C6  I4B d   1       2.985   0.985  -0.560  0.00  0.00     0.003 A 
ENDROOT
BRANCH   1   7
ATOM      7  C1' I4B d   1       3.921  -0.895   0.814  0.00  0.00     0.060 C 
BRANCH   7   8
ATOM      8  C2' I4B d   1       3.908  -2.407   0.714  0.00  0.00    -0.013 C 
ATOM      9  C4' I4B d   1       5.170  -2.921   0.073  0.00  0.00     0.013 C 
ATOM     10  C3' I4B d   1       3.740  -2.960   2.098  0.00  0.00     0.013 C 
ENDBRANCH   7   8
ENDBRANCH   1   7
TORSDOF 2
ENDMDL
