MODEL 1
REMARK minimizedAffinity 5.79088688
REMARK minimizedRMSD -1
REMARK  2 active torsions:
REMARK  status: ('A' for Active; 'I' for Inactive)
REMARK    1  A    between atoms: C2'_3  and  C1'_4 
REMARK    2  A    between atoms: C1'_4  and  C1_5 
ROOT
ATOM      1  C1  I4B d   1       1.143  -1.105  -2.038  0.00  0.00    -0.075 A 
ATOM      2  C2  I4B d   1       0.813   0.212  -2.242  0.00  0.00     0.003 A 
ATOM      3  C3  I4B d   1       1.612   1.242  -1.689  0.00  0.00     0.002 A 
ATOM      4  C4  I4B d   1       2.696   0.912  -0.901  0.00  0.00    -0.004 A 
ATOM      5  C5  I4B d   1       3.043  -0.423  -0.714  0.00  0.00     0.002 A 
ATOM      6  C6  I4B d   1       2.269  -1.438  -1.295  0.00  0.00     0.003 A 
ENDROOT
BRANCH   1   7
ATOM      7  C1' I4B d   1       0.259  -2.167  -2.609  0.00  0.00     0.060 C 
BRANCH   7   8
ATOM      8  C2' I4B d   1       0.060  -3.230  -1.547  0.00  0.00    -0.013 C 
ATOM      9  C4' I4B d   1      -0.963  -2.799  -0.529  0.00  0.00     0.013 C 
ATOM     10  C3' I4B d   1      -0.359  -4.496  -2.233  0.00  0.00     0.013 C 
ENDBRANCH   7   8
ENDBRANCH   1   7
TORSDOF 2
ENDMDL
