MODEL 1
REMARK minimizedAffinity 3.10655499
REMARK minimizedRMSD -1
REMARK  0 active torsions:
REMARK  status: ('A' for Active; 'I' for Inactive)
ROOT
ATOM      1  C4' PXY d   1       5.792   1.226   4.817  0.00  0.00     0.077 C 
ATOM      2  C1' PXY d   1       2.695   5.961   6.000  0.00  0.00     0.077 C 
ATOM      3  C1  PXY d   1       3.501   4.713   5.699  0.00  0.00    -0.082 A 
ATOM      4  C2  PXY d   1       4.695   4.824   5.141  0.00  0.00     0.003 A 
ATOM      5  C3  PXY d   1       5.424   3.704   4.832  0.00  0.00     0.003 A 
ATOM      6  C4  PXY d   1       4.948   2.460   5.147  0.00  0.00    -0.082 A 
ATOM      7  C5  PXY d   1       3.734   2.338   5.726  0.00  0.00     0.003 A 
ATOM      8  C6  PXY d   1       2.993   3.485   5.993  0.00  0.00     0.003 A 
ENDROOT
TORSDOF 0
ENDMDL
