MODEL 1
REMARK minimizedAffinity -0.463988811
REMARK minimizedRMSD -1
REMARK  0 active torsions:
REMARK  status: ('A' for Active; 'I' for Inactive)
ROOT
ATOM      1  C4' PXY d   1       4.594   6.000   5.564  0.00  0.00     0.077 C 
ATOM      2  C1' PXY d   1       2.421   0.644   5.650  0.00  0.00     0.077 C 
ATOM      3  C1  PXY d   1       3.000   2.045   5.637  0.00  0.00    -0.082 A 
ATOM      4  C2  PXY d   1       2.241   3.063   5.261  0.00  0.00     0.003 A 
ATOM      5  C3  PXY d   1       2.758   4.332   5.212  0.00  0.00     0.003 A 
ATOM      6  C4  PXY d   1       4.049   4.570   5.602  0.00  0.00    -0.082 A 
ATOM      7  C5  PXY d   1       4.826   3.538   5.997  0.00  0.00     0.003 A 
ATOM      8  C6  PXY d   1       4.295   2.252   6.000  0.00  0.00     0.003 A 
ENDROOT
TORSDOF 0
ENDMDL
