MODEL 1
REMARK minimizedAffinity 6.68581772
REMARK minimizedRMSD -1
REMARK  0 active torsions:
REMARK  status: ('A' for Active; 'I' for Inactive)
ROOT
ATOM      1  C4' PXY d   1       4.630   4.987   6.000  0.00  0.00     0.077 C 
ATOM      2  C1' PXY d   1       4.956   2.174   0.960  0.00  0.00     0.077 C 
ATOM      3  C1  PXY d   1       4.863   2.902   2.287  0.00  0.00    -0.082 A 
ATOM      4  C2  PXY d   1       5.030   4.214   2.326  0.00  0.00     0.003 A 
ATOM      5  C3  PXY d   1       4.982   4.884   3.521  0.00  0.00     0.003 A 
ATOM      6  C4  PXY d   1       4.706   4.211   4.682  0.00  0.00    -0.082 A 
ATOM      7  C5  PXY d   1       4.523   2.874   4.649  0.00  0.00     0.003 A 
ATOM      8  C6  PXY d   1       4.617   2.207   3.431  0.00  0.00     0.003 A 
ENDROOT
TORSDOF 0
ENDMDL
