MODEL 1
REMARK minimizedAffinity -2.83607006
REMARK minimizedRMSD -1
REMARK  0 active torsions:
REMARK  status: ('A' for Active; 'I' for Inactive)
ROOT
ATOM      1  C4' PXY d   1       5.336   6.000   6.000  0.00  0.00     0.077 C 
ATOM      2  C1' PXY d   1       2.677   0.941   5.132  0.00  0.00     0.077 C 
ATOM      3  C1  PXY d   1       3.363   2.274   5.358  0.00  0.00    -0.082 A 
ATOM      4  C2  PXY d   1       4.667   2.380   5.159  0.00  0.00     0.003 A 
ATOM      5  C3  PXY d   1       5.308   3.570   5.389  0.00  0.00     0.003 A 
ATOM      6  C4  PXY d   1       4.600   4.676   5.775  0.00  0.00    -0.082 A 
ATOM      7  C5  PXY d   1       3.267   4.578   5.970  0.00  0.00     0.003 A 
ATOM      8  C6  PXY d   1       2.641   3.351   5.771  0.00  0.00     0.003 A 
ENDROOT
TORSDOF 0
ENDMDL
