MODEL 1
REMARK minimizedAffinity -3.13410544
REMARK minimizedRMSD -1
REMARK  0 active torsions:
REMARK  status: ('A' for Active; 'I' for Inactive)
ROOT
ATOM      1  C4' PXY d   1       5.539   5.999   5.948  0.00  0.00     0.077 C 
ATOM      2  C1' PXY d   1       2.570   1.345   4.234  0.00  0.00     0.077 C 
ATOM      3  C1  PXY d   1       3.345   2.572   4.673  0.00  0.00    -0.082 A 
ATOM      4  C2  PXY d   1       4.311   2.449   5.568  0.00  0.00     0.003 A 
ATOM      5  C3  PXY d   1       5.001   3.553   6.000  0.00  0.00     0.003 A 
ATOM      6  C4  PXY d   1       4.736   4.787   5.469  0.00  0.00    -0.082 A 
ATOM      7  C5  PXY d   1       3.759   4.918   4.547  0.00  0.00     0.003 A 
ATOM      8  C6  PXY d   1       3.043   3.792   4.153  0.00  0.00     0.003 A 
ENDROOT
TORSDOF 0
ENDMDL
