MODEL 1
REMARK minimizedAffinity -3.92614865
REMARK minimizedRMSD -1
REMARK  0 active torsions:
REMARK  status: ('A' for Active; 'I' for Inactive)
ROOT
ATOM      1  C4' PXY d   1       4.943   5.999   4.373  0.00  0.00     0.077 C 
ATOM      2  C1' PXY d   1       3.313   0.697   6.000  0.00  0.00     0.077 C 
ATOM      3  C1  PXY d   1       3.733   2.086   5.562  0.00  0.00    -0.082 A 
ATOM      4  C2  PXY d   1       4.874   2.593   6.000  0.00  0.00     0.003 A 
ATOM      5  C3  PXY d   1       5.254   3.860   5.640  0.00  0.00     0.003 A 
ATOM      6  C4  PXY d   1       4.483   4.597   4.781  0.00  0.00    -0.082 A 
ATOM      7  C5  PXY d   1       3.322   4.083   4.322  0.00  0.00     0.003 A 
ATOM      8  C6  PXY d   1       2.935   2.810   4.732  0.00  0.00     0.003 A 
ENDROOT
TORSDOF 0
ENDMDL
