MODEL 1
REMARK minimizedAffinity 2.62458372
REMARK minimizedRMSD -1
REMARK  0 active torsions:
REMARK  status: ('A' for Active; 'I' for Inactive)
ROOT
ATOM      1  C4' PXY d   1       5.956   6.000   6.000  0.00  0.00     0.077 C 
ATOM      2  C1' PXY d   1       2.805   2.248   2.933  0.00  0.00     0.077 C 
ATOM      3  C1  PXY d   1       3.633   3.239   3.726  0.00  0.00    -0.082 A 
ATOM      4  C2  PXY d   1       4.251   2.842   4.827  0.00  0.00     0.003 A 
ATOM      5  C3  PXY d   1       4.978   3.733   5.574  0.00  0.00     0.003 A 
ATOM      6  C4  PXY d   1       5.117   5.031   5.162  0.00  0.00    -0.082 A 
ATOM      7  C5  PXY d   1       4.498   5.442   4.034  0.00  0.00     0.003 A 
ATOM      8  C6  PXY d   1       3.732   4.532   3.312  0.00  0.00     0.003 A 
ENDROOT
TORSDOF 0
ENDMDL
