MODEL 1
REMARK minimizedAffinity -1.71910584
REMARK minimizedRMSD -1
REMARK  0 active torsions:
REMARK  status: ('A' for Active; 'I' for Inactive)
ROOT
ATOM      1  C4' PXY d   1       0.805  -3.497  -0.332  0.00  0.00     0.077 C 
ATOM      2  C1' PXY d   1       4.235   1.153  -0.163  0.00  0.00     0.077 C 
ATOM      3  C1  PXY d   1       3.345  -0.074  -0.202  0.00  0.00    -0.082 A 
ATOM      4  C2  PXY d   1       2.347  -0.131  -1.069  0.00  0.00     0.003 A 
ATOM      5  C3  PXY d   1       1.513  -1.219  -1.097  0.00  0.00     0.003 A 
ATOM      6  C4  PXY d   1       1.735  -2.283  -0.264  0.00  0.00    -0.082 A 
ATOM      7  C5  PXY d   1       2.758  -2.237   0.616  0.00  0.00     0.003 A 
ATOM      8  C6  PXY d   1       3.568  -1.106   0.656  0.00  0.00     0.003 A 
ENDROOT
TORSDOF 0
ENDMDL
