MODEL 1
REMARK minimizedAffinity 3.05381417
REMARK minimizedRMSD -1
REMARK  0 active torsions:
REMARK  status: ('A' for Active; 'I' for Inactive)
ROOT
ATOM      1  C4' PXY d   1      -1.583   5.999   4.513  0.00  0.00     0.077 C 
ATOM      2  C1' PXY d   1       3.976   4.609   5.270  0.00  0.00     0.077 C 
ATOM      3  C1  PXY d   1       2.522   4.983   5.063  0.00  0.00    -0.082 A 
ATOM      4  C2  PXY d   1       1.632   4.692   5.998  0.00  0.00     0.003 A 
ATOM      5  C3  PXY d   1       0.308   4.994   5.814  0.00  0.00     0.003 A 
ATOM      6  C4  PXY d   1      -0.102   5.649   4.683  0.00  0.00    -0.082 A 
ATOM      7  C5  PXY d   1       0.801   5.959   3.729  0.00  0.00     0.003 A 
ATOM      8  C6  PXY d   1       2.134   5.606   3.918  0.00  0.00     0.003 A 
ENDROOT
TORSDOF 0
ENDMDL
