MODEL 1
REMARK minimizedAffinity -3.52212691
REMARK minimizedRMSD -1
REMARK  0 active torsions:
REMARK  status: ('A' for Active; 'I' for Inactive)
ROOT
ATOM      1  C4' PXY d   1       1.128   6.000   3.034  0.00  0.00     0.077 C 
ATOM      2  C1' PXY d   1       5.261   3.255   6.000  0.00  0.00     0.077 C 
ATOM      3  C1  PXY d   1       4.168   3.968   5.228  0.00  0.00    -0.082 A 
ATOM      4  C2  PXY d   1       4.441   4.501   4.048  0.00  0.00     0.003 A 
ATOM      5  C3  PXY d   1       3.473   5.177   3.352  0.00  0.00     0.003 A 
ATOM      6  C4  PXY d   1       2.198   5.263   3.844  0.00  0.00    -0.082 A 
ATOM      7  C5  PXY d   1       1.908   4.712   5.042  0.00  0.00     0.003 A 
ATOM      8  C6  PXY d   1       2.916   4.066   5.752  0.00  0.00     0.003 A 
ENDROOT
TORSDOF 0
ENDMDL
