MODEL 1
REMARK minimizedAffinity 4.91657209
REMARK minimizedRMSD -1
REMARK  0 active torsions:
REMARK  status: ('A' for Active; 'I' for Inactive)
ROOT
ATOM      1  C   UNL d   1       0.944   2.017   2.383  0.00  0.00     0.172 C 
ATOM      2  N   UNL d   1       0.334   2.469   1.155  0.00  0.00    -0.070 N 
ATOM      3  C1  UNL d   1      -1.008   2.652   0.950  0.00  0.00    -0.004 A 
ATOM      4  C2  UNL d   1      -1.181   3.088  -0.346  0.00  0.00    -0.047 A 
ATOM      5  C3  UNL d   1       0.100   3.170  -0.940  0.00  0.00    -0.047 A 
ATOM      6  C4  UNL d   1       1.020   2.782   0.011  0.00  0.00    -0.004 A 
ENDROOT
TORSDOF 0
ENDMDL
