MODEL 1
REMARK minimizedAffinity 0.70454067
REMARK minimizedRMSD -1
REMARK  0 active torsions:
REMARK  status: ('A' for Active; 'I' for Inactive)
ROOT
ATOM      1  C   UNL d   1      -2.168  -5.710  -4.460  0.00  0.00     0.172 C 
ATOM      2  N   UNL d   1      -3.388  -5.237  -5.070  0.00  0.00    -0.070 N 
ATOM      3  C1  UNL d   1      -4.492  -6.000  -5.343  0.00  0.00    -0.004 A 
ATOM      4  C2  UNL d   1      -5.438  -5.182  -5.921  0.00  0.00    -0.047 A 
ATOM      5  C3  UNL d   1      -4.884  -3.882  -6.000  0.00  0.00    -0.047 A 
ATOM      6  C4  UNL d   1      -3.614  -3.945  -5.466  0.00  0.00    -0.004 A 
ENDROOT
TORSDOF 0
ENDMDL
