MODEL 1
REMARK minimizedAffinity 6.39653111
REMARK minimizedRMSD -1
REMARK  0 active torsions:
REMARK  status: ('A' for Active; 'I' for Inactive)
ROOT
ATOM      1  C   UNL d   1       1.400   3.187  -2.070  0.00  0.00     0.172 C 
ATOM      2  N   UNL d   1       0.206   2.988  -1.283  0.00  0.00    -0.070 N 
ATOM      3  C1  UNL d   1       0.045   2.049  -0.299  0.00  0.00    -0.004 A 
ATOM      4  C2  UNL d   1      -1.230   2.184   0.208  0.00  0.00    -0.047 A 
ATOM      5  C3  UNL d   1      -1.856   3.240  -0.495  0.00  0.00    -0.047 A 
ATOM      6  C4  UNL d   1      -0.945   3.720  -1.412  0.00  0.00    -0.004 A 
ENDROOT
TORSDOF 0
ENDMDL
