MODEL 1
REMARK minimizedAffinity 4.94070721
REMARK minimizedRMSD -1
REMARK  0 active torsions:
REMARK  status: ('A' for Active; 'I' for Inactive)
ROOT
ATOM      1  C   UNL d   1       1.108   3.388  -1.200  0.00  0.00     0.172 C 
ATOM      2  N   UNL d   1       0.463   2.953   0.017  0.00  0.00    -0.070 N 
ATOM      3  C1  UNL d   1       1.063   2.260   1.034  0.00  0.00    -0.004 A 
ATOM      4  C2  UNL d   1       0.115   2.037   2.009  0.00  0.00    -0.047 A 
ATOM      5  C3  UNL d   1      -1.097   2.615   1.561  0.00  0.00    -0.047 A 
ATOM      6  C4  UNL d   1      -0.853   3.175   0.325  0.00  0.00    -0.004 A 
ENDROOT
TORSDOF 0
ENDMDL
