MODEL 1
REMARK minimizedAffinity 5.8580904
REMARK minimizedRMSD -1
REMARK  0 active torsions:
REMARK  status: ('A' for Active; 'I' for Inactive)
ROOT
ATOM      1  C   UNL d   1       5.346  -5.848  -4.248  0.00  0.00     0.172 C 
ATOM      2  N   UNL d   1       5.513  -5.246  -2.946  0.00  0.00    -0.070 N 
ATOM      3  C1  UNL d   1       5.996  -3.988  -2.704  0.00  0.00    -0.004 A 
ATOM      4  C2  UNL d   1       5.999  -3.792  -1.340  0.00  0.00    -0.047 A 
ATOM      5  C3  UNL d   1       5.502  -4.974  -0.741  0.00  0.00    -0.047 A 
ATOM      6  C4  UNL d   1       5.209  -5.858  -1.758  0.00  0.00    -0.004 A 
ENDROOT
TORSDOF 0
ENDMDL
