MODEL 1
REMARK minimizedAffinity 1.07345545
REMARK minimizedRMSD -1
REMARK  0 active torsions:
REMARK  status: ('A' for Active; 'I' for Inactive)
ROOT
ATOM      1  C   UNL d   1       1.164   3.361  -1.116  0.00  0.00     0.172 C 
ATOM      2  N   UNL d   1       0.417   2.125  -1.103  0.00  0.00    -0.070 N 
ATOM      3  C1  UNL d   1      -0.943   2.015  -0.983  0.00  0.00    -0.004 A 
ATOM      4  C2  UNL d   1      -1.262   0.675  -1.014  0.00  0.00    -0.047 A 
ATOM      5  C3  UNL d   1      -0.052  -0.045  -1.157  0.00  0.00    -0.047 A 
ATOM      6  C4  UNL d   1       0.971   0.877  -1.210  0.00  0.00    -0.004 A 
ENDROOT
TORSDOF 0
ENDMDL
