MODEL 1
REMARK minimizedAffinity 8.10334492
REMARK minimizedRMSD -1
REMARK  0 active torsions:
REMARK  status: ('A' for Active; 'I' for Inactive)
ROOT
ATOM      1  C   UNL d   1      -0.442   2.252   0.069  0.00  0.00     0.172 C 
ATOM      2  N   UNL d   1      -1.735   1.772  -0.358  0.00  0.00    -0.070 N 
ATOM      3  C1  UNL d   1      -2.127   0.460  -0.395  0.00  0.00    -0.004 A 
ATOM      4  C2  UNL d   1      -3.424   0.420  -0.857  0.00  0.00    -0.047 A 
ATOM      5  C3  UNL d   1      -3.826   1.754  -1.108  0.00  0.00    -0.047 A 
ATOM      6  C4  UNL d   1      -2.761   2.570  -0.790  0.00  0.00    -0.004 A 
ENDROOT
TORSDOF 0
ENDMDL
