MODEL 1
REMARK minimizedAffinity 5.60625029
REMARK minimizedRMSD -1
REMARK  0 active torsions:
REMARK  status: ('A' for Active; 'I' for Inactive)
ROOT
ATOM      1  C   UNL d   1       1.504   4.946  -1.496  0.00  0.00     0.172 C 
ATOM      2  N   UNL d   1       0.766   3.887  -0.848  0.00  0.00    -0.070 N 
ATOM      3  C1  UNL d   1       1.316   2.816  -0.194  0.00  0.00    -0.004 A 
ATOM      4  C2  UNL d   1       0.283   2.039   0.283  0.00  0.00    -0.047 A 
ATOM      5  C3  UNL d   1      -0.929   2.663  -0.097  0.00  0.00    -0.047 A 
ATOM      6  C4  UNL d   1      -0.600   3.806  -0.796  0.00  0.00    -0.004 A 
ENDROOT
TORSDOF 0
ENDMDL
