MODEL 1
REMARK minimizedAffinity 5.18726873
REMARK minimizedRMSD -1
REMARK  0 active torsions:
REMARK  status: ('A' for Active; 'I' for Inactive)
ROOT
ATOM      1  C2' OXE d   1       5.970   2.834  -2.426  0.00  0.00     0.078 C 
ATOM      2  C1' OXE d   1       3.163   2.813  -2.462  0.00  0.00     0.078 C 
ATOM      3  C1  OXE d   1       3.886   2.343  -3.699  0.00  0.00    -0.078 A 
ATOM      4  C2  OXE d   1       5.258   2.400  -3.690  0.00  0.00    -0.078 A 
ATOM      5  C3  OXE d   1       5.976   1.927  -4.785  0.00  0.00     0.003 A 
ATOM      6  C4  OXE d   1       5.310   1.536  -5.953  0.00  0.00    -0.002 A 
ATOM      7  C5  OXE d   1       3.913   1.508  -5.998  0.00  0.00    -0.002 A 
ATOM      8  C6  OXE d   1       3.187   1.866  -4.867  0.00  0.00     0.003 A 
ENDROOT
TORSDOF 0
ENDMDL
