MODEL 1
REMARK minimizedAffinity -3.80023217
REMARK minimizedRMSD -1
REMARK  0 active torsions:
REMARK  status: ('A' for Active; 'I' for Inactive)
ROOT
ATOM      1  C2' OXE d   1       0.813   5.081  -6.000  0.00  0.00     0.078 C 
ATOM      2  C1' OXE d   1       0.351   2.312  -5.979  0.00  0.00     0.078 C 
ATOM      3  C1  OXE d   1      -0.849   3.226  -5.981  0.00  0.00    -0.078 A 
ATOM      4  C2  OXE d   1      -0.614   4.579  -5.944  0.00  0.00    -0.078 A 
ATOM      5  C3  OXE d   1      -1.684   5.467  -6.000  0.00  0.00     0.003 A 
ATOM      6  C4  OXE d   1      -3.001   4.994  -5.937  0.00  0.00    -0.002 A 
ATOM      7  C5  OXE d   1      -3.262   3.620  -5.934  0.00  0.00    -0.002 A 
ATOM      8  C6  OXE d   1      -2.201   2.724  -5.999  0.00  0.00     0.003 A 
ENDROOT
TORSDOF 0
ENDMDL
