MODEL 1
REMARK minimizedAffinity -0.668172419
REMARK minimizedRMSD -1
REMARK  0 active torsions:
REMARK  status: ('A' for Active; 'I' for Inactive)
ROOT
ATOM      1  C2' OXE d   1       0.280   5.955  -5.997  0.00  0.00     0.078 C 
ATOM      2  C1' OXE d   1       0.942   3.227  -5.987  0.00  0.00     0.078 C 
ATOM      3  C1  OXE d   1      -0.520   3.597  -5.982  0.00  0.00    -0.078 A 
ATOM      4  C2  OXE d   1      -0.835   4.934  -5.940  0.00  0.00    -0.078 A 
ATOM      5  C3  OXE d   1      -2.168   5.330  -5.990  0.00  0.00     0.003 A 
ATOM      6  C4  OXE d   1      -3.193   4.379  -5.927  0.00  0.00    -0.002 A 
ATOM      7  C5  OXE d   1      -2.895   3.012  -5.929  0.00  0.00    -0.002 A 
ATOM      8  C6  OXE d   1      -1.567   2.605  -5.999  0.00  0.00     0.003 A 
ENDROOT
TORSDOF 0
ENDMDL
