MODEL 1
REMARK minimizedAffinity -1.72756183
REMARK minimizedRMSD -1
REMARK  0 active torsions:
REMARK  status: ('A' for Active; 'I' for Inactive)
ROOT
ATOM      1  C2' OXE d   1      -3.002   3.021  -5.999  0.00  0.00     0.078 C 
ATOM      2  C1' OXE d   1      -2.081   5.673  -5.977  0.00  0.00     0.078 C 
ATOM      3  C1  OXE d   1      -1.052   4.571  -5.980  0.00  0.00    -0.078 A 
ATOM      4  C2  OXE d   1      -1.511   3.276  -5.943  0.00  0.00    -0.078 A 
ATOM      5  C3  OXE d   1      -0.605   2.221  -6.000  0.00  0.00     0.003 A 
ATOM      6  C4  OXE d   1       0.772   2.466  -5.938  0.00  0.00    -0.002 A 
ATOM      7  C5  OXE d   1       1.261   3.776  -5.935  0.00  0.00    -0.002 A 
ATOM      8  C6  OXE d   1       0.365   4.838  -5.999  0.00  0.00     0.003 A 
ENDROOT
TORSDOF 0
ENDMDL
