MODEL 1
REMARK minimizedAffinity -1.79270875
REMARK minimizedRMSD -1
REMARK  0 active torsions:
REMARK  status: ('A' for Active; 'I' for Inactive)
ROOT
ATOM      1  C2' OXE d   1      -3.601   3.379  -5.988  0.00  0.00     0.078 C 
ATOM      2  C1' OXE d   1      -2.583   5.995  -5.964  0.00  0.00     0.078 C 
ATOM      3  C1  OXE d   1      -1.595   4.856  -5.973  0.00  0.00    -0.078 A 
ATOM      4  C2  OXE d   1      -2.102   3.579  -5.938  0.00  0.00    -0.078 A 
ATOM      5  C3  OXE d   1      -1.235   2.492  -6.000  0.00  0.00     0.003 A 
ATOM      6  C4  OXE d   1       0.151   2.685  -5.943  0.00  0.00    -0.002 A 
ATOM      7  C5  OXE d   1       0.687   3.977  -5.939  0.00  0.00    -0.002 A 
ATOM      8  C6  OXE d   1      -0.169   5.071  -5.996  0.00  0.00     0.003 A 
ENDROOT
TORSDOF 0
ENDMDL
