MODEL 1
REMARK minimizedAffinity -2.80516958
REMARK minimizedRMSD -1
REMARK  0 active torsions:
REMARK  status: ('A' for Active; 'I' for Inactive)
ROOT
ATOM      1  C2' OXE d   1      -2.819   3.055  -5.996  0.00  0.00     0.078 C 
ATOM      2  C1' OXE d   1      -2.235   5.800  -5.977  0.00  0.00     0.078 C 
ATOM      3  C1  OXE d   1      -1.076   4.835  -5.980  0.00  0.00    -0.078 A 
ATOM      4  C2  OXE d   1      -1.371   3.493  -5.942  0.00  0.00    -0.078 A 
ATOM      5  C3  OXE d   1      -0.341   2.559  -5.999  0.00  0.00     0.003 A 
ATOM      6  C4  OXE d   1       0.996   2.973  -5.939  0.00  0.00    -0.002 A 
ATOM      7  C5  OXE d   1       1.317   4.335  -5.936  0.00  0.00    -0.002 A 
ATOM      8  C6  OXE d   1       0.296   5.277  -6.000  0.00  0.00     0.003 A 
ENDROOT
TORSDOF 0
ENDMDL
