MODEL 1
REMARK minimizedAffinity -2.53941941
REMARK minimizedRMSD -1
REMARK  0 active torsions:
REMARK  status: ('A' for Active; 'I' for Inactive)
ROOT
ATOM      1  C2' OXE d   1      -0.088   3.187  -5.953  0.00  0.00     0.078 C 
ATOM      2  C1' OXE d   1      -0.107   5.994  -5.983  0.00  0.00     0.078 C 
ATOM      3  C1  OXE d   1      -1.436   5.282  -5.964  0.00  0.00    -0.078 A 
ATOM      4  C2  OXE d   1      -1.418   3.908  -5.997  0.00  0.00    -0.078 A 
ATOM      5  C3  OXE d   1      -2.615   3.201  -5.926  0.00  0.00     0.003 A 
ATOM      6  C4  OXE d   1      -3.841   3.876  -5.977  0.00  0.00    -0.002 A 
ATOM      7  C5  OXE d   1      -3.882   5.274  -5.985  0.00  0.00    -0.002 A 
ATOM      8  C6  OXE d   1      -2.691   5.991  -5.936  0.00  0.00     0.003 A 
ENDROOT
TORSDOF 0
ENDMDL
