MODEL 1
REMARK minimizedAffinity -2.20874095
REMARK minimizedRMSD -1
REMARK  0 active torsions:
REMARK  status: ('A' for Active; 'I' for Inactive)
ROOT
ATOM      1  C2' OXE d   1       0.685   2.591  -5.907  0.00  0.00     0.078 C 
ATOM      2  C1' OXE d   1       1.039   5.375  -5.994  0.00  0.00     0.078 C 
ATOM      3  C1  OXE d   1      -0.373   4.845  -5.967  0.00  0.00    -0.078 A 
ATOM      4  C2  OXE d   1      -0.537   3.481  -5.972  0.00  0.00    -0.078 A 
ATOM      5  C3  OXE d   1      -1.817   2.940  -5.892  0.00  0.00     0.003 A 
ATOM      6  C4  OXE d   1      -2.943   3.770  -5.962  0.00  0.00    -0.002 A 
ATOM      7  C5  OXE d   1      -2.798   5.161  -5.998  0.00  0.00    -0.002 A 
ATOM      8  C6  OXE d   1      -1.524   5.715  -5.958  0.00  0.00     0.003 A 
ENDROOT
TORSDOF 0
ENDMDL
