MODEL 1
REMARK minimizedAffinity -2.38186765
REMARK minimizedRMSD -1
REMARK  0 active torsions:
REMARK  status: ('A' for Active; 'I' for Inactive)
ROOT
ATOM      1  C2' OXE d   1      -0.003   3.013  -5.962  0.00  0.00     0.078 C 
ATOM      2  C1' OXE d   1       0.142   5.816  -6.000  0.00  0.00     0.078 C 
ATOM      3  C1  OXE d   1      -1.226   5.182  -5.971  0.00  0.00    -0.078 A 
ATOM      4  C2  OXE d   1      -1.289   3.810  -6.000  0.00  0.00    -0.078 A 
ATOM      5  C3  OXE d   1      -2.524   3.174  -5.920  0.00  0.00     0.003 A 
ATOM      6  C4  OXE d   1      -3.709   3.919  -5.966  0.00  0.00    -0.002 A 
ATOM      7  C5  OXE d   1      -3.668   5.317  -5.976  0.00  0.00    -0.002 A 
ATOM      8  C6  OXE d   1      -2.438   5.964  -5.936  0.00  0.00     0.003 A 
ENDROOT
TORSDOF 0
ENDMDL
