MODEL 1
REMARK minimizedAffinity 9.88735771
REMARK minimizedRMSD -1
REMARK  0 active torsions:
REMARK  status: ('A' for Active; 'I' for Inactive)
ROOT
ATOM      1  C2' OXE d   1       3.624   5.994  -0.561  0.00  0.00     0.078 C 
ATOM      2  C1' OXE d   1       5.222   3.847  -1.407  0.00  0.00     0.078 C 
ATOM      3  C1  OXE d   1       5.224   4.190   0.062  0.00  0.00    -0.078 A 
ATOM      4  C2  OXE d   1       4.476   5.271   0.460  0.00  0.00    -0.078 A 
ATOM      5  C3  OXE d   1       4.400   5.597   1.811  0.00  0.00     0.003 A 
ATOM      6  C4  OXE d   1       5.199   4.930   2.747  0.00  0.00    -0.002 A 
ATOM      7  C5  OXE d   1       5.999   3.850   2.357  0.00  0.00    -0.002 A 
ATOM      8  C6  OXE d   1       5.991   3.442   1.028  0.00  0.00     0.003 A 
ENDROOT
TORSDOF 0
ENDMDL
