MODEL 1
REMARK minimizedAffinity 0.662270904
REMARK minimizedRMSD -1
REMARK  0 active torsions:
REMARK  status: ('A' for Active; 'I' for Inactive)
ROOT
ATOM      1  C2' OXE d   1       0.165   5.576  -5.999  0.00  0.00     0.078 C 
ATOM      2  C1' OXE d   1      -0.307   2.809  -5.999  0.00  0.00     0.078 C 
ATOM      3  C1  OXE d   1      -1.504   3.726  -5.986  0.00  0.00    -0.078 A 
ATOM      4  C2  OXE d   1      -1.263   5.078  -5.939  0.00  0.00    -0.078 A 
ATOM      5  C3  OXE d   1      -2.331   5.970  -5.981  0.00  0.00     0.003 A 
ATOM      6  C4  OXE d   1      -3.649   5.502  -5.915  0.00  0.00    -0.002 A 
ATOM      7  C5  OXE d   1      -3.915   4.129  -5.922  0.00  0.00    -0.002 A 
ATOM      8  C6  OXE d   1      -2.858   3.230  -6.000  0.00  0.00     0.003 A 
ENDROOT
TORSDOF 0
ENDMDL
