MODEL 1
REMARK minimizedAffinity 1.8874706
REMARK minimizedRMSD -1
REMARK  0 active torsions:
REMARK  status: ('A' for Active; 'I' for Inactive)
ROOT
ATOM      1  C2' OXE d   1      -3.100   3.229  -5.847  0.00  0.00     0.078 C 
ATOM      2  C1' OXE d   1      -2.649   6.000  -5.837  0.00  0.00     0.078 C 
ATOM      3  C1  OXE d   1      -1.447   5.092  -5.910  0.00  0.00    -0.078 A 
ATOM      4  C2  OXE d   1      -1.674   3.737  -5.867  0.00  0.00    -0.078 A 
ATOM      5  C3  OXE d   1      -0.605   2.854  -5.986  0.00  0.00     0.003 A 
ATOM      6  C4  OXE d   1       0.711   3.333  -5.994  0.00  0.00    -0.002 A 
ATOM      7  C5  OXE d   1       0.967   4.708  -5.998  0.00  0.00    -0.002 A 
ATOM      8  C6  OXE d   1      -0.100   5.599  -6.000  0.00  0.00     0.003 A 
ENDROOT
TORSDOF 0
ENDMDL
