MODEL 1
REMARK minimizedAffinity -1.94376206
REMARK minimizedRMSD -1
REMARK  0 active torsions:
REMARK  status: ('A' for Active; 'I' for Inactive)
ROOT
ATOM      1  C2' OXE d   1      -3.634   5.961  -5.964  0.00  0.00     0.078 C 
ATOM      2  C1' OXE d   1      -4.200   3.211  -5.978  0.00  0.00     0.078 C 
ATOM      3  C1  OXE d   1      -2.751   3.632  -5.959  0.00  0.00    -0.078 A 
ATOM      4  C2  OXE d   1      -2.483   4.979  -6.000  0.00  0.00    -0.078 A 
ATOM      5  C3  OXE d   1      -1.166   5.422  -5.929  0.00  0.00     0.003 A 
ATOM      6  C4  OXE d   1      -0.107   4.507  -5.973  0.00  0.00    -0.002 A 
ATOM      7  C5  OXE d   1      -0.357   3.131  -5.972  0.00  0.00    -0.002 A 
ATOM      8  C6  OXE d   1      -1.671   2.677  -5.922  0.00  0.00     0.003 A 
ENDROOT
TORSDOF 0
ENDMDL
