MODEL 1
REMARK minimizedAffinity 2.59005904
REMARK minimizedRMSD -1
REMARK  0 active torsions:
REMARK  status: ('A' for Active; 'I' for Inactive)
ROOT
ATOM      1  C2' OXE d   1       3.128   2.253  -5.951  0.00  0.00     0.078 C 
ATOM      2  C1' OXE d   1       5.934   2.200  -5.884  0.00  0.00     0.078 C 
ATOM      3  C1  OXE d   1       5.256   3.547  -5.906  0.00  0.00    -0.078 A 
ATOM      4  C2  OXE d   1       3.885   3.564  -5.986  0.00  0.00    -0.078 A 
ATOM      5  C3  OXE d   1       3.207   4.779  -5.955  0.00  0.00     0.003 A 
ATOM      6  C4  OXE d   1       3.914   5.987  -5.998  0.00  0.00    -0.002 A 
ATOM      7  C5  OXE d   1       5.313   5.992  -5.957  0.00  0.00    -0.002 A 
ATOM      8  C6  OXE d   1       5.996   4.785  -5.869  0.00  0.00     0.003 A 
ENDROOT
TORSDOF 0
ENDMDL
