MODEL 1
REMARK minimizedAffinity -0.926193058
REMARK minimizedRMSD -1
REMARK  0 active torsions:
REMARK  status: ('A' for Active; 'I' for Inactive)
ROOT
ATOM      1  C2' OXE d   1       0.194   3.199  -5.954  0.00  0.00     0.078 C 
ATOM      2  C1' OXE d   1       0.003   6.000  -5.984  0.00  0.00     0.078 C 
ATOM      3  C1  OXE d   1      -1.280   5.208  -5.967  0.00  0.00    -0.078 A 
ATOM      4  C2  OXE d   1      -1.177   3.838  -6.000  0.00  0.00    -0.078 A 
ATOM      5  C3  OXE d   1      -2.329   3.058  -5.931  0.00  0.00     0.003 A 
ATOM      6  C4  OXE d   1      -3.594   3.656  -5.984  0.00  0.00    -0.002 A 
ATOM      7  C5  OXE d   1      -3.720   5.050  -5.991  0.00  0.00    -0.002 A 
ATOM      8  C6  OXE d   1      -2.576   5.838  -5.940  0.00  0.00     0.003 A 
ENDROOT
TORSDOF 0
ENDMDL
