MODEL 1
REMARK minimizedAffinity -2.44194365
REMARK minimizedRMSD -1
REMARK  0 active torsions:
REMARK  status: ('A' for Active; 'I' for Inactive)
ROOT
ATOM      1  C2' OXE d   1      -2.159   5.745  -5.950  0.00  0.00     0.078 C 
ATOM      2  C1' OXE d   1      -2.693   2.990  -5.963  0.00  0.00     0.078 C 
ATOM      3  C1  OXE d   1      -1.250   3.426  -5.959  0.00  0.00    -0.078 A 
ATOM      4  C2  OXE d   1      -0.997   4.776  -6.000  0.00  0.00    -0.078 A 
ATOM      5  C3  OXE d   1       0.316   5.234  -5.943  0.00  0.00     0.003 A 
ATOM      6  C4  OXE d   1       1.384   4.331  -6.000  0.00  0.00    -0.002 A 
ATOM      7  C5  OXE d   1       1.149   2.952  -5.999  0.00  0.00    -0.002 A 
ATOM      8  C6  OXE d   1      -0.158   2.484  -5.936  0.00  0.00     0.003 A 
ENDROOT
TORSDOF 0
ENDMDL
