MODEL 1
REMARK minimizedAffinity -2.32988334
REMARK minimizedRMSD -1
REMARK  0 active torsions:
REMARK  status: ('A' for Active; 'I' for Inactive)
ROOT
ATOM      1  C2' OXE d   1      -3.587   3.578  -5.965  0.00  0.00     0.078 C 
ATOM      2  C1' OXE d   1      -2.168   6.000  -5.945  0.00  0.00     0.078 C 
ATOM      3  C1  OXE d   1      -1.373   4.719  -5.963  0.00  0.00    -0.078 A 
ATOM      4  C2  OXE d   1      -2.075   3.538  -5.926  0.00  0.00    -0.078 A 
ATOM      5  C3  OXE d   1      -1.392   2.327  -5.996  0.00  0.00     0.003 A 
ATOM      6  C4  OXE d   1       0.007   2.299  -5.950  0.00  0.00    -0.002 A 
ATOM      7  C5  OXE d   1       0.742   3.489  -5.948  0.00  0.00    -0.002 A 
ATOM      8  C6  OXE d   1       0.069   4.705  -5.997  0.00  0.00     0.003 A 
ENDROOT
TORSDOF 0
ENDMDL
