MODEL 1
REMARK minimizedAffinity 9.64491367
REMARK minimizedRMSD -1
REMARK  2 active torsions:
REMARK  status: ('A' for Active; 'I' for Inactive)
REMARK    1  A    between atoms: C2'_3  and  C1'_4 
REMARK    2  A    between atoms: C1'_4  and  C1_5 
ROOT
ATOM      1  C1  I4B d   1       1.602   2.361   0.077  0.00  0.00    -0.075 A 
ATOM      2  C2  I4B d   1       1.790   1.147   0.690  0.00  0.00     0.003 A 
ATOM      3  C3  I4B d   1       1.126   0.853   1.906  0.00  0.00     0.002 A 
ATOM      4  C4  I4B d   1       0.330   1.814   2.495  0.00  0.00    -0.004 A 
ATOM      5  C5  I4B d   1       0.123   3.036   1.861  0.00  0.00     0.002 A 
ATOM      6  C6  I4B d   1       0.754   3.307   0.637  0.00  0.00     0.003 A 
ENDROOT
BRANCH   1   7
ATOM      7  C1' I4B d   1       2.344   2.651  -1.189  0.00  0.00     0.060 C 
BRANCH   7   8
ATOM      8  C2' I4B d   1       1.824   1.713  -2.260  0.00  0.00    -0.013 C 
ATOM      9  C4' I4B d   1       1.014   2.457  -3.289  0.00  0.00     0.013 C 
ATOM     10  C3' I4B d   1       3.002   1.030  -2.889  0.00  0.00     0.013 C 
ENDBRANCH   7   8
ENDBRANCH   1   7
TORSDOF 2
ENDMDL
