MODEL 1
REMARK minimizedAffinity 19.4288044
REMARK minimizedRMSD -1
REMARK  2 active torsions:
REMARK  status: ('A' for Active; 'I' for Inactive)
REMARK    1  A    between atoms: C2'_3  and  C1'_4 
REMARK    2  A    between atoms: C1'_4  and  C1_5 
ROOT
ATOM      1  C1  I4B d   1      -1.655  -3.531   3.770  0.00  0.00    -0.075 A 
ATOM      2  C2  I4B d   1      -0.913  -4.668   3.973  0.00  0.00     0.003 A 
ATOM      3  C3  I4B d   1      -1.457  -5.754   4.701  0.00  0.00     0.002 A 
ATOM      4  C4  I4B d   1      -2.719  -5.641   5.248  0.00  0.00    -0.004 A 
ATOM      5  C5  I4B d   1      -3.478  -4.496   5.022  0.00  0.00     0.002 A 
ATOM      6  C6  I4B d   1      -2.948  -3.439   4.268  0.00  0.00     0.003 A 
ENDROOT
BRANCH   1   7
ATOM      7  C1' I4B d   1      -1.036  -2.391   3.025  0.00  0.00     0.060 C 
BRANCH   7   8
ATOM      8  C2' I4B d   1      -1.147  -1.152   3.891  0.00  0.00    -0.013 C 
ATOM      9  C4' I4B d   1       0.100  -0.313   3.804  0.00  0.00     0.013 C 
ATOM     10  C3' I4B d   1      -2.352  -0.380   3.443  0.00  0.00     0.013 C 
ENDBRANCH   7   8
ENDBRANCH   1   7
TORSDOF 2
ENDMDL
