MODEL 1
REMARK minimizedAffinity 18.3647804
REMARK minimizedRMSD -1
REMARK  2 active torsions:
REMARK  status: ('A' for Active; 'I' for Inactive)
REMARK    1  A    between atoms: C2'_3  and  C1'_4 
REMARK    2  A    between atoms: C1'_4  and  C1_5 
ROOT
ATOM      1  C1  I4B d   1       0.951   0.280   2.859  0.00  0.00    -0.075 A 
ATOM      2  C2  I4B d   1       0.755   1.191   3.866  0.00  0.00     0.003 A 
ATOM      3  C3  I4B d   1      -0.272   0.989   4.821  0.00  0.00     0.002 A 
ATOM      4  C4  I4B d   1      -1.105  -0.104   4.701  0.00  0.00    -0.004 A 
ATOM      5  C5  I4B d   1      -0.890  -1.039   3.693  0.00  0.00     0.002 A 
ATOM      6  C6  I4B d   1       0.152  -0.853   2.773  0.00  0.00     0.003 A 
ENDROOT
BRANCH   1   7
ATOM      7  C1' I4B d   1       2.023   0.542   1.849  0.00  0.00     0.060 C 
BRANCH   7   8
ATOM      8  C2' I4B d   1       1.545   1.655   0.939  0.00  0.00    -0.013 C 
ATOM      9  C4' I4B d   1       2.599   2.718   0.778  0.00  0.00     0.013 C 
ATOM     10  C3' I4B d   1       1.182   1.047  -0.384  0.00  0.00     0.013 C 
ENDBRANCH   7   8
ENDBRANCH   1   7
TORSDOF 2
ENDMDL
