MODEL 1
REMARK minimizedAffinity 5.20860863
REMARK minimizedRMSD -1
REMARK  2 active torsions:
REMARK  status: ('A' for Active; 'I' for Inactive)
REMARK    1  A    between atoms: C2'_3  and  C1'_4 
REMARK    2  A    between atoms: C1'_4  and  C1_5 
ROOT
ATOM      1  C1  I4B d   1       2.892   1.011  -0.293  0.00  0.00    -0.075 A 
ATOM      2  C2  I4B d   1       2.109   1.914  -0.968  0.00  0.00     0.003 A 
ATOM      3  C3  I4B d   1       2.290   2.114  -2.358  0.00  0.00     0.002 A 
ATOM      4  C4  I4B d   1       3.291   1.432  -3.019  0.00  0.00    -0.004 A 
ATOM      5  C5  I4B d   1       4.068   0.500  -2.337  0.00  0.00     0.002 A 
ATOM      6  C6  I4B d   1       3.859   0.278  -0.968  0.00  0.00     0.003 A 
ENDROOT
BRANCH   1   7
ATOM      7  C1' I4B d   1       2.697   0.848   1.182  0.00  0.00     0.060 C 
BRANCH   7   8
ATOM      8  C2' I4B d   1       1.211   0.703   1.443  0.00  0.00    -0.013 C 
ATOM      9  C4' I4B d   1       0.950  -0.201   2.618  0.00  0.00     0.013 C 
ATOM     10  C3' I4B d   1       0.646   2.072   1.676  0.00  0.00     0.013 C 
ENDBRANCH   7   8
ENDBRANCH   1   7
TORSDOF 2
ENDMDL
