MODEL 1
REMARK minimizedAffinity 17.4091454
REMARK minimizedRMSD -1
REMARK  2 active torsions:
REMARK  status: ('A' for Active; 'I' for Inactive)
REMARK    1  A    between atoms: C2'_3  and  C1'_4 
REMARK    2  A    between atoms: C1'_4  and  C1_5 
ROOT
ATOM      1  C1  I4B d   1      -0.600   3.413   1.038  0.00  0.00    -0.075 A 
ATOM      2  C2  I4B d   1      -1.274   2.818   2.075  0.00  0.00     0.003 A 
ATOM      3  C3  I4B d   1      -0.673   1.762   2.803  0.00  0.00     0.002 A 
ATOM      4  C4  I4B d   1       0.573   1.302   2.430  0.00  0.00    -0.004 A 
ATOM      5  C5  I4B d   1       1.265   1.922   1.393  0.00  0.00     0.002 A 
ATOM      6  C6  I4B d   1       0.680   2.992   0.700  0.00  0.00     0.003 A 
ENDROOT
BRANCH   1   7
ATOM      7  C1' I4B d   1      -1.277   4.503   0.270  0.00  0.00     0.060 C 
BRANCH   7   8
ATOM      8  C2' I4B d   1      -2.381   3.876  -0.556  0.00  0.00    -0.013 C 
ATOM      9  C4' I4B d   1      -3.367   4.912  -1.026  0.00  0.00     0.013 C 
ATOM     10  C3' I4B d   1      -1.747   3.167  -1.716  0.00  0.00     0.013 C 
ENDBRANCH   7   8
ENDBRANCH   1   7
TORSDOF 2
ENDMDL
