MODEL 1
REMARK minimizedAffinity 24.6186218
REMARK minimizedRMSD -1
REMARK  2 active torsions:
REMARK  status: ('A' for Active; 'I' for Inactive)
REMARK    1  A    between atoms: C2'_3  and  C1'_4 
REMARK    2  A    between atoms: C1'_4  and  C1_5 
ROOT
ATOM      1  C1  I4B d   1       0.005  -0.069   2.444  0.00  0.00    -0.075 A 
ATOM      2  C2  I4B d   1       0.918  -0.573   3.337  0.00  0.00     0.003 A 
ATOM      3  C3  I4B d   1       2.174   0.059   3.504  0.00  0.00     0.002 A 
ATOM      4  C4  I4B d   1       2.493   1.153   2.727  0.00  0.00    -0.004 A 
ATOM      5  C5  I4B d   1       1.558   1.676   1.839  0.00  0.00     0.002 A 
ATOM      6  C6  I4B d   1       0.301   1.069   1.705  0.00  0.00     0.003 A 
ENDROOT
BRANCH   1   7
ATOM      7  C1' I4B d   1      -1.300  -0.780   2.270  0.00  0.00     0.060 C 
BRANCH   7   8
ATOM      8  C2' I4B d   1      -1.448  -1.769   3.408  0.00  0.00    -0.013 C 
ATOM      9  C4' I4B d   1      -2.850  -1.759   3.959  0.00  0.00     0.013 C 
ATOM     10  C3' I4B d   1      -1.079  -3.128   2.891  0.00  0.00     0.013 C 
ENDBRANCH   7   8
ENDBRANCH   1   7
TORSDOF 2
ENDMDL
