MODEL 1
REMARK minimizedAffinity -0.415237606
REMARK minimizedRMSD -1
REMARK  2 active torsions:
REMARK  status: ('A' for Active; 'I' for Inactive)
REMARK    1  A    between atoms: C2'_3  and  C1'_4 
REMARK    2  A    between atoms: C1'_4  and  C1_5 
ROOT
ATOM      1  C1  I4B d   1       4.866   2.673  -5.981  0.00  0.00    -0.075 A 
ATOM      2  C2  I4B d   1       3.614   3.236  -5.992  0.00  0.00     0.003 A 
ATOM      3  C3  I4B d   1       3.466   4.644  -5.998  0.00  0.00     0.002 A 
ATOM      4  C4  I4B d   1       4.588   5.446  -5.943  0.00  0.00    -0.004 A 
ATOM      5  C5  I4B d   1       5.856   4.874  -5.955  0.00  0.00     0.002 A 
ATOM      6  C6  I4B d   1       5.997   3.479  -5.987  0.00  0.00     0.003 A 
ENDROOT
BRANCH   1   7
ATOM      7  C1' I4B d   1       4.985   1.182  -5.941  0.00  0.00     0.060 C 
BRANCH   7   8
ATOM      8  C2' I4B d   1       3.809   0.641  -5.155  0.00  0.00    -0.013 C 
ATOM      9  C4' I4B d   1       3.073  -0.418  -5.934  0.00  0.00     0.013 C 
ATOM     10  C3' I4B d   1       4.330   0.095  -3.859  0.00  0.00     0.013 C 
ENDBRANCH   7   8
ENDBRANCH   1   7
TORSDOF 2
ENDMDL
