MODEL 1
REMARK minimizedAffinity 17.2515926
REMARK minimizedRMSD -1
REMARK  2 active torsions:
REMARK  status: ('A' for Active; 'I' for Inactive)
REMARK    1  A    between atoms: C2'_3  and  C1'_4 
REMARK    2  A    between atoms: C1'_4  and  C1_5 
ROOT
ATOM      1  C1  I4B d   1       4.645  -0.809  -5.510  0.00  0.00    -0.075 A 
ATOM      2  C2  I4B d   1       5.285  -2.023  -5.530  0.00  0.00     0.003 A 
ATOM      3  C3  I4B d   1       4.557  -3.207  -5.802  0.00  0.00     0.002 A 
ATOM      4  C4  I4B d   1       3.193  -3.137  -5.998  0.00  0.00    -0.004 A 
ATOM      5  C5  I4B d   1       2.550  -1.902  -6.000  0.00  0.00     0.002 A 
ATOM      6  C6  I4B d   1       3.283  -0.729  -5.767  0.00  0.00     0.003 A 
ENDROOT
BRANCH   1   7
ATOM      7  C1' I4B d   1       5.438   0.418  -5.187  0.00  0.00     0.060 C 
BRANCH   7   8
ATOM      8  C2' I4B d   1       5.251   0.720  -3.714  0.00  0.00    -0.013 C 
ATOM      9  C4' I4B d   1       5.998   1.964  -3.313  0.00  0.00     0.013 C 
ATOM     10  C3' I4B d   1       3.781   0.863  -3.454  0.00  0.00     0.013 C 
ENDBRANCH   7   8
ENDBRANCH   1   7
TORSDOF 2
ENDMDL
