MODEL 1
REMARK minimizedAffinity 22.7444363
REMARK minimizedRMSD -1
REMARK  2 active torsions:
REMARK  status: ('A' for Active; 'I' for Inactive)
REMARK    1  A    between atoms: C2'_3  and  C1'_4 
REMARK    2  A    between atoms: C1'_4  and  C1_5 
ROOT
ATOM      1  C1  I4B d   1       0.506   0.039   2.156  0.00  0.00    -0.075 A 
ATOM      2  C2  I4B d   1       1.158   1.238   2.300  0.00  0.00     0.003 A 
ATOM      3  C3  I4B d   1       1.759   1.862   1.180  0.00  0.00     0.002 A 
ATOM      4  C4  I4B d   1       1.728   1.231  -0.047  0.00  0.00    -0.004 A 
ATOM      5  C5  I4B d   1       1.046   0.027  -0.196  0.00  0.00     0.002 A 
ATOM      6  C6  I4B d   1       0.421  -0.568   0.910  0.00  0.00     0.003 A 
ENDROOT
BRANCH   1   7
ATOM      7  C1' I4B d   1      -0.089  -0.608   3.366  0.00  0.00     0.060 C 
BRANCH   7   8
ATOM      8  C2' I4B d   1      -1.292  -1.415   2.921  0.00  0.00    -0.013 C 
ATOM      9  C4' I4B d   1      -0.981  -2.888   2.897  0.00  0.00     0.013 C 
ATOM     10  C3' I4B d   1      -2.423  -1.115   3.858  0.00  0.00     0.013 C 
ENDBRANCH   7   8
ENDBRANCH   1   7
TORSDOF 2
ENDMDL
