MODEL 1
REMARK minimizedAffinity 11.9543381
REMARK minimizedRMSD -1
REMARK  2 active torsions:
REMARK  status: ('A' for Active; 'I' for Inactive)
REMARK    1  A    between atoms: C2'_3  and  C1'_4 
REMARK    2  A    between atoms: C1'_4  and  C1_5 
ROOT
ATOM      1  C1  I4B d   1       1.006   1.687   2.161  0.00  0.00    -0.075 A 
ATOM      2  C2  I4B d   1       1.727   2.673   1.533  0.00  0.00     0.003 A 
ATOM      3  C3  I4B d   1       1.069   3.811   1.007  0.00  0.00     0.002 A 
ATOM      4  C4  I4B d   1      -0.306   3.898   1.085  0.00  0.00    -0.004 A 
ATOM      5  C5  I4B d   1      -1.032   2.909   1.741  0.00  0.00     0.002 A 
ATOM      6  C6  I4B d   1      -0.371   1.802   2.294  0.00  0.00     0.003 A 
ENDROOT
BRANCH   1   7
ATOM      7  C1' I4B d   1       1.729   0.483   2.676  0.00  0.00     0.060 C 
BRANCH   7   8
ATOM      8  C2' I4B d   1       2.796   0.957   3.641  0.00  0.00    -0.013 C 
ATOM      9  C4' I4B d   1       2.189   1.428   4.936  0.00  0.00     0.013 C 
ATOM     10  C3' I4B d   1       3.749  -0.178   3.872  0.00  0.00     0.013 C 
ENDBRANCH   7   8
ENDBRANCH   1   7
TORSDOF 2
ENDMDL
