MODEL 1
REMARK minimizedAffinity 16.4130211
REMARK minimizedRMSD -1
REMARK  2 active torsions:
REMARK  status: ('A' for Active; 'I' for Inactive)
REMARK    1  A    between atoms: C2'_3  and  C1'_4 
REMARK    2  A    between atoms: C1'_4  and  C1_5 
ROOT
ATOM      1  C1  I4B d   1       3.892   1.111  -3.679  0.00  0.00    -0.075 A 
ATOM      2  C2  I4B d   1       5.264   1.099  -3.629  0.00  0.00     0.003 A 
ATOM      3  C3  I4B d   1       6.000   0.212  -4.452  0.00  0.00     0.002 A 
ATOM      4  C4  I4B d   1       5.327  -0.674  -5.268  0.00  0.00    -0.004 A 
ATOM      5  C5  I4B d   1       3.937  -0.644  -5.335  0.00  0.00     0.002 A 
ATOM      6  C6  I4B d   1       3.215   0.262  -4.545  0.00  0.00     0.003 A 
ENDROOT
BRANCH   1   7
ATOM      7  C1' I4B d   1       3.146   2.037  -2.772  0.00  0.00     0.060 C 
BRANCH   7   8
ATOM      8  C2' I4B d   1       1.829   1.378  -2.414  0.00  0.00    -0.013 C 
ATOM      9  C4' I4B d   1       1.744   1.095  -0.937  0.00  0.00     0.013 C 
ATOM     10  C3' I4B d   1       0.721   2.288  -2.855  0.00  0.00     0.013 C 
ENDBRANCH   7   8
ENDBRANCH   1   7
TORSDOF 2
ENDMDL
