MODEL 1
REMARK minimizedAffinity 14.369791
REMARK minimizedRMSD -1
REMARK  2 active torsions:
REMARK  status: ('A' for Active; 'I' for Inactive)
REMARK    1  A    between atoms: C2'_3  and  C1'_4 
REMARK    2  A    between atoms: C1'_4  and  C1_5 
ROOT
ATOM      1  C1  I4B d   1       1.002   1.966   1.873  0.00  0.00    -0.075 A 
ATOM      2  C2  I4B d   1       1.167   3.110   1.133  0.00  0.00     0.003 A 
ATOM      3  C3  I4B d   1       0.112   4.048   1.026  0.00  0.00     0.002 A 
ATOM      4  C4  I4B d   1      -1.100   3.780   1.629  0.00  0.00    -0.004 A 
ATOM      5  C5  I4B d   1      -1.258   2.631   2.398  0.00  0.00     0.002 A 
ATOM      6  C6  I4B d   1      -0.197   1.724   2.532  0.00  0.00     0.003 A 
ENDROOT
BRANCH   1   7
ATOM      7  C1' I4B d   1       2.125   0.980   1.938  0.00  0.00     0.060 C 
BRANCH   7   8
ATOM      8  C2' I4B d   1       2.183   0.430   3.348  0.00  0.00    -0.013 C 
ATOM      9  C4' I4B d   1       3.594   0.075   3.738  0.00  0.00     0.013 C 
ATOM     10  C3' I4B d   1       1.610   1.463   4.272  0.00  0.00     0.013 C 
ENDBRANCH   7   8
ENDBRANCH   1   7
TORSDOF 2
ENDMDL
