MODEL 1
REMARK minimizedAffinity 5.13536787
REMARK minimizedRMSD -1
REMARK  1 active torsions:
REMARK  status: ('A' for Active; 'I' for Inactive)
REMARK    1  A    between atoms: C1_2  and  C2_3 
ROOT
ATOM      1  C2  UNL d   1       0.770   0.450   4.637  0.00  0.00    -0.081 A 
ATOM      2  C3  UNL d   1       0.354   1.175   3.514  0.00  0.00     0.006 A 
ATOM      3  C4  UNL d   1       0.278   0.560   2.262  0.00  0.00     0.002 A 
ATOM      4  C5  UNL d   1       0.609  -0.791   2.114  0.00  0.00    -0.080 A 
ATOM      5  C6  UNL d   1       0.503  -1.472   0.781  0.00  0.00     0.076 C 
ATOM      6  C7  UNL d   1       1.042  -1.511   3.233  0.00  0.00     0.002 A 
ATOM      7  C8  UNL d   1       1.119  -0.896   4.484  0.00  0.00     0.006 A 
ENDROOT
BRANCH   1   8
ATOM      8  C1  UNL d   1       0.791   1.094   6.000  0.00  0.00     0.054 C 
ATOM      9  C   UNL d   1       0.039   2.417   5.999  0.00  0.00     0.018 C 
ENDBRANCH   1   8
TORSDOF 1
ENDMDL
