MODEL 1
REMARK minimizedAffinity 10.1440382
REMARK minimizedRMSD -1
REMARK  1 active torsions:
REMARK  status: ('A' for Active; 'I' for Inactive)
REMARK    1  A    between atoms: C1_2  and  C2_3 
ROOT
ATOM      1  C2  UNL d   1       1.264   0.404   2.992  0.00  0.00    -0.081 A 
ATOM      2  C3  UNL d   1       2.336   0.820   2.192  0.00  0.00     0.006 A 
ATOM      3  C4  UNL d   1       3.572   1.126   2.766  0.00  0.00     0.002 A 
ATOM      4  C5  UNL d   1       3.760   1.013   4.148  0.00  0.00    -0.080 A 
ATOM      5  C6  UNL d   1       5.090   1.309   4.774  0.00  0.00     0.076 C 
ATOM      6  C7  UNL d   1       2.685   0.614   4.949  0.00  0.00     0.002 A 
ATOM      7  C8  UNL d   1       1.448   0.309   4.376  0.00  0.00     0.006 A 
ENDROOT
BRANCH   1   8
ATOM      8  C1  UNL d   1      -0.051   0.012   2.368  0.00  0.00     0.054 C 
ATOM      9  C   UNL d   1       0.121  -1.149   1.399  0.00  0.00     0.018 C 
ENDBRANCH   1   8
TORSDOF 1
ENDMDL
