MODEL 1
REMARK minimizedAffinity 16.4831581
REMARK minimizedRMSD -1
REMARK  1 active torsions:
REMARK  status: ('A' for Active; 'I' for Inactive)
REMARK    1  A    between atoms: C1_2  and  C2_3 
ROOT
ATOM      1  C2  UNL d   1       0.913  -1.197   3.731  0.00  0.00    -0.081 A 
ATOM      2  C3  UNL d   1       1.154   0.071   4.276  0.00  0.00     0.006 A 
ATOM      3  C4  UNL d   1       0.563   1.206   3.717  0.00  0.00     0.002 A 
ATOM      4  C5  UNL d   1      -0.286   1.093   2.611  0.00  0.00    -0.080 A 
ATOM      5  C6  UNL d   1      -0.952   2.300   2.020  0.00  0.00     0.076 C 
ATOM      6  C7  UNL d   1      -0.514  -0.171   2.056  0.00  0.00     0.002 A 
ATOM      7  C8  UNL d   1       0.078  -1.307   2.613  0.00  0.00     0.006 A 
ENDROOT
BRANCH   1   8
ATOM      8  C1  UNL d   1       1.498  -2.430   4.370  0.00  0.00     0.054 C 
ATOM      9  C   UNL d   1       1.612  -2.269   5.880  0.00  0.00     0.018 C 
ENDBRANCH   1   8
TORSDOF 1
ENDMDL
