MODEL 1
REMARK minimizedAffinity 15.0217772
REMARK minimizedRMSD -1
REMARK  1 active torsions:
REMARK  status: ('A' for Active; 'I' for Inactive)
REMARK    1  A    between atoms: C1_2  and  C2_3 
ROOT
ATOM      1  C2  UNL d   1      -1.742  -3.654  -5.053  0.00  0.00    -0.081 A 
ATOM      2  C3  UNL d   1      -0.719  -3.517  -6.000  0.00  0.00     0.006 A 
ATOM      3  C4  UNL d   1       0.123  -2.403  -5.976  0.00  0.00     0.002 A 
ATOM      4  C5  UNL d   1      -0.039  -1.411  -5.003  0.00  0.00    -0.080 A 
ATOM      5  C6  UNL d   1       0.876  -0.224  -4.948  0.00  0.00     0.076 C 
ATOM      6  C7  UNL d   1      -1.072  -1.539  -4.068  0.00  0.00     0.002 A 
ATOM      7  C8  UNL d   1      -1.914  -2.653  -4.091  0.00  0.00     0.006 A 
ENDROOT
BRANCH   1   8
ATOM      8  C1  UNL d   1      -2.609  -4.887  -5.036  0.00  0.00     0.054 C 
ATOM      9  C   UNL d   1      -1.986  -5.990  -4.193  0.00  0.00     0.018 C 
ENDBRANCH   1   8
TORSDOF 1
ENDMDL
