MODEL 1
REMARK minimizedAffinity 20.7543755
REMARK minimizedRMSD -1
REMARK  1 active torsions:
REMARK  status: ('A' for Active; 'I' for Inactive)
REMARK    1  A    between atoms: C1_2  and  C2_3 
ROOT
ATOM      1  C2  UNL d   1       3.994   0.793   4.144  0.00  0.00    -0.081 A 
ATOM      2  C3  UNL d   1       2.689   0.599   4.613  0.00  0.00     0.006 A 
ATOM      3  C4  UNL d   1       1.631   0.435   3.715  0.00  0.00     0.002 A 
ATOM      4  C5  UNL d   1       1.862   0.455   2.335  0.00  0.00    -0.080 A 
ATOM      5  C6  UNL d   1       0.740   0.250   1.361  0.00  0.00     0.076 C 
ATOM      6  C7  UNL d   1       3.163   0.667   1.867  0.00  0.00     0.002 A 
ATOM      7  C8  UNL d   1       4.221   0.832   2.764  0.00  0.00     0.006 A 
ENDROOT
BRANCH   1   8
ATOM      8  C1  UNL d   1       5.146   0.906   5.110  0.00  0.00     0.054 C 
ATOM      9  C   UNL d   1       5.245  -0.326   5.999  0.00  0.00     0.018 C 
ENDBRANCH   1   8
TORSDOF 1
ENDMDL
