MODEL 1
REMARK minimizedAffinity 19.6279621
REMARK minimizedRMSD -1
REMARK  1 active torsions:
REMARK  status: ('A' for Active; 'I' for Inactive)
REMARK    1  A    between atoms: C1_2  and  C2_3 
ROOT
ATOM      1  C2  UNL d   1      -3.067   1.094   1.693  0.00  0.00    -0.081 A 
ATOM      2  C3  UNL d   1      -2.028   1.920   2.140  0.00  0.00     0.006 A 
ATOM      3  C4  UNL d   1      -0.745   1.402   2.335  0.00  0.00     0.002 A 
ATOM      4  C5  UNL d   1      -0.478   0.053   2.080  0.00  0.00    -0.080 A 
ATOM      5  C6  UNL d   1       0.901  -0.509   2.257  0.00  0.00     0.076 C 
ATOM      6  C7  UNL d   1      -1.520  -0.777   1.651  0.00  0.00     0.002 A 
ATOM      7  C8  UNL d   1      -2.802  -0.260   1.456  0.00  0.00     0.006 A 
ENDROOT
BRANCH   1   8
ATOM      8  C1  UNL d   1      -4.435   1.663   1.419  0.00  0.00     0.054 C 
ATOM      9  C   UNL d   1      -4.744   1.668  -0.071  0.00  0.00     0.018 C 
ENDBRANCH   1   8
TORSDOF 1
ENDMDL
