MODEL 1
REMARK minimizedAffinity -2.7247498
REMARK minimizedRMSD -1
REMARK  0 active torsions:
REMARK  status: ('A' for Active; 'I' for Inactive)
ROOT
ATOM      1  N1  IND d   1       4.339  -1.520  -3.302  0.00  0.00    -0.196 N 
ATOM      2  C2  IND d   1       5.234  -0.556  -3.673  0.00  0.00     0.054 A 
ATOM      3  C3  IND d   1       5.999  -0.994  -4.698  0.00  0.00    -0.031 A 
ATOM      4  C4  IND d   1       5.886  -3.218  -5.990  0.00  0.00     0.051 A 
ATOM      5  C5  IND d   1       5.255  -4.430  -5.994  0.00  0.00    -0.031 A 
ATOM      6  C6  IND d   1       4.265  -4.740  -5.085  0.00  0.00     0.015 A 
ATOM      7  C7  IND d   1       3.859  -3.840  -4.140  0.00  0.00    -0.016 A 
ATOM      8  C8  IND d   1       4.502  -2.611  -4.128  0.00  0.00    -0.047 A 
ATOM      9  C9  IND d   1       5.537  -2.306  -5.022  0.00  0.00    -0.096 A 
ATOM     10  HN1 IND d   1       3.770  -1.456  -2.661  0.00  0.00     0.298 HD
ENDROOT
TORSDOF 0
ENDMDL
