MODEL 1
REMARK minimizedAffinity 5.2499752
REMARK minimizedRMSD -1
REMARK  0 active torsions:
REMARK  status: ('A' for Active; 'I' for Inactive)
ROOT
ATOM      1  N1  IND d   1      -2.879   1.288  -3.945  0.00  0.00    -0.196 N 
ATOM      2  C2  IND d   1      -4.034   1.661  -3.316  0.00  0.00     0.054 A 
ATOM      3  C3  IND d   1      -3.755   2.292  -2.154  0.00  0.00    -0.031 A 
ATOM      4  C4  IND d   1      -1.472   2.912  -1.137  0.00  0.00     0.051 A 
ATOM      5  C5  IND d   1      -0.128   2.750  -1.327  0.00  0.00    -0.031 A 
ATOM      6  C6  IND d   1       0.377   2.081  -2.423  0.00  0.00     0.015 A 
ATOM      7  C7  IND d   1      -0.445   1.557  -3.380  0.00  0.00    -0.016 A 
ATOM      8  C8  IND d   1      -1.810   1.714  -3.186  0.00  0.00    -0.047 A 
ATOM      9  C9  IND d   1      -2.331   2.354  -2.054  0.00  0.00    -0.096 A 
ATOM     10  HN1 IND d   1      -2.828   0.860  -4.688  0.00  0.00     0.298 HD
ENDROOT
TORSDOF 0
ENDMDL
