MODEL 1
REMARK minimizedAffinity 2.41055584
REMARK minimizedRMSD -1
REMARK  0 active torsions:
REMARK  status: ('A' for Active; 'I' for Inactive)
ROOT
ATOM      1  N1  IND d   1      -4.544   0.820  -2.912  0.00  0.00    -0.196 N 
ATOM      2  C2  IND d   1      -3.294   0.632  -3.432  0.00  0.00     0.054 A 
ATOM      3  C3  IND d   1      -2.781   1.807  -3.859  0.00  0.00    -0.031 A 
ATOM      4  C4  IND d   1      -3.775   4.177  -3.709  0.00  0.00     0.051 A 
ATOM      5  C5  IND d   1      -4.908   4.849  -3.346  0.00  0.00    -0.031 A 
ATOM      6  C6  IND d   1      -6.000   4.199  -2.807  0.00  0.00     0.015 A 
ATOM      7  C7  IND d   1      -5.993   2.848  -2.599  0.00  0.00    -0.016 A 
ATOM      8  C8  IND d   1      -4.847   2.162  -2.972  0.00  0.00    -0.047 A 
ATOM      9  C9  IND d   1      -3.752   2.810  -3.560  0.00  0.00    -0.096 A 
ATOM     10  HN1 IND d   1      -5.056   0.203  -2.599  0.00  0.00     0.298 HD
ENDROOT
TORSDOF 0
ENDMDL
