MODEL 1
REMARK minimizedAffinity 2.5336175
REMARK minimizedRMSD -1
REMARK  0 active torsions:
REMARK  status: ('A' for Active; 'I' for Inactive)
ROOT
ATOM      1  N1  IND d   1       6.000   6.000  -3.034  0.00  0.00    -0.196 N 
ATOM      2  C2  IND d   1       5.754   5.483  -4.276  0.00  0.00     0.054 A 
ATOM      3  C3  IND d   1       4.574   4.824  -4.286  0.00  0.00    -0.031 A 
ATOM      4  C4  IND d   1       2.834   4.557  -2.408  0.00  0.00     0.051 A 
ATOM      5  C5  IND d   1       2.629   4.823  -1.083  0.00  0.00    -0.031 A 
ATOM      6  C6  IND d   1       3.555   5.512  -0.326  0.00  0.00     0.015 A 
ATOM      7  C7  IND d   1       4.721   5.972  -0.872  0.00  0.00    -0.016 A 
ATOM      8  C8  IND d   1       4.935   5.697  -2.215  0.00  0.00    -0.047 A 
ATOM      9  C9  IND d   1       4.018   4.961  -2.977  0.00  0.00    -0.096 A 
ATOM     10  HN1 IND d   1       6.701   6.440  -2.804  0.00  0.00     0.298 HD
ENDROOT
TORSDOF 0
ENDMDL
