MODEL 1
REMARK minimizedAffinity 12.8345623
REMARK minimizedRMSD -1
REMARK  0 active torsions:
REMARK  status: ('A' for Active; 'I' for Inactive)
ROOT
ATOM      1  N1  IND d   1      -4.340   1.615  -3.396  0.00  0.00    -0.196 N 
ATOM      2  C2  IND d   1      -4.553   2.886  -2.941  0.00  0.00     0.054 A 
ATOM      3  C3  IND d   1      -3.430   3.376  -2.370  0.00  0.00    -0.031 A 
ATOM      4  C4  IND d   1      -1.098   2.304  -2.166  0.00  0.00     0.051 A 
ATOM      5  C5  IND d   1      -0.424   1.139  -2.402  0.00  0.00    -0.031 A 
ATOM      6  C6  IND d   1      -1.032   0.052  -2.996  0.00  0.00     0.015 A 
ATOM      7  C7  IND d   1      -2.340   0.094  -3.388  0.00  0.00    -0.016 A 
ATOM      8  C8  IND d   1      -3.030   1.273  -3.144  0.00  0.00    -0.047 A 
ATOM      9  C9  IND d   1      -2.430   2.364  -2.503  0.00  0.00    -0.096 A 
ATOM     10  HN1 IND d   1      -4.926   1.113  -3.777  0.00  0.00     0.298 HD
ENDROOT
TORSDOF 0
ENDMDL
