MODEL 1
REMARK minimizedAffinity 2.78023219
REMARK minimizedRMSD -1
REMARK  0 active torsions:
REMARK  status: ('A' for Active; 'I' for Inactive)
ROOT
ATOM      1  N1  IND d   1      -4.628   3.230  -4.325  0.00  0.00    -0.196 N 
ATOM      2  C2  IND d   1      -5.057   4.196  -3.457  0.00  0.00     0.054 A 
ATOM      3  C3  IND d   1      -4.586   3.954  -2.213  0.00  0.00    -0.031 A 
ATOM      4  C4  IND d   1      -3.009   2.090  -1.396  0.00  0.00     0.051 A 
ATOM      5  C5  IND d   1      -2.379   0.952  -1.814  0.00  0.00    -0.031 A 
ATOM      6  C6  IND d   1      -2.466   0.507  -3.117  0.00  0.00     0.015 A 
ATOM      7  C7  IND d   1      -3.180   1.194  -4.058  0.00  0.00    -0.016 A 
ATOM      8  C8  IND d   1      -3.827   2.346  -3.635  0.00  0.00    -0.047 A 
ATOM      9  C9  IND d   1      -3.777   2.779  -2.304  0.00  0.00    -0.096 A 
ATOM     10  HN1 IND d   1      -4.825   3.183  -5.160  0.00  0.00     0.298 HD
ENDROOT
TORSDOF 0
ENDMDL
