MODEL 1
REMARK minimizedAffinity 16.5314064
REMARK minimizedRMSD -1
REMARK  0 active torsions:
REMARK  status: ('A' for Active; 'I' for Inactive)
ROOT
ATOM      1  N1  IND d   1      -3.560   3.645  -4.701  0.00  0.00    -0.196 N 
ATOM      2  C2  IND d   1      -4.514   4.406  -4.086  0.00  0.00     0.054 A 
ATOM      3  C3  IND d   1      -4.884   3.841  -2.915  0.00  0.00    -0.031 A 
ATOM      4  C4  IND d   1      -3.981   1.723  -1.764  0.00  0.00     0.051 A 
ATOM      5  C5  IND d   1      -3.129   0.672  -1.957  0.00  0.00    -0.031 A 
ATOM      6  C6  IND d   1      -2.359   0.558  -3.097  0.00  0.00     0.015 A 
ATOM      7  C7  IND d   1      -2.405   1.500  -4.085  0.00  0.00    -0.016 A 
ATOM      8  C8  IND d   1      -3.274   2.565  -3.895  0.00  0.00    -0.047 A 
ATOM      9  C9  IND d   1      -4.090   2.664  -2.760  0.00  0.00    -0.096 A 
ATOM     10  HN1 IND d   1      -3.198   3.813  -5.463  0.00  0.00     0.298 HD
ENDROOT
TORSDOF 0
ENDMDL
