MODEL 1
REMARK minimizedAffinity 13.3990278
REMARK minimizedRMSD -1
REMARK  0 active torsions:
REMARK  status: ('A' for Active; 'I' for Inactive)
ROOT
ATOM      1  N1  IND d   1      -1.349   1.352  -4.082  0.00  0.00    -0.196 N 
ATOM      2  C2  IND d   1      -1.221   0.464  -3.051  0.00  0.00     0.054 A 
ATOM      3  C3  IND d   1      -2.024   0.818  -2.023  0.00  0.00    -0.031 A 
ATOM      4  C4  IND d   1      -3.707   2.759  -1.855  0.00  0.00     0.051 A 
ATOM      5  C5  IND d   1      -4.151   3.861  -2.530  0.00  0.00    -0.031 A 
ATOM      6  C6  IND d   1      -3.677   4.188  -3.784  0.00  0.00     0.015 A 
ATOM      7  C7  IND d   1      -2.744   3.416  -4.417  0.00  0.00    -0.016 A 
ATOM      8  C8  IND d   1      -2.285   2.300  -3.731  0.00  0.00    -0.047 A 
ATOM      9  C9  IND d   1      -2.732   1.986  -2.441  0.00  0.00    -0.096 A 
ATOM     10  HN1 IND d   1      -0.917   1.324  -4.825  0.00  0.00     0.298 HD
ENDROOT
TORSDOF 0
ENDMDL
