MODEL 1
REMARK minimizedAffinity -2.6227684
REMARK minimizedRMSD -1
REMARK  1 active torsions:
REMARK  status: ('A' for Active; 'I' for Inactive)
REMARK    1  A    between atoms: C1_2  and  C2_3 
ROOT
ATOM      1  C2  UNL d   1       0.038  -0.092   0.265  0.00  0.00    -0.077 A 
ATOM      2  C3  UNL d   1      -0.524   0.902  -0.548  0.00  0.00     0.002 A 
ATOM      3  C4  UNL d   1      -1.387   1.856  -0.004  0.00  0.00     0.002 A 
ATOM      4  C5  UNL d   1      -1.692   1.827   1.355  0.00  0.00    -0.004 A 
ATOM      5  C6  UNL d   1      -1.139   0.841   2.172  0.00  0.00     0.002 A 
ATOM      6  C7  UNL d   1      -0.278  -0.113   1.629  0.00  0.00     0.002 A 
ENDROOT
BRANCH   1   7
ATOM      7  C1  UNL d   1       1.008  -1.091  -0.311  0.00  0.00     0.055 C 
ATOM      8  C   UNL d   1       0.428  -1.783  -1.536  0.00  0.00     0.019 C 
ENDBRANCH   1   7
TORSDOF 1
ENDMDL
