MODEL 1
REMARK minimizedAffinity -4.02347898
REMARK minimizedRMSD -1
REMARK  1 active torsions:
REMARK  status: ('A' for Active; 'I' for Inactive)
REMARK    1  A    between atoms: C1_2  and  C2_3 
ROOT
ATOM      1  C2  UNL d   1      -0.395   0.425   0.122  0.00  0.00    -0.077 A 
ATOM      2  C3  UNL d   1      -1.429   1.132  -0.508  0.00  0.00     0.002 A 
ATOM      3  C4  UNL d   1      -2.323   1.895   0.246  0.00  0.00     0.002 A 
ATOM      4  C5  UNL d   1      -2.190   1.961   1.631  0.00  0.00    -0.004 A 
ATOM      5  C6  UNL d   1      -1.166   1.259   2.267  0.00  0.00     0.002 A 
ATOM      6  C7  UNL d   1      -0.272   0.495   1.515  0.00  0.00     0.002 A 
ENDROOT
BRANCH   1   7
ATOM      7  C1  UNL d   1       0.600  -0.359  -0.694  0.00  0.00     0.055 C 
ATOM      8  C   UNL d   1      -0.070  -1.510  -1.430  0.00  0.00     0.019 C 
ENDBRANCH   1   7
TORSDOF 1
ENDMDL
