MODEL 1
REMARK minimizedAffinity -5.01960659
REMARK minimizedRMSD -1
REMARK  1 active torsions:
REMARK  status: ('A' for Active; 'I' for Inactive)
REMARK    1  A    between atoms: C1_2  and  C2_3 
ROOT
ATOM      1  C2  UNL d   1       0.619  -0.462  -0.404  0.00  0.00    -0.077 A 
ATOM      2  C3  UNL d   1      -0.340  -0.323   0.610  0.00  0.00     0.002 A 
ATOM      3  C4  UNL d   1      -1.070   0.860   0.734  0.00  0.00     0.002 A 
ATOM      4  C5  UNL d   1      -0.852   1.912  -0.153  0.00  0.00    -0.004 A 
ATOM      5  C6  UNL d   1       0.101   1.785  -1.163  0.00  0.00     0.002 A 
ATOM      6  C7  UNL d   1       0.832   0.603  -1.288  0.00  0.00     0.002 A 
ENDROOT
BRANCH   1   7
ATOM      7  C1  UNL d   1       1.372  -1.756  -0.570  0.00  0.00     0.055 C 
ATOM      8  C   UNL d   1       0.845  -2.555  -1.754  0.00  0.00     0.019 C 
ENDBRANCH   1   7
TORSDOF 1
ENDMDL
