MODEL 1
REMARK minimizedAffinity 3.51879215
REMARK minimizedRMSD -1
REMARK  1 active torsions:
REMARK  status: ('A' for Active; 'I' for Inactive)
REMARK    1  A    between atoms: C1_2  and  C2_3 
ROOT
ATOM      1  C2  UNL d   1       0.409   0.643  -0.309  0.00  0.00    -0.077 A 
ATOM      2  C3  UNL d   1      -0.758  -0.035  -0.687  0.00  0.00     0.002 A 
ATOM      3  C4  UNL d   1      -1.833   0.663  -1.241  0.00  0.00     0.002 A 
ATOM      4  C5  UNL d   1      -1.749   2.042  -1.425  0.00  0.00    -0.004 A 
ATOM      5  C6  UNL d   1      -0.593   2.726  -1.051  0.00  0.00     0.002 A 
ATOM      6  C7  UNL d   1       0.481   2.030  -0.496  0.00  0.00     0.002 A 
ENDROOT
BRANCH   1   7
ATOM      7  C1  UNL d   1       1.588  -0.115   0.243  0.00  0.00     0.055 C 
ATOM      8  C   UNL d   1       1.213  -0.880   1.504  0.00  0.00     0.019 C 
ENDBRANCH   1   7
TORSDOF 1
ENDMDL
