MODEL 1
REMARK minimizedAffinity -3.69976759
REMARK minimizedRMSD -1
REMARK  1 active torsions:
REMARK  status: ('A' for Active; 'I' for Inactive)
REMARK    1  A    between atoms: C1_2  and  C2_3 
ROOT
ATOM      1  C2  UNL d   1      -0.212   0.207   0.368  0.00  0.00    -0.077 A 
ATOM      2  C3  UNL d   1      -1.237   1.153   0.511  0.00  0.00     0.002 A 
ATOM      3  C4  UNL d   1      -1.141   2.398  -0.113  0.00  0.00     0.002 A 
ATOM      4  C5  UNL d   1      -0.024   2.707  -0.888  0.00  0.00    -0.004 A 
ATOM      5  C6  UNL d   1       1.001   1.773  -1.034  0.00  0.00     0.002 A 
ATOM      6  C7  UNL d   1       0.907   0.529  -0.410  0.00  0.00     0.002 A 
ENDROOT
BRANCH   1   7
ATOM      7  C1  UNL d   1      -0.336  -1.155   1.000  0.00  0.00     0.055 C 
ATOM      8  C   UNL d   1      -0.066  -1.097   2.497  0.00  0.00     0.019 C 
ENDBRANCH   1   7
TORSDOF 1
ENDMDL
