MODEL 1
REMARK minimizedAffinity -2.74322963
REMARK minimizedRMSD -1
REMARK  1 active torsions:
REMARK  status: ('A' for Active; 'I' for Inactive)
REMARK    1  A    between atoms: C1_2  and  C2_3 
ROOT
ATOM      1  C2  UNL d   1       0.581  -1.052  -0.931  0.00  0.00    -0.077 A 
ATOM      2  C3  UNL d   1      -0.639  -0.992  -0.244  0.00  0.00     0.002 A 
ATOM      3  C4  UNL d   1      -1.113   0.226   0.249  0.00  0.00     0.002 A 
ATOM      4  C5  UNL d   1      -0.375   1.392   0.056  0.00  0.00    -0.004 A 
ATOM      5  C6  UNL d   1       0.841   1.342  -0.624  0.00  0.00     0.002 A 
ATOM      6  C7  UNL d   1       1.317   0.125  -1.116  0.00  0.00     0.002 A 
ENDROOT
BRANCH   1   7
ATOM      7  C1  UNL d   1       1.070  -2.356  -1.506  0.00  0.00     0.055 C 
ATOM      8  C   UNL d   1       0.214  -2.796  -2.686  0.00  0.00     0.019 C 
ENDBRANCH   1   7
TORSDOF 1
ENDMDL
