MODEL 1
REMARK minimizedAffinity -4.27839375
REMARK minimizedRMSD -1
REMARK  1 active torsions:
REMARK  status: ('A' for Active; 'I' for Inactive)
REMARK    1  A    between atoms: C1_2  and  C2_3 
ROOT
ATOM      1  C2  UNL d   1      -0.610   1.209   0.313  0.00  0.00    -0.077 A 
ATOM      2  C3  UNL d   1      -0.133  -0.050   0.704  0.00  0.00     0.002 A 
ATOM      3  C4  UNL d   1       0.961  -0.623   0.055  0.00  0.00     0.002 A 
ATOM      4  C5  UNL d   1       1.591   0.056  -0.986  0.00  0.00    -0.004 A 
ATOM      5  C6  UNL d   1       1.123   1.308  -1.384  0.00  0.00     0.002 A 
ATOM      6  C7  UNL d   1       0.028   1.882  -0.736  0.00  0.00     0.002 A 
ENDROOT
BRANCH   1   7
ATOM      7  C1  UNL d   1      -1.760   1.852   1.045  0.00  0.00     0.055 C 
ATOM      8  C   UNL d   1      -1.375   2.213   2.472  0.00  0.00     0.019 C 
ENDBRANCH   1   7
TORSDOF 1
ENDMDL
