MODEL 1
REMARK minimizedAffinity -5.34743023
REMARK minimizedRMSD -1
REMARK  1 active torsions:
REMARK  status: ('A' for Active; 'I' for Inactive)
REMARK    1  A    between atoms: C1_2  and  C2_3 
ROOT
ATOM      1  C2  UNL d   1      -0.603   0.531   0.314  0.00  0.00    -0.077 A 
ATOM      2  C3  UNL d   1       0.359  -0.096  -0.490  0.00  0.00     0.002 A 
ATOM      3  C4  UNL d   1       1.205  -1.068   0.050  0.00  0.00     0.002 A 
ATOM      4  C5  UNL d   1       1.093  -1.424   1.392  0.00  0.00    -0.004 A 
ATOM      5  C6  UNL d   1       0.140  -0.804   2.200  0.00  0.00     0.002 A 
ATOM      6  C7  UNL d   1      -0.705   0.168   1.663  0.00  0.00     0.002 A 
ENDROOT
BRANCH   1   7
ATOM      7  C1  UNL d   1      -1.549   1.544  -0.278  0.00  0.00     0.055 C 
ATOM      8  C   UNL d   1      -2.583   1.998   0.742  0.00  0.00     0.019 C 
ENDBRANCH   1   7
TORSDOF 1
ENDMDL
