MODEL 1
REMARK minimizedAffinity -4.246346
REMARK minimizedRMSD -1
REMARK  0 active torsions:
REMARK  status: ('A' for Active; 'I' for Inactive)
ROOT
ATOM      1  C   UNL d   1       3.047   1.162   0.333  0.00  0.00     0.077 C 
ATOM      2  C1  UNL d   1       1.710   1.841   0.295  0.00  0.00    -0.074 A 
ATOM      3  C2  UNL d   1       1.613   3.230   0.161  0.00  0.00    -0.005 A 
ATOM      4  C3  UNL d   1       0.363   3.847   0.117  0.00  0.00     0.006 A 
ATOM      5  C4  UNL d   1      -0.801   3.083   0.207  0.00  0.00    -0.005 A 
ATOM      6  C5  UNL d   1      -0.724   1.693   0.341  0.00  0.00    -0.074 A 
ATOM      7  C6  UNL d   1      -1.965   0.856   0.430  0.00  0.00     0.077 C 
ATOM      8  C7  UNL d   1       0.536   1.080   0.377  0.00  0.00    -0.001 A 
ENDROOT
TORSDOF 0
ENDMDL
