MODEL 1
REMARK minimizedAffinity -5.18943501
REMARK minimizedRMSD -1
REMARK  0 active torsions:
REMARK  status: ('A' for Active; 'I' for Inactive)
ROOT
ATOM      1  C   UNL d   1      -0.321  -1.001  -0.245  0.00  0.00     0.077 C 
ATOM      2  C1  UNL d   1       0.209   0.392  -0.076  0.00  0.00    -0.074 A 
ATOM      3  C2  UNL d   1      -0.651   1.495  -0.090  0.00  0.00    -0.005 A 
ATOM      4  C3  UNL d   1      -0.145   2.784   0.077  0.00  0.00     0.006 A 
ATOM      5  C4  UNL d   1       1.225   2.982   0.260  0.00  0.00    -0.005 A 
ATOM      6  C5  UNL d   1       2.100   1.892   0.277  0.00  0.00    -0.074 A 
ATOM      7  C6  UNL d   1       3.572   2.087   0.482  0.00  0.00     0.077 C 
ATOM      8  C7  UNL d   1       1.582   0.599   0.116  0.00  0.00    -0.001 A 
ENDROOT
TORSDOF 0
ENDMDL
