MODEL 1
REMARK minimizedAffinity -4.76060295
REMARK minimizedRMSD -1
REMARK  0 active torsions:
REMARK  status: ('A' for Active; 'I' for Inactive)
ROOT
ATOM      1  C   UNL d   1      -0.164  -1.081   0.184  0.00  0.00     0.077 C 
ATOM      2  C1  UNL d   1      -0.148   0.415   0.284  0.00  0.00    -0.074 A 
ATOM      3  C2  UNL d   1      -1.337   1.150   0.249  0.00  0.00    -0.005 A 
ATOM      4  C3  UNL d   1      -1.308   2.541   0.353  0.00  0.00     0.006 A 
ATOM      5  C4  UNL d   1      -0.091   3.209   0.493  0.00  0.00    -0.005 A 
ATOM      6  C5  UNL d   1       1.108   2.491   0.532  0.00  0.00    -0.074 A 
ATOM      7  C6  UNL d   1       2.424   3.193   0.692  0.00  0.00     0.077 C 
ATOM      8  C7  UNL d   1       1.070   1.093   0.433  0.00  0.00    -0.001 A 
ENDROOT
TORSDOF 0
ENDMDL
