MODEL 1
REMARK minimizedAffinity -4.33512402
REMARK minimizedRMSD -1
REMARK  0 active torsions:
REMARK  status: ('A' for Active; 'I' for Inactive)
ROOT
ATOM      1  C   UNL d   1       0.499  -1.192  -0.214  0.00  0.00     0.077 C 
ATOM      2  C1  UNL d   1       0.003   0.168   0.179  0.00  0.00    -0.074 A 
ATOM      3  C2  UNL d   1      -0.962   0.320   1.179  0.00  0.00    -0.005 A 
ATOM      4  C3  UNL d   1      -1.407   1.592   1.540  0.00  0.00     0.006 A 
ATOM      5  C4  UNL d   1      -0.891   2.722   0.905  0.00  0.00    -0.005 A 
ATOM      6  C5  UNL d   1       0.076   2.590  -0.096  0.00  0.00    -0.074 A 
ATOM      7  C6  UNL d   1       0.648   3.796  -0.781  0.00  0.00     0.077 C 
ATOM      8  C7  UNL d   1       0.523   1.309  -0.449  0.00  0.00    -0.001 A 
ENDROOT
TORSDOF 0
ENDMDL
