MODEL 1
REMARK minimizedAffinity -4.04289532
REMARK minimizedRMSD -1
REMARK  0 active torsions:
REMARK  status: ('A' for Active; 'I' for Inactive)
ROOT
ATOM      1  C   UNL d   1       0.698  -1.316   0.090  0.00  0.00     0.077 C 
ATOM      2  C1  UNL d   1      -0.078  -0.053   0.316  0.00  0.00    -0.074 A 
ATOM      3  C2  UNL d   1      -1.388  -0.092   0.804  0.00  0.00    -0.005 A 
ATOM      4  C3  UNL d   1      -2.095   1.092   1.018  0.00  0.00     0.006 A 
ATOM      5  C4  UNL d   1      -1.499   2.324   0.746  0.00  0.00    -0.005 A 
ATOM      6  C5  UNL d   1      -0.190   2.383   0.258  0.00  0.00    -0.074 A 
ATOM      7  C6  UNL d   1       0.468   3.700  -0.030  0.00  0.00     0.077 C 
ATOM      8  C7  UNL d   1       0.516   1.190   0.052  0.00  0.00    -0.001 A 
ENDROOT
TORSDOF 0
ENDMDL
