MODEL 1
REMARK minimizedAffinity -3.15052485
REMARK minimizedRMSD -1
REMARK  0 active torsions:
REMARK  status: ('A' for Active; 'I' for Inactive)
ROOT
ATOM      1  C   UNL d   1       1.085   3.781   0.334  0.00  0.00     0.077 C 
ATOM      2  C1  UNL d   1       0.710   2.333   0.224  0.00  0.00    -0.074 A 
ATOM      3  C2  UNL d   1       1.579   1.408  -0.364  0.00  0.00    -0.005 A 
ATOM      4  C3  UNL d   1       1.220   0.063  -0.451  0.00  0.00     0.006 A 
ATOM      5  C4  UNL d   1      -0.009  -0.370   0.047  0.00  0.00    -0.005 A 
ATOM      6  C5  UNL d   1      -0.891   0.540   0.639  0.00  0.00    -0.074 A 
ATOM      7  C6  UNL d   1      -2.212   0.089   1.189  0.00  0.00     0.077 C 
ATOM      8  C7  UNL d   1      -0.520   1.889   0.729  0.00  0.00    -0.001 A 
ENDROOT
TORSDOF 0
ENDMDL
