MODEL 1
REMARK minimizedAffinity -6.22934866
REMARK minimizedRMSD -1
REMARK  0 active torsions:
REMARK  status: ('A' for Active; 'I' for Inactive)
ROOT
ATOM      1  C   UNL d   1      -0.182  -1.089  -0.416  0.00  0.00     0.077 C 
ATOM      2  C1  UNL d   1      -0.121   0.367  -0.062  0.00  0.00    -0.074 A 
ATOM      3  C2  UNL d   1      -1.268   1.167  -0.107  0.00  0.00    -0.005 A 
ATOM      4  C3  UNL d   1      -1.197   2.517   0.234  0.00  0.00     0.006 A 
ATOM      5  C4  UNL d   1       0.018   3.081   0.624  0.00  0.00    -0.005 A 
ATOM      6  C5  UNL d   1       1.175   2.297   0.676  0.00  0.00    -0.074 A 
ATOM      7  C6  UNL d   1       2.487   2.885   1.102  0.00  0.00     0.077 C 
ATOM      8  C7  UNL d   1       1.095   0.939   0.338  0.00  0.00    -0.001 A 
ENDROOT
TORSDOF 0
ENDMDL
