MODEL 1
REMARK minimizedAffinity -4.93961859
REMARK minimizedRMSD -1
REMARK  0 active torsions:
REMARK  status: ('A' for Active; 'I' for Inactive)
ROOT
ATOM      1  C   UNL d   1      -3.024  -0.121   1.338  0.00  0.00     0.077 C 
ATOM      2  C1  UNL d   1      -1.662   0.162   0.779  0.00  0.00    -0.074 A 
ATOM      3  C2  UNL d   1      -0.798  -0.880   0.428  0.00  0.00    -0.005 A 
ATOM      4  C3  UNL d   1       0.462  -0.602  -0.100  0.00  0.00     0.006 A 
ATOM      5  C4  UNL d   1       0.872   0.720  -0.282  0.00  0.00    -0.005 A 
ATOM      6  C5  UNL d   1       0.022   1.775   0.062  0.00  0.00    -0.074 A 
ATOM      7  C6  UNL d   1       0.442   3.201  -0.136  0.00  0.00     0.077 C 
ATOM      8  C7  UNL d   1      -1.246   1.487   0.586  0.00  0.00    -0.001 A 
ENDROOT
TORSDOF 0
ENDMDL
