MODEL 1
REMARK minimizedAffinity -4.72405195
REMARK minimizedRMSD -1
REMARK  0 active torsions:
REMARK  status: ('A' for Active; 'I' for Inactive)
ROOT
ATOM      1  C   UNL d   1       0.764   4.203   0.603  0.00  0.00     0.077 C 
ATOM      2  C1  UNL d   1       0.909   2.733   0.342  0.00  0.00    -0.074 A 
ATOM      3  C2  UNL d   1       2.172   2.136   0.275  0.00  0.00    -0.005 A 
ATOM      4  C3  UNL d   1       2.290   0.766   0.041  0.00  0.00     0.006 A 
ATOM      5  C4  UNL d   1       1.149  -0.019  -0.128  0.00  0.00    -0.005 A 
ATOM      6  C5  UNL d   1      -0.122   0.561  -0.063  0.00  0.00    -0.074 A 
ATOM      7  C6  UNL d   1      -1.360  -0.270  -0.232  0.00  0.00     0.077 C 
ATOM      8  C7  UNL d   1      -0.233   1.937   0.180  0.00  0.00    -0.001 A 
ENDROOT
TORSDOF 0
ENDMDL
