MODEL 1
REMARK minimizedAffinity -2.83914757
REMARK minimizedRMSD -1
REMARK  0 active torsions:
REMARK  status: ('A' for Active; 'I' for Inactive)
ROOT
ATOM      1  C   UNL d   1      -0.470  -2.248  -0.074  0.00  0.00     0.077 C 
ATOM      2  C1  UNL d   1       0.197  -0.930   0.185  0.00  0.00    -0.074 A 
ATOM      3  C2  UNL d   1       1.583  -0.846   0.350  0.00  0.00    -0.005 A 
ATOM      4  C3  UNL d   1       2.191   0.388   0.580  0.00  0.00     0.006 A 
ATOM      5  C4  UNL d   1       1.420   1.549   0.649  0.00  0.00    -0.005 A 
ATOM      6  C5  UNL d   1       0.032   1.485   0.485  0.00  0.00    -0.074 A 
ATOM      7  C6  UNL d   1      -0.810   2.724   0.546  0.00  0.00     0.077 C 
ATOM      8  C7  UNL d   1      -0.570   0.242   0.247  0.00  0.00    -0.001 A 
ENDROOT
TORSDOF 0
ENDMDL
