MODEL 1
REMARK minimizedAffinity -5.18304491
REMARK minimizedRMSD -1
REMARK  0 active torsions:
REMARK  status: ('A' for Active; 'I' for Inactive)
ROOT
ATOM      1  C   UNL d   1      -1.081   0.413  -0.041  0.00  0.00     0.077 C 
ATOM      2  C1  UNL d   1       0.027   1.420  -0.120  0.00  0.00    -0.074 A 
ATOM      3  C2  UNL d   1      -0.245   2.772  -0.351  0.00  0.00    -0.005 A 
ATOM      4  C3  UNL d   1       0.795   3.699  -0.413  0.00  0.00     0.006 A 
ATOM      5  C4  UNL d   1       2.117   3.283  -0.244  0.00  0.00    -0.005 A 
ATOM      6  C5  UNL d   1       2.408   1.936  -0.011  0.00  0.00    -0.074 A 
ATOM      7  C6  UNL d   1       3.822   1.474   0.183  0.00  0.00     0.077 C 
ATOM      8  C7  UNL d   1       1.357   1.012   0.057  0.00  0.00    -0.001 A 
ENDROOT
TORSDOF 0
ENDMDL
