MODEL 1
REMARK minimizedAffinity -5.21896362
REMARK minimizedRMSD -1
REMARK  0 active torsions:
REMARK  status: ('A' for Active; 'I' for Inactive)
ROOT
ATOM      1  C   UNL d   1       1.732   3.171   0.485  0.00  0.00     0.077 C 
ATOM      2  C1  UNL d   1       0.608   2.198   0.287  0.00  0.00    -0.074 A 
ATOM      3  C2  UNL d   1      -0.716   2.639   0.196  0.00  0.00    -0.005 A 
ATOM      4  C3  UNL d   1      -1.751   1.723   0.003  0.00  0.00     0.006 A 
ATOM      5  C4  UNL d   1      -1.472   0.360  -0.101  0.00  0.00    -0.005 A 
ATOM      6  C5  UNL d   1      -0.154  -0.099  -0.013  0.00  0.00    -0.074 A 
ATOM      7  C6  UNL d   1       0.164  -1.560  -0.132  0.00  0.00     0.077 C 
ATOM      8  C7  UNL d   1       0.881   0.828   0.174  0.00  0.00    -0.001 A 
ENDROOT
TORSDOF 0
ENDMDL
