MODEL 1
REMARK minimizedAffinity -6.58723783
REMARK minimizedRMSD -1
REMARK  0 active torsions:
REMARK  status: ('A' for Active; 'I' for Inactive)
ROOT
ATOM      1  C   UNL d   1       2.904   2.559   0.442  0.00  0.00     0.077 C 
ATOM      2  C1  UNL d   1       1.499   2.044   0.334  0.00  0.00    -0.074 A 
ATOM      3  C2  UNL d   1       0.416   2.924   0.238  0.00  0.00    -0.005 A 
ATOM      4  C3  UNL d   1      -0.884   2.430   0.129  0.00  0.00     0.006 A 
ATOM      5  C4  UNL d   1      -1.114   1.054   0.115  0.00  0.00    -0.005 A 
ATOM      6  C5  UNL d   1      -0.044   0.159   0.210  0.00  0.00    -0.074 A 
ATOM      7  C6  UNL d   1      -0.273  -1.324   0.187  0.00  0.00     0.077 C 
ATOM      8  C7  UNL d   1       1.260   0.662   0.312  0.00  0.00    -0.001 A 
ENDROOT
TORSDOF 0
ENDMDL
