MODEL 1
REMARK minimizedAffinity -4.43260908
REMARK minimizedRMSD -1
REMARK  0 active torsions:
REMARK  status: ('A' for Active; 'I' for Inactive)
ROOT
ATOM      1  C   UNL d   1       0.938   4.250  -0.107  0.00  0.00     0.077 C 
ATOM      2  C1  UNL d   1       0.529   2.807  -0.115  0.00  0.00    -0.074 A 
ATOM      3  C2  UNL d   1       1.430   1.807  -0.494  0.00  0.00    -0.005 A 
ATOM      4  C3  UNL d   1       1.039   0.468  -0.486  0.00  0.00     0.006 A 
ATOM      5  C4  UNL d   1      -0.255   0.116  -0.100  0.00  0.00    -0.005 A 
ATOM      6  C5  UNL d   1      -1.169   1.102   0.283  0.00  0.00    -0.074 A 
ATOM      7  C6  UNL d   1      -2.561   0.741   0.710  0.00  0.00     0.077 C 
ATOM      8  C7  UNL d   1      -0.767   2.445   0.279  0.00  0.00    -0.001 A 
ENDROOT
TORSDOF 0
ENDMDL
