MODEL 1
REMARK minimizedAffinity -3.8902843
REMARK minimizedRMSD -1
REMARK  0 active torsions:
REMARK  status: ('A' for Active; 'I' for Inactive)
ROOT
ATOM      1  C   UNL d   1      -2.789  -4.280   0.258  0.00  0.00     0.077 C 
ATOM      2  C1  UNL d   1      -1.658  -3.685  -0.526  0.00  0.00    -0.074 A 
ATOM      3  C2  UNL d   1      -1.564  -3.875  -1.909  0.00  0.00    -0.005 A 
ATOM      4  C3  UNL d   1      -0.512  -3.307  -2.627  0.00  0.00     0.006 A 
ATOM      5  C4  UNL d   1       0.455  -2.544  -1.971  0.00  0.00    -0.005 A 
ATOM      6  C5  UNL d   1       0.377  -2.342  -0.590  0.00  0.00    -0.074 A 
ATOM      7  C6  UNL d   1       1.402  -1.516   0.129  0.00  0.00     0.077 C 
ATOM      8  C7  UNL d   1      -0.687  -2.910   0.124  0.00  0.00    -0.001 A 
ENDROOT
TORSDOF 0
ENDMDL
