MODEL 1
REMARK minimizedAffinity -1.95465863
REMARK minimizedRMSD -1
REMARK  0 active torsions:
REMARK  status: ('A' for Active; 'I' for Inactive)
ROOT
ATOM      1  C   UNL d   1      -1.392  -3.060  -3.234  0.00  0.00     0.077 C 
ATOM      2  C1  UNL d   1      -0.664  -2.601  -2.006  0.00  0.00    -0.074 A 
ATOM      3  C2  UNL d   1       0.308  -3.406  -1.403  0.00  0.00    -0.005 A 
ATOM      4  C3  UNL d   1       0.984  -2.962  -0.267  0.00  0.00     0.006 A 
ATOM      5  C4  UNL d   1       0.696  -1.709   0.277  0.00  0.00    -0.005 A 
ATOM      6  C5  UNL d   1      -0.272  -0.890  -0.312  0.00  0.00    -0.074 A 
ATOM      7  C6  UNL d   1      -0.587   0.463   0.254  0.00  0.00     0.077 C 
ATOM      8  C7  UNL d   1      -0.942  -1.341  -1.458  0.00  0.00    -0.001 A 
ENDROOT
TORSDOF 0
ENDMDL
