MODEL 1
REMARK minimizedAffinity -3.09722948
REMARK minimizedRMSD -1
REMARK  1 active torsions:
REMARK  status: ('A' for Active; 'I' for Inactive)
REMARK    1  A    between atoms: C3_4  and  O_7 
ROOT
ATOM      1  C   UNL d   1       1.897   1.681  -4.907  0.00  0.00    -0.033 A 
ATOM      2  C1  UNL d   1       0.700   1.092  -4.493  0.00  0.00     0.039 A 
ATOM      3  C2  UNL d   1       0.608   0.510  -3.227  0.00  0.00    -0.080 A 
ATOM      4  C3  UNL d   1       1.717   0.526  -2.386  0.00  0.00     0.150 A 
ATOM      5  C4  UNL d   1       2.910   1.115  -2.790  0.00  0.00    -0.007 A 
ATOM      6  C5  UNL d   1       3.001   1.694  -4.055  0.00  0.00     0.039 A 
ENDROOT
BRANCH   4   7
ATOM      7  O   UNL d   1       1.676  -0.033  -1.143  0.00  0.00    -0.526 OA
ATOM      8  H5  UNL d   1       0.798  -0.427  -1.011  0.00  0.00     0.418 HD
ENDBRANCH   4   7
TORSDOF 1
ENDMDL
