MODEL 1
REMARK minimizedAffinity -2.17914844
REMARK minimizedRMSD -1
REMARK  1 active torsions:
REMARK  status: ('A' for Active; 'I' for Inactive)
REMARK    1  A    between atoms: C3_4  and  O_7 
ROOT
ATOM      1  C   UNL d   1      -1.887  -1.586  -1.732  0.00  0.00    -0.033 A 
ATOM      2  C1  UNL d   1      -1.413  -0.317  -1.393  0.00  0.00     0.039 A 
ATOM      3  C2  UNL d   1      -0.233  -0.184  -0.658  0.00  0.00    -0.080 A 
ATOM      4  C3  UNL d   1       0.462  -1.326  -0.269  0.00  0.00     0.150 A 
ATOM      5  C4  UNL d   1      -0.003  -2.593  -0.606  0.00  0.00    -0.007 A 
ATOM      6  C5  UNL d   1      -1.182  -2.724  -1.340  0.00  0.00     0.039 A 
ENDROOT
BRANCH   4   7
ATOM      7  O   UNL d   1       1.615  -1.247   0.454  0.00  0.00    -0.526 OA
ATOM      8  H5  UNL d   1       1.799  -0.311   0.638  0.00  0.00     0.418 HD
ENDBRANCH   4   7
TORSDOF 1
ENDMDL
