MODEL 1
REMARK minimizedAffinity 1.35575664
REMARK minimizedRMSD -1
REMARK  1 active torsions:
REMARK  status: ('A' for Active; 'I' for Inactive)
REMARK    1  A    between atoms: C3_4  and  O_7 
ROOT
ATOM      1  C   UNL d   1       2.881  -1.103  -4.428  0.00  0.00    -0.033 A 
ATOM      2  C1  UNL d   1       1.596  -0.557  -4.401  0.00  0.00     0.039 A 
ATOM      3  C2  UNL d   1       1.423   0.827  -4.443  0.00  0.00    -0.080 A 
ATOM      4  C3  UNL d   1       2.541   1.654  -4.512  0.00  0.00     0.150 A 
ATOM      5  C4  UNL d   1       3.823   1.117  -4.543  0.00  0.00    -0.007 A 
ATOM      6  C5  UNL d   1       3.995  -0.266  -4.500  0.00  0.00     0.039 A 
ENDROOT
BRANCH   4   7
ATOM      7  O   UNL d   1       2.422   3.012  -4.550  0.00  0.00    -0.526 OA
ATOM      8  H5  UNL d   1       1.479   3.240  -4.493  0.00  0.00     0.418 HD
ENDBRANCH   4   7
TORSDOF 1
ENDMDL
