MODEL 1
REMARK minimizedAffinity 4.32781553
REMARK minimizedRMSD -1
REMARK  1 active torsions:
REMARK  status: ('A' for Active; 'I' for Inactive)
REMARK    1  A    between atoms: C3_4  and  O_7 
ROOT
ATOM      1  C   UNL d   1      -1.874  -5.740  -3.388  0.00  0.00    -0.033 A 
ATOM      2  C1  UNL d   1      -0.730  -6.000  -2.631  0.00  0.00     0.039 A 
ATOM      3  C2  UNL d   1      -0.153  -4.986  -1.863  0.00  0.00    -0.080 A 
ATOM      4  C3  UNL d   1      -0.730  -3.719  -1.861  0.00  0.00     0.150 A 
ATOM      5  C4  UNL d   1      -1.872  -3.454  -2.609  0.00  0.00    -0.007 A 
ATOM      6  C5  UNL d   1      -2.446  -4.467  -3.376  0.00  0.00     0.039 A 
ENDROOT
BRANCH   4   7
ATOM      7  O   UNL d   1      -0.201  -2.696  -1.131  0.00  0.00    -0.526 OA
ATOM      8  H5  UNL d   1       0.602  -3.018  -0.687  0.00  0.00     0.418 HD
ENDBRANCH   4   7
TORSDOF 1
ENDMDL
