MODEL 1
REMARK minimizedAffinity -0.0806897879
REMARK minimizedRMSD -1
REMARK  1 active torsions:
REMARK  status: ('A' for Active; 'I' for Inactive)
REMARK    1  A    between atoms: C3_4  and  O_7 
ROOT
ATOM      1  C   UNL d   1       2.557   0.414   1.044  0.00  0.00    -0.033 A 
ATOM      2  C1  UNL d   1       1.406   1.164   1.291  0.00  0.00     0.039 A 
ATOM      3  C2  UNL d   1       0.171   0.731   0.805  0.00  0.00    -0.080 A 
ATOM      4  C3  UNL d   1       0.100  -0.453   0.076  0.00  0.00     0.150 A 
ATOM      5  C4  UNL d   1       1.242  -1.207  -0.170  0.00  0.00    -0.007 A 
ATOM      6  C5  UNL d   1       2.475  -0.773   0.314  0.00  0.00     0.039 A 
ENDROOT
BRANCH   4   7
ATOM      7  O   UNL d   1      -1.082  -0.914  -0.422  0.00  0.00    -0.526 OA
ATOM      8  H5  UNL d   1      -1.780  -0.275  -0.198  0.00  0.00     0.418 HD
ENDBRANCH   4   7
TORSDOF 1
ENDMDL
