MODEL 1
REMARK minimizedAffinity -3.61205578
REMARK minimizedRMSD -1
REMARK  0 active torsions:
REMARK  status: ('A' for Active; 'I' for Inactive)
ROOT
ATOM      1  C4' PXY d   1       0.489   0.278  -1.876  0.00  0.00     0.077 C 
ATOM      2  C1' PXY d   1      -0.964  -0.706   3.632  0.00  0.00     0.077 C 
ATOM      3  C1  PXY d   1      -0.592  -0.457   2.184  0.00  0.00    -0.082 A 
ATOM      4  C2  PXY d   1       0.596   0.048   1.891  0.00  0.00     0.003 A 
ATOM      5  C3  PXY d   1       0.937   0.309   0.589  0.00  0.00     0.003 A 
ATOM      6  C4  PXY d   1       0.074   0.001  -0.428  0.00  0.00    -0.082 A 
ATOM      7  C5  PXY d   1      -1.136  -0.524  -0.139  0.00  0.00     0.003 A 
ATOM      8  C6  PXY d   1      -1.479  -0.743   1.192  0.00  0.00     0.003 A 
ENDROOT
TORSDOF 0
ENDMDL
