MODEL 1
REMARK minimizedAffinity -2.8268652
REMARK minimizedRMSD -1
REMARK  0 active torsions:
REMARK  status: ('A' for Active; 'I' for Inactive)
ROOT
ATOM      1  C4' PXY d   1       0.977  -1.465  -1.866  0.00  0.00     0.077 C 
ATOM      2  C1' PXY d   1      -1.554  -0.094   3.147  0.00  0.00     0.077 C 
ATOM      3  C1  PXY d   1      -0.882  -0.462   1.839  0.00  0.00    -0.082 A 
ATOM      4  C2  PXY d   1      -0.886   0.401   0.836  0.00  0.00     0.003 A 
ATOM      5  C3  PXY d   1      -0.312   0.072  -0.365  0.00  0.00     0.003 A 
ATOM      6  C4  PXY d   1       0.320  -1.132  -0.524  0.00  0.00    -0.082 A 
ATOM      7  C5  PXY d   1       0.337  -2.014   0.498  0.00  0.00     0.003 A 
ATOM      8  C6  PXY d   1      -0.287  -1.678   1.695  0.00  0.00     0.003 A 
ENDROOT
TORSDOF 0
ENDMDL
