MODEL 1
REMARK minimizedAffinity -4.21982431
REMARK minimizedRMSD -1
REMARK  0 active torsions:
REMARK  status: ('A' for Active; 'I' for Inactive)
ROOT
ATOM      1  C4' PXY d   1       1.831   2.582  -0.438  0.00  0.00     0.077 C 
ATOM      2  C1' PXY d   1      -0.726  -1.394   2.889  0.00  0.00     0.077 C 
ATOM      3  C1  PXY d   1      -0.059  -0.357   2.006  0.00  0.00    -0.082 A 
ATOM      4  C2  PXY d   1       0.947   0.358   2.482  0.00  0.00     0.003 A 
ATOM      5  C3  PXY d   1       1.540   1.322   1.708  0.00  0.00     0.003 A 
ATOM      6  C4  PXY d   1       1.134   1.518   0.415  0.00  0.00    -0.082 A 
ATOM      7  C5  PXY d   1       0.116   0.785  -0.082  0.00  0.00     0.003 A 
ATOM      8  C6  PXY d   1      -0.500  -0.160   0.734  0.00  0.00     0.003 A 
ENDROOT
TORSDOF 0
ENDMDL
