MODEL 1
REMARK minimizedAffinity -0.12287195
REMARK minimizedRMSD -1
REMARK  0 active torsions:
REMARK  status: ('A' for Active; 'I' for Inactive)
ROOT
ATOM      1  C4' PXY d   1      -4.631   3.436   5.484  0.00  0.00     0.077 C 
ATOM      2  C1' PXY d   1      -1.427   1.169   1.240  0.00  0.00     0.077 C 
ATOM      3  C1  PXY d   1      -2.258   1.760   2.361  0.00  0.00    -0.082 A 
ATOM      4  C2  PXY d   1      -3.570   1.860   2.221  0.00  0.00     0.003 A 
ATOM      5  C3  PXY d   1      -4.333   2.422   3.212  0.00  0.00     0.003 A 
ATOM      6  C4  PXY d   1      -3.753   2.837   4.382  0.00  0.00    -0.082 A 
ATOM      7  C5  PXY d   1      -2.417   2.728   4.537  0.00  0.00     0.003 A 
ATOM      8  C6  PXY d   1      -1.655   2.193   3.502  0.00  0.00     0.003 A 
ENDROOT
TORSDOF 0
ENDMDL
