MODEL 1
REMARK minimizedAffinity 0.767026484
REMARK minimizedRMSD -1
REMARK  0 active torsions:
REMARK  status: ('A' for Active; 'I' for Inactive)
ROOT
ATOM      1  C4' PXY d   1      -4.149  -4.984  -0.388  0.00  0.00     0.077 C 
ATOM      2  C1' PXY d   1      -3.156  -5.096   5.306  0.00  0.00     0.077 C 
ATOM      3  C1  PXY d   1      -3.414  -5.054   3.813  0.00  0.00    -0.082 A 
ATOM      4  C2  PXY d   1      -4.148  -5.999   3.249  0.00  0.00     0.003 A 
ATOM      5  C3  PXY d   1      -4.365  -5.994   1.895  0.00  0.00     0.003 A 
ATOM      6  C4  PXY d   1      -3.870  -4.981   1.118  0.00  0.00    -0.082 A 
ATOM      7  C5  PXY d   1      -3.129  -4.007   1.687  0.00  0.00     0.003 A 
ATOM      8  C6  PXY d   1      -2.886  -4.053   3.057  0.00  0.00     0.003 A 
ENDROOT
TORSDOF 0
ENDMDL
