MODEL 1
REMARK minimizedAffinity 4.9357419
REMARK minimizedRMSD -1
REMARK  0 active torsions:
REMARK  status: ('A' for Active; 'I' for Inactive)
ROOT
ATOM      1  C4' PXY d   1       2.499   1.979   1.519  0.00  0.00     0.077 C 
ATOM      2  C1' PXY d   1      -2.713  -0.469   1.006  0.00  0.00     0.077 C 
ATOM      3  C1  PXY d   1      -1.352   0.184   1.145  0.00  0.00    -0.082 A 
ATOM      4  C2  PXY d   1      -0.351  -0.219   0.379  0.00  0.00     0.003 A 
ATOM      5  C3  PXY d   1       0.894   0.338   0.514  0.00  0.00     0.003 A 
ATOM      6  C4  PXY d   1       1.105   1.355   1.406  0.00  0.00    -0.082 A 
ATOM      7  C5  PXY d   1       0.087   1.779   2.185  0.00  0.00     0.003 A 
ATOM      8  C6  PXY d   1      -1.160   1.172   2.061  0.00  0.00     0.003 A 
ENDROOT
TORSDOF 0
ENDMDL
