MODEL 1
REMARK minimizedAffinity -0.274867624
REMARK minimizedRMSD -1
REMARK  0 active torsions:
REMARK  status: ('A' for Active; 'I' for Inactive)
ROOT
ATOM      1  C4' PXY d   1      -2.982  -4.952   5.177  0.00  0.00     0.077 C 
ATOM      2  C1' PXY d   1      -5.498  -5.998   0.078  0.00  0.00     0.077 C 
ATOM      3  C1  PXY d   1      -4.850  -5.722   1.421  0.00  0.00    -0.082 A 
ATOM      4  C2  PXY d   1      -3.626  -5.220   1.466  0.00  0.00     0.003 A 
ATOM      5  C3  PXY d   1      -3.013  -4.995   2.672  0.00  0.00     0.003 A 
ATOM      6  C4  PXY d   1      -3.679  -5.237   3.843  0.00  0.00    -0.082 A 
ATOM      7  C5  PXY d   1      -4.931  -5.740   3.806  0.00  0.00     0.003 A 
ATOM      8  C6  PXY d   1      -5.520  -6.000   2.572  0.00  0.00     0.003 A 
ENDROOT
TORSDOF 0
ENDMDL
