MODEL 1
REMARK minimizedAffinity 5.75610924
REMARK minimizedRMSD -1
REMARK  0 active torsions:
REMARK  status: ('A' for Active; 'I' for Inactive)
ROOT
ATOM      1  C4' PXY d   1      -5.999  -6.000   1.404  0.00  0.00     0.077 C 
ATOM      2  C1' PXY d   1      -2.248  -1.734   0.331  0.00  0.00     0.077 C 
ATOM      3  C1  PXY d   1      -3.227  -2.859   0.602  0.00  0.00    -0.082 A 
ATOM      4  C2  PXY d   1      -4.328  -2.616   1.293  0.00  0.00     0.003 A 
ATOM      5  C3  PXY d   1      -5.209  -3.628   1.575  0.00  0.00     0.003 A 
ATOM      6  C4  PXY d   1      -4.987  -4.892   1.098  0.00  0.00    -0.082 A 
ATOM      7  C5  PXY d   1      -3.871  -5.147   0.383  0.00  0.00     0.003 A 
ATOM      8  C6  PXY d   1      -2.969  -4.114   0.143  0.00  0.00     0.003 A 
ENDROOT
TORSDOF 0
ENDMDL
