MODEL 1
REMARK minimizedAffinity -5.28643131
REMARK minimizedRMSD -1
REMARK  0 active torsions:
REMARK  status: ('A' for Active; 'I' for Inactive)
ROOT
ATOM      1  C4' PXY d   1       0.345   1.119  -2.104  0.00  0.00     0.077 C 
ATOM      2  C1' PXY d   1      -0.338  -0.475   3.410  0.00  0.00     0.077 C 
ATOM      3  C1  PXY d   1      -0.146  -0.055   1.966  0.00  0.00    -0.082 A 
ATOM      4  C2  PXY d   1      -1.182   0.383   1.269  0.00  0.00     0.003 A 
ATOM      5  C3  PXY d   1      -1.033   0.737  -0.047  0.00  0.00     0.003 A 
ATOM      6  C4  PXY d   1       0.200   0.693  -0.641  0.00  0.00    -0.082 A 
ATOM      7  C5  PXY d   1       1.264   0.258   0.067  0.00  0.00     0.003 A 
ATOM      8  C6  PXY d   1       1.084  -0.136   1.390  0.00  0.00     0.003 A 
ENDROOT
TORSDOF 0
ENDMDL
