MODEL 1
REMARK minimizedAffinity -4.52202225
REMARK minimizedRMSD -1
REMARK  0 active torsions:
REMARK  status: ('A' for Active; 'I' for Inactive)
ROOT
ATOM      1  C4' PXY d   1       1.173  -1.132  -2.421  0.00  0.00     0.077 C 
ATOM      2  C1' PXY d   1      -0.178   0.440   2.975  0.00  0.00     0.077 C 
ATOM      3  C1  PXY d   1       0.164   0.030   1.557  0.00  0.00    -0.082 A 
ATOM      4  C2  PXY d   1       1.225  -0.729   1.333  0.00  0.00     0.003 A 
ATOM      5  C3  PXY d   1       1.566  -1.084   0.053  0.00  0.00     0.003 A 
ATOM      6  C4  PXY d   1       0.785  -0.701  -1.004  0.00  0.00    -0.082 A 
ATOM      7  C5  PXY d   1      -0.305   0.065  -0.783  0.00  0.00     0.003 A 
ATOM      8  C6  PXY d   1      -0.612   0.448   0.520  0.00  0.00     0.003 A 
ENDROOT
TORSDOF 0
ENDMDL
