MODEL 1
REMARK minimizedAffinity -4.8529892
REMARK minimizedRMSD -1
REMARK  0 active torsions:
REMARK  status: ('A' for Active; 'I' for Inactive)
ROOT
ATOM      1  C4' PXY d   1       0.481  -0.399  -2.279  0.00  0.00     0.077 C 
ATOM      2  C1' PXY d   1       0.295   0.686   3.396  0.00  0.00     0.077 C 
ATOM      3  C1  PXY d   1       0.342   0.388   1.910  0.00  0.00    -0.082 A 
ATOM      4  C2  PXY d   1       0.954   1.231   1.093  0.00  0.00     0.003 A 
ATOM      5  C3  PXY d   1       0.979   0.994  -0.257  0.00  0.00     0.003 A 
ATOM      6  C4  PXY d   1       0.417  -0.144  -0.771  0.00  0.00    -0.082 A 
ATOM      7  C5  PXY d   1      -0.201  -1.014   0.057  0.00  0.00     0.003 A 
ATOM      8  C6  PXY d   1      -0.250  -0.734   1.419  0.00  0.00     0.003 A 
ENDROOT
TORSDOF 0
ENDMDL
