MODEL 1
REMARK minimizedAffinity -4.10767078
REMARK minimizedRMSD -1
REMARK  0 active torsions:
REMARK  status: ('A' for Active; 'I' for Inactive)
ROOT
ATOM      1  C4' PXY d   1      -1.032  -0.881   3.550  0.00  0.00     0.077 C 
ATOM      2  C1' PXY d   1       1.027   0.853  -1.566  0.00  0.00     0.077 C 
ATOM      3  C1  PXY d   1       0.499   0.398  -0.219  0.00  0.00    -0.082 A 
ATOM      4  C2  PXY d   1      -0.652  -0.251  -0.153  0.00  0.00     0.003 A 
ATOM      5  C3  PXY d   1      -1.159  -0.642   1.059  0.00  0.00     0.003 A 
ATOM      6  C4  PXY d   1      -0.456  -0.412   2.211  0.00  0.00    -0.082 A 
ATOM      7  C5  PXY d   1       0.724   0.241   2.151  0.00  0.00     0.003 A 
ATOM      8  C6  PXY d   1       1.202   0.665   0.915  0.00  0.00     0.003 A 
ENDROOT
TORSDOF 0
ENDMDL
