MODEL 1
REMARK minimizedAffinity -3.14292717
REMARK minimizedRMSD -1
REMARK  0 active torsions:
REMARK  status: ('A' for Active; 'I' for Inactive)
ROOT
ATOM      1  C4' PXY d   1       0.926  -1.008  -2.492  0.00  0.00     0.077 C 
ATOM      2  C1' PXY d   1      -0.322   0.454   2.960  0.00  0.00     0.077 C 
ATOM      3  C1  PXY d   1      -0.003   0.060   1.531  0.00  0.00    -0.082 A 
ATOM      4  C2  PXY d   1       1.150   0.426   0.993  0.00  0.00     0.003 A 
ATOM      5  C3  PXY d   1       1.441   0.106  -0.308  0.00  0.00     0.003 A 
ATOM      6  C4  PXY d   1       0.566  -0.642  -1.050  0.00  0.00    -0.082 A 
ATOM      7  C5  PXY d   1      -0.608  -1.028  -0.505  0.00  0.00     0.003 A 
ATOM      8  C6  PXY d   1      -0.902  -0.657   0.804  0.00  0.00     0.003 A 
ENDROOT
TORSDOF 0
ENDMDL
