MODEL 1
REMARK minimizedAffinity -1.53896677
REMARK minimizedRMSD -1
REMARK  0 active torsions:
REMARK  status: ('A' for Active; 'I' for Inactive)
ROOT
ATOM      1  C4' PXY d   1       1.230   0.085   2.859  0.00  0.00     0.077 C 
ATOM      2  C1' PXY d   1       0.579  -0.116  -2.881  0.00  0.00     0.077 C 
ATOM      3  C1  PXY d   1       0.747  -0.051  -1.376  0.00  0.00    -0.082 A 
ATOM      4  C2  PXY d   1       1.459  -0.979  -0.756  0.00  0.00     0.003 A 
ATOM      5  C3  PXY d   1       1.595  -0.952   0.608  0.00  0.00     0.003 A 
ATOM      6  C4  PXY d   1       1.041   0.064   1.340  0.00  0.00    -0.082 A 
ATOM      7  C5  PXY d   1       0.323   1.020   0.714  0.00  0.00     0.003 A 
ATOM      8  C6  PXY d   1       0.162   0.952  -0.667  0.00  0.00     0.003 A 
ENDROOT
TORSDOF 0
ENDMDL
