MODEL 1
REMARK minimizedAffinity 15.8740511
REMARK minimizedRMSD -1
REMARK  0 active torsions:
REMARK  status: ('A' for Active; 'I' for Inactive)
ROOT
ATOM      1  C4' PXY d   1       5.396   1.013  -3.554  0.00  0.00     0.077 C 
ATOM      2  C1' PXY d   1       0.448  -1.261  -1.614  0.00  0.00     0.077 C 
ATOM      3  C1  PXY d   1       1.752  -0.675  -2.120  0.00  0.00    -0.082 A 
ATOM      4  C2  PXY d   1       1.906   0.638  -2.164  0.00  0.00     0.003 A 
ATOM      5  C3  PXY d   1       3.066   1.184  -2.649  0.00  0.00     0.003 A 
ATOM      6  C4  PXY d   1       4.100   0.378  -3.042  0.00  0.00    -0.082 A 
ATOM      7  C5  PXY d   1       3.955  -0.963  -2.989  0.00  0.00     0.003 A 
ATOM      8  C6  PXY d   1       2.754  -1.498  -2.533  0.00  0.00     0.003 A 
ENDROOT
TORSDOF 0
ENDMDL
