MODEL 1
REMARK minimizedAffinity 8.54391861
REMARK minimizedRMSD -1
REMARK  0 active torsions:
REMARK  status: ('A' for Active; 'I' for Inactive)
ROOT
ATOM      1  C4' PXY d   1      -5.148  -5.981   0.338  0.00  0.00     0.077 C 
ATOM      2  C1' PXY d   1       0.614  -5.984   0.807  0.00  0.00     0.077 C 
ATOM      3  C1  PXY d   1      -0.896  -5.978   0.672  0.00  0.00    -0.082 A 
ATOM      4  C2  PXY d   1      -1.650  -5.971   1.760  0.00  0.00     0.003 A 
ATOM      5  C3  PXY d   1      -3.017  -5.998   1.656  0.00  0.00     0.003 A 
ATOM      6  C4  PXY d   1      -3.619  -5.978   0.427  0.00  0.00    -0.082 A 
ATOM      7  C5  PXY d   1      -2.857  -5.974  -0.688  0.00  0.00     0.003 A 
ATOM      8  C6  PXY d   1      -1.471  -5.988  -0.561  0.00  0.00     0.003 A 
ENDROOT
TORSDOF 0
ENDMDL
