MODEL 1
REMARK minimizedAffinity -3.64462447
REMARK minimizedRMSD -1
REMARK  0 active torsions:
REMARK  status: ('A' for Active; 'I' for Inactive)
ROOT
ATOM      1  C4' PXY d   1       5.887   1.770  -3.983  0.00  0.00     0.077 C 
ATOM      2  C1' PXY d   1       1.454  -1.646  -2.537  0.00  0.00     0.077 C 
ATOM      3  C1  PXY d   1       2.610  -0.740  -2.912  0.00  0.00    -0.082 A 
ATOM      4  C2  PXY d   1       3.486  -1.139  -3.820  0.00  0.00     0.003 A 
ATOM      5  C3  PXY d   1       4.555  -0.345  -4.148  0.00  0.00     0.003 A 
ATOM      6  C4  PXY d   1       4.699   0.892  -3.580  0.00  0.00    -0.082 A 
ATOM      7  C5  PXY d   1       3.804   1.311  -2.661  0.00  0.00     0.003 A 
ATOM      8  C6  PXY d   1       2.749   0.473  -2.311  0.00  0.00     0.003 A 
ENDROOT
TORSDOF 0
ENDMDL
