MODEL 1
REMARK minimizedAffinity 10.501915
REMARK minimizedRMSD -1
REMARK  0 active torsions:
REMARK  status: ('A' for Active; 'I' for Inactive)
ROOT
ATOM      1  C4' PXY d   1      -0.001  -2.750  -3.515  0.00  0.00     0.077 C 
ATOM      2  C1' PXY d   1       4.902   0.282  -3.094  0.00  0.00     0.077 C 
ATOM      3  C1  PXY d   1       3.612  -0.508  -3.194  0.00  0.00    -0.082 A 
ATOM      4  C2  PXY d   1       3.591  -1.643  -3.873  0.00  0.00     0.003 A 
ATOM      5  C3  PXY d   1       2.425  -2.354  -3.999  0.00  0.00     0.003 A 
ATOM      6  C4  PXY d   1       1.281  -1.925  -3.380  0.00  0.00    -0.082 A 
ATOM      7  C5  PXY d   1       1.298  -0.773  -2.677  0.00  0.00     0.003 A 
ATOM      8  C6  PXY d   1       2.481  -0.045  -2.595  0.00  0.00     0.003 A 
ENDROOT
TORSDOF 0
ENDMDL
