MODEL 1
REMARK minimizedAffinity 2.87326741
REMARK minimizedRMSD -1
REMARK  0 active torsions:
REMARK  status: ('A' for Active; 'I' for Inactive)
ROOT
ATOM      1  C4' PXY d   1       1.447  -4.020   4.209  0.00  0.00     0.077 C 
ATOM      2  C1' PXY d   1       4.357   0.311   1.722  0.00  0.00     0.077 C 
ATOM      3  C1  PXY d   1       3.603  -0.825   2.384  0.00  0.00    -0.082 A 
ATOM      4  C2  PXY d   1       2.824  -1.606   1.653  0.00  0.00     0.003 A 
ATOM      5  C3  PXY d   1       2.109  -2.618   2.241  0.00  0.00     0.003 A 
ATOM      6  C4  PXY d   1       2.235  -2.867   3.582  0.00  0.00    -0.082 A 
ATOM      7  C5  PXY d   1       3.036  -2.081   4.332  0.00  0.00     0.003 A 
ATOM      8  C6  PXY d   1       3.720  -1.033   3.723  0.00  0.00     0.003 A 
ENDROOT
TORSDOF 0
ENDMDL
