MODEL 1
REMARK minimizedAffinity 0.2745637
REMARK minimizedRMSD -1
REMARK  0 active torsions:
REMARK  status: ('A' for Active; 'I' for Inactive)
ROOT
ATOM      1  C1  DEN d   1       6.000   4.533  -3.710  0.00  0.00     0.130 A 
ATOM      2  C2  DEN d   1       5.999   5.225  -4.996  0.00  0.00    -0.031 A 
ATOM      3  C3  DEN d   1       5.398   4.324  -6.000  0.00  0.00     0.027 A 
ATOM      4  C4  DEN d   1       4.469   1.938  -5.689  0.00  0.00     0.027 A 
ATOM      5  C5  DEN d   1       4.262   0.924  -4.780  0.00  0.00    -0.003 A 
ATOM      6  C6  DEN d   1       4.648   1.027  -3.470  0.00  0.00     0.001 A 
ATOM      7  C7  DEN d   1       5.220   2.188  -3.020  0.00  0.00     0.017 A 
ATOM      8  C8  DEN d   1       5.438   3.212  -3.932  0.00  0.00    -0.094 A 
ATOM      9  C9  DEN d   1       5.030   3.093  -5.249  0.00  0.00    -0.072 A 
ENDROOT
TORSDOF 0
ENDMDL
