MODEL 1
REMARK minimizedAffinity 8.41204166
REMARK minimizedRMSD -1
REMARK  0 active torsions:
REMARK  status: ('A' for Active; 'I' for Inactive)
ROOT
ATOM      1  C1  DEN d   1       2.431   3.598  -5.972  0.00  0.00     0.130 A 
ATOM      2  C2  DEN d   1       1.309   2.665  -5.993  0.00  0.00    -0.031 A 
ATOM      3  C3  DEN d   1       1.856   1.293  -5.999  0.00  0.00     0.027 A 
ATOM      4  C4  DEN d   1       4.320   0.529  -5.971  0.00  0.00     0.027 A 
ATOM      5  C5  DEN d   1       5.628   0.959  -5.963  0.00  0.00    -0.003 A 
ATOM      6  C6  DEN d   1       5.961   2.287  -5.991  0.00  0.00     0.001 A 
ATOM      7  C7  DEN d   1       4.971   3.235  -5.983  0.00  0.00     0.017 A 
ATOM      8  C8  DEN d   1       3.650   2.809  -5.999  0.00  0.00    -0.094 A 
ATOM      9  C9  DEN d   1       3.334   1.462  -5.958  0.00  0.00    -0.072 A 
ENDROOT
TORSDOF 0
ENDMDL
