MODEL 1
REMARK minimizedAffinity 9.57933521
REMARK minimizedRMSD -1
REMARK  0 active torsions:
REMARK  status: ('A' for Active; 'I' for Inactive)
ROOT
ATOM      1  C1  DEN d   1      -2.004  -3.550  -3.020  0.00  0.00     0.130 A 
ATOM      2  C2  DEN d   1      -2.730  -2.283  -3.020  0.00  0.00    -0.031 A 
ATOM      3  C3  DEN d   1      -2.358  -1.543  -1.798  0.00  0.00     0.027 A 
ATOM      4  C4  DEN d   1      -0.734  -2.230   0.084  0.00  0.00     0.027 A 
ATOM      5  C5  DEN d   1       0.111  -3.222   0.531  0.00  0.00    -0.003 A 
ATOM      6  C6  DEN d   1       0.282  -4.398  -0.151  0.00  0.00     0.001 A 
ATOM      7  C7  DEN d   1      -0.366  -4.592  -1.342  0.00  0.00     0.017 A 
ATOM      8  C8  DEN d   1      -1.225  -3.600  -1.795  0.00  0.00    -0.094 A 
ATOM      9  C9  DEN d   1      -1.375  -2.414  -1.098  0.00  0.00    -0.072 A 
ENDROOT
TORSDOF 0
ENDMDL
