MODEL 1
REMARK minimizedAffinity -0.741621435
REMARK minimizedRMSD -1
REMARK  0 active torsions:
REMARK  status: ('A' for Active; 'I' for Inactive)
ROOT
ATOM      1  C1  DEN d   1       1.914   2.812  -5.996  0.00  0.00     0.130 A 
ATOM      2  C2  DEN d   1       1.404   4.181  -5.983  0.00  0.00    -0.031 A 
ATOM      3  C3  DEN d   1       2.561   5.099  -5.968  0.00  0.00     0.027 A 
ATOM      4  C4  DEN d   1       5.078   4.537  -5.969  0.00  0.00     0.027 A 
ATOM      5  C5  DEN d   1       6.000   3.513  -5.966  0.00  0.00    -0.003 A 
ATOM      6  C6  DEN d   1       5.628   2.195  -5.938  0.00  0.00     0.001 A 
ATOM      7  C7  DEN d   1       4.298   1.865  -5.959  0.00  0.00     0.017 A 
ATOM      8  C8  DEN d   1       3.363   2.892  -5.955  0.00  0.00    -0.094 A 
ATOM      9  C9  DEN d   1       3.760   4.218  -5.995  0.00  0.00    -0.072 A 
ENDROOT
TORSDOF 0
ENDMDL
