MODEL 1
REMARK minimizedAffinity 4.39795732
REMARK minimizedRMSD -1
REMARK  0 active torsions:
REMARK  status: ('A' for Active; 'I' for Inactive)
ROOT
ATOM      1  C1  DEN d   1      -1.956  -3.642  -1.934  0.00  0.00     0.130 A 
ATOM      2  C2  DEN d   1      -1.239  -2.479  -1.421  0.00  0.00    -0.031 A 
ATOM      3  C3  DEN d   1      -0.886  -1.618  -2.568  0.00  0.00     0.027 A 
ATOM      4  C4  DEN d   1      -1.383  -1.970  -5.074  0.00  0.00     0.027 A 
ATOM      5  C5  DEN d   1      -1.956  -2.817  -5.997  0.00  0.00    -0.003 A 
ATOM      6  C6  DEN d   1      -2.535  -4.005  -5.637  0.00  0.00     0.001 A 
ATOM      7  C7  DEN d   1      -2.593  -4.358  -4.314  0.00  0.00     0.017 A 
ATOM      8  C8  DEN d   1      -2.011  -3.513  -3.379  0.00  0.00    -0.094 A 
ATOM      9  C9  DEN d   1      -1.441  -2.310  -3.762  0.00  0.00    -0.072 A 
ENDROOT
TORSDOF 0
ENDMDL
