MODEL 1
REMARK minimizedAffinity 6.1774354
REMARK minimizedRMSD -1
REMARK  0 active torsions:
REMARK  status: ('A' for Active; 'I' for Inactive)
ROOT
ATOM      1  C1  DEN d   1       2.994   2.170  -6.000  0.00  0.00     0.130 A 
ATOM      2  C2  DEN d   1       2.147   3.359  -6.000  0.00  0.00    -0.031 A 
ATOM      3  C3  DEN d   1       2.245   3.989  -4.668  0.00  0.00     0.027 A 
ATOM      4  C4  DEN d   1       3.622   3.245  -2.618  0.00  0.00     0.027 A 
ATOM      5  C5  DEN d   1       4.487   2.289  -2.134  0.00  0.00    -0.003 A 
ATOM      6  C6  DEN d   1       4.886   1.216  -2.887  0.00  0.00     0.001 A 
ATOM      7  C7  DEN d   1       4.454   1.098  -4.182  0.00  0.00     0.017 A 
ATOM      8  C8  DEN d   1       3.575   2.054  -4.674  0.00  0.00    -0.094 A 
ATOM      9  C9  DEN d   1       3.194   3.138  -3.901  0.00  0.00    -0.072 A 
ENDROOT
TORSDOF 0
ENDMDL
