MODEL 1
REMARK minimizedAffinity 8.51888466
REMARK minimizedRMSD -1
REMARK  0 active torsions:
REMARK  status: ('A' for Active; 'I' for Inactive)
ROOT
ATOM      1  C1  DEN d   1      -1.279  -1.774   2.887  0.00  0.00     0.130 A 
ATOM      2  C2  DEN d   1      -1.855  -2.639   3.913  0.00  0.00    -0.031 A 
ATOM      3  C3  DEN d   1      -1.499  -4.035   3.586  0.00  0.00     0.027 A 
ATOM      4  C4  DEN d   1      -0.114  -4.935   1.605  0.00  0.00     0.027 A 
ATOM      5  C5  DEN d   1       0.576  -4.582   0.466  0.00  0.00    -0.003 A 
ATOM      6  C6  DEN d   1       0.666  -3.284   0.039  0.00  0.00     0.001 A 
ATOM      7  C7  DEN d   1       0.094  -2.284   0.781  0.00  0.00     0.017 A 
ATOM      8  C8  DEN d   1      -0.609  -2.632   1.926  0.00  0.00    -0.094 A 
ATOM      9  C9  DEN d   1      -0.678  -3.949   2.348  0.00  0.00    -0.072 A 
ENDROOT
TORSDOF 0
ENDMDL
