MODEL 1
REMARK minimizedAffinity 4.25437069
REMARK minimizedRMSD -1
REMARK  0 active torsions:
REMARK  status: ('A' for Active; 'I' for Inactive)
ROOT
ATOM      1  C1  DEN d   1       5.245   1.247  -0.928  0.00  0.00     0.130 A 
ATOM      2  C2  DEN d   1       4.958   2.319  -1.877  0.00  0.00    -0.031 A 
ATOM      3  C3  DEN d   1       3.780   3.061  -1.386  0.00  0.00     0.027 A 
ATOM      4  C4  DEN d   1       2.382   2.660   0.745  0.00  0.00     0.027 A 
ATOM      5  C5  DEN d   1       2.235   1.860   1.856  0.00  0.00    -0.003 A 
ATOM      6  C6  DEN d   1       3.053   0.788   2.098  0.00  0.00     0.001 A 
ATOM      7  C7  DEN d   1       4.084   0.513   1.240  0.00  0.00     0.017 A 
ATOM      8  C8  DEN d   1       4.234   1.311   0.113  0.00  0.00    -0.094 A 
ATOM      9  C9  DEN d   1       3.405   2.397  -0.108  0.00  0.00    -0.072 A 
ENDROOT
TORSDOF 0
ENDMDL
