MODEL 1
REMARK minimizedAffinity 13.23386
REMARK minimizedRMSD -1
REMARK  0 active torsions:
REMARK  status: ('A' for Active; 'I' for Inactive)
ROOT
ATOM      1  C1  DEN d   1      -2.521  -3.334  -2.996  0.00  0.00     0.130 A 
ATOM      2  C2  DEN d   1      -2.923  -1.955  -2.728  0.00  0.00    -0.031 A 
ATOM      3  C3  DEN d   1      -2.178  -1.485  -1.543  0.00  0.00     0.027 A 
ATOM      4  C4  DEN d   1      -0.447  -2.749  -0.107  0.00  0.00     0.027 A 
ATOM      5  C5  DEN d   1       0.211  -3.947   0.061  0.00  0.00    -0.003 A 
ATOM      6  C6  DEN d   1      -0.019  -5.027  -0.750  0.00  0.00     0.001 A 
ATOM      7  C7  DEN d   1      -0.897  -4.916  -1.796  0.00  0.00     0.017 A 
ATOM      8  C8  DEN d   1      -1.569  -3.713  -1.967  0.00  0.00    -0.094 A 
ATOM      9  C9  DEN d   1      -1.314  -2.630  -1.144  0.00  0.00    -0.072 A 
ENDROOT
TORSDOF 0
ENDMDL
