MODEL 1
REMARK minimizedAffinity 11.7915497
REMARK minimizedRMSD -1
REMARK  0 active torsions:
REMARK  status: ('A' for Active; 'I' for Inactive)
ROOT
ATOM      1  C1  DEN d   1      -1.515  -1.506  -2.291  0.00  0.00     0.130 A 
ATOM      2  C2  DEN d   1      -2.265  -2.022  -3.433  0.00  0.00    -0.031 A 
ATOM      3  C3  DEN d   1      -2.070  -3.485  -3.483  0.00  0.00     0.027 A 
ATOM      4  C4  DEN d   1      -0.691  -4.993  -1.910  0.00  0.00     0.027 A 
ATOM      5  C5  DEN d   1       0.131  -5.009  -0.805  0.00  0.00    -0.003 A 
ATOM      6  C6  DEN d   1       0.486  -3.863  -0.143  0.00  0.00     0.001 A 
ATOM      7  C7  DEN d   1      -0.019  -2.658  -0.554  0.00  0.00     0.017 A 
ATOM      8  C8  DEN d   1      -0.842  -2.633  -1.672  0.00  0.00    -0.094 A 
ATOM      9  C9  DEN d   1      -1.199  -3.803  -2.320  0.00  0.00    -0.072 A 
ENDROOT
TORSDOF 0
ENDMDL
