MODEL 1
REMARK minimizedAffinity 13.1522455
REMARK minimizedRMSD -1
REMARK  0 active torsions:
REMARK  status: ('A' for Active; 'I' for Inactive)
ROOT
ATOM      1  C1  DEN d   1      -2.418  -1.290   1.701  0.00  0.00     0.130 A 
ATOM      2  C2  DEN d   1      -1.710  -1.776   2.882  0.00  0.00    -0.031 A 
ATOM      3  C3  DEN d   1      -0.577  -2.607   2.426  0.00  0.00     0.027 A 
ATOM      4  C4  DEN d   1       0.149  -3.179   0.018  0.00  0.00     0.027 A 
ATOM      5  C5  DEN d   1      -0.149  -3.005  -1.316  0.00  0.00    -0.003 A 
ATOM      6  C6  DEN d   1      -1.235  -2.282  -1.733  0.00  0.00     0.001 A 
ATOM      7  C7  DEN d   1      -2.037  -1.667  -0.808  0.00  0.00     0.017 A 
ATOM      8  C8  DEN d   1      -1.747  -1.844   0.538  0.00  0.00    -0.094 A 
ATOM      9  C9  DEN d   1      -0.638  -2.568   0.940  0.00  0.00    -0.072 A 
ENDROOT
TORSDOF 0
ENDMDL
