MODEL 1
REMARK minimizedAffinity 12.3630409
REMARK minimizedRMSD -1
REMARK  0 active torsions:
REMARK  status: ('A' for Active; 'I' for Inactive)
ROOT
ATOM      1  C1  DEN d   1      -2.745  -1.264   1.743  0.00  0.00     0.130 A 
ATOM      2  C2  DEN d   1      -2.144  -1.707   2.998  0.00  0.00    -0.031 A 
ATOM      3  C3  DEN d   1      -0.975  -2.549   2.672  0.00  0.00     0.027 A 
ATOM      4  C4  DEN d   1      -0.039  -3.200   0.359  0.00  0.00     0.027 A 
ATOM      5  C5  DEN d   1      -0.218  -3.074  -1.001  0.00  0.00    -0.003 A 
ATOM      6  C6  DEN d   1      -1.263  -2.369  -1.537  0.00  0.00     0.001 A 
ATOM      7  C7  DEN d   1      -2.144  -1.725  -0.708  0.00  0.00     0.017 A 
ATOM      8  C8  DEN d   1      -1.974  -1.855   0.664  0.00  0.00    -0.094 A 
ATOM      9  C9  DEN d   1      -0.904  -2.561   1.186  0.00  0.00    -0.072 A 
ENDROOT
TORSDOF 0
ENDMDL
