MODEL 1
REMARK minimizedAffinity 13.7200756
REMARK minimizedRMSD -1
REMARK  0 active torsions:
REMARK  status: ('A' for Active; 'I' for Inactive)
ROOT
ATOM      1  C1  DEN d   1      -0.849  -3.734  -2.515  0.00  0.00     0.130 A 
ATOM      2  C2  DEN d   1      -1.193  -2.552  -1.729  0.00  0.00    -0.031 A 
ATOM      3  C3  DEN d   1      -2.096  -1.711  -2.541  0.00  0.00     0.027 A 
ATOM      4  C4  DEN d   1      -2.993  -2.124  -4.923  0.00  0.00     0.027 A 
ATOM      5  C5  DEN d   1      -2.970  -2.985  -5.998  0.00  0.00    -0.003 A 
ATOM      6  C6  DEN d   1      -2.218  -4.130  -6.000  0.00  0.00     0.001 A 
ATOM      7  C7  DEN d   1      -1.492  -4.468  -4.888  0.00  0.00     0.017 A 
ATOM      8  C8  DEN d   1      -1.505  -3.601  -3.803  0.00  0.00    -0.094 A 
ATOM      9  C9  DEN d   1      -2.281  -2.454  -3.816  0.00  0.00    -0.072 A 
ENDROOT
TORSDOF 0
ENDMDL
