MODEL 1
REMARK minimizedAffinity 8.49687195
REMARK minimizedRMSD -1
REMARK  0 active torsions:
REMARK  status: ('A' for Active; 'I' for Inactive)
ROOT
ATOM      1  C1  DEN d   1      -3.117  -2.507  -2.399  0.00  0.00     0.130 A 
ATOM      2  C2  DEN d   1      -1.894  -2.207  -1.659  0.00  0.00    -0.031 A 
ATOM      3  C3  DEN d   1      -0.744  -2.510  -2.535  0.00  0.00     0.027 A 
ATOM      4  C4  DEN d   1      -0.740  -3.404  -4.955  0.00  0.00     0.027 A 
ATOM      5  C5  DEN d   1      -1.536  -3.820  -5.999  0.00  0.00    -0.003 A 
ATOM      6  C6  DEN d   1      -2.902  -3.859  -5.906  0.00  0.00     0.001 A 
ATOM      7  C7  DEN d   1      -3.516  -3.432  -4.758  0.00  0.00     0.017 A 
ATOM      8  C8  DEN d   1      -2.720  -3.019  -3.698  0.00  0.00    -0.094 A 
ATOM      9  C9  DEN d   1      -1.341  -2.975  -3.816  0.00  0.00    -0.072 A 
ENDROOT
TORSDOF 0
ENDMDL
