MODEL 1
REMARK minimizedAffinity 3.74759173
REMARK minimizedRMSD -1
REMARK  0 active torsions:
REMARK  status: ('A' for Active; 'I' for Inactive)
ROOT
ATOM      1  C1  DEN d   1       2.826  -2.292  -5.877  0.00  0.00     0.130 A 
ATOM      2  C2  DEN d   1       3.264  -3.550  -5.278  0.00  0.00    -0.031 A 
ATOM      3  C3  DEN d   1       4.574  -3.318  -4.637  0.00  0.00     0.027 A 
ATOM      4  C4  DEN d   1       5.956  -1.144  -4.510  0.00  0.00     0.027 A 
ATOM      5  C5  DEN d   1       5.999   0.182  -4.881  0.00  0.00    -0.003 A 
ATOM      6  C6  DEN d   1       5.013   0.763  -5.632  0.00  0.00     0.001 A 
ATOM      7  C7  DEN d   1       3.917   0.027  -5.999  0.00  0.00     0.017 A 
ATOM      8  C8  DEN d   1       3.870  -1.313  -5.635  0.00  0.00    -0.094 A 
ATOM      9  C9  DEN d   1       4.872  -1.878  -4.865  0.00  0.00    -0.072 A 
ENDROOT
TORSDOF 0
ENDMDL
