MODEL 1
REMARK minimizedAffinity 10.2524662
REMARK minimizedRMSD -1
REMARK  0 active torsions:
REMARK  status: ('A' for Active; 'I' for Inactive)
ROOT
ATOM      1  C1  DEN d   1      -2.106  -1.901  -2.360  0.00  0.00     0.130 A 
ATOM      2  C2  DEN d   1      -1.650  -2.971  -1.478  0.00  0.00    -0.031 A 
ATOM      3  C3  DEN d   1      -1.516  -4.201  -2.284  0.00  0.00     0.027 A 
ATOM      4  C4  DEN d   1      -1.963  -4.549  -4.800  0.00  0.00     0.027 A 
ATOM      5  C5  DEN d   1      -2.376  -3.935  -5.962  0.00  0.00    -0.003 A 
ATOM      6  C6  DEN d   1      -2.758  -2.620  -5.998  0.00  0.00     0.001 A 
ATOM      7  C7  DEN d   1      -2.690  -1.863  -4.858  0.00  0.00     0.017 A 
ATOM      8  C8  DEN d   1      -2.282  -2.477  -3.681  0.00  0.00    -0.094 A 
ATOM      9  C9  DEN d   1      -1.889  -3.804  -3.668  0.00  0.00    -0.072 A 
ENDROOT
TORSDOF 0
ENDMDL
