MODEL 1
REMARK minimizedAffinity 6.81778431
REMARK minimizedRMSD -1
REMARK  0 active torsions:
REMARK  status: ('A' for Active; 'I' for Inactive)
ROOT
ATOM      1  C1  DEN d   1      -1.455  -1.342  -2.593  0.00  0.00     0.130 A 
ATOM      2  C2  DEN d   1      -1.045  -2.235  -1.513  0.00  0.00    -0.031 A 
ATOM      3  C3  DEN d   1      -0.999  -3.610  -2.050  0.00  0.00     0.027 A 
ATOM      4  C4  DEN d   1      -1.516  -4.437  -4.438  0.00  0.00     0.027 A 
ATOM      5  C5  DEN d   1      -1.916  -4.050  -5.698  0.00  0.00    -0.003 A 
ATOM      6  C6  DEN d   1      -2.221  -2.749  -6.000  0.00  0.00     0.001 A 
ATOM      7  C7  DEN d   1      -2.087  -1.780  -5.040  0.00  0.00     0.017 A 
ATOM      8  C8  DEN d   1      -1.691  -2.164  -3.766  0.00  0.00    -0.094 A 
ATOM      9  C9  DEN d   1      -1.376  -3.482  -3.484  0.00  0.00    -0.072 A 
ENDROOT
TORSDOF 0
ENDMDL
