MODEL 1
REMARK minimizedAffinity -4.24629498
REMARK minimizedRMSD -1
REMARK  0 active torsions:
REMARK  status: ('A' for Active; 'I' for Inactive)
ROOT
ATOM      1  C4' PXY d   1      -5.998  -1.447  -2.273  0.00  0.00     0.077 C 
ATOM      2  C1' PXY d   1      -3.002   1.352   1.802  0.00  0.00     0.077 C 
ATOM      3  C1  PXY d   1      -3.789   0.608   0.742  0.00  0.00    -0.082 A 
ATOM      4  C2  PXY d   1      -3.599   0.895  -0.536  0.00  0.00     0.003 A 
ATOM      5  C3  PXY d   1      -4.326   0.254  -1.506  0.00  0.00     0.003 A 
ATOM      6  C4  PXY d   1      -5.218  -0.728  -1.168  0.00  0.00    -0.082 A 
ATOM      7  C5  PXY d   1      -5.410  -1.034   0.132  0.00  0.00     0.003 A 
ATOM      8  C6  PXY d   1      -4.692  -0.344   1.104  0.00  0.00     0.003 A 
ENDROOT
TORSDOF 0
ENDMDL
