MODEL 1
REMARK minimizedAffinity -3.26284623
REMARK minimizedRMSD -1
REMARK  0 active torsions:
REMARK  status: ('A' for Active; 'I' for Inactive)
ROOT
ATOM      1  C4' PXY d   1      -3.045   2.327   2.117  0.00  0.00     0.077 C 
ATOM      2  C1' PXY d   1      -5.832  -1.788  -0.835  0.00  0.00     0.077 C 
ATOM      3  C1  PXY d   1      -5.090  -0.712  -0.067  0.00  0.00    -0.082 A 
ATOM      4  C2  PXY d   1      -5.543  -0.321   1.113  0.00  0.00     0.003 A 
ATOM      5  C3  PXY d   1      -4.902   0.674   1.806  0.00  0.00     0.003 A 
ATOM      6  C4  PXY d   1      -3.757   1.237   1.311  0.00  0.00    -0.082 A 
ATOM      7  C5  PXY d   1      -3.283   0.836   0.112  0.00  0.00     0.003 A 
ATOM      8  C6  PXY d   1      -3.971  -0.146  -0.595  0.00  0.00     0.003 A 
ENDROOT
TORSDOF 0
ENDMDL
