MODEL 1
REMARK minimizedAffinity -2.25462365
REMARK minimizedRMSD -1
REMARK  0 active torsions:
REMARK  status: ('A' for Active; 'I' for Inactive)
ROOT
ATOM      1  C4' PXY d   1       3.017   2.345  -0.082  0.00  0.00     0.077 C 
ATOM      2  C1' PXY d   1       0.793  -2.982  -0.383  0.00  0.00     0.077 C 
ATOM      3  C1  PXY d   1       1.365  -1.580  -0.309  0.00  0.00    -0.082 A 
ATOM      4  C2  PXY d   1       2.677  -1.407  -0.327  0.00  0.00     0.003 A 
ATOM      5  C3  PXY d   1       3.212  -0.149  -0.228  0.00  0.00     0.003 A 
ATOM      6  C4  PXY d   1       2.395   0.948  -0.164  0.00  0.00    -0.082 A 
ATOM      7  C5  PXY d   1       1.055   0.781  -0.156  0.00  0.00     0.003 A 
ATOM      8  C6  PXY d   1       0.533  -0.508  -0.216  0.00  0.00     0.003 A 
ENDROOT
TORSDOF 0
ENDMDL
