MODEL 1
REMARK minimizedAffinity -4.59439373
REMARK minimizedRMSD -1
REMARK  0 active torsions:
REMARK  status: ('A' for Active; 'I' for Inactive)
ROOT
ATOM      1  C4' PXY d   1      -1.908   0.940  -0.696  0.00  0.00     0.077 C 
ATOM      2  C1' PXY d   1       3.157  -1.251   1.025  0.00  0.00     0.077 C 
ATOM      3  C1  PXY d   1       1.830  -0.667   0.582  0.00  0.00    -0.082 A 
ATOM      4  C2  PXY d   1       0.925  -1.451   0.019  0.00  0.00     0.003 A 
ATOM      5  C3  PXY d   1      -0.267  -0.933  -0.416  0.00  0.00     0.003 A 
ATOM      6  C4  PXY d   1      -0.558   0.392  -0.225  0.00  0.00    -0.082 A 
ATOM      7  C5  PXY d   1       0.355   1.196   0.358  0.00  0.00     0.003 A 
ATOM      8  C6  PXY d   1       1.576   0.659   0.756  0.00  0.00     0.003 A 
ENDROOT
TORSDOF 0
ENDMDL
