MODEL 1
REMARK minimizedAffinity -4.16389608
REMARK minimizedRMSD -1
REMARK  0 active torsions:
REMARK  status: ('A' for Active; 'I' for Inactive)
ROOT
ATOM      1  C4' PXY d   1      -1.591   0.531  -0.062  0.00  0.00     0.077 C 
ATOM      2  C1' PXY d   1       3.891  -1.177   0.605  0.00  0.00     0.077 C 
ATOM      3  C1  PXY d   1       2.456  -0.719   0.438  0.00  0.00    -0.082 A 
ATOM      4  C2  PXY d   1       1.530  -1.590   0.071  0.00  0.00     0.003 A 
ATOM      5  C3  PXY d   1       0.233  -1.186  -0.116  0.00  0.00     0.003 A 
ATOM      6  C4  PXY d   1      -0.130   0.112   0.127  0.00  0.00    -0.082 A 
ATOM      7  C5  PXY d   1       0.806   1.004   0.512  0.00  0.00     0.003 A 
ATOM      8  C6  PXY d   1       2.125   0.583   0.656  0.00  0.00     0.003 A 
ENDROOT
TORSDOF 0
ENDMDL
