MODEL 1
REMARK minimizedAffinity -3.08031631
REMARK minimizedRMSD -1
REMARK  0 active torsions:
REMARK  status: ('A' for Active; 'I' for Inactive)
ROOT
ATOM      1  C4' PXY d   1      -2.711   0.836  -0.698  0.00  0.00     0.077 C 
ATOM      2  C1' PXY d   1       2.470  -1.663  -0.122  0.00  0.00     0.077 C 
ATOM      3  C1  PXY d   1       1.111  -1.005  -0.260  0.00  0.00    -0.082 A 
ATOM      4  C2  PXY d   1       0.309  -1.361  -1.251  0.00  0.00     0.003 A 
ATOM      5  C3  PXY d   1      -0.910  -0.754  -1.409  0.00  0.00     0.003 A 
ATOM      6  C4  PXY d   1      -1.335   0.191  -0.514  0.00  0.00    -0.082 A 
ATOM      7  C5  PXY d   1      -0.527   0.553   0.505  0.00  0.00     0.003 A 
ATOM      8  C6  PXY d   1       0.724  -0.046   0.625  0.00  0.00     0.003 A 
ENDROOT
TORSDOF 0
ENDMDL
