MODEL 1
REMARK minimizedAffinity -4.26035309
REMARK minimizedRMSD -1
REMARK  0 active torsions:
REMARK  status: ('A' for Active; 'I' for Inactive)
ROOT
ATOM      1  C4' PXY d   1       0.536  -2.660  -0.307  0.00  0.00     0.077 C 
ATOM      2  C1' PXY d   1       3.680   2.057   0.829  0.00  0.00     0.077 C 
ATOM      3  C1  PXY d   1       2.845   0.827   0.532  0.00  0.00    -0.082 A 
ATOM      4  C2  PXY d   1       3.319  -0.373   0.826  0.00  0.00     0.003 A 
ATOM      5  C3  PXY d   1       2.590  -1.497   0.535  0.00  0.00     0.003 A 
ATOM      6  C4  PXY d   1       1.341  -1.390  -0.015  0.00  0.00    -0.082 A 
ATOM      7  C5  PXY d   1       0.846  -0.169  -0.309  0.00  0.00     0.003 A 
ATOM      8  C6  PXY d   1       1.618   0.958  -0.043  0.00  0.00     0.003 A 
ENDROOT
TORSDOF 0
ENDMDL
