MODEL 1
REMARK minimizedAffinity -3.29965115
REMARK minimizedRMSD -1
REMARK  0 active torsions:
REMARK  status: ('A' for Active; 'I' for Inactive)
ROOT
ATOM      1  C4' PXY d   1      -1.617   0.902  -0.159  0.00  0.00     0.077 C 
ATOM      2  C1' PXY d   1       3.451  -1.625   0.999  0.00  0.00     0.077 C 
ATOM      3  C1  PXY d   1       2.121  -0.969   0.684  0.00  0.00    -0.082 A 
ATOM      4  C2  PXY d   1       1.799   0.171   1.273  0.00  0.00     0.003 A 
ATOM      5  C3  PXY d   1       0.587   0.762   1.024  0.00  0.00     0.003 A 
ATOM      6  C4  PXY d   1      -0.281   0.209   0.121  0.00  0.00    -0.082 A 
ATOM      7  C5  PXY d   1       0.045  -0.948  -0.493  0.00  0.00     0.003 A 
ATOM      8  C6  PXY d   1       1.263  -1.554  -0.195  0.00  0.00     0.003 A 
ENDROOT
TORSDOF 0
ENDMDL
