MODEL 1
REMARK minimizedAffinity -1.92387915
REMARK minimizedRMSD -1
REMARK  0 active torsions:
REMARK  status: ('A' for Active; 'I' for Inactive)
ROOT
ATOM      1  C4' PXY d   1      -2.637   0.942   0.465  0.00  0.00     0.077 C 
ATOM      2  C1' PXY d   1       2.514  -1.341  -0.828  0.00  0.00     0.077 C 
ATOM      3  C1  PXY d   1       1.164  -0.733  -0.498  0.00  0.00    -0.082 A 
ATOM      4  C2  PXY d   1       0.647  -0.904   0.708  0.00  0.00     0.003 A 
ATOM      5  C3  PXY d   1      -0.586  -0.388   1.013  0.00  0.00     0.003 A 
ATOM      6  C4  PXY d   1      -1.273   0.355   0.091  0.00  0.00    -0.082 A 
ATOM      7  C5  PXY d   1      -0.748   0.542  -1.138  0.00  0.00     0.003 A 
ATOM      8  C6  PXY d   1       0.487  -0.024  -1.441  0.00  0.00     0.003 A 
ENDROOT
TORSDOF 0
ENDMDL
