MODEL 1
REMARK minimizedAffinity -3.23881245
REMARK minimizedRMSD -1
REMARK  0 active torsions:
REMARK  status: ('A' for Active; 'I' for Inactive)
ROOT
ATOM      1  C4' PXY d   1      -2.420   0.670   0.275  0.00  0.00     0.077 C 
ATOM      2  C1' PXY d   1       3.010  -1.243  -0.246  0.00  0.00     0.077 C 
ATOM      3  C1  PXY d   1       1.591  -0.732  -0.102  0.00  0.00    -0.082 A 
ATOM      4  C2  PXY d   1       0.575  -1.558  -0.291  0.00  0.00     0.003 A 
ATOM      5  C3  PXY d   1      -0.715  -1.105  -0.196  0.00  0.00     0.003 A 
ATOM      6  C4  PXY d   1      -0.969   0.195   0.149  0.00  0.00    -0.082 A 
ATOM      7  C5  PXY d   1       0.061   1.043   0.354  0.00  0.00     0.003 A 
ATOM      8  C6  PXY d   1       1.364   0.573   0.213  0.00  0.00     0.003 A 
ENDROOT
TORSDOF 0
ENDMDL
