MODEL 1
REMARK minimizedAffinity -2.84950924
REMARK minimizedRMSD -1
REMARK  0 active torsions:
REMARK  status: ('A' for Active; 'I' for Inactive)
ROOT
ATOM      1  C4' PXY d   1      -5.575  -1.525  -2.711  0.00  0.00     0.077 C 
ATOM      2  C1' PXY d   1      -2.693   1.263   1.452  0.00  0.00     0.077 C 
ATOM      3  C1  PXY d   1      -3.453   0.523   0.369  0.00  0.00    -0.082 A 
ATOM      4  C2  PXY d   1      -3.082   0.652  -0.895  0.00  0.00     0.003 A 
ATOM      5  C3  PXY d   1      -3.778   0.015  -1.890  0.00  0.00     0.003 A 
ATOM      6  C4  PXY d   1      -4.831  -0.804  -1.584  0.00  0.00    -0.082 A 
ATOM      7  C5  PXY d   1      -5.209  -0.950  -0.296  0.00  0.00     0.003 A 
ATOM      8  C6  PXY d   1      -4.515  -0.263   0.696  0.00  0.00     0.003 A 
ENDROOT
TORSDOF 0
ENDMDL
