MODEL 1
REMARK minimizedAffinity -5.53588343
REMARK minimizedRMSD -1
REMARK  0 active torsions:
REMARK  status: ('A' for Active; 'I' for Inactive)
ROOT
ATOM      1  C4' PXY d   1       2.854  -1.340   0.249  0.00  0.00     0.077 C 
ATOM      2  C1' PXY d   1      -1.912   1.880   0.825  0.00  0.00     0.077 C 
ATOM      3  C1  PXY d   1      -0.668   1.028   0.664  0.00  0.00    -0.082 A 
ATOM      4  C2  PXY d   1       0.190   0.929   1.666  0.00  0.00     0.003 A 
ATOM      5  C3  PXY d   1       1.336   0.189   1.528  0.00  0.00     0.003 A 
ATOM      6  C4  PXY d   1       1.580  -0.499   0.370  0.00  0.00    -0.082 A 
ATOM      7  C5  PXY d   1       0.703  -0.412  -0.653  0.00  0.00     0.003 A 
ATOM      8  C6  PXY d   1      -0.433   0.378  -0.507  0.00  0.00     0.003 A 
ENDROOT
TORSDOF 0
ENDMDL
