MODEL 1
REMARK minimizedAffinity 4.28073406
REMARK minimizedRMSD -1
REMARK  0 active torsions:
REMARK  status: ('A' for Active; 'I' for Inactive)
ROOT
ATOM      1  C   UNL d   1       0.977  -1.230  -1.153  0.00  0.00     0.124 A 
ATOM      2  C1  UNL d   1      -0.096  -1.789  -0.473  0.00  0.00     0.062 A 
ATOM      3  C2  UNL d   1      -0.961  -0.979   0.257  0.00  0.00     0.162 A 
ATOM      4  C3  UNL d   1      -0.758   0.400   0.310  0.00  0.00    -0.034 A 
ATOM      5  C4  UNL d   1       0.324   0.955  -0.376  0.00  0.00     0.162 A 
ATOM      6  C5  UNL d   1       1.186   0.141  -1.104  0.00  0.00     0.062 A 
ATOM      7  F   UNL d   1       2.222   0.683  -1.760  0.00  0.00    -0.097 F 
ATOM      8  F1  UNL d   1       0.549   2.277  -0.346  0.00  0.00    -0.096 F 
ATOM      9  I   UNL d   1      -2.049   1.614   1.400  0.00  0.00    -0.060 I 
ATOM     10  F2  UNL d   1      -1.990  -1.547   0.905  0.00  0.00    -0.096 F 
ATOM     11  F3  UNL d   1      -0.300  -3.114  -0.518  0.00  0.00    -0.097 F 
ATOM     12  F4  UNL d   1       1.808  -2.012  -1.854  0.00  0.00    -0.092 F 
ENDROOT
TORSDOF 0
ENDMDL
