MODEL 1
REMARK minimizedAffinity 2.28047156
REMARK minimizedRMSD -1
REMARK  0 active torsions:
REMARK  status: ('A' for Active; 'I' for Inactive)
ROOT
ATOM      1  C   UNL d   1       0.650  -0.948   0.998  0.00  0.00     0.124 A 
ATOM      2  C1  UNL d   1       0.023  -0.494  -0.153  0.00  0.00     0.062 A 
ATOM      3  C2  UNL d   1      -0.754   0.660  -0.118  0.00  0.00     0.162 A 
ATOM      4  C3  UNL d   1      -0.909   1.369   1.073  0.00  0.00    -0.034 A 
ATOM      5  C4  UNL d   1      -0.276   0.905   2.228  0.00  0.00     0.162 A 
ATOM      6  C5  UNL d   1       0.500  -0.249   2.188  0.00  0.00     0.062 A 
ATOM      7  F   UNL d   1       1.105  -0.687   3.301  0.00  0.00    -0.097 F 
ATOM      8  F1  UNL d   1      -0.403   1.562   3.390  0.00  0.00    -0.096 F 
ATOM      9  I   UNL d   1      -2.070   3.094   1.130  0.00  0.00    -0.060 I 
ATOM     10  F2  UNL d   1      -1.349   1.076  -1.246  0.00  0.00    -0.096 F 
ATOM     11  F3  UNL d   1       0.166  -1.168  -1.304  0.00  0.00    -0.097 F 
ATOM     12  F4  UNL d   1       1.397  -2.059   0.962  0.00  0.00    -0.092 F 
ENDROOT
TORSDOF 0
ENDMDL
