MODEL 1
REMARK minimizedAffinity -0.825127065
REMARK minimizedRMSD -1
REMARK  0 active torsions:
REMARK  status: ('A' for Active; 'I' for Inactive)
ROOT
ATOM      1  C   UNL d   1      -0.614   0.978   0.474  0.00  0.00     0.124 A 
ATOM      2  C1  UNL d   1       0.413   0.955  -0.460  0.00  0.00     0.062 A 
ATOM      3  C2  UNL d   1       0.808  -0.249  -1.036  0.00  0.00     0.162 A 
ATOM      4  C3  UNL d   1       0.176  -1.440  -0.680  0.00  0.00    -0.034 A 
ATOM      5  C4  UNL d   1      -0.854  -1.409   0.261  0.00  0.00     0.162 A 
ATOM      6  C5  UNL d   1      -1.246  -0.203   0.833  0.00  0.00     0.062 A 
ATOM      7  F   UNL d   1      -2.238  -0.183   1.736  0.00  0.00    -0.097 F 
ATOM      8  F1  UNL d   1      -1.483  -2.536   0.626  0.00  0.00    -0.096 F 
ATOM      9  I   UNL d   1       0.765  -3.243  -1.538  0.00  0.00    -0.060 I 
ATOM     10  F2  UNL d   1       1.803  -0.242  -1.936  0.00  0.00    -0.096 F 
ATOM     11  F3  UNL d   1       1.026   2.095  -0.809  0.00  0.00    -0.097 F 
ATOM     12  F4  UNL d   1      -0.991   2.138   1.027  0.00  0.00    -0.092 F 
ENDROOT
TORSDOF 0
ENDMDL
