MODEL 1
REMARK minimizedAffinity 2.14980698
REMARK minimizedRMSD -1
REMARK  0 active torsions:
REMARK  status: ('A' for Active; 'I' for Inactive)
ROOT
ATOM      1  C   UNL d   1      -0.620   1.353   0.488  0.00  0.00     0.124 A 
ATOM      2  C1  UNL d   1       0.232   1.379  -0.607  0.00  0.00     0.062 A 
ATOM      3  C2  UNL d   1       0.612   0.191  -1.226  0.00  0.00     0.162 A 
ATOM      4  C3  UNL d   1       0.139  -1.032  -0.752  0.00  0.00    -0.034 A 
ATOM      5  C4  UNL d   1      -0.717  -1.050   0.351  0.00  0.00     0.162 A 
ATOM      6  C5  UNL d   1      -1.094   0.139   0.966  0.00  0.00     0.062 A 
ATOM      7  F   UNL d   1      -1.917   0.113   2.024  0.00  0.00    -0.097 F 
ATOM      8  F1  UNL d   1      -1.190  -2.209   0.833  0.00  0.00    -0.096 F 
ATOM      9  I   UNL d   1       0.705  -2.810  -1.674  0.00  0.00    -0.060 I 
ATOM     10  F2  UNL d   1       1.437   0.246  -2.283  0.00  0.00    -0.096 F 
ATOM     11  F3  UNL d   1       0.692   2.550  -1.070  0.00  0.00    -0.097 F 
ATOM     12  F4  UNL d   1      -0.983   2.497   1.083  0.00  0.00    -0.092 F 
ENDROOT
TORSDOF 0
ENDMDL
