MODEL 1
REMARK minimizedAffinity 2.00351954
REMARK minimizedRMSD -1
REMARK  0 active torsions:
REMARK  status: ('A' for Active; 'I' for Inactive)
ROOT
ATOM      1  C   UNL d   1       0.953  -1.369  -1.653  0.00  0.00     0.124 A 
ATOM      2  C1  UNL d   1       1.126   0.005  -1.549  0.00  0.00     0.062 A 
ATOM      3  C2  UNL d   1       0.366   0.739  -0.643  0.00  0.00     0.162 A 
ATOM      4  C3  UNL d   1      -0.573   0.101   0.167  0.00  0.00    -0.034 A 
ATOM      5  C4  UNL d   1      -0.742  -1.280   0.057  0.00  0.00     0.162 A 
ATOM      6  C5  UNL d   1       0.020  -2.010  -0.850  0.00  0.00     0.062 A 
ATOM      7  F   UNL d   1      -0.148  -3.336  -0.949  0.00  0.00    -0.097 F 
ATOM      8  F1  UNL d   1      -1.636  -1.925   0.821  0.00  0.00    -0.096 F 
ATOM      9  I   UNL d   1      -1.711   1.196   1.523  0.00  0.00    -0.060 I 
ATOM     10  F2  UNL d   1       0.554   2.065  -0.564  0.00  0.00    -0.096 F 
ATOM     11  F3  UNL d   1       2.026   0.626  -2.324  0.00  0.00    -0.097 F 
ATOM     12  F4  UNL d   1       1.685  -2.073  -2.526  0.00  0.00    -0.092 F 
ENDROOT
TORSDOF 0
ENDMDL
