MODEL 1
REMARK minimizedAffinity 1.86093748
REMARK minimizedRMSD -1
REMARK  0 active torsions:
REMARK  status: ('A' for Active; 'I' for Inactive)
ROOT
ATOM      1  C   UNL d   1      -0.049  -0.819  -1.207  0.00  0.00     0.124 A 
ATOM      2  C1  UNL d   1      -0.905   0.272  -1.173  0.00  0.00     0.062 A 
ATOM      3  C2  UNL d   1      -1.035   1.023  -0.008  0.00  0.00     0.162 A 
ATOM      4  C3  UNL d   1      -0.306   0.685   1.132  0.00  0.00    -0.034 A 
ATOM      5  C4  UNL d   1       0.553  -0.414   1.090  0.00  0.00     0.162 A 
ATOM      6  C5  UNL d   1       0.679  -1.162  -0.077  0.00  0.00     0.062 A 
ATOM      7  F   UNL d   1       1.507  -2.216  -0.108  0.00  0.00    -0.097 F 
ATOM      8  F1  UNL d   1       1.269  -0.767   2.168  0.00  0.00    -0.096 F 
ATOM      9  I   UNL d   1      -0.498   1.806   2.876  0.00  0.00    -0.060 I 
ATOM     10  F2  UNL d   1      -1.870   2.073  -0.003  0.00  0.00    -0.096 F 
ATOM     11  F3  UNL d   1      -1.610   0.605  -2.264  0.00  0.00    -0.097 F 
ATOM     12  F4  UNL d   1       0.074  -1.541  -2.329  0.00  0.00    -0.092 F 
ENDROOT
TORSDOF 0
ENDMDL
