MODEL 1
REMARK minimizedAffinity 3.81850624
REMARK minimizedRMSD -1
REMARK  0 active torsions:
REMARK  status: ('A' for Active; 'I' for Inactive)
ROOT
ATOM      1  C   UNL d   1       0.809  -3.945  -1.731  0.00  0.00     0.124 A 
ATOM      2  C1  UNL d   1      -0.247  -3.318  -2.379  0.00  0.00     0.062 A 
ATOM      3  C2  UNL d   1      -0.480  -1.960  -2.186  0.00  0.00     0.162 A 
ATOM      4  C3  UNL d   1       0.345  -1.218  -1.341  0.00  0.00    -0.034 A 
ATOM      5  C4  UNL d   1       1.404  -1.855  -0.691  0.00  0.00     0.162 A 
ATOM      6  C5  UNL d   1       1.633  -3.213  -0.888  0.00  0.00     0.062 A 
ATOM      7  F   UNL d   1       2.653  -3.816  -0.261  0.00  0.00    -0.097 F 
ATOM      8  F1  UNL d   1       2.217  -1.171   0.128  0.00  0.00    -0.096 F 
ATOM      9  I   UNL d   1      -0.000   0.814  -1.049  0.00  0.00    -0.060 I 
ATOM     10  F2  UNL d   1      -1.507  -1.381  -2.825  0.00  0.00    -0.096 F 
ATOM     11  F3  UNL d   1      -1.045  -4.024  -3.193  0.00  0.00    -0.097 F 
ATOM     12  F4  UNL d   1       1.030  -5.252  -1.918  0.00  0.00    -0.092 F 
ENDROOT
TORSDOF 0
ENDMDL
