MODEL 1
REMARK minimizedAffinity 1.73026824
REMARK minimizedRMSD -1
REMARK  0 active torsions:
REMARK  status: ('A' for Active; 'I' for Inactive)
ROOT
ATOM      1  C   UNL d   1       0.928  -0.773  -1.347  0.00  0.00     0.124 A 
ATOM      2  C1  UNL d   1       1.143   0.584  -1.154  0.00  0.00     0.062 A 
ATOM      3  C2  UNL d   1       0.395   1.285  -0.212  0.00  0.00     0.162 A 
ATOM      4  C3  UNL d   1      -0.575   0.628   0.545  0.00  0.00    -0.034 A 
ATOM      5  C4  UNL d   1      -0.787  -0.737   0.345  0.00  0.00     0.162 A 
ATOM      6  C5  UNL d   1      -0.036  -1.432  -0.598  0.00  0.00     0.062 A 
ATOM      7  F   UNL d   1      -0.246  -2.744  -0.783  0.00  0.00    -0.097 F 
ATOM      8  F1  UNL d   1      -1.711  -1.399   1.056  0.00  0.00    -0.096 F 
ATOM      9  I   UNL d   1      -1.696   1.672   1.955  0.00  0.00    -0.060 I 
ATOM     10  F2  UNL d   1       0.624   2.596  -0.046  0.00  0.00    -0.096 F 
ATOM     11  F3  UNL d   1       2.073   1.224  -1.878  0.00  0.00    -0.097 F 
ATOM     12  F4  UNL d   1       1.648  -1.444  -2.255  0.00  0.00    -0.092 F 
ENDROOT
TORSDOF 0
ENDMDL
