MODEL 1
REMARK minimizedAffinity -1.45176935
REMARK minimizedRMSD -1
REMARK  0 active torsions:
REMARK  status: ('A' for Active; 'I' for Inactive)
ROOT
ATOM      1  C   UNL d   1      -0.657   1.715   1.030  0.00  0.00     0.124 A 
ATOM      2  C1  UNL d   1      -0.035   1.716  -0.211  0.00  0.00     0.062 A 
ATOM      3  C2  UNL d   1       0.445   0.528  -0.754  0.00  0.00     0.162 A 
ATOM      4  C3  UNL d   1       0.305  -0.672  -0.056  0.00  0.00    -0.034 A 
ATOM      5  C4  UNL d   1      -0.320  -0.665   1.192  0.00  0.00     0.162 A 
ATOM      6  C5  UNL d   1      -0.798   0.526   1.730  0.00  0.00     0.062 A 
ATOM      7  F   UNL d   1      -1.398   0.523   2.930  0.00  0.00    -0.097 F 
ATOM      8  F1  UNL d   1      -0.471  -1.800   1.890  0.00  0.00    -0.096 F 
ATOM      9  I   UNL d   1       1.022  -2.451  -0.864  0.00  0.00    -0.060 I 
ATOM     10  F2  UNL d   1       1.042   0.558  -1.955  0.00  0.00    -0.096 F 
ATOM     11  F3  UNL d   1       0.104   2.864  -0.889  0.00  0.00    -0.097 F 
ATOM     12  F4  UNL d   1      -1.117   2.860   1.551  0.00  0.00    -0.092 F 
ENDROOT
TORSDOF 0
ENDMDL
