MODEL 1
REMARK minimizedAffinity -3.73397231
REMARK minimizedRMSD -1
REMARK  0 active torsions:
REMARK  status: ('A' for Active; 'I' for Inactive)
ROOT
ATOM      1  C   UNL d   1      -1.306   1.619   0.142  0.00  0.00     0.124 A 
ATOM      2  C1  UNL d   1      -1.906   0.435   0.547  0.00  0.00     0.062 A 
ATOM      3  C2  UNL d   1      -1.317  -0.788   0.239  0.00  0.00     0.162 A 
ATOM      4  C3  UNL d   1      -0.121  -0.834  -0.477  0.00  0.00    -0.034 A 
ATOM      5  C4  UNL d   1       0.476   0.362  -0.881  0.00  0.00     0.162 A 
ATOM      6  C5  UNL d   1      -0.116   1.582  -0.571  0.00  0.00     0.062 A 
ATOM      7  F   UNL d   1       0.465   2.725  -0.962  0.00  0.00    -0.097 F 
ATOM      8  F1  UNL d   1       1.627   0.355  -1.570  0.00  0.00    -0.096 F 
ATOM      9  I   UNL d   1       0.762  -2.661  -0.939  0.00  0.00    -0.060 I 
ATOM     10  F2  UNL d   1      -1.919  -1.917   0.642  0.00  0.00    -0.096 F 
ATOM     11  F3  UNL d   1      -3.056   0.468   1.235  0.00  0.00    -0.097 F 
ATOM     12  F4  UNL d   1      -1.874   2.795   0.439  0.00  0.00    -0.092 F 
ENDROOT
TORSDOF 0
ENDMDL
