MODEL 1
REMARK minimizedAffinity -2.5819943
REMARK minimizedRMSD -1
REMARK  0 active torsions:
REMARK  status: ('A' for Active; 'I' for Inactive)
ROOT
ATOM      1  C   UNL d   1      -1.632   2.633   1.036  0.00  0.00     0.124 A 
ATOM      2  C1  UNL d   1      -0.766   2.845  -0.029  0.00  0.00     0.062 A 
ATOM      3  C2  UNL d   1      -0.014   1.792  -0.540  0.00  0.00     0.162 A 
ATOM      4  C3  UNL d   1      -0.124   0.516   0.012  0.00  0.00    -0.034 A 
ATOM      5  C4  UNL d   1      -0.996   0.310   1.083  0.00  0.00     0.162 A 
ATOM      6  C5  UNL d   1      -1.746   1.366   1.590  0.00  0.00     0.062 A 
ATOM      7  F   UNL d   1      -2.581   1.159   2.618  0.00  0.00    -0.097 F 
ATOM      8  F1  UNL d   1      -1.126  -0.904   1.637  0.00  0.00    -0.096 F 
ATOM      9  I   UNL d   1       1.000  -1.062  -0.749  0.00  0.00    -0.060 I 
ATOM     10  F2  UNL d   1       0.815   2.026  -1.568  0.00  0.00    -0.096 F 
ATOM     11  F3  UNL d   1      -0.654   4.069  -0.566  0.00  0.00    -0.097 F 
ATOM     12  F4  UNL d   1      -2.354   3.649   1.526  0.00  0.00    -0.092 F 
ENDROOT
TORSDOF 0
ENDMDL
