MODEL 1
REMARK minimizedAffinity -2.75577283
REMARK minimizedRMSD -1
REMARK  0 active torsions:
REMARK  status: ('A' for Active; 'I' for Inactive)
ROOT
ATOM      1  C   UNL d   1      -0.958   2.834   0.618  0.00  0.00     0.124 A 
ATOM      2  C1  UNL d   1      -1.538   1.684   1.135  0.00  0.00     0.062 A 
ATOM      3  C2  UNL d   1      -1.134   0.431   0.681  0.00  0.00     0.162 A 
ATOM      4  C3  UNL d   1      -0.142   0.322  -0.294  0.00  0.00    -0.034 A 
ATOM      5  C4  UNL d   1       0.436   1.484  -0.809  0.00  0.00     0.162 A 
ATOM      6  C5  UNL d   1       0.028   2.733  -0.353  0.00  0.00     0.062 A 
ATOM      7  F   UNL d   1       0.590   3.843  -0.853  0.00  0.00    -0.097 F 
ATOM      8  F1  UNL d   1       1.392   1.415  -1.747  0.00  0.00    -0.096 F 
ATOM      9  I   UNL d   1       0.465  -1.548  -0.974  0.00  0.00    -0.060 I 
ATOM     10  F2  UNL d   1      -1.712  -0.663   1.198  0.00  0.00    -0.096 F 
ATOM     11  F3  UNL d   1      -2.492   1.779   2.072  0.00  0.00    -0.097 F 
ATOM     12  F4  UNL d   1      -1.350   4.038   1.055  0.00  0.00    -0.092 F 
ENDROOT
TORSDOF 0
ENDMDL
