MODEL 1
REMARK minimizedAffinity 2.68543744
REMARK minimizedRMSD -1
REMARK  0 active torsions:
REMARK  status: ('A' for Active; 'I' for Inactive)
ROOT
ATOM      1  C   UNL d   1       1.111  -0.672  -1.236  0.00  0.00     0.124 A 
ATOM      2  C1  UNL d   1       1.189   0.713  -1.273  0.00  0.00     0.062 A 
ATOM      3  C2  UNL d   1       0.270   1.485  -0.568  0.00  0.00     0.162 A 
ATOM      4  C3  UNL d   1      -0.735   0.873   0.181  0.00  0.00    -0.034 A 
ATOM      5  C4  UNL d   1      -0.809  -0.521   0.211  0.00  0.00     0.162 A 
ATOM      6  C5  UNL d   1       0.112  -1.288  -0.495  0.00  0.00     0.062 A 
ATOM      7  F   UNL d   1       0.035  -2.626  -0.459  0.00  0.00    -0.097 F 
ATOM      8  F1  UNL d   1      -1.763  -1.141   0.921  0.00  0.00    -0.096 F 
ATOM      9  I   UNL d   1      -2.112   2.024   1.236  0.00  0.00    -0.060 I 
ATOM     10  F2  UNL d   1       0.370   2.821  -0.621  0.00  0.00    -0.096 F 
ATOM     11  F3  UNL d   1       2.153   1.310  -1.989  0.00  0.00    -0.097 F 
ATOM     12  F4  UNL d   1       1.996  -1.413  -1.916  0.00  0.00    -0.092 F 
ENDROOT
TORSDOF 0
ENDMDL
