MODEL 1
REMARK minimizedAffinity -1.0031848
REMARK minimizedRMSD -1
REMARK  0 active torsions:
REMARK  status: ('A' for Active; 'I' for Inactive)
ROOT
ATOM      1  C   UNL d   1      -0.983   3.438  -0.302  0.00  0.00     0.124 A 
ATOM      2  C1  UNL d   1      -1.739   2.980   0.768  0.00  0.00     0.062 A 
ATOM      3  C2  UNL d   1      -1.457   1.746   1.347  0.00  0.00     0.162 A 
ATOM      4  C3  UNL d   1      -0.414   0.961   0.858  0.00  0.00    -0.034 A 
ATOM      5  C4  UNL d   1       0.342   1.427  -0.220  0.00  0.00     0.162 A 
ATOM      6  C5  UNL d   1       0.056   2.661  -0.795  0.00  0.00     0.062 A 
ATOM      7  F   UNL d   1       0.788   3.101  -1.829  0.00  0.00    -0.097 F 
ATOM      8  F1  UNL d   1       1.352   0.697  -0.715  0.00  0.00    -0.096 F 
ATOM      9  I   UNL d   1       0.010  -0.885   1.721  0.00  0.00    -0.060 I 
ATOM     10  F2  UNL d   1      -2.204   1.330   2.381  0.00  0.00    -0.096 F 
ATOM     11  F3  UNL d   1      -2.744   3.729   1.245  0.00  0.00    -0.097 F 
ATOM     12  F4  UNL d   1      -1.256   4.625  -0.858  0.00  0.00    -0.092 F 
ENDROOT
TORSDOF 0
ENDMDL
