MODEL 1
REMARK minimizedAffinity -3.73145866
REMARK minimizedRMSD -1
REMARK  0 active torsions:
REMARK  status: ('A' for Active; 'I' for Inactive)
ROOT
ATOM      1  C   UNL d   1      -1.315   2.072   0.446  0.00  0.00     0.124 A 
ATOM      2  C1  UNL d   1      -0.106   2.111  -0.235  0.00  0.00     0.062 A 
ATOM      3  C2  UNL d   1       0.484   0.933  -0.684  0.00  0.00     0.162 A 
ATOM      4  C3  UNL d   1      -0.136  -0.295  -0.455  0.00  0.00    -0.034 A 
ATOM      5  C4  UNL d   1      -1.351  -0.327   0.231  0.00  0.00     0.162 A 
ATOM      6  C5  UNL d   1      -1.936   0.853   0.678  0.00  0.00     0.062 A 
ATOM      7  F   UNL d   1      -3.104   0.813   1.335  0.00  0.00    -0.097 F 
ATOM      8  F1  UNL d   1      -1.974  -1.491   0.468  0.00  0.00    -0.096 F 
ATOM      9  I   UNL d   1       0.742  -2.059  -1.125  0.00  0.00    -0.060 I 
ATOM     10  F2  UNL d   1       1.652   1.001  -1.339  0.00  0.00    -0.096 F 
ATOM     11  F3  UNL d   1       0.497   3.288  -0.460  0.00  0.00    -0.097 F 
ATOM     12  F4  UNL d   1      -1.879   3.207   0.877  0.00  0.00    -0.092 F 
ENDROOT
TORSDOF 0
ENDMDL
