MODEL 1
REMARK minimizedAffinity -0.617486835
REMARK minimizedRMSD -1
REMARK  0 active torsions:
REMARK  status: ('A' for Active; 'I' for Inactive)
ROOT
ATOM      1  C   UNL d   1       0.960  -1.671  -1.424  0.00  0.00     0.124 A 
ATOM      2  C1  UNL d   1      -0.152  -2.207  -0.790  0.00  0.00     0.062 A 
ATOM      3  C2  UNL d   1      -0.938  -1.410   0.037  0.00  0.00     0.162 A 
ATOM      4  C3  UNL d   1      -0.616  -0.067   0.234  0.00  0.00    -0.034 A 
ATOM      5  C4  UNL d   1       0.504   0.465  -0.407  0.00  0.00     0.162 A 
ATOM      6  C5  UNL d   1       1.287  -0.336  -1.232  0.00  0.00     0.062 A 
ATOM      7  F   UNL d   1       2.361   0.184  -1.845  0.00  0.00    -0.097 F 
ATOM      8  F1  UNL d   1       0.842   1.752  -0.240  0.00  0.00    -0.096 F 
ATOM      9  I   UNL d   1      -1.789   1.128   1.470  0.00  0.00    -0.060 I 
ATOM     10  F2  UNL d   1      -2.007  -1.955   0.638  0.00  0.00    -0.096 F 
ATOM     11  F3  UNL d   1      -0.469  -3.497  -0.972  0.00  0.00    -0.097 F 
ATOM     12  F4  UNL d   1       1.715  -2.440  -2.219  0.00  0.00    -0.092 F 
ENDROOT
TORSDOF 0
ENDMDL
