MODEL 1
REMARK minimizedAffinity -5.42543411
REMARK minimizedRMSD -1
REMARK  0 active torsions:
REMARK  status: ('A' for Active; 'I' for Inactive)
ROOT
ATOM      1  C   UNL d   1       0.131  -0.943  -3.165  0.00  0.00     0.124 A 
ATOM      2  C1  UNL d   1       0.634   0.192  -2.545  0.00  0.00     0.062 A 
ATOM      3  C2  UNL d   1       0.330   0.455  -1.213  0.00  0.00     0.162 A 
ATOM      4  C3  UNL d   1      -0.480  -0.421  -0.490  0.00  0.00    -0.034 A 
ATOM      5  C4  UNL d   1      -0.983  -1.560  -1.120  0.00  0.00     0.162 A 
ATOM      6  C5  UNL d   1      -0.677  -1.818  -2.453  0.00  0.00     0.062 A 
ATOM      7  F   UNL d   1      -1.164  -2.916  -3.050  0.00  0.00    -0.097 F 
ATOM      8  F1  UNL d   1      -1.765  -2.423  -0.455  0.00  0.00    -0.096 F 
ATOM      9  I   UNL d   1      -0.937  -0.031   1.503  0.00  0.00    -0.060 I 
ATOM     10  F2  UNL d   1       0.830   1.560  -0.639  0.00  0.00    -0.096 F 
ATOM     11  F3  UNL d   1       1.414   1.039  -3.232  0.00  0.00    -0.097 F 
ATOM     12  F4  UNL d   1       0.424  -1.193  -4.448  0.00  0.00    -0.092 F 
ENDROOT
TORSDOF 0
ENDMDL
