MODEL 1
REMARK minimizedAffinity -2.46288776
REMARK minimizedRMSD -1
REMARK  0 active torsions:
REMARK  status: ('A' for Active; 'I' for Inactive)
ROOT
ATOM      1  C   UNL d   1       0.714  -1.244  -1.224  0.00  0.00     0.124 A 
ATOM      2  C1  UNL d   1      -0.423  -1.733  -0.597  0.00  0.00     0.062 A 
ATOM      3  C2  UNL d   1      -1.219  -0.886   0.170  0.00  0.00     0.162 A 
ATOM      4  C3  UNL d   1      -0.879   0.459   0.313  0.00  0.00    -0.034 A 
ATOM      5  C4  UNL d   1       0.267   0.943  -0.320  0.00  0.00     0.162 A 
ATOM      6  C5  UNL d   1       1.059   0.093  -1.085  0.00  0.00     0.062 A 
ATOM      7  F   UNL d   1       2.157   0.567  -1.690  0.00  0.00    -0.097 F 
ATOM      8  F1  UNL d   1       0.622   2.232  -0.203  0.00  0.00    -0.096 F 
ATOM      9  I   UNL d   1      -2.066   1.729   1.458  0.00  0.00    -0.060 I 
ATOM     10  F2  UNL d   1      -2.312  -1.385   0.764  0.00  0.00    -0.096 F 
ATOM     11  F3  UNL d   1      -0.758  -3.025  -0.729  0.00  0.00    -0.097 F 
ATOM     12  F4  UNL d   1       1.478  -2.062  -1.960  0.00  0.00    -0.092 F 
ENDROOT
TORSDOF 0
ENDMDL
