MODEL 1
REMARK minimizedAffinity -0.276524961
REMARK minimizedRMSD -1
REMARK  0 active torsions:
REMARK  status: ('A' for Active; 'I' for Inactive)
ROOT
ATOM      1  C   UNL d   1       0.904   1.022  -1.088  0.00  0.00     0.020 A 
ATOM      2  C1  UNL d   1      -0.333   1.458  -1.562  0.00  0.00     0.020 A 
ATOM      3  C2  UNL d   1      -1.492   1.205  -0.824  0.00  0.00     0.034 A 
ATOM      4  C3  UNL d   1      -1.416   0.513   0.391  0.00  0.00     0.017 A 
ATOM      5  C4  UNL d   1      -0.174   0.076   0.865  0.00  0.00     0.017 A 
ATOM      6  C5  UNL d   1       0.983   0.332   0.122  0.00  0.00     0.034 A 
ATOM      7 Cl   UNL d   1      -0.001  -0.783   2.354  0.00  0.00    -0.070 Cl
ATOM      8 Cl1  UNL d   1      -2.889   0.235   1.250  0.00  0.00    -0.070 Cl
ENDROOT
TORSDOF 0
ENDMDL
