MODEL 1
REMARK minimizedAffinity -1.46933484
REMARK minimizedRMSD -1
REMARK  0 active torsions:
REMARK  status: ('A' for Active; 'I' for Inactive)
ROOT
ATOM      1  C   UNL d   1      -1.881   0.079   0.060  0.00  0.00     0.020 A 
ATOM      2  C1  UNL d   1      -1.177   0.139  -1.142  0.00  0.00     0.020 A 
ATOM      3  C2  UNL d   1       0.168  -0.234  -1.182  0.00  0.00     0.034 A 
ATOM      4  C3  UNL d   1       0.813  -0.669  -0.019  0.00  0.00     0.017 A 
ATOM      5  C4  UNL d   1       0.105  -0.729   1.187  0.00  0.00     0.017 A 
ATOM      6  C5  UNL d   1      -1.241  -0.355   1.222  0.00  0.00     0.034 A 
ATOM      7 Cl   UNL d   1       0.833  -1.255   2.664  0.00  0.00    -0.070 Cl
ATOM      8 Cl1  UNL d   1       2.478  -1.115  -0.142  0.00  0.00    -0.070 Cl
ENDROOT
TORSDOF 0
ENDMDL
