MODEL 1
REMARK minimizedAffinity -4.06654692
REMARK minimizedRMSD -1
REMARK  0 active torsions:
REMARK  status: ('A' for Active; 'I' for Inactive)
ROOT
ATOM      1  C   UNL d   1       2.156  -0.881   1.591  0.00  0.00     0.020 A 
ATOM      2  C1  UNL d   1       1.338  -1.053   2.706  0.00  0.00     0.020 A 
ATOM      3  C2  UNL d   1       0.007  -0.632   2.667  0.00  0.00     0.034 A 
ATOM      4  C3  UNL d   1      -0.509  -0.036   1.511  0.00  0.00     0.017 A 
ATOM      5  C4  UNL d   1       0.313   0.137   0.392  0.00  0.00     0.017 A 
ATOM      6  C5  UNL d   1       1.645  -0.287   0.436  0.00  0.00     0.034 A 
ATOM      7 Cl   UNL d   1      -0.252   0.864  -1.071  0.00  0.00    -0.070 Cl
ATOM      8 Cl1  UNL d   1      -2.164   0.461   1.533  0.00  0.00    -0.070 Cl
ENDROOT
TORSDOF 0
ENDMDL
