MODEL 1
REMARK minimizedAffinity -3.63954639
REMARK minimizedRMSD -1
REMARK  0 active torsions:
REMARK  status: ('A' for Active; 'I' for Inactive)
ROOT
ATOM      1  C   UNL d   1       0.345  -0.216  -1.301  0.00  0.00     0.020 A 
ATOM      2  C1  UNL d   1       1.594  -0.592  -0.811  0.00  0.00     0.020 A 
ATOM      3  C2  UNL d   1       1.815  -0.651   0.567  0.00  0.00     0.034 A 
ATOM      4  C3  UNL d   1       0.784  -0.334   1.459  0.00  0.00     0.017 A 
ATOM      5  C4  UNL d   1      -0.470   0.044   0.965  0.00  0.00     0.017 A 
ATOM      6  C5  UNL d   1      -0.685   0.102  -0.415  0.00  0.00     0.034 A 
ATOM      7 Cl   UNL d   1      -1.791   0.450   2.004  0.00  0.00    -0.070 Cl
ATOM      8 Cl1  UNL d   1       1.127  -0.429   3.150  0.00  0.00    -0.070 Cl
ENDROOT
TORSDOF 0
ENDMDL
