MODEL 1
REMARK minimizedAffinity -0.430509478
REMARK minimizedRMSD -1
REMARK  0 active torsions:
REMARK  status: ('A' for Active; 'I' for Inactive)
ROOT
ATOM      1  C   UNL d   1      -1.231   0.205   2.203  0.00  0.00     0.020 A 
ATOM      2  C1  UNL d   1      -0.199  -0.491   2.830  0.00  0.00     0.020 A 
ATOM      3  C2  UNL d   1       0.878  -0.970   2.080  0.00  0.00     0.034 A 
ATOM      4  C3  UNL d   1       0.924  -0.753   0.699  0.00  0.00     0.017 A 
ATOM      5  C4  UNL d   1      -0.112  -0.054   0.069  0.00  0.00     0.017 A 
ATOM      6  C5  UNL d   1      -1.187   0.423   0.825  0.00  0.00     0.034 A 
ATOM      7 Cl   UNL d   1      -0.124   0.252  -1.632  0.00  0.00    -0.070 Cl
ATOM      8 Cl1  UNL d   1       2.286  -1.373  -0.166  0.00  0.00    -0.070 Cl
ENDROOT
TORSDOF 0
ENDMDL
