MODEL 1
REMARK minimizedAffinity -2.59294271
REMARK minimizedRMSD -1
REMARK  0 active torsions:
REMARK  status: ('A' for Active; 'I' for Inactive)
ROOT
ATOM      1  C   UNL d   1      -1.369   0.467   0.016  0.00  0.00     0.020 A 
ATOM      2  C1  UNL d   1      -0.720   0.319  -1.209  0.00  0.00     0.020 A 
ATOM      3  C2  UNL d   1       0.619  -0.075  -1.246  0.00  0.00     0.034 A 
ATOM      4  C3  UNL d   1       1.313  -0.322  -0.056  0.00  0.00     0.017 A 
ATOM      5  C4  UNL d   1       0.661  -0.173   1.173  0.00  0.00     0.017 A 
ATOM      6  C5  UNL d   1      -0.680   0.222   1.204  0.00  0.00     0.034 A 
ATOM      7 Cl   UNL d   1       1.451  -0.460   2.683  0.00  0.00    -0.070 Cl
ATOM      8 Cl1  UNL d   1       2.968  -0.807  -0.176  0.00  0.00    -0.070 Cl
ENDROOT
TORSDOF 0
ENDMDL
