MODEL 1
REMARK minimizedAffinity -3.75032759
REMARK minimizedRMSD -1
REMARK  0 active torsions:
REMARK  status: ('A' for Active; 'I' for Inactive)
ROOT
ATOM      1  C   UNL d   1       1.903  -0.805   1.699  0.00  0.00     0.020 A 
ATOM      2  C1  UNL d   1       1.030  -0.992   2.771  0.00  0.00     0.020 A 
ATOM      3  C2  UNL d   1      -0.321  -0.669   2.634  0.00  0.00     0.034 A 
ATOM      4  C3  UNL d   1      -0.805  -0.159   1.424  0.00  0.00     0.017 A 
ATOM      5  C4  UNL d   1       0.072   0.028   0.349  0.00  0.00     0.017 A 
ATOM      6  C5  UNL d   1       1.425  -0.297   0.491  0.00  0.00     0.034 A 
ATOM      7 Cl   UNL d   1      -0.450   0.653  -1.175  0.00  0.00    -0.070 Cl
ATOM      8 Cl1  UNL d   1      -2.488   0.218   1.326  0.00  0.00    -0.070 Cl
ENDROOT
TORSDOF 0
ENDMDL
