MODEL 1
REMARK minimizedAffinity -5.35528088
REMARK minimizedRMSD -1
REMARK  1 active torsions:
REMARK  status: ('A' for Active; 'I' for Inactive)
REMARK    1  A    between atoms: C1_2  and  C2_3 
ROOT
ATOM      1  C2  UNL d   1       0.066   0.484  -1.303  0.00  0.00    -0.081 A 
ATOM      2  C3  UNL d   1       1.164   0.715  -0.465  0.00  0.00     0.006 A 
ATOM      3  C4  UNL d   1       1.191   0.187   0.828  0.00  0.00     0.002 A 
ATOM      4  C5  UNL d   1       0.127  -0.587   1.301  0.00  0.00    -0.080 A 
ATOM      5  C6  UNL d   1       0.157  -1.186   2.676  0.00  0.00     0.076 C 
ATOM      6  C7  UNL d   1      -0.978  -0.804   0.469  0.00  0.00     0.002 A 
ATOM      7  C8  UNL d   1      -1.006  -0.276  -0.823  0.00  0.00     0.006 A 
ENDROOT
BRANCH   1   8
ATOM      8  C1  UNL d   1       0.063   0.998  -2.720  0.00  0.00     0.054 C 
ATOM      9  C   UNL d   1      -1.355   1.126  -3.259  0.00  0.00     0.018 C 
ENDBRANCH   1   8
TORSDOF 1
ENDMDL
