MODEL 1
REMARK minimizedAffinity 5.65822792
REMARK minimizedRMSD -1
REMARK  1 active torsions:
REMARK  status: ('A' for Active; 'I' for Inactive)
REMARK    1  A    between atoms: C1_2  and  C2_3 
ROOT
ATOM      1  C2  UNL d   1       2.165  -3.512   0.261  0.00  0.00    -0.081 A 
ATOM      2  C3  UNL d   1       2.480  -3.834   1.587  0.00  0.00     0.006 A 
ATOM      3  C4  UNL d   1       3.714  -4.407   1.903  0.00  0.00     0.002 A 
ATOM      4  C5  UNL d   1       4.656  -4.661   0.900  0.00  0.00    -0.080 A 
ATOM      5  C6  UNL d   1       5.996  -5.248   1.230  0.00  0.00     0.076 C 
ATOM      6  C7  UNL d   1       4.335  -4.355  -0.426  0.00  0.00     0.002 A 
ATOM      7  C8  UNL d   1       3.101  -3.782  -0.743  0.00  0.00     0.006 A 
ENDROOT
BRANCH   1   8
ATOM      8  C1  UNL d   1       0.861  -2.834  -0.074  0.00  0.00     0.054 C 
ATOM      9  C   UNL d   1       0.468  -1.829   0.999  0.00  0.00     0.018 C 
ENDBRANCH   1   8
TORSDOF 1
ENDMDL
