MODEL 1
REMARK minimizedAffinity 7.16628551
REMARK minimizedRMSD -1
REMARK  1 active torsions:
REMARK  status: ('A' for Active; 'I' for Inactive)
REMARK    1  A    between atoms: C1_2  and  C2_3 
ROOT
ATOM      1  C2  UNL d   1       2.796  -3.883   0.369  0.00  0.00    -0.081 A 
ATOM      2  C3  UNL d   1       2.185  -3.961   1.626  0.00  0.00     0.006 A 
ATOM      3  C4  UNL d   1       1.226  -3.019   2.007  0.00  0.00     0.002 A 
ATOM      4  C5  UNL d   1       0.857  -1.990   1.135  0.00  0.00    -0.080 A 
ATOM      5  C6  UNL d   1      -0.194  -0.990   1.519  0.00  0.00     0.076 C 
ATOM      6  C7  UNL d   1       1.480  -1.902  -0.115  0.00  0.00     0.002 A 
ATOM      7  C8  UNL d   1       2.439  -2.843  -0.496  0.00  0.00     0.006 A 
ENDROOT
BRANCH   1   8
ATOM      8  C1  UNL d   1       3.783  -4.935  -0.070  0.00  0.00     0.054 C 
ATOM      9  C   UNL d   1       5.203  -4.563   0.334  0.00  0.00     0.018 C 
ENDBRANCH   1   8
TORSDOF 1
ENDMDL
