MODEL 1
REMARK minimizedAffinity 3.8263948
REMARK minimizedRMSD -1
REMARK  1 active torsions:
REMARK  status: ('A' for Active; 'I' for Inactive)
REMARK    1  A    between atoms: C1_2  and  C2_3 
ROOT
ATOM      1  C2  UNL d   1      -3.846   1.542  -3.828  0.00  0.00    -0.081 A 
ATOM      2  C3  UNL d   1      -5.006   1.371  -4.594  0.00  0.00     0.006 A 
ATOM      3  C4  UNL d   1      -5.621   0.119  -4.678  0.00  0.00     0.002 A 
ATOM      4  C5  UNL d   1      -5.092  -0.979  -3.992  0.00  0.00    -0.080 A 
ATOM      5  C6  UNL d   1      -5.760  -2.321  -4.049  0.00  0.00     0.076 C 
ATOM      6  C7  UNL d   1      -3.924  -0.812  -3.240  0.00  0.00     0.002 A 
ATOM      7  C8  UNL d   1      -3.308   0.439  -3.156  0.00  0.00     0.006 A 
ENDROOT
BRANCH   1   8
ATOM      8  C1  UNL d   1      -3.217   2.904  -3.683  0.00  0.00     0.054 C 
ATOM      9  C   UNL d   1      -2.100   2.891  -2.649  0.00  0.00     0.018 C 
ENDBRANCH   1   8
TORSDOF 1
ENDMDL
