MODEL 1
REMARK minimizedAffinity 4.91173887
REMARK minimizedRMSD -1
REMARK  1 active torsions:
REMARK  status: ('A' for Active; 'I' for Inactive)
REMARK    1  A    between atoms: C1_2  and  C2_3 
ROOT
ATOM      1  C2  UNL d   1      -3.754   1.474  -4.591  0.00  0.00    -0.081 A 
ATOM      2  C3  UNL d   1      -3.325   0.402  -5.383  0.00  0.00     0.006 A 
ATOM      3  C4  UNL d   1      -3.687  -0.907  -5.061  0.00  0.00     0.002 A 
ATOM      4  C5  UNL d   1      -4.491  -1.167  -3.945  0.00  0.00    -0.080 A 
ATOM      5  C6  UNL d   1      -4.912  -2.566  -3.605  0.00  0.00     0.076 C 
ATOM      6  C7  UNL d   1      -4.906  -0.099  -3.143  0.00  0.00     0.002 A 
ATOM      7  C8  UNL d   1      -4.543   1.211  -3.465  0.00  0.00     0.006 A 
ENDROOT
BRANCH   1   8
ATOM      8  C1  UNL d   1      -3.419   2.893  -4.973  0.00  0.00     0.054 C 
ATOM      9  C   UNL d   1      -3.964   3.884  -3.954  0.00  0.00     0.018 C 
ENDBRANCH   1   8
TORSDOF 1
ENDMDL
