MODEL 1
REMARK minimizedAffinity -4.37680101
REMARK minimizedRMSD -1
REMARK  1 active torsions:
REMARK  status: ('A' for Active; 'I' for Inactive)
REMARK    1  A    between atoms: C1_2  and  C2_3 
ROOT
ATOM      1  C2  UNL d   1      -2.462   0.785  -4.158  0.00  0.00    -0.081 A 
ATOM      2  C3  UNL d   1      -3.403   0.674  -5.189  0.00  0.00     0.006 A 
ATOM      3  C4  UNL d   1      -4.377  -0.327  -5.154  0.00  0.00     0.002 A 
ATOM      4  C5  UNL d   1      -4.430  -1.227  -4.084  0.00  0.00    -0.080 A 
ATOM      5  C6  UNL d   1      -5.489  -2.288  -4.019  0.00  0.00     0.076 C 
ATOM      6  C7  UNL d   1      -3.479  -1.127  -3.063  0.00  0.00     0.002 A 
ATOM      7  C8  UNL d   1      -2.505  -0.127  -3.098  0.00  0.00     0.006 A 
ENDROOT
BRANCH   1   8
ATOM      8  C1  UNL d   1      -1.451   1.904  -4.161  0.00  0.00     0.054 C 
ATOM      9  C   UNL d   1      -1.938   3.092  -3.343  0.00  0.00     0.018 C 
ENDBRANCH   1   8
TORSDOF 1
ENDMDL
