MODEL 1
REMARK minimizedAffinity 6.67626619
REMARK minimizedRMSD -1
REMARK  1 active torsions:
REMARK  status: ('A' for Active; 'I' for Inactive)
REMARK    1  A    between atoms: C1_2  and  C2_3 
ROOT
ATOM      1  C2  UNL d   1      -4.117   0.446  -4.993  0.00  0.00    -0.081 A 
ATOM      2  C3  UNL d   1      -5.423   0.115  -4.612  0.00  0.00     0.006 A 
ATOM      3  C4  UNL d   1      -5.650  -0.858  -3.635  0.00  0.00     0.002 A 
ATOM      4  C5  UNL d   1      -4.577  -1.509  -3.018  0.00  0.00    -0.080 A 
ATOM      5  C6  UNL d   1      -4.806  -2.533  -1.947  0.00  0.00     0.076 C 
ATOM      6  C7  UNL d   1      -3.273  -1.191  -3.412  0.00  0.00     0.002 A 
ATOM      7  C8  UNL d   1      -3.045  -0.219  -4.389  0.00  0.00     0.006 A 
ENDROOT
BRANCH   1   8
ATOM      8  C1  UNL d   1      -3.867   1.540  -6.000  0.00  0.00     0.054 C 
ATOM      9  C   UNL d   1      -4.817   2.711  -5.792  0.00  0.00     0.018 C 
ENDBRANCH   1   8
TORSDOF 1
ENDMDL
