MODEL 1
REMARK minimizedAffinity 5.17441225
REMARK minimizedRMSD -1
REMARK  1 active torsions:
REMARK  status: ('A' for Active; 'I' for Inactive)
REMARK    1  A    between atoms: C1_2  and  C2_3 
ROOT
ATOM      1  C2  UNL d   1       1.192  -0.720   1.911  0.00  0.00    -0.081 A 
ATOM      2  C3  UNL d   1       1.473   0.629   2.156  0.00  0.00     0.006 A 
ATOM      3  C4  UNL d   1       2.331   1.338   1.312  0.00  0.00     0.002 A 
ATOM      4  C5  UNL d   1       2.914   0.713   0.205  0.00  0.00    -0.080 A 
ATOM      5  C6  UNL d   1       3.813   1.471  -0.727  0.00  0.00     0.076 C 
ATOM      6  C7  UNL d   1       2.647  -0.640  -0.030  0.00  0.00     0.002 A 
ATOM      7  C8  UNL d   1       1.790  -1.350   0.814  0.00  0.00     0.006 A 
ENDROOT
BRANCH   1   8
ATOM      8  C1  UNL d   1       0.217  -1.470   2.782  0.00  0.00     0.054 C 
ATOM      9  C   UNL d   1      -0.910  -0.564   3.258  0.00  0.00     0.018 C 
ENDBRANCH   1   8
TORSDOF 1
ENDMDL
