MODEL 1
REMARK minimizedAffinity 10.3052568
REMARK minimizedRMSD -1
REMARK  2 active torsions:
REMARK  status: ('A' for Active; 'I' for Inactive)
REMARK    1  A    between atoms: C1_2  and  C2_3 
REMARK    2  A    between atoms: C2_3  and  C3_4 
ROOT
ATOM      1  C3  UNL d   1       0.991  -2.419   0.603  0.00  0.00    -0.075 A 
ATOM      2  C4  UNL d   1       1.933  -1.416   0.332  0.00  0.00     0.002 A 
ATOM      3  C5  UNL d   1       2.337  -0.534   1.334  0.00  0.00     0.002 A 
ATOM      4  C6  UNL d   1       1.797  -0.635   2.614  0.00  0.00    -0.004 A 
ATOM      5  C7  UNL d   1       0.848  -1.617   2.891  0.00  0.00     0.002 A 
ATOM      6  C8  UNL d   1       0.446  -2.504   1.891  0.00  0.00     0.002 A 
ENDROOT
BRANCH   1   7
ATOM      7  C2  UNL d   1       0.571  -3.396  -0.470  0.00  0.00     0.056 C 
BRANCH   7   8
ATOM      8  C1  UNL d   1       0.295  -4.811   0.049  0.00  0.00     0.007 C 
ATOM      9  C   UNL d   1       1.556  -5.555   0.466  0.00  0.00     0.009 C 
ENDBRANCH   7   8
ENDBRANCH   1   7
TORSDOF 2
ENDMDL
