MODEL 1
REMARK minimizedAffinity 3.30816245
REMARK minimizedRMSD -1
REMARK  2 active torsions:
REMARK  status: ('A' for Active; 'I' for Inactive)
REMARK    1  A    between atoms: C1_2  and  C2_3 
REMARK    2  A    between atoms: C2_3  and  C3_4 
ROOT
ATOM      1  C3  UNL d   1       3.287  -3.350   3.284  0.00  0.00    -0.075 A 
ATOM      2  C4  UNL d   1       4.268  -3.384   2.282  0.00  0.00     0.002 A 
ATOM      3  C5  UNL d   1       5.616  -3.228   2.605  0.00  0.00     0.002 A 
ATOM      4  C6  UNL d   1       6.000  -3.025   3.928  0.00  0.00    -0.004 A 
ATOM      5  C7  UNL d   1       5.033  -2.973   4.930  0.00  0.00     0.002 A 
ATOM      6  C8  UNL d   1       3.683  -3.133   4.611  0.00  0.00     0.002 A 
ENDROOT
BRANCH   1   7
ATOM      7  C2  UNL d   1       1.829  -3.548   2.946  0.00  0.00     0.056 C 
BRANCH   7   8
ATOM      8  C1  UNL d   1       0.885  -2.575   3.660  0.00  0.00     0.007 C 
ATOM      9  C   UNL d   1       0.981  -1.150   3.133  0.00  0.00     0.009 C 
ENDBRANCH   7   8
ENDBRANCH   1   7
TORSDOF 2
ENDMDL
