MODEL 1
REMARK minimizedAffinity 7.05243921
REMARK minimizedRMSD -1
REMARK  2 active torsions:
REMARK  status: ('A' for Active; 'I' for Inactive)
REMARK    1  A    between atoms: C1_2  and  C2_3 
REMARK    2  A    between atoms: C2_3  and  C3_4 
ROOT
ATOM      1  C3  UNL d   1       0.849  -0.194   3.098  0.00  0.00    -0.075 A 
ATOM      2  C4  UNL d   1       0.690  -1.029   4.214  0.00  0.00     0.002 A 
ATOM      3  C5  UNL d   1       0.958  -2.395   4.121  0.00  0.00     0.002 A 
ATOM      4  C6  UNL d   1       1.377  -2.945   2.912  0.00  0.00    -0.004 A 
ATOM      5  C7  UNL d   1       1.523  -2.128   1.792  0.00  0.00     0.002 A 
ATOM      6  C8  UNL d   1       1.259  -0.760   1.884  0.00  0.00     0.002 A 
ENDROOT
BRANCH   1   7
ATOM      7  C2  UNL d   1       0.589   1.290   3.200  0.00  0.00     0.056 C 
BRANCH   7   8
ATOM      8  C1  UNL d   1       1.681   2.159   2.568  0.00  0.00     0.007 C 
ATOM      9  C   UNL d   1       2.127   3.308   3.462  0.00  0.00     0.009 C 
ENDBRANCH   7   8
ENDBRANCH   1   7
TORSDOF 2
ENDMDL
