MODEL 1
REMARK minimizedAffinity 6.07719469
REMARK minimizedRMSD -1
REMARK  2 active torsions:
REMARK  status: ('A' for Active; 'I' for Inactive)
REMARK    1  A    between atoms: C1_2  and  C2_3 
REMARK    2  A    between atoms: C2_3  and  C3_4 
ROOT
ATOM      1  C3  UNL d   1       0.801  -2.879   3.786  0.00  0.00    -0.075 A 
ATOM      2  C4  UNL d   1       1.753  -3.431   2.917  0.00  0.00     0.002 A 
ATOM      3  C5  UNL d   1       2.322  -2.658   1.905  0.00  0.00     0.002 A 
ATOM      4  C6  UNL d   1       1.939  -1.328   1.743  0.00  0.00    -0.004 A 
ATOM      5  C7  UNL d   1       0.983  -0.773   2.590  0.00  0.00     0.002 A 
ATOM      6  C8  UNL d   1       0.415  -1.544   3.606  0.00  0.00     0.002 A 
ENDROOT
BRANCH   1   7
ATOM      7  C2  UNL d   1       0.204  -3.702   4.902  0.00  0.00     0.056 C 
BRANCH   7   8
ATOM      8  C1  UNL d   1       0.628  -5.175   4.886  0.00  0.00     0.007 C 
ATOM      9  C   UNL d   1      -0.025  -5.999   5.988  0.00  0.00     0.009 C 
ENDBRANCH   7   8
ENDBRANCH   1   7
TORSDOF 2
ENDMDL
