MODEL 1
REMARK minimizedAffinity -0.273289055
REMARK minimizedRMSD -1
REMARK  2 active torsions:
REMARK  status: ('A' for Active; 'I' for Inactive)
REMARK    1  A    between atoms: C1_2  and  C2_3 
REMARK    2  A    between atoms: C2_3  and  C3_4 
ROOT
ATOM      1  C3  UNL d   1      -3.432   3.034   0.412  0.00  0.00    -0.075 A 
ATOM      2  C4  UNL d   1      -3.917   2.832   1.713  0.00  0.00     0.002 A 
ATOM      3  C5  UNL d   1      -5.195   3.264   2.068  0.00  0.00     0.002 A 
ATOM      4  C6  UNL d   1      -5.999   3.911   1.133  0.00  0.00    -0.004 A 
ATOM      5  C7  UNL d   1      -5.522   4.132  -0.158  0.00  0.00     0.002 A 
ATOM      6  C8  UNL d   1      -4.245   3.696  -0.517  0.00  0.00     0.002 A 
ENDROOT
BRANCH   1   7
ATOM      7  C2  UNL d   1      -2.062   2.542   0.014  0.00  0.00     0.056 C 
BRANCH   7   8
ATOM      8  C1  UNL d   1      -2.025   1.068  -0.405  0.00  0.00     0.007 C 
ATOM      9  C   UNL d   1      -2.255   0.862  -1.896  0.00  0.00     0.009 C 
ENDBRANCH   7   8
ENDBRANCH   1   7
TORSDOF 2
ENDMDL
