MODEL 1
REMARK minimizedAffinity 1.4800123
REMARK minimizedRMSD -1
REMARK  2 active torsions:
REMARK  status: ('A' for Active; 'I' for Inactive)
REMARK    1  A    between atoms: C1_2  and  C2_3 
REMARK    2  A    between atoms: C2_3  and  C3_4 
ROOT
ATOM      1  C3  UNL d   1       3.406  -2.352   4.084  0.00  0.00    -0.075 A 
ATOM      2  C4  UNL d   1       3.608  -2.266   5.469  0.00  0.00     0.002 A 
ATOM      3  C5  UNL d   1       4.898  -2.290   6.000  0.00  0.00     0.002 A 
ATOM      4  C6  UNL d   1       6.000  -2.412   5.155  0.00  0.00    -0.004 A 
ATOM      5  C7  UNL d   1       5.810  -2.515   3.779  0.00  0.00     0.002 A 
ATOM      6  C8  UNL d   1       4.520  -2.486   3.245  0.00  0.00     0.002 A 
ENDROOT
BRANCH   1   7
ATOM      7  C2  UNL d   1       2.014  -2.297   3.502  0.00  0.00     0.056 C 
BRANCH   7   8
ATOM      8  C1  UNL d   1       1.942  -2.678   2.019  0.00  0.00     0.007 C 
ATOM      9  C   UNL d   1       2.018  -4.181   1.782  0.00  0.00     0.009 C 
ENDBRANCH   7   8
ENDBRANCH   1   7
TORSDOF 2
ENDMDL
