MODEL 1
REMARK minimizedAffinity -2.70227504
REMARK minimizedRMSD -1
REMARK  2 active torsions:
REMARK  status: ('A' for Active; 'I' for Inactive)
REMARK    1  A    between atoms: C1_2  and  C2_3 
REMARK    2  A    between atoms: C2_3  and  C3_4 
ROOT
ATOM      1  C3  UNL d   1       1.636  -4.246   3.930  0.00  0.00    -0.075 A 
ATOM      2  C4  UNL d   1       1.379  -3.076   4.660  0.00  0.00     0.002 A 
ATOM      3  C5  UNL d   1       1.103  -1.877   4.001  0.00  0.00     0.002 A 
ATOM      4  C6  UNL d   1       1.091  -1.831   2.609  0.00  0.00    -0.004 A 
ATOM      5  C7  UNL d   1       1.361  -2.983   1.874  0.00  0.00     0.002 A 
ATOM      6  C8  UNL d   1       1.633  -4.185   2.531  0.00  0.00     0.002 A 
ENDROOT
BRANCH   1   7
ATOM      7  C2  UNL d   1       1.907  -5.553   4.637  0.00  0.00     0.056 C 
BRANCH   7   8
ATOM      8  C1  UNL d   1       1.218  -5.679   6.000  0.00  0.00     0.007 C 
ATOM      9  C   UNL d   1      -0.267  -5.999   5.895  0.00  0.00     0.009 C 
ENDBRANCH   7   8
ENDBRANCH   1   7
TORSDOF 2
ENDMDL
