MODEL 1
REMARK minimizedAffinity 9.98569679
REMARK minimizedRMSD -1
REMARK  2 active torsions:
REMARK  status: ('A' for Active; 'I' for Inactive)
REMARK    1  A    between atoms: C1_2  and  C2_3 
REMARK    2  A    between atoms: C2_3  and  C3_4 
ROOT
ATOM      1  C3  UNL d   1       1.764  -3.790   4.406  0.00  0.00    -0.075 A 
ATOM      2  C4  UNL d   1       0.417  -4.180   4.401  0.00  0.00     0.002 A 
ATOM      3  C5  UNL d   1      -0.016  -5.240   5.197  0.00  0.00     0.002 A 
ATOM      4  C6  UNL d   1       0.891  -5.929   6.000  0.00  0.00    -0.004 A 
ATOM      5  C7  UNL d   1       2.235  -5.560   6.000  0.00  0.00     0.002 A 
ATOM      6  C8  UNL d   1       2.670  -4.497   5.207  0.00  0.00     0.002 A 
ENDROOT
BRANCH   1   7
ATOM      7  C2  UNL d   1       2.235  -2.624   3.568  0.00  0.00     0.056 C 
BRANCH   7   8
ATOM      8  C1  UNL d   1       1.133  -1.613   3.233  0.00  0.00     0.007 C 
ATOM      9  C   UNL d   1       1.163  -1.152   1.782  0.00  0.00     0.009 C 
ENDBRANCH   7   8
ENDBRANCH   1   7
TORSDOF 2
ENDMDL
