MODEL 1
REMARK minimizedAffinity 13.9130611
REMARK minimizedRMSD -1
REMARK  1 active torsions:
REMARK  status: ('A' for Active; 'I' for Inactive)
REMARK    1  A    between atoms: C1_2  and  C2_3 
ROOT
ATOM      1  C2  UNL d   1       1.103   0.047   0.601  0.00  0.00    -0.076 A 
ATOM      2  C3  UNL d   1       0.569   0.854  -0.420  0.00  0.00     0.004 A 
ATOM      3  C4  UNL d   1      -0.631   1.539  -0.239  0.00  0.00    -0.003 A 
ATOM      4  C5  UNL d   1      -1.317   1.429   0.965  0.00  0.00     0.000 A 
ATOM      5  C6  UNL d   1      -0.794   0.647   1.995  0.00  0.00     0.000 A 
ATOM      6  C7  UNL d   1       0.423  -0.037   1.835  0.00  0.00    -0.073 A 
ATOM      7  C8  UNL d   1       0.938  -0.871   2.976  0.00  0.00     0.078 C 
ENDROOT
BRANCH   1   8
ATOM      8  C1  UNL d   1       2.394  -0.694   0.338  0.00  0.00     0.053 C 
ATOM      9  C   UNL d   1       3.433   0.174  -0.356  0.00  0.00     0.018 C 
ENDBRANCH   1   8
TORSDOF 1
ENDMDL
