MODEL 1
REMARK minimizedAffinity 5.85958767
REMARK minimizedRMSD -1
REMARK  1 active torsions:
REMARK  status: ('A' for Active; 'I' for Inactive)
REMARK    1  A    between atoms: C1_2  and  C2_3 
ROOT
ATOM      1  C2  UNL d   1       4.042  -0.535  -0.414  0.00  0.00    -0.076 A 
ATOM      2  C3  UNL d   1       5.420  -0.400  -0.653  0.00  0.00     0.004 A 
ATOM      3  C4  UNL d   1       5.990   0.852  -0.878  0.00  0.00    -0.003 A 
ATOM      4  C5  UNL d   1       5.191   1.989  -0.867  0.00  0.00     0.000 A 
ATOM      5  C6  UNL d   1       3.824   1.876  -0.614  0.00  0.00     0.000 A 
ATOM      6  C7  UNL d   1       3.236   0.623  -0.369  0.00  0.00    -0.073 A 
ATOM      7  C8  UNL d   1       1.757   0.558  -0.108  0.00  0.00     0.078 C 
ENDROOT
BRANCH   1   8
ATOM      8  C1  UNL d   1       3.476  -1.921  -0.204  0.00  0.00     0.053 C 
ATOM      9  C   UNL d   1       3.111  -2.607  -1.511  0.00  0.00     0.018 C 
ENDBRANCH   1   8
TORSDOF 1
ENDMDL
