MODEL 1
REMARK minimizedAffinity 17.158823
REMARK minimizedRMSD -1
REMARK  1 active torsions:
REMARK  status: ('A' for Active; 'I' for Inactive)
REMARK    1  A    between atoms: C1_2  and  C2_3 
ROOT
ATOM      1  C2  UNL d   1      -3.664   1.748  -4.491  0.00  0.00    -0.076 A 
ATOM      2  C3  UNL d   1      -3.335   3.059  -4.106  0.00  0.00     0.004 A 
ATOM      3  C4  UNL d   1      -4.323   3.963  -3.720  0.00  0.00    -0.003 A 
ATOM      4  C5  UNL d   1      -5.657   3.571  -3.712  0.00  0.00     0.000 A 
ATOM      5  C6  UNL d   1      -6.000   2.269  -4.074  0.00  0.00     0.000 A 
ATOM      6  C7  UNL d   1      -5.015   1.340  -4.451  0.00  0.00    -0.073 A 
ATOM      7  C8  UNL d   1      -5.442  -0.049  -4.838  0.00  0.00     0.078 C 
ENDROOT
BRANCH   1   8
ATOM      8  C1  UNL d   1      -2.553   0.820  -4.927  0.00  0.00     0.053 C 
ATOM      9  C   UNL d   1      -1.652   0.409  -3.772  0.00  0.00     0.018 C 
ENDBRANCH   1   8
TORSDOF 1
ENDMDL
