MODEL 1
REMARK minimizedAffinity 11.8475943
REMARK minimizedRMSD -1
REMARK  1 active torsions:
REMARK  status: ('A' for Active; 'I' for Inactive)
REMARK    1  A    between atoms: C1_2  and  C2_3 
ROOT
ATOM      1  C2  UNL d   1       3.794  -1.030  -0.395  0.00  0.00    -0.076 A 
ATOM      2  C3  UNL d   1       5.196  -1.135  -0.409  0.00  0.00     0.004 A 
ATOM      3  C4  UNL d   1       6.000   0.004  -0.447  0.00  0.00    -0.003 A 
ATOM      4  C5  UNL d   1       5.415   1.265  -0.471  0.00  0.00     0.000 A 
ATOM      5  C6  UNL d   1       4.026   1.387  -0.439  0.00  0.00     0.000 A 
ATOM      6  C7  UNL d   1       3.202   0.250  -0.384  0.00  0.00    -0.073 A 
ATOM      7  C8  UNL d   1       1.710   0.441  -0.358  0.00  0.00     0.078 C 
ENDROOT
BRANCH   1   8
ATOM      8  C1  UNL d   1       2.974  -2.300  -0.381  0.00  0.00     0.053 C 
ATOM      9  C   UNL d   1       2.562  -2.743  -1.776  0.00  0.00     0.018 C 
ENDBRANCH   1   8
TORSDOF 1
ENDMDL
