MODEL 1
REMARK minimizedAffinity 6.04763079
REMARK minimizedRMSD -1
REMARK  1 active torsions:
REMARK  status: ('A' for Active; 'I' for Inactive)
REMARK    1  A    between atoms: C1_2  and  C2_3 
ROOT
ATOM      1  C2  UNL d   1       0.030  -4.613   5.173  0.00  0.00    -0.076 A 
ATOM      2  C3  UNL d   1      -0.785  -3.782   4.385  0.00  0.00     0.004 A 
ATOM      3  C4  UNL d   1      -0.239  -2.732   3.649  0.00  0.00    -0.003 A 
ATOM      4  C5  UNL d   1       1.131  -2.497   3.688  0.00  0.00     0.000 A 
ATOM      5  C6  UNL d   1       1.956  -3.323   4.450  0.00  0.00     0.000 A 
ATOM      6  C7  UNL d   1       1.424  -4.395   5.185  0.00  0.00    -0.073 A 
ATOM      7  C8  UNL d   1       2.360  -5.251   5.994  0.00  0.00     0.078 C 
ENDROOT
BRANCH   1   8
ATOM      8  C1  UNL d   1      -0.622  -5.719   5.972  0.00  0.00     0.053 C 
ATOM      9  C   UNL d   1      -2.138  -5.603   5.999  0.00  0.00     0.018 C 
ENDBRANCH   1   8
TORSDOF 1
ENDMDL
