MODEL 1
REMARK minimizedAffinity 8.17195415
REMARK minimizedRMSD -1
REMARK  1 active torsions:
REMARK  status: ('A' for Active; 'I' for Inactive)
REMARK    1  A    between atoms: C1_2  and  C2_3 
ROOT
ATOM      1  C2  UNL d   1      -4.630   1.517  -3.647  0.00  0.00    -0.076 A 
ATOM      2  C3  UNL d   1      -3.889   1.578  -4.839  0.00  0.00     0.004 A 
ATOM      3  C4  UNL d   1      -2.659   0.932  -4.953  0.00  0.00    -0.003 A 
ATOM      4  C5  UNL d   1      -2.152   0.213  -3.876  0.00  0.00     0.000 A 
ATOM      5  C6  UNL d   1      -2.882   0.127  -2.692  0.00  0.00     0.000 A 
ATOM      6  C7  UNL d   1      -4.131   0.760  -2.566  0.00  0.00    -0.073 A 
ATOM      7  C8  UNL d   1      -4.874   0.639  -1.263  0.00  0.00     0.078 C 
ENDROOT
BRANCH   1   8
ATOM      8  C1  UNL d   1      -5.945   2.261  -3.573  0.00  0.00     0.053 C 
ATOM      9  C   UNL d   1      -5.792   3.745  -3.869  0.00  0.00     0.018 C 
ENDBRANCH   1   8
TORSDOF 1
ENDMDL
