MODEL 1
REMARK minimizedAffinity -3.95760202
REMARK minimizedRMSD -1
REMARK  1 active torsions:
REMARK  status: ('A' for Active; 'I' for Inactive)
REMARK    1  A    between atoms: C1_2  and  C2_3 
ROOT
ATOM      1  C2  UNL d   1       0.725   0.592  -0.510  0.00  0.00    -0.077 A 
ATOM      2  C3  UNL d   1       0.061  -0.456  -1.162  0.00  0.00     0.002 A 
ATOM      3  C4  UNL d   1       0.640  -1.078  -2.269  0.00  0.00     0.002 A 
ATOM      4  C5  UNL d   1       1.886  -0.662  -2.732  0.00  0.00    -0.004 A 
ATOM      5  C6  UNL d   1       2.554   0.381  -2.092  0.00  0.00     0.002 A 
ATOM      6  C7  UNL d   1       1.976   1.005  -0.985  0.00  0.00     0.002 A 
ENDROOT
BRANCH   1   7
ATOM      7  C1  UNL d   1       0.125   1.232   0.715  0.00  0.00     0.055 C 
ATOM      8  C   UNL d   1      -1.092   0.459   1.203  0.00  0.00     0.019 C 
ENDBRANCH   1   7
TORSDOF 1
ENDMDL
