MODEL 1
REMARK minimizedAffinity -5.20756292
REMARK minimizedRMSD -1
REMARK  1 active torsions:
REMARK  status: ('A' for Active; 'I' for Inactive)
REMARK    1  A    between atoms: C1_2  and  C2_3 
ROOT
ATOM      1  C2  UNL d   1       0.385   0.012  -0.047  0.00  0.00    -0.077 A 
ATOM      2  C3  UNL d   1       0.144  -1.007  -0.979  0.00  0.00     0.002 A 
ATOM      3  C4  UNL d   1       0.696  -0.939  -2.259  0.00  0.00     0.002 A 
ATOM      4  C5  UNL d   1       1.496   0.144  -2.618  0.00  0.00    -0.004 A 
ATOM      5  C6  UNL d   1       1.740   1.164  -1.699  0.00  0.00     0.002 A 
ATOM      6  C7  UNL d   1       1.188   1.098  -0.419  0.00  0.00     0.002 A 
ENDROOT
BRANCH   1   7
ATOM      7  C1  UNL d   1      -0.170  -0.083   1.350  0.00  0.00     0.055 C 
ATOM      8  C   UNL d   1      -1.682   0.087   1.358  0.00  0.00     0.019 C 
ENDBRANCH   1   7
TORSDOF 1
ENDMDL
