MODEL 1
REMARK minimizedAffinity -1.96149063
REMARK minimizedRMSD -1
REMARK  1 active torsions:
REMARK  status: ('A' for Active; 'I' for Inactive)
REMARK    1  A    between atoms: C1_2  and  C2_3 
ROOT
ATOM      1  C2  UNL d   1       0.958   0.539  -0.414  0.00  0.00    -0.077 A 
ATOM      2  C3  UNL d   1       2.241   1.021  -0.711  0.00  0.00     0.002 A 
ATOM      3  C4  UNL d   1       2.968   0.483  -1.775  0.00  0.00     0.002 A 
ATOM      4  C5  UNL d   1       2.419  -0.536  -2.552  0.00  0.00    -0.004 A 
ATOM      5  C6  UNL d   1       1.145  -1.023  -2.262  0.00  0.00     0.002 A 
ATOM      6  C7  UNL d   1       0.417  -0.487  -1.199  0.00  0.00     0.002 A 
ENDROOT
BRANCH   1   7
ATOM      7  C1  UNL d   1       0.153   1.152   0.702  0.00  0.00     0.055 C 
ATOM      8  C   UNL d   1      -1.094   0.331   1.000  0.00  0.00     0.019 C 
ENDBRANCH   1   7
TORSDOF 1
ENDMDL
