MODEL 1
REMARK minimizedAffinity -3.50272202
REMARK minimizedRMSD -1
REMARK  1 active torsions:
REMARK  status: ('A' for Active; 'I' for Inactive)
REMARK    1  A    between atoms: C1_2  and  C2_3 
ROOT
ATOM      1  C2  UNL d   1       0.596   1.244  -0.470  0.00  0.00    -0.077 A 
ATOM      2  C3  UNL d   1       0.842   0.388   0.612  0.00  0.00     0.002 A 
ATOM      3  C4  UNL d   1      -0.217  -0.112   1.373  0.00  0.00     0.002 A 
ATOM      4  C5  UNL d   1      -1.528   0.235   1.056  0.00  0.00    -0.004 A 
ATOM      5  C6  UNL d   1      -1.784   1.087  -0.017  0.00  0.00     0.002 A 
ATOM      6  C7  UNL d   1      -0.726   1.589  -0.778  0.00  0.00     0.002 A 
ENDROOT
BRANCH   1   7
ATOM      7  C1  UNL d   1       1.733   1.745  -1.322  0.00  0.00     0.055 C 
ATOM      8  C   UNL d   1       2.871   0.735  -1.376  0.00  0.00     0.019 C 
ENDBRANCH   1   7
TORSDOF 1
ENDMDL
