MODEL 1
REMARK minimizedAffinity -4.38016033
REMARK minimizedRMSD -1
REMARK  1 active torsions:
REMARK  status: ('A' for Active; 'I' for Inactive)
REMARK    1  A    between atoms: C1_2  and  C2_3 
ROOT
ATOM      1  C2  UNL d   1       0.240   0.624  -0.024  0.00  0.00    -0.077 A 
ATOM      2  C3  UNL d   1       0.023  -0.005   1.210  0.00  0.00     0.002 A 
ATOM      3  C4  UNL d   1      -0.078  -1.395   1.287  0.00  0.00     0.002 A 
ATOM      4  C5  UNL d   1       0.041  -2.168   0.134  0.00  0.00    -0.004 A 
ATOM      5  C6  UNL d   1       0.255  -1.553  -1.099  0.00  0.00     0.002 A 
ATOM      6  C7  UNL d   1       0.355  -0.163  -1.177  0.00  0.00     0.002 A 
ENDROOT
BRANCH   1   7
ATOM      7  C1  UNL d   1       0.399   2.120  -0.102  0.00  0.00     0.055 C 
ATOM      8  C   UNL d   1       1.866   2.517  -0.181  0.00  0.00     0.019 C 
ENDBRANCH   1   7
TORSDOF 1
ENDMDL
