MODEL 1
REMARK minimizedAffinity -6.3876214
REMARK minimizedRMSD -1
REMARK  1 active torsions:
REMARK  status: ('A' for Active; 'I' for Inactive)
REMARK    1  A    between atoms: C1_2  and  C2_3 
ROOT
ATOM      1  C2  UNL d   1       0.833   0.317  -0.916  0.00  0.00    -0.077 A 
ATOM      2  C3  UNL d   1       1.524   0.524  -2.118  0.00  0.00     0.002 A 
ATOM      3  C4  UNL d   1       1.992  -0.562  -2.860  0.00  0.00     0.002 A 
ATOM      4  C5  UNL d   1       1.770  -1.862  -2.411  0.00  0.00    -0.004 A 
ATOM      5  C6  UNL d   1       1.085  -2.079  -1.216  0.00  0.00     0.002 A 
ATOM      6  C7  UNL d   1       0.618  -0.994  -0.472  0.00  0.00     0.002 A 
ENDROOT
BRANCH   1   7
ATOM      7  C1  UNL d   1       0.285   1.485  -0.139  0.00  0.00     0.055 C 
ATOM      8  C   UNL d   1       1.347   2.098   0.762  0.00  0.00     0.019 C 
ENDBRANCH   1   7
TORSDOF 1
ENDMDL
