MODEL 1
REMARK minimizedAffinity -1.44282401
REMARK minimizedRMSD -1
REMARK  1 active torsions:
REMARK  status: ('A' for Active; 'I' for Inactive)
REMARK    1  A    between atoms: C1_2  and  C2_3 
ROOT
ATOM      1  C2  UNL d   1       0.952   0.137  -0.159  0.00  0.00    -0.077 A 
ATOM      2  C3  UNL d   1       1.923  -0.142  -1.132  0.00  0.00     0.002 A 
ATOM      3  C4  UNL d   1       2.803   0.855  -1.557  0.00  0.00     0.002 A 
ATOM      4  C5  UNL d   1       2.725   2.135  -1.013  0.00  0.00    -0.004 A 
ATOM      5  C6  UNL d   1       1.762   2.423  -0.046  0.00  0.00     0.002 A 
ATOM      6  C7  UNL d   1       0.880   1.428   0.379  0.00  0.00     0.002 A 
ENDROOT
BRANCH   1   7
ATOM      7  C1  UNL d   1       0.034  -0.949   0.337  0.00  0.00     0.055 C 
ATOM      8  C   UNL d   1       0.611  -2.330   0.062  0.00  0.00     0.019 C 
ENDBRANCH   1   7
TORSDOF 1
ENDMDL
