MODEL 1
REMARK minimizedAffinity -3.84188724
REMARK minimizedRMSD -1
REMARK  1 active torsions:
REMARK  status: ('A' for Active; 'I' for Inactive)
REMARK    1  A    between atoms: C1_2  and  C2_3 
ROOT
ATOM      1  C2  UNL d   1      -0.164  -0.057   0.150  0.00  0.00    -0.077 A 
ATOM      2  C3  UNL d   1       0.657  -0.891  -0.622  0.00  0.00     0.002 A 
ATOM      3  C4  UNL d   1       1.649  -0.345  -1.439  0.00  0.00     0.002 A 
ATOM      4  C5  UNL d   1       1.833   1.035  -1.488  0.00  0.00    -0.004 A 
ATOM      5  C6  UNL d   1       1.021   1.873  -0.725  0.00  0.00     0.002 A 
ATOM      6  C7  UNL d   1       0.028   1.330   0.091  0.00  0.00     0.002 A 
ENDROOT
BRANCH   1   7
ATOM      7  C1  UNL d   1      -1.202  -0.645   1.069  0.00  0.00     0.055 C 
ATOM      8  C   UNL d   1      -2.158   0.422   1.581  0.00  0.00     0.019 C 
ENDBRANCH   1   7
TORSDOF 1
ENDMDL
