MODEL 1
REMARK minimizedAffinity -4.40006781
REMARK minimizedRMSD -1
REMARK  1 active torsions:
REMARK  status: ('A' for Active; 'I' for Inactive)
REMARK    1  A    between atoms: C1_2  and  C2_3 
ROOT
ATOM      1  C2  UNL d   1       0.329   0.217   0.276  0.00  0.00    -0.077 A 
ATOM      2  C3  UNL d   1       0.900   1.320  -0.374  0.00  0.00     0.002 A 
ATOM      3  C4  UNL d   1       1.861   1.133  -1.370  0.00  0.00     0.002 A 
ATOM      4  C5  UNL d   1       2.255  -0.155  -1.727  0.00  0.00    -0.004 A 
ATOM      5  C6  UNL d   1       1.694  -1.258  -1.085  0.00  0.00     0.002 A 
ATOM      6  C7  UNL d   1       0.735  -1.073  -0.089  0.00  0.00     0.002 A 
ENDROOT
BRANCH   1   7
ATOM      7  C1  UNL d   1      -0.743   0.415   1.316  0.00  0.00     0.055 C 
ATOM      8  C   UNL d   1      -2.133   0.257   0.716  0.00  0.00     0.019 C 
ENDBRANCH   1   7
TORSDOF 1
ENDMDL
