MODEL 1
REMARK minimizedAffinity -4.15595722
REMARK minimizedRMSD -1
REMARK  1 active torsions:
REMARK  status: ('A' for Active; 'I' for Inactive)
REMARK    1  A    between atoms: C1_2  and  C2_3 
ROOT
ATOM      1  C2  UNL d   1      -0.694  -0.021   0.542  0.00  0.00    -0.077 A 
ATOM      2  C3  UNL d   1      -1.906   0.309  -0.080  0.00  0.00     0.002 A 
ATOM      3  C4  UNL d   1      -3.057   0.520   0.681  0.00  0.00     0.002 A 
ATOM      4  C5  UNL d   1      -3.007   0.407   2.069  0.00  0.00    -0.004 A 
ATOM      5  C6  UNL d   1      -1.807   0.077   2.698  0.00  0.00     0.002 A 
ATOM      6  C7  UNL d   1      -0.656  -0.136   1.938  0.00  0.00     0.002 A 
ENDROOT
BRANCH   1   7
ATOM      7  C1  UNL d   1       0.559  -0.201  -0.274  0.00  0.00     0.055 C 
ATOM      8  C   UNL d   1       1.410   1.061  -0.266  0.00  0.00     0.019 C 
ENDBRANCH   1   7
TORSDOF 1
ENDMDL
