MODEL 1
REMARK minimizedAffinity -2.72576547
REMARK minimizedRMSD -1
REMARK  1 active torsions:
REMARK  status: ('A' for Active; 'I' for Inactive)
REMARK    1  A    between atoms: C1_2  and  C2_3 
ROOT
ATOM      1  C2  UNL d   1       0.419  -0.214   0.402  0.00  0.00    -0.077 A 
ATOM      2  C3  UNL d   1       0.549  -1.573   0.086  0.00  0.00     0.002 A 
ATOM      3  C4  UNL d   1       1.541  -2.001  -0.799  0.00  0.00     0.002 A 
ATOM      4  C5  UNL d   1       2.412  -1.076  -1.371  0.00  0.00    -0.004 A 
ATOM      5  C6  UNL d   1       2.290   0.278  -1.064  0.00  0.00     0.002 A 
ATOM      6  C7  UNL d   1       1.298   0.708  -0.181  0.00  0.00     0.002 A 
ENDROOT
BRANCH   1   7
ATOM      7  C1  UNL d   1      -0.618   0.243   1.395  0.00  0.00     0.055 C 
ATOM      8  C   UNL d   1      -0.820  -0.785   2.498  0.00  0.00     0.019 C 
ENDBRANCH   1   7
TORSDOF 1
ENDMDL
