MODEL 1
REMARK minimizedAffinity -3.45896506
REMARK minimizedRMSD -1
REMARK  1 active torsions:
REMARK  status: ('A' for Active; 'I' for Inactive)
REMARK    1  A    between atoms: C1_2  and  C2_3 
ROOT
ATOM      1  C2  UNL d   1      -1.834   0.117   1.861  0.00  0.00    -0.077 A 
ATOM      2  C3  UNL d   1      -2.973  -0.550   1.387  0.00  0.00     0.002 A 
ATOM      3  C4  UNL d   1      -4.202   0.110   1.321  0.00  0.00     0.002 A 
ATOM      4  C5  UNL d   1      -4.303   1.440   1.722  0.00  0.00    -0.004 A 
ATOM      5  C6  UNL d   1      -3.177   2.112   2.197  0.00  0.00     0.002 A 
ATOM      6  C7  UNL d   1      -1.948   1.453   2.265  0.00  0.00     0.002 A 
ENDROOT
BRANCH   1   7
ATOM      7  C1  UNL d   1      -0.498  -0.578   1.887  0.00  0.00     0.055 C 
ATOM      8  C   UNL d   1       0.286  -0.317   0.610  0.00  0.00     0.019 C 
ENDBRANCH   1   7
TORSDOF 1
ENDMDL
