MODEL 1
REMARK minimizedAffinity -4.77544594
REMARK minimizedRMSD -1
REMARK  1 active torsions:
REMARK  status: ('A' for Active; 'I' for Inactive)
REMARK    1  A    between atoms: C1_2  and  C2_3 
ROOT
ATOM      1  C2  UNL d   1      -1.228   0.014   0.478  0.00  0.00    -0.077 A 
ATOM      2  C3  UNL d   1      -1.153   0.304   1.848  0.00  0.00     0.002 A 
ATOM      3  C4  UNL d   1      -2.318   0.471   2.599  0.00  0.00     0.002 A 
ATOM      4  C5  UNL d   1      -3.565   0.345   1.991  0.00  0.00    -0.004 A 
ATOM      5  C6  UNL d   1      -3.650   0.058   0.629  0.00  0.00     0.002 A 
ATOM      6  C7  UNL d   1      -2.487  -0.108  -0.123  0.00  0.00     0.002 A 
ENDROOT
BRANCH   1   7
ATOM      7  C1  UNL d   1       0.027  -0.215  -0.323  0.00  0.00     0.055 C 
ATOM      8  C   UNL d   1       0.851   1.059  -0.438  0.00  0.00     0.019 C 
ENDBRANCH   1   7
TORSDOF 1
ENDMDL
