MODEL 1
REMARK minimizedAffinity -3.42993498
REMARK minimizedRMSD -1
REMARK  0 active torsions:
REMARK  status: ('A' for Active; 'I' for Inactive)
ROOT
ATOM      1  C   UNL d   1      -0.744   0.260  -1.023  0.00  0.00     0.172 C 
ATOM      2  N   UNL d   1       0.165   0.481  -2.123  0.00  0.00    -0.070 N 
ATOM      3  C1  UNL d   1      -0.014   1.381  -3.139  0.00  0.00    -0.004 A 
ATOM      4  C2  UNL d   1       1.071   1.286  -3.983  0.00  0.00    -0.047 A 
ATOM      5  C3  UNL d   1       1.932   0.293  -3.457  0.00  0.00    -0.047 A 
ATOM      6  C4  UNL d   1       1.346  -0.189  -2.306  0.00  0.00    -0.004 A 
ENDROOT
TORSDOF 0
ENDMDL
