MODEL 1
REMARK minimizedAffinity -2.7193203
REMARK minimizedRMSD -1
REMARK  0 active torsions:
REMARK  status: ('A' for Active; 'I' for Inactive)
ROOT
ATOM      1  C   UNL d   1      -3.079  -1.178   2.948  0.00  0.00     0.172 C 
ATOM      2  N   UNL d   1      -2.137  -0.387   2.192  0.00  0.00    -0.070 N 
ATOM      3  C1  UNL d   1      -1.206   0.467   2.721  0.00  0.00    -0.004 A 
ATOM      4  C2  UNL d   1      -0.505   1.027   1.676  0.00  0.00    -0.047 A 
ATOM      5  C3  UNL d   1      -1.033   0.493   0.477  0.00  0.00    -0.047 A 
ATOM      6  C4  UNL d   1      -2.042  -0.380   0.825  0.00  0.00    -0.004 A 
ENDROOT
TORSDOF 0
ENDMDL
