MODEL 1
REMARK minimizedAffinity -2.59747362
REMARK minimizedRMSD -1
REMARK  0 active torsions:
REMARK  status: ('A' for Active; 'I' for Inactive)
ROOT
ATOM      1  C   UNL d   1      -0.688   1.447   2.734  0.00  0.00     0.172 C 
ATOM      2  N   UNL d   1      -0.373   0.788   1.489  0.00  0.00    -0.070 N 
ATOM      3  C1  UNL d   1      -1.280   0.409   0.535  0.00  0.00    -0.004 A 
ATOM      4  C2  UNL d   1      -0.584  -0.184  -0.497  0.00  0.00    -0.047 A 
ATOM      5  C3  UNL d   1       0.788  -0.160  -0.151  0.00  0.00    -0.047 A 
ATOM      6  C4  UNL d   1       0.890   0.447   1.083  0.00  0.00    -0.004 A 
ENDROOT
TORSDOF 0
ENDMDL
