MODEL 1
REMARK minimizedAffinity -3.3978858
REMARK minimizedRMSD -1
REMARK  0 active torsions:
REMARK  status: ('A' for Active; 'I' for Inactive)
ROOT
ATOM      1  C   UNL d   1       0.034  -0.331  -1.090  0.00  0.00     0.172 C 
ATOM      2  N   UNL d   1      -0.469   0.208   0.152  0.00  0.00    -0.070 N 
ATOM      3  C1  UNL d   1      -1.786   0.255   0.526  0.00  0.00    -0.004 A 
ATOM      4  C2  UNL d   1      -1.850   0.839   1.773  0.00  0.00    -0.047 A 
ATOM      5  C3  UNL d   1      -0.526   1.154   2.161  0.00  0.00    -0.047 A 
ATOM      6  C4  UNL d   1       0.308   0.753   1.139  0.00  0.00    -0.004 A 
ENDROOT
TORSDOF 0
ENDMDL
