MODEL 1
REMARK minimizedAffinity -3.97443032
REMARK minimizedRMSD -1
REMARK  0 active torsions:
REMARK  status: ('A' for Active; 'I' for Inactive)
ROOT
ATOM      1  C   UNL d   1       0.573   0.139  -0.195  0.00  0.00     0.172 C 
ATOM      2  N   UNL d   1      -0.345   0.449   0.876  0.00  0.00    -0.070 N 
ATOM      3  C1  UNL d   1      -1.612  -0.051   1.010  0.00  0.00    -0.004 A 
ATOM      4  C2  UNL d   1      -2.158   0.485   2.157  0.00  0.00    -0.047 A 
ATOM      5  C3  UNL d   1      -1.184   1.336   2.731  0.00  0.00    -0.047 A 
ATOM      6  C4  UNL d   1      -0.071   1.295   1.918  0.00  0.00    -0.004 A 
ENDROOT
TORSDOF 0
ENDMDL
