MODEL 1
REMARK minimizedAffinity -3.27635002
REMARK minimizedRMSD -1
REMARK  0 active torsions:
REMARK  status: ('A' for Active; 'I' for Inactive)
ROOT
ATOM      1  C   UNL d   1       0.558  -0.029  -1.074  0.00  0.00     0.172 C 
ATOM      2  N   UNL d   1      -0.194   0.280   0.119  0.00  0.00    -0.070 N 
ATOM      3  C1  UNL d   1      -1.546   0.124   0.274  0.00  0.00    -0.004 A 
ATOM      4  C2  UNL d   1      -1.874   0.528   1.550  0.00  0.00    -0.047 A 
ATOM      5  C3  UNL d   1      -0.678   0.942   2.184  0.00  0.00    -0.047 A 
ATOM      6  C4  UNL d   1       0.346   0.778   1.276  0.00  0.00    -0.004 A 
ENDROOT
TORSDOF 0
ENDMDL
