MODEL 1
REMARK minimizedAffinity -0.390732616
REMARK minimizedRMSD -1
REMARK  0 active torsions:
REMARK  status: ('A' for Active; 'I' for Inactive)
ROOT
ATOM      1  C   UNL d   1       0.198  -0.296  -1.092  0.00  0.00     0.172 C 
ATOM      2  N   UNL d   1       0.629   0.310  -2.330  0.00  0.00    -0.070 N 
ATOM      3  C1  UNL d   1       0.096   0.065  -3.567  0.00  0.00    -0.004 A 
ATOM      4  C2  UNL d   1       0.780   0.835  -4.482  0.00  0.00    -0.047 A 
ATOM      5  C3  UNL d   1       1.760   1.567  -3.770  0.00  0.00    -0.047 A 
ATOM      6  C4  UNL d   1       1.645   1.223  -2.440  0.00  0.00    -0.004 A 
ENDROOT
TORSDOF 0
ENDMDL
