MODEL 1
REMARK minimizedAffinity -2.79499173
REMARK minimizedRMSD -1
REMARK  0 active torsions:
REMARK  status: ('A' for Active; 'I' for Inactive)
ROOT
ATOM      1  C   UNL d   1      -1.243   0.831  -5.512  0.00  0.00     0.172 C 
ATOM      2  N   UNL d   1      -0.167   0.795  -4.549  0.00  0.00    -0.070 N 
ATOM      3  C1  UNL d   1       0.740   1.796  -4.327  0.00  0.00    -0.004 A 
ATOM      4  C2  UNL d   1       1.598   1.376  -3.334  0.00  0.00    -0.047 A 
ATOM      5  C3  UNL d   1       1.194   0.075  -2.948  0.00  0.00    -0.047 A 
ATOM      6  C4  UNL d   1       0.099  -0.260  -3.716  0.00  0.00    -0.004 A 
ENDROOT
TORSDOF 0
ENDMDL
