MODEL 1
REMARK minimizedAffinity -4.60150576
REMARK minimizedRMSD -1
REMARK  2 active torsions:
REMARK  status: ('A' for Active; 'I' for Inactive)
REMARK    1  A    between atoms: C1_2  and  C2_3 
REMARK    2  A    between atoms: C2_3  and  C3_4 
ROOT
ATOM      1  C3  UNL d   1       0.153  -0.048  -0.016  0.00  0.00    -0.075 A 
ATOM      2  C4  UNL d   1      -0.762   0.981  -0.281  0.00  0.00     0.002 A 
ATOM      3  C5  UNL d   1      -1.109   1.894   0.716  0.00  0.00     0.002 A 
ATOM      4  C6  UNL d   1      -0.555   1.784   1.989  0.00  0.00    -0.004 A 
ATOM      5  C7  UNL d   1       0.342   0.755   2.268  0.00  0.00     0.002 A 
ATOM      6  C8  UNL d   1       0.695  -0.157   1.272  0.00  0.00     0.002 A 
ENDROOT
BRANCH   1   7
ATOM      7  C2  UNL d   1       0.555  -1.021  -1.098  0.00  0.00     0.056 C 
BRANCH   7   8
ATOM      8  C1  UNL d   1       0.360  -2.493  -0.718  0.00  0.00     0.007 C 
ATOM      9  C   UNL d   1      -0.555  -3.244  -1.676  0.00  0.00     0.009 C 
ENDBRANCH   7   8
ENDBRANCH   1   7
TORSDOF 2
ENDMDL
