MODEL 1
REMARK minimizedAffinity -2.30105805
REMARK minimizedRMSD -1
REMARK  2 active torsions:
REMARK  status: ('A' for Active; 'I' for Inactive)
REMARK    1  A    between atoms: C1_2  and  C2_3 
REMARK    2  A    between atoms: C2_3  and  C3_4 
ROOT
ATOM      1  C3  UNL d   1       0.910  -0.172   2.561  0.00  0.00    -0.075 A 
ATOM      2  C4  UNL d   1      -0.042   0.355   3.446  0.00  0.00     0.002 A 
ATOM      3  C5  UNL d   1      -0.796   1.474   3.091  0.00  0.00     0.002 A 
ATOM      4  C6  UNL d   1      -0.603   2.084   1.854  0.00  0.00    -0.004 A 
ATOM      5  C7  UNL d   1       0.351   1.579   0.973  0.00  0.00     0.002 A 
ATOM      6  C8  UNL d   1       1.105   0.457   1.324  0.00  0.00     0.002 A 
ENDROOT
BRANCH   1   7
ATOM      7  C2  UNL d   1       1.709  -1.400   2.928  0.00  0.00     0.056 C 
BRANCH   7   8
ATOM      8  C1  UNL d   1       1.912  -1.585   4.435  0.00  0.00     0.007 C 
ATOM      9  C   UNL d   1       3.375  -1.732   4.830  0.00  0.00     0.009 C 
ENDBRANCH   7   8
ENDBRANCH   1   7
TORSDOF 2
ENDMDL
