MODEL 1
REMARK minimizedAffinity -5.24947309
REMARK minimizedRMSD -1
REMARK  2 active torsions:
REMARK  status: ('A' for Active; 'I' for Inactive)
REMARK    1  A    between atoms: C1_2  and  C2_3 
REMARK    2  A    between atoms: C2_3  and  C3_4 
ROOT
ATOM      1  C3  UNL d   1       0.268  -0.162  -0.063  0.00  0.00    -0.075 A 
ATOM      2  C4  UNL d   1       0.822  -0.139   1.225  0.00  0.00     0.002 A 
ATOM      3  C5  UNL d   1       0.307   0.713   2.202  0.00  0.00     0.002 A 
ATOM      4  C6  UNL d   1      -0.759   1.558   1.903  0.00  0.00    -0.004 A 
ATOM      5  C7  UNL d   1      -1.307   1.556   0.622  0.00  0.00     0.002 A 
ATOM      6  C8  UNL d   1      -0.797   0.701  -0.357  0.00  0.00     0.002 A 
ENDROOT
BRANCH   1   7
ATOM      7  C2  UNL d   1       0.801  -1.102  -1.117  0.00  0.00     0.056 C 
BRANCH   7   8
ATOM      8  C1  UNL d   1       0.172  -2.499  -1.083  0.00  0.00     0.007 C 
ATOM      9  C   UNL d   1      -1.014  -2.647  -2.026  0.00  0.00     0.009 C 
ENDBRANCH   7   8
ENDBRANCH   1   7
TORSDOF 2
ENDMDL
