MODEL 1
REMARK minimizedAffinity -5.87105083
REMARK minimizedRMSD -1
REMARK  2 active torsions:
REMARK  status: ('A' for Active; 'I' for Inactive)
REMARK    1  A    between atoms: C1_2  and  C2_3 
REMARK    2  A    between atoms: C2_3  and  C3_4 
ROOT
ATOM      1  C3  UNL d   1       0.146  -0.292   0.204  0.00  0.00    -0.075 A 
ATOM      2  C4  UNL d   1       0.782   0.102   1.390  0.00  0.00     0.002 A 
ATOM      3  C5  UNL d   1       0.269   1.149   2.156  0.00  0.00     0.002 A 
ATOM      4  C6  UNL d   1      -0.879   1.822   1.741  0.00  0.00    -0.004 A 
ATOM      5  C7  UNL d   1      -1.510   1.450   0.556  0.00  0.00     0.002 A 
ATOM      6  C8  UNL d   1      -1.001   0.399  -0.210  0.00  0.00     0.002 A 
ENDROOT
BRANCH   1   7
ATOM      7  C2  UNL d   1       0.680  -1.444  -0.613  0.00  0.00     0.056 C 
BRANCH   7   8
ATOM      8  C1  UNL d   1      -0.408  -2.292  -1.281  0.00  0.00     0.007 C 
ATOM      9  C   UNL d   1      -0.001  -3.747  -1.475  0.00  0.00     0.009 C 
ENDBRANCH   7   8
ENDBRANCH   1   7
TORSDOF 2
ENDMDL
