MODEL 1
REMARK minimizedAffinity -4.4645834
REMARK minimizedRMSD -1
REMARK  2 active torsions:
REMARK  status: ('A' for Active; 'I' for Inactive)
REMARK    1  A    between atoms: C1_2  and  C2_3 
REMARK    2  A    between atoms: C2_3  and  C3_4 
ROOT
ATOM      1  C3  UNL d   1       0.187   0.045  -0.262  0.00  0.00    -0.075 A 
ATOM      2  C4  UNL d   1      -0.875   0.951  -0.403  0.00  0.00     0.002 A 
ATOM      3  C5  UNL d   1      -1.260   1.764   0.663  0.00  0.00     0.002 A 
ATOM      4  C6  UNL d   1      -0.596   1.676   1.885  0.00  0.00    -0.004 A 
ATOM      5  C7  UNL d   1       0.449   0.768   2.042  0.00  0.00     0.002 A 
ATOM      6  C8  UNL d   1       0.839  -0.043   0.975  0.00  0.00     0.002 A 
ENDROOT
BRANCH   1   7
ATOM      7  C2  UNL d   1       0.627  -0.816  -1.421  0.00  0.00     0.056 C 
BRANCH   7   8
ATOM      8  C1  UNL d   1       0.453  -2.320  -1.182  0.00  0.00     0.007 C 
ATOM      9  C   UNL d   1      -0.443  -2.992  -2.214  0.00  0.00     0.009 C 
ENDBRANCH   7   8
ENDBRANCH   1   7
TORSDOF 2
ENDMDL
