MODEL 1
REMARK minimizedAffinity -4.8405695
REMARK minimizedRMSD -1
REMARK  2 active torsions:
REMARK  status: ('A' for Active; 'I' for Inactive)
REMARK    1  A    between atoms: C1_2  and  C2_3 
REMARK    2  A    between atoms: C2_3  and  C3_4 
ROOT
ATOM      1  C3  UNL d   1       0.126   0.051  -0.241  0.00  0.00    -0.075 A 
ATOM      2  C4  UNL d   1       0.583   0.077   1.085  0.00  0.00     0.002 A 
ATOM      3  C5  UNL d   1       0.042   0.978   2.003  0.00  0.00     0.002 A 
ATOM      4  C6  UNL d   1      -0.952   1.870   1.606  0.00  0.00    -0.004 A 
ATOM      5  C7  UNL d   1      -1.401   1.864   0.287  0.00  0.00     0.002 A 
ATOM      6  C8  UNL d   1      -0.865   0.961  -0.632  0.00  0.00     0.002 A 
ENDROOT
BRANCH   1   7
ATOM      7  C2  UNL d   1       0.686  -0.941  -1.231  0.00  0.00     0.056 C 
BRANCH   7   8
ATOM      8  C1  UNL d   1       0.705  -2.387  -0.723  0.00  0.00     0.007 C 
ATOM      9  C   UNL d   1      -0.381  -3.256  -1.344  0.00  0.00     0.009 C 
ENDBRANCH   7   8
ENDBRANCH   1   7
TORSDOF 2
ENDMDL
