MODEL 1
REMARK minimizedAffinity 7.50856543
REMARK minimizedRMSD -1
REMARK  1 active torsions:
REMARK  status: ('A' for Active; 'I' for Inactive)
REMARK    1  A    between atoms: C3_4  and  O_7 
ROOT
ATOM      1  C   UNL d   1      -1.130  -0.445   1.649  0.00  0.00    -0.033 A 
ATOM      2  C1  UNL d   1      -0.921  -1.707   1.090  0.00  0.00     0.039 A 
ATOM      3  C2  UNL d   1      -1.902  -2.694   1.204  0.00  0.00    -0.080 A 
ATOM      4  C3  UNL d   1      -3.086  -2.406   1.877  0.00  0.00     0.150 A 
ATOM      5  C4  UNL d   1      -3.303  -1.149   2.433  0.00  0.00    -0.007 A 
ATOM      6  C5  UNL d   1      -2.321  -0.165   2.319  0.00  0.00     0.039 A 
ENDROOT
BRANCH   4   7
ATOM      7  O   UNL d   1      -4.071  -3.338   2.017  0.00  0.00    -0.526 OA
ATOM      8  H5  UNL d   1      -3.770  -4.167   1.608  0.00  0.00     0.418 HD
ENDBRANCH   4   7
TORSDOF 1
ENDMDL
