MODEL 1
REMARK minimizedAffinity 7.48655558
REMARK minimizedRMSD -1
REMARK  1 active torsions:
REMARK  status: ('A' for Active; 'I' for Inactive)
REMARK    1  A    between atoms: C3_4  and  O_7 
ROOT
ATOM      1  C   UNL d   1       3.869   6.000  -2.373  0.00  0.00    -0.033 A 
ATOM      2  C1  UNL d   1       2.494   5.999  -2.616  0.00  0.00     0.039 A 
ATOM      3  C2  UNL d   1       1.867   4.843  -3.085  0.00  0.00    -0.080 A 
ATOM      4  C3  UNL d   1       2.625   3.696  -3.305  0.00  0.00     0.150 A 
ATOM      5  C4  UNL d   1       3.994   3.689  -3.060  0.00  0.00    -0.007 A 
ATOM      6  C5  UNL d   1       4.619   4.844  -2.593  0.00  0.00     0.039 A 
ENDROOT
BRANCH   4   7
ATOM      7  O   UNL d   1       2.058   2.545  -3.766  0.00  0.00    -0.526 OA
ATOM      8  H5  UNL d   1       1.112   2.707  -3.917  0.00  0.00     0.418 HD
ENDBRANCH   4   7
TORSDOF 1
ENDMDL
