MODEL 1
REMARK minimizedAffinity 1.10826397
REMARK minimizedRMSD -1
REMARK  1 active torsions:
REMARK  status: ('A' for Active; 'I' for Inactive)
REMARK    1  A    between atoms: C3_4  and  O_7 
ROOT
ATOM      1  C   UNL d   1      -5.867  -4.847   6.000  0.00  0.00    -0.033 A 
ATOM      2  C1  UNL d   1      -5.993  -5.999   5.222  0.00  0.00     0.039 A 
ATOM      3  C2  UNL d   1      -5.562  -5.998   3.894  0.00  0.00    -0.080 A 
ATOM      4  C3  UNL d   1      -5.005  -4.840   3.357  0.00  0.00     0.150 A 
ATOM      5  C4  UNL d   1      -4.873  -3.690   4.128  0.00  0.00    -0.007 A 
ATOM      6  C5  UNL d   1      -5.305  -3.692   5.453  0.00  0.00     0.039 A 
ENDROOT
BRANCH   4   7
ATOM      7  O   UNL d   1      -4.574  -4.789   2.065  0.00  0.00    -0.526 OA
ATOM      8  H5  UNL d   1      -4.755  -5.647   1.646  0.00  0.00     0.418 HD
ENDBRANCH   4   7
TORSDOF 1
ENDMDL
