MODEL 1
REMARK minimizedAffinity 9.80330753
REMARK minimizedRMSD -1
REMARK  1 active torsions:
REMARK  status: ('A' for Active; 'I' for Inactive)
REMARK    1  A    between atoms: C3_4  and  O_7 
ROOT
ATOM      1  C   UNL d   1      -1.456  -0.857   1.048  0.00  0.00    -0.033 A 
ATOM      2  C1  UNL d   1      -2.674  -0.188   1.176  0.00  0.00     0.039 A 
ATOM      3  C2  UNL d   1      -3.032   0.388   2.396  0.00  0.00    -0.080 A 
ATOM      4  C3  UNL d   1      -2.163   0.288   3.479  0.00  0.00     0.150 A 
ATOM      5  C4  UNL d   1      -0.946  -0.374   3.358  0.00  0.00    -0.007 A 
ATOM      6  C5  UNL d   1      -0.591  -0.949   2.139  0.00  0.00     0.039 A 
ENDROOT
BRANCH   4   7
ATOM      7  O   UNL d   1      -2.471   0.830   4.692  0.00  0.00    -0.526 OA
ATOM      8  H5  UNL d   1      -3.354   1.231   4.635  0.00  0.00     0.418 HD
ENDBRANCH   4   7
TORSDOF 1
ENDMDL
