MODEL 1
REMARK minimizedAffinity 5.62770462
REMARK minimizedRMSD -1
REMARK  1 active torsions:
REMARK  status: ('A' for Active; 'I' for Inactive)
REMARK    1  A    between atoms: C3_4  and  O_7 
ROOT
ATOM      1  C   UNL d   1       4.502   3.405  -4.849  0.00  0.00    -0.033 A 
ATOM      2  C1  UNL d   1       3.688   3.386  -3.715  0.00  0.00     0.039 A 
ATOM      3  C2  UNL d   1       4.024   4.157  -2.600  0.00  0.00    -0.080 A 
ATOM      4  C3  UNL d   1       5.174   4.941  -2.632  0.00  0.00     0.150 A 
ATOM      5  C4  UNL d   1       5.987   4.967  -3.760  0.00  0.00    -0.007 A 
ATOM      6  C5  UNL d   1       5.651   4.196  -4.873  0.00  0.00     0.039 A 
ENDROOT
BRANCH   4   7
ATOM      7  O   UNL d   1       5.545   5.705  -1.566  0.00  0.00    -0.526 OA
ATOM      8  H5  UNL d   1       4.905   5.565  -0.849  0.00  0.00     0.418 HD
ENDBRANCH   4   7
TORSDOF 1
ENDMDL
