MODEL 1
REMARK minimizedAffinity 8.31628227
REMARK minimizedRMSD -1
REMARK  1 active torsions:
REMARK  status: ('A' for Active; 'I' for Inactive)
REMARK    1  A    between atoms: C3_4  and  O_7 
ROOT
ATOM      1  C   UNL d   1       5.665   4.969  -4.139  0.00  0.00    -0.033 A 
ATOM      2  C1  UNL d   1       5.513   4.778  -2.764  0.00  0.00     0.039 A 
ATOM      3  C2  UNL d   1       4.604   3.832  -2.285  0.00  0.00    -0.080 A 
ATOM      4  C3  UNL d   1       3.855   3.085  -3.190  0.00  0.00     0.150 A 
ATOM      5  C4  UNL d   1       4.004   3.268  -4.561  0.00  0.00    -0.007 A 
ATOM      6  C5  UNL d   1       4.911   4.213  -5.037  0.00  0.00     0.039 A 
ENDROOT
BRANCH   4   7
ATOM      7  O   UNL d   1       2.952   2.154  -2.770  0.00  0.00    -0.526 OA
ATOM      8  H5  UNL d   1       2.936   2.157  -1.798  0.00  0.00     0.418 HD
ENDBRANCH   4   7
TORSDOF 1
ENDMDL
