MODEL 1
REMARK minimizedAffinity 7.31696701
REMARK minimizedRMSD -1
REMARK  1 active torsions:
REMARK  status: ('A' for Active; 'I' for Inactive)
REMARK    1  A    between atoms: C3_4  and  O_7 
ROOT
ATOM      1  C   UNL d   1      -2.151  -0.914   1.804  0.00  0.00    -0.033 A 
ATOM      2  C1  UNL d   1      -3.298  -0.183   1.488  0.00  0.00     0.039 A 
ATOM      3  C2  UNL d   1      -3.704   0.870   2.310  0.00  0.00    -0.080 A 
ATOM      4  C3  UNL d   1      -2.955   1.183   3.441  0.00  0.00     0.150 A 
ATOM      5  C4  UNL d   1      -1.809   0.462   3.759  0.00  0.00    -0.007 A 
ATOM      6  C5  UNL d   1      -1.406  -0.591   2.938  0.00  0.00     0.039 A 
ENDROOT
BRANCH   4   7
ATOM      7  O   UNL d   1      -3.315   2.199   4.275  0.00  0.00    -0.526 OA
ATOM      8  H5  UNL d   1      -4.142   2.590   3.946  0.00  0.00     0.418 HD
ENDBRANCH   4   7
TORSDOF 1
ENDMDL
