MODEL 1
REMARK minimizedAffinity 5.23446941
REMARK minimizedRMSD -1
REMARK  1 active torsions:
REMARK  status: ('A' for Active; 'I' for Inactive)
REMARK    1  A    between atoms: C3_4  and  O_7 
ROOT
ATOM      1  C   UNL d   1      -1.522  -4.199  -2.392  0.00  0.00    -0.033 A 
ATOM      2  C1  UNL d   1      -0.390  -3.773  -3.089  0.00  0.00     0.039 A 
ATOM      3  C2  UNL d   1      -0.053  -4.367  -4.307  0.00  0.00    -0.080 A 
ATOM      4  C3  UNL d   1      -0.855  -5.385  -4.815  0.00  0.00     0.150 A 
ATOM      5  C4  UNL d   1      -1.986  -5.812  -4.128  0.00  0.00    -0.007 A 
ATOM      6  C5  UNL d   1      -2.321  -5.218  -2.912  0.00  0.00     0.039 A 
ENDROOT
BRANCH   4   7
ATOM      7  O   UNL d   1      -0.564  -5.998  -5.997  0.00  0.00    -0.526 OA
ATOM      8  H5  UNL d   1       0.261  -5.620  -6.346  0.00  0.00     0.418 HD
ENDBRANCH   4   7
TORSDOF 1
ENDMDL
