MODEL 1
REMARK minimizedAffinity 4.11621952
REMARK minimizedRMSD -1
REMARK  1 active torsions:
REMARK  status: ('A' for Active; 'I' for Inactive)
REMARK    1  A    between atoms: C3_4  and  O_7 
ROOT
ATOM      1  C   UNL d   1      -5.997   1.362   1.583  0.00  0.00    -0.033 A 
ATOM      2  C1  UNL d   1      -5.999   2.353   0.599  0.00  0.00     0.039 A 
ATOM      3  C2  UNL d   1      -5.999   1.999  -0.751  0.00  0.00    -0.080 A 
ATOM      4  C3  UNL d   1      -5.998   0.652  -1.104  0.00  0.00     0.150 A 
ATOM      5  C4  UNL d   1      -6.000  -0.341  -0.130  0.00  0.00    -0.007 A 
ATOM      6  C5  UNL d   1      -5.999   0.015   1.218  0.00  0.00     0.039 A 
ENDROOT
BRANCH   4   7
ATOM      7  O   UNL d   1      -5.993   0.258  -2.409  0.00  0.00    -0.526 OA
ATOM      8  H5  UNL d   1      -5.962   1.051  -2.970  0.00  0.00     0.418 HD
ENDBRANCH   4   7
TORSDOF 1
ENDMDL
