MODEL 1
REMARK minimizedAffinity 3.28108072
REMARK minimizedRMSD -1
REMARK  1 active torsions:
REMARK  status: ('A' for Active; 'I' for Inactive)
REMARK    1  A    between atoms: C3_4  and  O_7 
ROOT
ATOM      1  C   UNL d   1       1.846   1.559  -1.440  0.00  0.00    -0.033 A 
ATOM      2  C1  UNL d   1       1.364   1.404  -0.138  0.00  0.00     0.039 A 
ATOM      3  C2  UNL d   1       2.183   1.705   0.952  0.00  0.00    -0.080 A 
ATOM      4  C3  UNL d   1       3.479   2.160   0.728  0.00  0.00     0.150 A 
ATOM      5  C4  UNL d   1       3.965   2.320  -0.566  0.00  0.00    -0.007 A 
ATOM      6  C5  UNL d   1       3.146   2.018  -1.653  0.00  0.00     0.039 A 
ENDROOT
BRANCH   4   7
ATOM      7  O   UNL d   1       4.317   2.462   1.760  0.00  0.00    -0.526 OA
ATOM      8  H5  UNL d   1       3.856   2.276   2.595  0.00  0.00     0.418 HD
ENDBRANCH   4   7
TORSDOF 1
ENDMDL
