MODEL 1
REMARK minimizedAffinity 7.2578721
REMARK minimizedRMSD -1
REMARK  1 active torsions:
REMARK  status: ('A' for Active; 'I' for Inactive)
REMARK    1  A    between atoms: C3_4  and  O_7 
ROOT
ATOM      1  C   UNL d   1      -2.027  -6.000  -5.993  0.00  0.00    -0.033 A 
ATOM      2  C1  UNL d   1      -0.763  -5.407  -5.999  0.00  0.00     0.039 A 
ATOM      3  C2  UNL d   1      -0.433  -4.453  -5.034  0.00  0.00    -0.080 A 
ATOM      4  C3  UNL d   1      -1.375  -4.102  -4.070  0.00  0.00     0.150 A 
ATOM      5  C4  UNL d   1      -2.634  -4.692  -4.056  0.00  0.00    -0.007 A 
ATOM      6  C5  UNL d   1      -2.962  -5.644  -5.021  0.00  0.00     0.039 A 
ENDROOT
BRANCH   4   7
ATOM      7  O   UNL d   1      -1.101  -3.173  -3.111  0.00  0.00    -0.526 OA
ATOM      8  H5  UNL d   1      -0.204  -2.830  -3.262  0.00  0.00     0.418 HD
ENDBRANCH   4   7
TORSDOF 1
ENDMDL
