MODEL 1
REMARK minimizedAffinity 1.2667253
REMARK minimizedRMSD -1
REMARK  1 active torsions:
REMARK  status: ('A' for Active; 'I' for Inactive)
REMARK    1  A    between atoms: C3_4  and  O_7 
ROOT
ATOM      1  C   UNL d   1      -5.999  -6.000   1.889  0.00  0.00    -0.033 A 
ATOM      2  C1  UNL d   1      -5.712  -5.227   3.015  0.00  0.00     0.039 A 
ATOM      3  C2  UNL d   1      -5.023  -4.020   2.879  0.00  0.00    -0.080 A 
ATOM      4  C3  UNL d   1      -4.628  -3.598   1.613  0.00  0.00     0.150 A 
ATOM      5  C4  UNL d   1      -4.914  -4.361   0.486  0.00  0.00    -0.007 A 
ATOM      6  C5  UNL d   1      -5.601  -5.566   0.624  0.00  0.00     0.039 A 
ENDROOT
BRANCH   4   7
ATOM      7  O   UNL d   1      -3.949  -2.430   1.430  0.00  0.00    -0.526 OA
ATOM      8  H5  UNL d   1      -3.798  -2.023   2.300  0.00  0.00     0.418 HD
ENDBRANCH   4   7
TORSDOF 1
ENDMDL
