MODEL 1
REMARK minimizedAffinity 0.206732959
REMARK minimizedRMSD -1
REMARK  1 active torsions:
REMARK  status: ('A' for Active; 'I' for Inactive)
REMARK    1  A    between atoms: C3_4  and  O_7 
ROOT
ATOM      1  C   UNL d   1       1.242  -1.938   0.845  0.00  0.00    -0.033 A 
ATOM      2  C1  UNL d   1       2.507  -1.389   0.629  0.00  0.00     0.039 A 
ATOM      3  C2  UNL d   1       3.559  -2.201   0.201  0.00  0.00    -0.080 A 
ATOM      4  C3  UNL d   1       3.332  -3.559  -0.007  0.00  0.00     0.150 A 
ATOM      5  C4  UNL d   1       2.073  -4.112   0.203  0.00  0.00    -0.007 A 
ATOM      6  C5  UNL d   1       1.025  -3.299   0.631  0.00  0.00     0.039 A 
ENDROOT
BRANCH   4   7
ATOM      7  O   UNL d   1       4.329  -4.393  -0.419  0.00  0.00    -0.526 OA
ATOM      8  H5  UNL d   1       5.150  -3.878  -0.495  0.00  0.00     0.418 HD
ENDBRANCH   4   7
TORSDOF 1
ENDMDL
