MODEL 1
REMARK minimizedAffinity 0.556565642
REMARK minimizedRMSD -1
REMARK  1 active torsions:
REMARK  status: ('A' for Active; 'I' for Inactive)
REMARK    1  A    between atoms: C3_4  and  O_7 
ROOT
ATOM      1  C   UNL d   1       1.079  -2.730   0.539  0.00  0.00    -0.033 A 
ATOM      2  C1  UNL d   1       2.335  -2.123   0.567  0.00  0.00     0.039 A 
ATOM      3  C2  UNL d   1       3.487  -2.887   0.369  0.00  0.00    -0.080 A 
ATOM      4  C3  UNL d   1       3.368  -4.256   0.144  0.00  0.00     0.150 A 
ATOM      5  C4  UNL d   1       2.119  -4.867   0.111  0.00  0.00    -0.007 A 
ATOM      6  C5  UNL d   1       0.970  -4.102   0.310  0.00  0.00     0.039 A 
ENDROOT
BRANCH   4   7
ATOM      7  O   UNL d   1       4.463  -5.044  -0.050  0.00  0.00    -0.526 OA
ATOM      8  H5  UNL d   1       5.258  -4.490   0.028  0.00  0.00     0.418 HD
ENDBRANCH   4   7
TORSDOF 1
ENDMDL
