MODEL 1
REMARK minimizedAffinity -3.77524042
REMARK minimizedRMSD -1
REMARK  1 active torsions:
REMARK  status: ('A' for Active; 'I' for Inactive)
REMARK    1  A    between atoms: C3_4  and  O_7 
ROOT
ATOM      1  C   UNL d   1      -5.624  -4.391   5.957  0.00  0.00    -0.033 A 
ATOM      2  C1  UNL d   1      -5.726  -5.706   5.501  0.00  0.00     0.039 A 
ATOM      3  C2  UNL d   1      -5.499  -6.000   4.155  0.00  0.00    -0.080 A 
ATOM      4  C3  UNL d   1      -5.170  -4.970   3.277  0.00  0.00     0.150 A 
ATOM      5  C4  UNL d   1      -5.064  -3.658   3.726  0.00  0.00    -0.007 A 
ATOM      6  C5  UNL d   1      -5.292  -3.367   5.070  0.00  0.00     0.039 A 
ENDROOT
BRANCH   4   7
ATOM      7  O   UNL d   1      -4.945  -5.207   1.954  0.00  0.00    -0.526 OA
ATOM      8  H5  UNL d   1      -5.082  -6.154   1.783  0.00  0.00     0.418 HD
ENDBRANCH   4   7
TORSDOF 1
ENDMDL
