MODEL 1
REMARK minimizedAffinity -5.39575195
REMARK minimizedRMSD -1
REMARK  0 active torsions:
REMARK  status: ('A' for Active; 'I' for Inactive)
ROOT
ATOM      1  C4' PXY d   1       0.592  -0.073  -2.061  0.00  0.00     0.077 C 
ATOM      2  C1' PXY d   1      -1.483  -0.772   3.289  0.00  0.00     0.077 C 
ATOM      3  C1  PXY d   1      -0.951  -0.587   1.882  0.00  0.00    -0.082 A 
ATOM      4  C2  PXY d   1       0.235  -1.080   1.561  0.00  0.00     0.003 A 
ATOM      5  C3  PXY d   1       0.745  -0.894   0.302  0.00  0.00     0.003 A 
ATOM      6  C4  PXY d   1       0.011  -0.244  -0.654  0.00  0.00    -0.082 A 
ATOM      7  C5  PXY d   1      -1.203   0.252  -0.337  0.00  0.00     0.003 A 
ATOM      8  C6  PXY d   1      -1.686   0.089   0.958  0.00  0.00     0.003 A 
ENDROOT
TORSDOF 0
ENDMDL
