MODEL 1
REMARK minimizedAffinity -5.53564453
REMARK minimizedRMSD -1
REMARK  0 active torsions:
REMARK  status: ('A' for Active; 'I' for Inactive)
ROOT
ATOM      1  C4' PXY d   1      -0.005   1.497  -1.486  0.00  0.00     0.077 C 
ATOM      2  C1' PXY d   1      -0.715  -1.217   3.568  0.00  0.00     0.077 C 
ATOM      3  C1  PXY d   1      -0.539  -0.512   2.238  0.00  0.00    -0.082 A 
ATOM      4  C2  PXY d   1       0.640  -0.004   1.918  0.00  0.00     0.003 A 
ATOM      5  C3  PXY d   1       0.809   0.665   0.733  0.00  0.00     0.003 A 
ATOM      6  C4  PXY d   1      -0.226   0.768  -0.158  0.00  0.00    -0.082 A 
ATOM      7  C5  PXY d   1      -1.429   0.244   0.157  0.00  0.00     0.003 A 
ATOM      8  C6  PXY d   1      -1.591  -0.395   1.383  0.00  0.00     0.003 A 
ENDROOT
TORSDOF 0
ENDMDL
