MODEL 1
REMARK minimizedAffinity -4.99045181
REMARK minimizedRMSD -1
REMARK  0 active torsions:
REMARK  status: ('A' for Active; 'I' for Inactive)
ROOT
ATOM      1  C4' PXY d   1       0.409   0.539  -1.918  0.00  0.00     0.077 C 
ATOM      2  C1' PXY d   1      -1.552  -0.457   3.428  0.00  0.00     0.077 C 
ATOM      3  C1  PXY d   1      -1.027  -0.189   2.031  0.00  0.00    -0.082 A 
ATOM      4  C2  PXY d   1      -1.866  -0.180   1.008  0.00  0.00     0.003 A 
ATOM      5  C3  PXY d   1      -1.404   0.028  -0.266  0.00  0.00     0.003 A 
ATOM      6  C4  PXY d   1      -0.078   0.283  -0.489  0.00  0.00    -0.082 A 
ATOM      7  C5  PXY d   1       0.783   0.286   0.551  0.00  0.00     0.003 A 
ATOM      8  C6  PXY d   1       0.300   0.031   1.831  0.00  0.00     0.003 A 
ENDROOT
TORSDOF 0
ENDMDL
