MODEL 1
REMARK minimizedAffinity -5.0787077
REMARK minimizedRMSD -1
REMARK  0 active torsions:
REMARK  status: ('A' for Active; 'I' for Inactive)
ROOT
ATOM      1  C4' PXY d   1       0.051   0.998  -1.739  0.00  0.00     0.077 C 
ATOM      2  C1' PXY d   1      -1.083  -0.668   3.678  0.00  0.00     0.077 C 
ATOM      3  C1  PXY d   1      -0.775  -0.224   2.262  0.00  0.00    -0.082 A 
ATOM      4  C2  PXY d   1      -1.743  -0.198   1.360  0.00  0.00     0.003 A 
ATOM      5  C3  PXY d   1      -1.475   0.170   0.066  0.00  0.00     0.003 A 
ATOM      6  C4  PXY d   1      -0.216   0.566  -0.295  0.00  0.00    -0.082 A 
ATOM      7  C5  PXY d   1       0.775   0.552   0.622  0.00  0.00     0.003 A 
ATOM      8  C6  PXY d   1       0.491   0.136   1.920  0.00  0.00     0.003 A 
ENDROOT
TORSDOF 0
ENDMDL
