MODEL 1
REMARK minimizedAffinity -1.89661932
REMARK minimizedRMSD -1
REMARK  0 active torsions:
REMARK  status: ('A' for Active; 'I' for Inactive)
ROOT
ATOM      1  C4' PXY d   1      -0.166   0.386  -1.768  0.00  0.00     0.077 C 
ATOM      2  C1' PXY d   1      -0.816  -0.730   3.866  0.00  0.00     0.077 C 
ATOM      3  C1  PXY d   1      -0.653  -0.447   2.386  0.00  0.00    -0.082 A 
ATOM      4  C2  PXY d   1       0.431   0.176   1.954  0.00  0.00     0.003 A 
ATOM      5  C3  PXY d   1       0.579   0.468   0.622  0.00  0.00     0.003 A 
ATOM      6  C4  PXY d   1      -0.368   0.071  -0.284  0.00  0.00    -0.082 A 
ATOM      7  C5  PXY d   1      -1.472  -0.575   0.148  0.00  0.00     0.003 A 
ATOM      8  C6  PXY d   1      -1.623  -0.825   1.509  0.00  0.00     0.003 A 
ENDROOT
TORSDOF 0
ENDMDL
