MODEL 1
REMARK minimizedAffinity -6.40263033
REMARK minimizedRMSD -1
REMARK  0 active torsions:
REMARK  status: ('A' for Active; 'I' for Inactive)
ROOT
ATOM      1  C4' PXY d   1      -0.009   0.680  -1.634  0.00  0.00     0.077 C 
ATOM      2  C1' PXY d   1      -1.959  -0.400   3.700  0.00  0.00     0.077 C 
ATOM      3  C1  PXY d   1      -1.436  -0.112   2.306  0.00  0.00    -0.082 A 
ATOM      4  C2  PXY d   1      -2.291   0.092   1.316  0.00  0.00     0.003 A 
ATOM      5  C3  PXY d   1      -1.835   0.322   0.044  0.00  0.00     0.003 A 
ATOM      6  C4  PXY d   1      -0.492   0.396  -0.209  0.00  0.00    -0.082 A 
ATOM      7  C5  PXY d   1       0.386   0.199   0.797  0.00  0.00     0.003 A 
ATOM      8  C6  PXY d   1      -0.096  -0.074   2.074  0.00  0.00     0.003 A 
ENDROOT
TORSDOF 0
ENDMDL
