MODEL 1
REMARK minimizedAffinity -5.64885902
REMARK minimizedRMSD -1
REMARK  0 active torsions:
REMARK  status: ('A' for Active; 'I' for Inactive)
ROOT
ATOM      1  C4' PXY d   1       0.180   1.021  -2.013  0.00  0.00     0.077 C 
ATOM      2  C1' PXY d   1      -1.089  -0.577   3.396  0.00  0.00     0.077 C 
ATOM      3  C1  PXY d   1      -0.766  -0.165   1.973  0.00  0.00    -0.082 A 
ATOM      4  C2  PXY d   1       0.475   0.164   1.652  0.00  0.00     0.003 A 
ATOM      5  C3  PXY d   1       0.777   0.571   0.378  0.00  0.00     0.003 A 
ATOM      6  C4  PXY d   1      -0.189   0.589  -0.591  0.00  0.00    -0.082 A 
ATOM      7  C5  PXY d   1      -1.456   0.245  -0.275  0.00  0.00     0.003 A 
ATOM      8  C6  PXY d   1      -1.751  -0.125   1.034  0.00  0.00     0.003 A 
ENDROOT
TORSDOF 0
ENDMDL
