MODEL 1
REMARK minimizedAffinity -5.14162159
REMARK minimizedRMSD -1
REMARK  0 active torsions:
REMARK  status: ('A' for Active; 'I' for Inactive)
ROOT
ATOM      1  C4' PXY d   1       2.625   0.809   1.706  0.00  0.00     0.077 C 
ATOM      2  C1' PXY d   1      -3.025  -0.312   1.222  0.00  0.00     0.077 C 
ATOM      3  C1  PXY d   1      -1.541  -0.023   1.337  0.00  0.00    -0.082 A 
ATOM      4  C2  PXY d   1      -0.983   0.067   2.533  0.00  0.00     0.003 A 
ATOM      5  C3  PXY d   1       0.351   0.360   2.656  0.00  0.00     0.003 A 
ATOM      6  C4  PXY d   1       1.133   0.509   1.542  0.00  0.00    -0.082 A 
ATOM      7  C5  PXY d   1       0.573   0.408   0.318  0.00  0.00     0.003 A 
ATOM      8  C6  PXY d   1      -0.791   0.151   0.215  0.00  0.00     0.003 A 
ENDROOT
TORSDOF 0
ENDMDL
