MODEL 1
REMARK minimizedAffinity -4.84490871
REMARK minimizedRMSD -1
REMARK  0 active torsions:
REMARK  status: ('A' for Active; 'I' for Inactive)
ROOT
ATOM      1  C4' PXY d   1       0.177   0.749  -1.574  0.00  0.00     0.077 C 
ATOM      2  C1' PXY d   1      -1.419  -0.695   3.791  0.00  0.00     0.077 C 
ATOM      3  C1  PXY d   1      -0.991  -0.309   2.389  0.00  0.00    -0.082 A 
ATOM      4  C2  PXY d   1      -1.874  -0.337   1.404  0.00  0.00     0.003 A 
ATOM      5  C3  PXY d   1      -1.496  -0.022   0.124  0.00  0.00     0.003 A 
ATOM      6  C4  PXY d   1      -0.213   0.377  -0.141  0.00  0.00    -0.082 A 
ATOM      7  C5  PXY d   1       0.691   0.418   0.860  0.00  0.00     0.003 A 
ATOM      8  C6  PXY d   1       0.298   0.055   2.145  0.00  0.00     0.003 A 
ENDROOT
TORSDOF 0
ENDMDL
