MODEL 1
REMARK minimizedAffinity -5.08483171
REMARK minimizedRMSD -1
REMARK  0 active torsions:
REMARK  status: ('A' for Active; 'I' for Inactive)
ROOT
ATOM      1  C4' PXY d   1      -0.448   0.725  -1.537  0.00  0.00     0.077 C 
ATOM      2  C1' PXY d   1      -1.378  -0.725   3.980  0.00  0.00     0.077 C 
ATOM      3  C1  PXY d   1      -1.124  -0.337   2.537  0.00  0.00    -0.082 A 
ATOM      4  C2  PXY d   1      -2.108  -0.414   1.656  0.00  0.00     0.003 A 
ATOM      5  C3  PXY d   1      -1.888  -0.098   0.340  0.00  0.00     0.003 A 
ATOM      6  C4  PXY d   1      -0.661   0.353  -0.067  0.00  0.00    -0.082 A 
ATOM      7  C5  PXY d   1       0.345   0.445   0.828  0.00  0.00     0.003 A 
ATOM      8  C6  PXY d   1       0.112   0.080   2.150  0.00  0.00     0.003 A 
ENDROOT
TORSDOF 0
ENDMDL
