MODEL 1
REMARK minimizedAffinity -4.70775032
REMARK minimizedRMSD -1
REMARK  0 active torsions:
REMARK  status: ('A' for Active; 'I' for Inactive)
ROOT
ATOM      1  C4' PXY d   1       0.354   0.057  -2.424  0.00  0.00     0.077 C 
ATOM      2  C1' PXY d   1       0.023   0.281   3.343  0.00  0.00     0.077 C 
ATOM      3  C1  PXY d   1       0.116   0.233   1.831  0.00  0.00    -0.082 A 
ATOM      4  C2  PXY d   1      -0.758  -0.483   1.144  0.00  0.00     0.003 A 
ATOM      5  C3  PXY d   1      -0.669  -0.563  -0.222  0.00  0.00     0.003 A 
ATOM      6  C4  PXY d   1       0.293   0.141  -0.896  0.00  0.00    -0.082 A 
ATOM      7  C5  PXY d   1       1.182   0.883  -0.203  0.00  0.00     0.003 A 
ATOM      8  C6  PXY d   1       1.100   0.918   1.186  0.00  0.00     0.003 A 
ENDROOT
TORSDOF 0
ENDMDL
