MODEL 1
REMARK minimizedAffinity 2.61401939
REMARK minimizedRMSD -1
REMARK  0 active torsions:
REMARK  status: ('A' for Active; 'I' for Inactive)
ROOT
ATOM      1  C4' PXY d   1       0.465   0.323   3.439  0.00  0.00     0.077 C 
ATOM      2  C1' PXY d   1       0.652   0.597  -2.332  0.00  0.00     0.077 C 
ATOM      3  C1  PXY d   1       0.616   0.529  -0.818  0.00  0.00    -0.082 A 
ATOM      4  C2  PXY d   1      -0.246  -0.277  -0.220  0.00  0.00     0.003 A 
ATOM      5  C3  PXY d   1      -0.315  -0.327   1.148  0.00  0.00     0.003 A 
ATOM      6  C4  PXY d   1       0.544   0.416   1.912  0.00  0.00    -0.082 A 
ATOM      7  C5  PXY d   1       1.433   1.234   1.310  0.00  0.00     0.003 A 
ATOM      8  C6  PXY d   1       1.459   1.301  -0.080  0.00  0.00     0.003 A 
ENDROOT
TORSDOF 0
ENDMDL
