MODEL 1
REMARK minimizedAffinity -3.77173829
REMARK minimizedRMSD -1
REMARK  0 active torsions:
REMARK  status: ('A' for Active; 'I' for Inactive)
ROOT
ATOM      1  C4' PXY d   1      -3.389   0.155   0.331  0.00  0.00     0.077 C 
ATOM      2  C1' PXY d   1       2.138   0.852   1.874  0.00  0.00     0.077 C 
ATOM      3  C1  PXY d   1       0.691   0.674   1.457  0.00  0.00    -0.082 A 
ATOM      4  C2  PXY d   1      -0.251   0.594   2.383  0.00  0.00     0.003 A 
ATOM      5  C3  PXY d   1      -1.561   0.402   2.025  0.00  0.00     0.003 A 
ATOM      6  C4  PXY d   1      -1.917   0.343   0.705  0.00  0.00    -0.082 A 
ATOM      7  C5  PXY d   1      -0.963   0.435  -0.246  0.00  0.00     0.003 A 
ATOM      8  C6  PXY d   1       0.366   0.589   0.139  0.00  0.00     0.003 A 
ENDROOT
TORSDOF 0
ENDMDL
