MODEL 1
REMARK minimizedAffinity -4.82094955
REMARK minimizedRMSD -1
REMARK  0 active torsions:
REMARK  status: ('A' for Active; 'I' for Inactive)
ROOT
ATOM      1  C4' PXY d   1       2.941   1.817   0.837  0.00  0.00     0.077 C 
ATOM      2  C1' PXY d   1      -2.315  -0.587   0.968  0.00  0.00     0.077 C 
ATOM      3  C1  PXY d   1      -0.935   0.040   0.921  0.00  0.00    -0.082 A 
ATOM      4  C2  PXY d   1      -0.252   0.201   2.042  0.00  0.00     0.003 A 
ATOM      5  C3  PXY d   1       0.984   0.795   2.022  0.00  0.00     0.003 A 
ATOM      6  C4  PXY d   1       1.548   1.180   0.835  0.00  0.00    -0.082 A 
ATOM      7  C5  PXY d   1       0.861   1.010  -0.314  0.00  0.00     0.003 A 
ATOM      8  C6  PXY d   1      -0.409   0.442  -0.268  0.00  0.00     0.003 A 
ENDROOT
TORSDOF 0
ENDMDL
