MODEL 1
REMARK minimizedAffinity -5.66886711
REMARK minimizedRMSD -1
REMARK  0 active torsions:
REMARK  status: ('A' for Active; 'I' for Inactive)
ROOT
ATOM      1  C4' PXY d   1       0.459   0.863  -2.481  0.00  0.00     0.077 C 
ATOM      2  C1' PXY d   1       0.553  -0.028   3.230  0.00  0.00     0.077 C 
ATOM      3  C1  PXY d   1       0.535   0.217   1.734  0.00  0.00    -0.082 A 
ATOM      4  C2  PXY d   1      -0.422  -0.321   0.994  0.00  0.00     0.003 A 
ATOM      5  C3  PXY d   1      -0.434  -0.136  -0.365  0.00  0.00     0.003 A 
ATOM      6  C4  PXY d   1       0.511   0.651  -0.966  0.00  0.00    -0.082 A 
ATOM      7  C5  PXY d   1       1.484   1.211  -0.217  0.00  0.00     0.003 A 
ATOM      8  C6  PXY d   1       1.503   0.978   1.155  0.00  0.00     0.003 A 
ENDROOT
TORSDOF 0
ENDMDL
