MODEL 1
REMARK minimizedAffinity -4.23784971
REMARK minimizedRMSD -1
REMARK  0 active torsions:
REMARK  status: ('A' for Active; 'I' for Inactive)
ROOT
ATOM      1  C4' PXY d   1      -0.763  -0.018   3.672  0.00  0.00     0.077 C 
ATOM      2  C1' PXY d   1       0.334   0.575  -1.973  0.00  0.00     0.077 C 
ATOM      3  C1  PXY d   1       0.059   0.417  -0.490  0.00  0.00    -0.082 A 
ATOM      4  C2  PXY d   1      -1.169   0.145  -0.078  0.00  0.00     0.003 A 
ATOM      5  C3  PXY d   1      -1.441   0.030   1.260  0.00  0.00     0.003 A 
ATOM      6  C4  PXY d   1      -0.437   0.141   2.184  0.00  0.00    -0.082 A 
ATOM      7  C5  PXY d   1       0.820   0.407   1.771  0.00  0.00     0.003 A 
ATOM      8  C6  PXY d   1       1.069   0.562   0.410  0.00  0.00     0.003 A 
ENDROOT
TORSDOF 0
ENDMDL
