MODEL 1
REMARK minimizedAffinity -3.63439202
REMARK minimizedRMSD -1
REMARK  0 active torsions:
REMARK  status: ('A' for Active; 'I' for Inactive)
ROOT
ATOM      1  C4' PXY d   1      -3.859   1.315   1.143  0.00  0.00     0.077 C 
ATOM      2  C1' PXY d   1       1.688  -0.178   1.788  0.00  0.00     0.077 C 
ATOM      3  C1  PXY d   1       0.230   0.205   1.627  0.00  0.00    -0.082 A 
ATOM      4  C2  PXY d   1      -0.172   0.797   0.515  0.00  0.00     0.003 A 
ATOM      5  C3  PXY d   1      -1.481   1.179   0.366  0.00  0.00     0.003 A 
ATOM      6  C4  PXY d   1      -2.398   0.903   1.344  0.00  0.00    -0.082 A 
ATOM      7  C5  PXY d   1      -1.998   0.289   2.478  0.00  0.00     0.003 A 
ATOM      8  C6  PXY d   1      -0.657  -0.053   2.627  0.00  0.00     0.003 A 
ENDROOT
TORSDOF 0
ENDMDL
