MODEL 1
REMARK minimizedAffinity -4.36113644
REMARK minimizedRMSD -1
REMARK  0 active torsions:
REMARK  status: ('A' for Active; 'I' for Inactive)
ROOT
ATOM      1  C4' PXY d   1       0.089   1.160  -1.903  0.00  0.00     0.077 C 
ATOM      2  C1' PXY d   1      -0.813  -0.896   3.424  0.00  0.00     0.077 C 
ATOM      3  C1  PXY d   1      -0.567  -0.349   2.031  0.00  0.00    -0.082 A 
ATOM      4  C2  PXY d   1      -1.543  -0.368   1.139  0.00  0.00     0.003 A 
ATOM      5  C3  PXY d   1      -1.328   0.093  -0.134  0.00  0.00     0.003 A 
ATOM      6  C4  PXY d   1      -0.117   0.627  -0.482  0.00  0.00    -0.082 A 
ATOM      7  C5  PXY d   1       0.881   0.660   0.426  0.00  0.00     0.003 A 
ATOM      8  C6  PXY d   1       0.655   0.150   1.701  0.00  0.00     0.003 A 
ENDROOT
TORSDOF 0
ENDMDL
