MODEL 1
REMARK minimizedAffinity -3.29678774
REMARK minimizedRMSD -1
REMARK  0 active torsions:
REMARK  status: ('A' for Active; 'I' for Inactive)
ROOT
ATOM      1  C4' PXY d   1       0.019   0.314   3.039  0.00  0.00     0.077 C 
ATOM      2  C1' PXY d   1       0.915   0.276  -2.671  0.00  0.00     0.077 C 
ATOM      3  C1  PXY d   1       0.667   0.288  -1.176  0.00  0.00    -0.082 A 
ATOM      4  C2  PXY d   1       1.649   0.620  -0.353  0.00  0.00     0.003 A 
ATOM      5  C3  PXY d   1       1.451   0.605   1.004  0.00  0.00     0.003 A 
ATOM      6  C4  PXY d   1       0.221   0.297   1.522  0.00  0.00    -0.082 A 
ATOM      7  C5  PXY d   1      -0.788  -0.033   0.688  0.00  0.00     0.003 A 
ATOM      8  C6  PXY d   1      -0.555  -0.051  -0.684  0.00  0.00     0.003 A 
ENDROOT
TORSDOF 0
ENDMDL
