MODEL 1
REMARK minimizedAffinity -4.91783142
REMARK minimizedRMSD -1
REMARK  0 active torsions:
REMARK  status: ('A' for Active; 'I' for Inactive)
ROOT
ATOM      1  C4' PXY d   1      -1.087  -0.483   3.648  0.00  0.00     0.077 C 
ATOM      2  C1' PXY d   1       1.016   0.847  -1.570  0.00  0.00     0.077 C 
ATOM      3  C1  PXY d   1       0.477   0.495  -0.198  0.00  0.00    -0.082 A 
ATOM      4  C2  PXY d   1      -0.786   0.121  -0.067  0.00  0.00     0.003 A 
ATOM      5  C3  PXY d   1      -1.299  -0.169   1.171  0.00  0.00     0.003 A 
ATOM      6  C4  PXY d   1      -0.497  -0.128   2.280  0.00  0.00    -0.082 A 
ATOM      7  C5  PXY d   1       0.795   0.243   2.154  0.00  0.00     0.003 A 
ATOM      8  C6  PXY d   1       1.285   0.573   0.894  0.00  0.00     0.003 A 
ENDROOT
TORSDOF 0
ENDMDL
