MODEL 1
REMARK minimizedAffinity 3.71938634
REMARK minimizedRMSD -1
REMARK  0 active torsions:
REMARK  status: ('A' for Active; 'I' for Inactive)
ROOT
ATOM      1  C   UNL d   1       4.020  -5.953   1.330  0.00  0.00     0.023 A 
ATOM      2  C1  UNL d   1       5.404  -5.914   1.497  0.00  0.00     0.003 A 
ATOM      3  C2  UNL d   1       5.954  -5.916   2.781  0.00  0.00     0.048 A 
ATOM      4  C3  UNL d   1       5.114  -5.958   3.893  0.00  0.00     0.023 A 
ATOM      5  C4  UNL d   1       3.728  -5.999   3.731  0.00  0.00     0.048 A 
ATOM      6  C5  UNL d   1       3.183  -5.995   2.445  0.00  0.00     0.003 A 
ATOM      7  I   UNL d   1       5.930  -5.962   5.804  0.00  0.00    -0.146 I 
ENDROOT
TORSDOF 0
ENDMDL
