MODEL 1
REMARK minimizedAffinity 2.03533101
REMARK minimizedRMSD -1
REMARK  0 active torsions:
REMARK  status: ('A' for Active; 'I' for Inactive)
ROOT
ATOM      1  C   UNL d   1      -4.043   0.659   1.776  0.00  0.00     0.023 A 
ATOM      2  C1  UNL d   1      -2.979  -0.146   1.370  0.00  0.00     0.003 A 
ATOM      3  C2  UNL d   1      -1.674   0.175   1.751  0.00  0.00     0.048 A 
ATOM      4  C3  UNL d   1      -1.442   1.301   2.540  0.00  0.00     0.023 A 
ATOM      5  C4  UNL d   1      -2.504   2.109   2.949  0.00  0.00     0.048 A 
ATOM      6  C5  UNL d   1      -3.806   1.785   2.565  0.00  0.00     0.003 A 
ATOM      7  I   UNL d   1       0.499   1.781   3.109  0.00  0.00    -0.146 I 
ENDROOT
TORSDOF 0
ENDMDL
