MODEL 1
REMARK minimizedAffinity 9.59939384
REMARK minimizedRMSD -1
REMARK  0 active torsions:
REMARK  status: ('A' for Active; 'I' for Inactive)
ROOT
ATOM      1  C   UNL d   1      -5.186   0.946   1.895  0.00  0.00     0.023 A 
ATOM      2  C1  UNL d   1      -4.389   0.798   0.759  0.00  0.00     0.003 A 
ATOM      3  C2  UNL d   1      -3.009   0.629   0.891  0.00  0.00     0.048 A 
ATOM      4  C3  UNL d   1      -2.432   0.609   2.160  0.00  0.00     0.023 A 
ATOM      5  C4  UNL d   1      -3.226   0.755   3.299  0.00  0.00     0.048 A 
ATOM      6  C5  UNL d   1      -4.605   0.924   3.163  0.00  0.00     0.003 A 
ATOM      7  I   UNL d   1      -0.379   0.358   2.358  0.00  0.00    -0.146 I 
ENDROOT
TORSDOF 0
ENDMDL
