MODEL 1
REMARK minimizedAffinity 10.0404854
REMARK minimizedRMSD -1
REMARK  0 active torsions:
REMARK  status: ('A' for Active; 'I' for Inactive)
ROOT
ATOM      1  C   UNL d   1       6.000  -4.989   2.550  0.00  0.00     0.023 A 
ATOM      2  C1  UNL d   1       5.191  -4.546   1.504  0.00  0.00     0.003 A 
ATOM      3  C2  UNL d   1       3.824  -4.829   1.508  0.00  0.00     0.048 A 
ATOM      4  C3  UNL d   1       3.272  -5.555   2.563  0.00  0.00     0.023 A 
ATOM      5  C4  UNL d   1       4.077  -6.000   3.613  0.00  0.00     0.048 A 
ATOM      6  C5  UNL d   1       5.444  -5.715   3.603  0.00  0.00     0.003 A 
ATOM      7  I   UNL d   1       1.237  -5.978   2.573  0.00  0.00    -0.146 I 
ENDROOT
TORSDOF 0
ENDMDL
