MODEL 1
REMARK minimizedAffinity 11.4487019
REMARK minimizedRMSD -1
REMARK  0 active torsions:
REMARK  status: ('A' for Active; 'I' for Inactive)
ROOT
ATOM      1  C   UNL d   1      -1.369  -3.061  -5.972  0.00  0.00     0.023 A 
ATOM      2  C1  UNL d   1      -1.605  -1.686  -5.942  0.00  0.00     0.003 A 
ATOM      3  C2  UNL d   1      -2.914  -1.201  -5.933  0.00  0.00     0.048 A 
ATOM      4  C3  UNL d   1      -3.983  -2.096  -5.952  0.00  0.00     0.023 A 
ATOM      5  C4  UNL d   1      -3.752  -3.472  -5.982  0.00  0.00     0.048 A 
ATOM      6  C5  UNL d   1      -2.442  -3.953  -5.992  0.00  0.00     0.003 A 
ATOM      7  I   UNL d   1      -5.933  -1.376  -5.938  0.00  0.00    -0.146 I 
ENDROOT
TORSDOF 0
ENDMDL
