MODEL 1
REMARK minimizedAffinity 2.18669295
REMARK minimizedRMSD -1
REMARK  0 active torsions:
REMARK  status: ('A' for Active; 'I' for Inactive)
ROOT
ATOM      1  C   UNL d   1      -4.028   0.207   1.294  0.00  0.00     0.023 A 
ATOM      2  C1  UNL d   1      -3.925   0.464   2.661  0.00  0.00     0.003 A 
ATOM      3  C2  UNL d   1      -2.670   0.525   3.269  0.00  0.00     0.048 A 
ATOM      4  C3  UNL d   1      -1.521   0.328   2.504  0.00  0.00     0.023 A 
ATOM      5  C4  UNL d   1      -1.619   0.071   1.135  0.00  0.00     0.048 A 
ATOM      6  C5  UNL d   1      -2.877   0.011   0.532  0.00  0.00     0.003 A 
ATOM      7  I   UNL d   1       0.349   0.418   3.406  0.00  0.00    -0.146 I 
ENDROOT
TORSDOF 0
ENDMDL
