MODEL 1
REMARK minimizedAffinity 8.23806381
REMARK minimizedRMSD -1
REMARK  0 active torsions:
REMARK  status: ('A' for Active; 'I' for Inactive)
ROOT
ATOM      1  C   UNL d   1      -5.589  -1.972  -5.998  0.00  0.00     0.023 A 
ATOM      2  C1  UNL d   1      -5.149  -3.296  -5.996  0.00  0.00     0.003 A 
ATOM      3  C2  UNL d   1      -3.781  -3.578  -5.996  0.00  0.00     0.048 A 
ATOM      4  C3  UNL d   1      -2.859  -2.533  -5.997  0.00  0.00     0.023 A 
ATOM      5  C4  UNL d   1      -3.295  -1.206  -5.998  0.00  0.00     0.048 A 
ATOM      6  C5  UNL d   1      -4.663  -0.929  -5.998  0.00  0.00     0.003 A 
ATOM      7  I   UNL d   1      -0.823  -2.951  -5.997  0.00  0.00    -0.146 I 
ENDROOT
TORSDOF 0
ENDMDL
