MODEL 1
REMARK minimizedAffinity 1.76817858
REMARK minimizedRMSD -1
REMARK  0 active torsions:
REMARK  status: ('A' for Active; 'I' for Inactive)
ROOT
ATOM      1  C   UNL d   1       0.787  -4.949   2.266  0.00  0.00     0.023 A 
ATOM      2  C1  UNL d   1       1.169  -5.698   3.380  0.00  0.00     0.003 A 
ATOM      3  C2  UNL d   1       2.516  -6.000   3.590  0.00  0.00     0.048 A 
ATOM      4  C3  UNL d   1       3.475  -5.549   2.685  0.00  0.00     0.023 A 
ATOM      5  C4  UNL d   1       3.098  -4.799   1.570  0.00  0.00     0.048 A 
ATOM      6  C5  UNL d   1       1.750  -4.500   1.363  0.00  0.00     0.003 A 
ATOM      7  I   UNL d   1       5.481  -5.998   2.997  0.00  0.00    -0.146 I 
ENDROOT
TORSDOF 0
ENDMDL
