MODEL 1
REMARK minimizedAffinity 9.75706196
REMARK minimizedRMSD -1
REMARK  0 active torsions:
REMARK  status: ('A' for Active; 'I' for Inactive)
ROOT
ATOM      1  C   UNL d   1       0.559   1.635   3.650  0.00  0.00     0.023 A 
ATOM      2  C1  UNL d   1      -0.582   2.436   3.713  0.00  0.00     0.003 A 
ATOM      3  C2  UNL d   1      -1.764   2.020   3.098  0.00  0.00     0.048 A 
ATOM      4  C3  UNL d   1      -1.799   0.802   2.421  0.00  0.00     0.023 A 
ATOM      5  C4  UNL d   1      -0.661  -0.004   2.355  0.00  0.00     0.048 A 
ATOM      6  C5  UNL d   1       0.519   0.416   2.972  0.00  0.00     0.003 A 
ATOM      7  I   UNL d   1      -3.558   0.181   1.504  0.00  0.00    -0.146 I 
ENDROOT
TORSDOF 0
ENDMDL
