MODEL 1
REMARK minimizedAffinity 4.71329403
REMARK minimizedRMSD -1
REMARK  0 active torsions:
REMARK  status: ('A' for Active; 'I' for Inactive)
ROOT
ATOM      1  C   UNL d   1      -5.947   0.088   2.229  0.00  0.00     0.023 A 
ATOM      2  C1  UNL d   1      -5.247  -0.369   3.346  0.00  0.00     0.003 A 
ATOM      3  C2  UNL d   1      -3.857  -0.247   3.398  0.00  0.00     0.048 A 
ATOM      4  C3  UNL d   1      -3.173   0.334   2.330  0.00  0.00     0.023 A 
ATOM      5  C4  UNL d   1      -3.870   0.794   1.211  0.00  0.00     0.048 A 
ATOM      6  C5  UNL d   1      -5.260   0.669   1.164  0.00  0.00     0.003 A 
ATOM      7  I   UNL d   1      -1.104   0.518   2.405  0.00  0.00    -0.146 I 
ENDROOT
TORSDOF 0
ENDMDL
