MODEL 1
REMARK minimizedAffinity 5.31011868
REMARK minimizedRMSD -1
REMARK  0 active torsions:
REMARK  status: ('A' for Active; 'I' for Inactive)
ROOT
ATOM      1  C   UNL d   1      -5.104   1.010   1.565  0.00  0.00     0.023 A 
ATOM      2  C1  UNL d   1      -4.592   1.681   2.676  0.00  0.00     0.003 A 
ATOM      3  C2  UNL d   1      -3.237   1.576   2.993  0.00  0.00     0.048 A 
ATOM      4  C3  UNL d   1      -2.398   0.799   2.195  0.00  0.00     0.023 A 
ATOM      5  C4  UNL d   1      -2.905   0.127   1.082  0.00  0.00     0.048 A 
ATOM      6  C5  UNL d   1      -4.262   0.234   0.769  0.00  0.00     0.003 A 
ATOM      7  I   UNL d   1      -0.380   0.641   2.665  0.00  0.00    -0.146 I 
ENDROOT
TORSDOF 0
ENDMDL
