MODEL 1
REMARK minimizedAffinity 0.663026273
REMARK minimizedRMSD -1
REMARK  0 active torsions:
REMARK  status: ('A' for Active; 'I' for Inactive)
ROOT
ATOM      1  C   UNL d   1       1.759  -5.533   1.563  0.00  0.00     0.023 A 
ATOM      2  C1  UNL d   1       2.969  -5.336   0.897  0.00  0.00     0.003 A 
ATOM      3  C2  UNL d   1       4.176  -5.469   1.586  0.00  0.00     0.048 A 
ATOM      4  C3  UNL d   1       4.166  -5.800   2.941  0.00  0.00     0.023 A 
ATOM      5  C4  UNL d   1       2.957  -5.999   3.611  0.00  0.00     0.048 A 
ATOM      6  C5  UNL d   1       1.753  -5.864   2.918  0.00  0.00     0.003 A 
ATOM      7  I   UNL d   1       5.961  -6.000   3.969  0.00  0.00    -0.146 I 
ENDROOT
TORSDOF 0
ENDMDL
