MODEL 1
REMARK minimizedAffinity -1.49213219
REMARK minimizedRMSD -1
REMARK  0 active torsions:
REMARK  status: ('A' for Active; 'I' for Inactive)
ROOT
ATOM      1  C   UNL d   1      -2.746  -4.053   0.619  0.00  0.00     0.023 A 
ATOM      2  C1  UNL d   1      -1.628  -3.228   0.744  0.00  0.00     0.003 A 
ATOM      3  C2  UNL d   1      -0.370  -3.785   0.984  0.00  0.00     0.048 A 
ATOM      4  C3  UNL d   1      -0.237  -5.168   1.096  0.00  0.00     0.023 A 
ATOM      5  C4  UNL d   1      -1.352  -5.998   0.970  0.00  0.00     0.048 A 
ATOM      6  C5  UNL d   1      -2.608  -5.437   0.732  0.00  0.00     0.003 A 
ATOM      7  I   UNL d   1       1.634  -6.000   1.452  0.00  0.00    -0.146 I 
ENDROOT
TORSDOF 0
ENDMDL
