MODEL 1
REMARK minimizedAffinity 4.58213806
REMARK minimizedRMSD -1
REMARK  0 active torsions:
REMARK  status: ('A' for Active; 'I' for Inactive)
ROOT
ATOM      1  C   UNL d   1       0.205   0.423   2.190  0.00  0.00     0.023 A 
ATOM      2  C1  UNL d   1       0.820   0.484   0.939  0.00  0.00     0.003 A 
ATOM      3  C2  UNL d   1       2.198   0.293   0.827  0.00  0.00     0.048 A 
ATOM      4  C3  UNL d   1       2.957   0.041   1.970  0.00  0.00     0.023 A 
ATOM      5  C4  UNL d   1       2.346  -0.022   3.223  0.00  0.00     0.048 A 
ATOM      6  C5  UNL d   1       0.968   0.170   3.331  0.00  0.00     0.003 A 
ATOM      7  I   UNL d   1       5.009  -0.243   1.805  0.00  0.00    -0.146 I 
ENDROOT
TORSDOF 0
ENDMDL
