MODEL 1
REMARK minimizedAffinity 5.51426888
REMARK minimizedRMSD -1
REMARK  0 active torsions:
REMARK  status: ('A' for Active; 'I' for Inactive)
ROOT
ATOM      1  C   UNL d   1      -4.672   0.366   1.741  0.00  0.00     0.023 A 
ATOM      2  C1  UNL d   1      -3.740  -0.166   0.850  0.00  0.00     0.003 A 
ATOM      3  C2  UNL d   1      -2.379  -0.139   1.163  0.00  0.00     0.048 A 
ATOM      4  C3  UNL d   1      -1.958   0.420   2.368  0.00  0.00     0.023 A 
ATOM      5  C4  UNL d   1      -2.887   0.953   3.264  0.00  0.00     0.048 A 
ATOM      6  C5  UNL d   1      -4.246   0.925   2.946  0.00  0.00     0.003 A 
ATOM      7  I   UNL d   1       0.067   0.461   2.836  0.00  0.00    -0.146 I 
ENDROOT
TORSDOF 0
ENDMDL
