MODEL 1
REMARK minimizedAffinity -1.3222369
REMARK minimizedRMSD -1
REMARK  1 active torsions:
REMARK  status: ('A' for Active; 'I' for Inactive)
REMARK    1  A    between atoms: C3_4  and  O_7 
ROOT
ATOM      1  C   UNL d   1      -1.818   2.640   0.382  0.00  0.00    -0.033 A 
ATOM      2  C1  UNL d   1      -1.501   2.670   1.742  0.00  0.00     0.039 A 
ATOM      3  C2  UNL d   1      -0.796   1.612   2.320  0.00  0.00    -0.080 A 
ATOM      4  C3  UNL d   1      -0.414   0.532   1.529  0.00  0.00     0.150 A 
ATOM      5  C4  UNL d   1      -0.723   0.497   0.173  0.00  0.00    -0.007 A 
ATOM      6  C5  UNL d   1      -1.428   1.554  -0.403  0.00  0.00     0.039 A 
ENDROOT
BRANCH   4   7
ATOM      7  O   UNL d   1       0.270  -0.526   2.049  0.00  0.00    -0.526 OA
ATOM      8  H5  UNL d   1       0.388  -0.377   3.002  0.00  0.00     0.418 HD
ENDBRANCH   4   7
TORSDOF 1
ENDMDL
