MODEL 1
REMARK minimizedAffinity -3.64553189
REMARK minimizedRMSD -1
REMARK  1 active torsions:
REMARK  status: ('A' for Active; 'I' for Inactive)
REMARK    1  A    between atoms: C3_4  and  O_7 
ROOT
ATOM      1  C   UNL d   1      -0.030  -0.039   1.978  0.00  0.00    -0.033 A 
ATOM      2  C1  UNL d   1       0.223  -0.322   0.635  0.00  0.00     0.039 A 
ATOM      3  C2  UNL d   1      -0.063   0.629  -0.347  0.00  0.00    -0.080 A 
ATOM      4  C3  UNL d   1      -0.600   1.858   0.029  0.00  0.00     0.150 A 
ATOM      5  C4  UNL d   1      -0.851   2.147   1.366  0.00  0.00    -0.007 A 
ATOM      6  C5  UNL d   1      -0.565   1.196   2.344  0.00  0.00     0.039 A 
ENDROOT
BRANCH   4   7
ATOM      7  O   UNL d   1      -0.900   2.816  -0.894  0.00  0.00    -0.526 OA
ATOM      8  H5  UNL d   1      -0.700   2.465  -1.778  0.00  0.00     0.418 HD
ENDBRANCH   4   7
TORSDOF 1
ENDMDL
