MODEL 1
REMARK minimizedAffinity -0.727642
REMARK minimizedRMSD -1
REMARK  1 active torsions:
REMARK  status: ('A' for Active; 'I' for Inactive)
REMARK    1  A    between atoms: C3_4  and  O_7 
ROOT
ATOM      1  C   UNL d   1       0.114  -0.320   1.450  0.00  0.00    -0.033 A 
ATOM      2  C1  UNL d   1      -0.689   0.077   0.379  0.00  0.00     0.039 A 
ATOM      3  C2  UNL d   1      -1.512   1.199   0.499  0.00  0.00    -0.080 A 
ATOM      4  C3  UNL d   1      -1.521   1.915   1.693  0.00  0.00     0.150 A 
ATOM      5  C4  UNL d   1      -0.720   1.528   2.762  0.00  0.00    -0.007 A 
ATOM      6  C5  UNL d   1       0.100   0.407   2.641  0.00  0.00     0.039 A 
ENDROOT
BRANCH   4   7
ATOM      7  O   UNL d   1      -2.310   3.014   1.858  0.00  0.00    -0.526 OA
ATOM      8  H5  UNL d   1      -2.829   3.145   1.047  0.00  0.00     0.418 HD
ENDBRANCH   4   7
TORSDOF 1
ENDMDL
