MODEL 1
REMARK minimizedAffinity -4.59184122
REMARK minimizedRMSD -1
REMARK  1 active torsions:
REMARK  status: ('A' for Active; 'I' for Inactive)
REMARK    1  A    between atoms: C3_4  and  O_7 
ROOT
ATOM      1  C   UNL d   1       0.594  -0.187  -0.066  0.00  0.00    -0.033 A 
ATOM      2  C1  UNL d   1       0.071   0.858  -0.831  0.00  0.00     0.039 A 
ATOM      3  C2  UNL d   1      -0.952   1.658  -0.317  0.00  0.00    -0.080 A 
ATOM      4  C3  UNL d   1      -1.441   1.404   0.961  0.00  0.00     0.150 A 
ATOM      5  C4  UNL d   1      -0.922   0.368   1.730  0.00  0.00    -0.007 A 
ATOM      6  C5  UNL d   1       0.099  -0.431   1.215  0.00  0.00     0.039 A 
ENDROOT
BRANCH   4   7
ATOM      7  O   UNL d   1      -2.441   2.154   1.504  0.00  0.00    -0.526 OA
ATOM      8  H5  UNL d   1      -2.721   2.815   0.848  0.00  0.00     0.418 HD
ENDBRANCH   4   7
TORSDOF 1
ENDMDL
