MODEL 1
REMARK minimizedAffinity -4.46419048
REMARK minimizedRMSD -1
REMARK  1 active torsions:
REMARK  status: ('A' for Active; 'I' for Inactive)
REMARK    1  A    between atoms: C3_4  and  O_7 
ROOT
ATOM      1  C   UNL d   1       0.911  -0.024  -0.986  0.00  0.00    -0.033 A 
ATOM      2  C1  UNL d   1       0.393  -0.631   0.159  0.00  0.00     0.039 A 
ATOM      3  C2  UNL d   1      -0.592   0.015   0.909  0.00  0.00    -0.080 A 
ATOM      4  C3  UNL d   1      -1.049   1.266   0.503  0.00  0.00     0.150 A 
ATOM      5  C4  UNL d   1      -0.540   1.875  -0.639  0.00  0.00    -0.007 A 
ATOM      6  C5  UNL d   1       0.444   1.229  -1.386  0.00  0.00     0.039 A 
ENDROOT
BRANCH   4   7
ATOM      7  O   UNL d   1      -2.006   1.937   1.206  0.00  0.00    -0.526 OA
ATOM      8  H5  UNL d   1      -2.243   1.408   1.986  0.00  0.00     0.418 HD
ENDBRANCH   4   7
TORSDOF 1
ENDMDL
