MODEL 1
REMARK minimizedAffinity -3.40077472
REMARK minimizedRMSD -1
REMARK  1 active torsions:
REMARK  status: ('A' for Active; 'I' for Inactive)
REMARK    1  A    between atoms: C3_4  and  O_7 
ROOT
ATOM      1  C   UNL d   1      -0.868   1.145   0.408  0.00  0.00    -0.033 A 
ATOM      2  C1  UNL d   1       0.226   1.244  -0.455  0.00  0.00     0.039 A 
ATOM      3  C2  UNL d   1       0.710   0.107  -1.105  0.00  0.00    -0.080 A 
ATOM      4  C3  UNL d   1       0.091  -1.121  -0.885  0.00  0.00     0.150 A 
ATOM      5  C4  UNL d   1      -1.001  -1.226  -0.030  0.00  0.00    -0.007 A 
ATOM      6  C5  UNL d   1      -1.482  -0.090   0.619  0.00  0.00     0.039 A 
ENDROOT
BRANCH   4   7
ATOM      7  O   UNL d   1       0.531  -2.259  -1.494  0.00  0.00    -0.526 OA
ATOM      8  H5  UNL d   1       1.309  -2.039  -2.033  0.00  0.00     0.418 HD
ENDBRANCH   4   7
TORSDOF 1
ENDMDL
