MODEL 1
REMARK minimizedAffinity -3.83966494
REMARK minimizedRMSD -1
REMARK  1 active torsions:
REMARK  status: ('A' for Active; 'I' for Inactive)
REMARK    1  A    between atoms: C3_4  and  O_7 
ROOT
ATOM      1  C   UNL d   1       1.125  -2.841  -2.169  0.00  0.00    -0.033 A 
ATOM      2  C1  UNL d   1       2.003  -2.146  -1.334  0.00  0.00     0.039 A 
ATOM      3  C2  UNL d   1       1.613  -0.934  -0.762  0.00  0.00    -0.080 A 
ATOM      4  C3  UNL d   1       0.343  -0.429  -1.030  0.00  0.00     0.150 A 
ATOM      5  C4  UNL d   1      -0.538  -1.118  -1.857  0.00  0.00    -0.007 A 
ATOM      6  C5  UNL d   1      -0.146  -2.328  -2.429  0.00  0.00     0.039 A 
ENDROOT
BRANCH   4   7
ATOM      7  O   UNL d   1      -0.081   0.752  -0.497  0.00  0.00    -0.526 OA
ATOM      8  H5  UNL d   1       0.643   1.130   0.030  0.00  0.00     0.418 HD
ENDBRANCH   4   7
TORSDOF 1
ENDMDL
