MODEL 1
REMARK minimizedAffinity -5.18063927
REMARK minimizedRMSD -1
REMARK  1 active torsions:
REMARK  status: ('A' for Active; 'I' for Inactive)
REMARK    1  A    between atoms: C3_4  and  O_7 
ROOT
ATOM      1  C   UNL d   1       0.098  -0.601   0.605  0.00  0.00    -0.033 A 
ATOM      2  C1  UNL d   1      -0.283   0.382  -0.310  0.00  0.00     0.039 A 
ATOM      3  C2  UNL d   1      -1.060   1.464   0.107  0.00  0.00    -0.080 A 
ATOM      4  C3  UNL d   1      -1.449   1.552   1.441  0.00  0.00     0.150 A 
ATOM      5  C4  UNL d   1      -1.070   0.578   2.359  0.00  0.00    -0.007 A 
ATOM      6  C5  UNL d   1      -0.295  -0.502   1.940  0.00  0.00     0.039 A 
ENDROOT
BRANCH   4   7
ATOM      7  O   UNL d   1      -2.212   2.587   1.894  0.00  0.00    -0.526 OA
ATOM      8  H5  UNL d   1      -2.421   3.167   1.143  0.00  0.00     0.418 HD
ENDBRANCH   4   7
TORSDOF 1
ENDMDL
