MODEL 1
REMARK minimizedAffinity -3.9466567
REMARK minimizedRMSD -1
REMARK  1 active torsions:
REMARK  status: ('A' for Active; 'I' for Inactive)
REMARK    1  A    between atoms: C3_4  and  O_7 
ROOT
ATOM      1  C   UNL d   1       0.716  -1.981  -1.914  0.00  0.00    -0.033 A 
ATOM      2  C1  UNL d   1       0.246  -3.070  -2.651  0.00  0.00     0.039 A 
ATOM      3  C2  UNL d   1       0.518  -4.372  -2.227  0.00  0.00    -0.080 A 
ATOM      4  C3  UNL d   1       1.260  -4.572  -1.066  0.00  0.00     0.150 A 
ATOM      5  C4  UNL d   1       1.729  -3.492  -0.325  0.00  0.00    -0.007 A 
ATOM      6  C5  UNL d   1       1.457  -2.192  -0.751  0.00  0.00     0.039 A 
ENDROOT
BRANCH   4   7
ATOM      7  O   UNL d   1       1.556  -5.824  -0.616  0.00  0.00    -0.526 OA
ATOM      8  H5  UNL d   1       1.192  -6.471  -1.244  0.00  0.00     0.418 HD
ENDBRANCH   4   7
TORSDOF 1
ENDMDL
