MODEL 1
REMARK minimizedAffinity -5.36903524
REMARK minimizedRMSD -1
REMARK  1 active torsions:
REMARK  status: ('A' for Active; 'I' for Inactive)
REMARK    1  A    between atoms: C3_4  and  O_7 
ROOT
ATOM      1  C   UNL d   1       0.155  -0.672   0.388  0.00  0.00    -0.033 A 
ATOM      2  C1  UNL d   1      -0.377  -0.610   1.678  0.00  0.00     0.039 A 
ATOM      3  C2  UNL d   1      -1.271   0.408   2.018  0.00  0.00    -0.080 A 
ATOM      4  C3  UNL d   1      -1.624   1.355   1.061  0.00  0.00     0.150 A 
ATOM      5  C4  UNL d   1      -1.101   1.296  -0.227  0.00  0.00    -0.007 A 
ATOM      6  C5  UNL d   1      -0.208   0.280  -0.564  0.00  0.00     0.039 A 
ENDROOT
BRANCH   4   7
ATOM      7  O   UNL d   1      -2.489   2.369   1.347  0.00  0.00    -0.526 OA
ATOM      8  H5  UNL d   1      -2.747   2.299   2.282  0.00  0.00     0.418 HD
ENDBRANCH   4   7
TORSDOF 1
ENDMDL
