MODEL 1
REMARK minimizedAffinity -5.12030506
REMARK minimizedRMSD -1
REMARK  1 active torsions:
REMARK  status: ('A' for Active; 'I' for Inactive)
REMARK    1  A    between atoms: C3_4  and  O_7 
ROOT
ATOM      1  C   UNL d   1       0.379  -0.249   0.437  0.00  0.00    -0.033 A 
ATOM      2  C1  UNL d   1      -0.214  -0.381   1.694  0.00  0.00     0.039 A 
ATOM      3  C2  UNL d   1      -1.247   0.478   2.074  0.00  0.00    -0.080 A 
ATOM      4  C3  UNL d   1      -1.679   1.461   1.188  0.00  0.00     0.150 A 
ATOM      5  C4  UNL d   1      -1.096   1.595  -0.068  0.00  0.00    -0.007 A 
ATOM      6  C5  UNL d   1      -0.063   0.737  -0.445  0.00  0.00     0.039 A 
ENDROOT
BRANCH   4   7
ATOM      7  O   UNL d   1      -2.681   2.325   1.516  0.00  0.00    -0.526 OA
ATOM      8  H5  UNL d   1      -2.969   2.133   2.424  0.00  0.00     0.418 HD
ENDBRANCH   4   7
TORSDOF 1
ENDMDL
