MODEL 1
REMARK minimizedAffinity -1.36882079
REMARK minimizedRMSD -1
REMARK  1 active torsions:
REMARK  status: ('A' for Active; 'I' for Inactive)
REMARK    1  A    between atoms: C3_4  and  O_7 
ROOT
ATOM      1  C   UNL d   1       0.659  -3.842  -2.683  0.00  0.00    -0.033 A 
ATOM      2  C1  UNL d   1       1.245  -4.046  -1.432  0.00  0.00     0.039 A 
ATOM      3  C2  UNL d   1       1.440  -2.968  -0.566  0.00  0.00    -0.080 A 
ATOM      4  C3  UNL d   1       1.044  -1.693  -0.962  0.00  0.00     0.150 A 
ATOM      5  C4  UNL d   1       0.456  -1.483  -2.205  0.00  0.00    -0.007 A 
ATOM      6  C5  UNL d   1       0.263  -2.561  -3.068  0.00  0.00     0.039 A 
ENDROOT
BRANCH   4   7
ATOM      7  O   UNL d   1       1.219  -0.610  -0.153  0.00  0.00    -0.526 OA
ATOM      8  H5  UNL d   1       1.663  -0.901   0.660  0.00  0.00     0.418 HD
ENDBRANCH   4   7
TORSDOF 1
ENDMDL
