MODEL 1
REMARK minimizedAffinity -2.85335803
REMARK minimizedRMSD -1
REMARK  1 active torsions:
REMARK  status: ('A' for Active; 'I' for Inactive)
REMARK    1  A    between atoms: C1_2  and  C2_3 
ROOT
ATOM      1  C2  UNL d   1       5.746  -4.323   4.659  0.00  0.00    -0.077 A 
ATOM      2  C3  UNL d   1       5.668  -2.926   4.574  0.00  0.00     0.002 A 
ATOM      3  C4  UNL d   1       5.757  -2.287   3.336  0.00  0.00     0.002 A 
ATOM      4  C5  UNL d   1       5.919  -3.038   2.173  0.00  0.00    -0.004 A 
ATOM      5  C6  UNL d   1       6.000  -4.428   2.247  0.00  0.00     0.002 A 
ATOM      6  C7  UNL d   1       5.912  -5.068   3.484  0.00  0.00     0.002 A 
ENDROOT
BRANCH   1   7
ATOM      7  C1  UNL d   1       5.600  -5.017   5.988  0.00  0.00     0.055 C 
ATOM      8  C   UNL d   1       4.431  -5.990   5.980  0.00  0.00     0.019 C 
ENDBRANCH   1   7
TORSDOF 1
ENDMDL
