MODEL 1
REMARK minimizedAffinity -2.27375102
REMARK minimizedRMSD -1
REMARK  1 active torsions:
REMARK  status: ('A' for Active; 'I' for Inactive)
REMARK    1  A    between atoms: C1_2  and  C2_3 
ROOT
ATOM      1  C2  UNL d   1       5.676  -3.598   3.289  0.00  0.00    -0.077 A 
ATOM      2  C3  UNL d   1       5.121  -2.599   4.102  0.00  0.00     0.002 A 
ATOM      3  C4  UNL d   1       4.863  -2.850   5.451  0.00  0.00     0.002 A 
ATOM      4  C5  UNL d   1       5.160  -4.095   5.999  0.00  0.00    -0.004 A 
ATOM      5  C6  UNL d   1       5.710  -5.095   5.199  0.00  0.00     0.002 A 
ATOM      6  C7  UNL d   1       5.968  -4.848   3.850  0.00  0.00     0.002 A 
ENDROOT
BRANCH   1   7
ATOM      7  C1  UNL d   1       6.000  -3.314   1.845  0.00  0.00     0.055 C 
ATOM      8  C   UNL d   1       6.000  -4.590   1.017  0.00  0.00     0.019 C 
ENDBRANCH   1   7
TORSDOF 1
ENDMDL
