MODEL 1
REMARK minimizedAffinity -3.61734653
REMARK minimizedRMSD -1
REMARK  1 active torsions:
REMARK  status: ('A' for Active; 'I' for Inactive)
REMARK    1  A    between atoms: C1_2  and  C2_3 
ROOT
ATOM      1  C2  UNL d   1       5.547  -4.137   4.647  0.00  0.00    -0.077 A 
ATOM      2  C3  UNL d   1       5.827  -4.882   3.493  0.00  0.00     0.002 A 
ATOM      3  C4  UNL d   1       6.000  -4.243   2.264  0.00  0.00     0.002 A 
ATOM      4  C5  UNL d   1       5.900  -2.856   2.178  0.00  0.00    -0.004 A 
ATOM      5  C6  UNL d   1       5.621  -2.106   3.320  0.00  0.00     0.002 A 
ATOM      6  C7  UNL d   1       5.446  -2.743   4.549  0.00  0.00     0.002 A 
ENDROOT
BRANCH   1   7
ATOM      7  C1  UNL d   1       5.409  -4.820   5.982  0.00  0.00     0.055 C 
ATOM      8  C   UNL d   1       4.451  -6.000   5.904  0.00  0.00     0.019 C 
ENDBRANCH   1   7
TORSDOF 1
ENDMDL
