MODEL 1
REMARK minimizedAffinity -3.4141953
REMARK minimizedRMSD -1
REMARK  1 active torsions:
REMARK  status: ('A' for Active; 'I' for Inactive)
REMARK    1  A    between atoms: C1_2  and  C2_3 
ROOT
ATOM      1  C2  UNL d   1       5.659  -3.267   3.261  0.00  0.00    -0.077 A 
ATOM      2  C3  UNL d   1       5.452  -4.406   4.052  0.00  0.00     0.002 A 
ATOM      3  C4  UNL d   1       5.184  -4.279   5.416  0.00  0.00     0.002 A 
ATOM      4  C5  UNL d   1       5.115  -3.016   6.000  0.00  0.00    -0.004 A 
ATOM      5  C6  UNL d   1       5.322  -1.878   5.222  0.00  0.00     0.002 A 
ATOM      6  C7  UNL d   1       5.592  -2.002   3.859  0.00  0.00     0.002 A 
ENDROOT
BRANCH   1   7
ATOM      7  C1  UNL d   1       5.900  -3.400   1.780  0.00  0.00     0.055 C 
ATOM      8  C   UNL d   1       6.000  -4.860   1.364  0.00  0.00     0.019 C 
ENDBRANCH   1   7
TORSDOF 1
ENDMDL
