MODEL 1
REMARK minimizedAffinity -2.42384505
REMARK minimizedRMSD -1
REMARK  1 active torsions:
REMARK  status: ('A' for Active; 'I' for Inactive)
REMARK    1  A    between atoms: C1_2  and  C2_3 
ROOT
ATOM      1  C2  UNL d   1       5.549  -3.573   4.327  0.00  0.00    -0.077 A 
ATOM      2  C3  UNL d   1       5.979  -4.809   3.824  0.00  0.00     0.002 A 
ATOM      3  C4  UNL d   1       5.540  -6.000   4.407  0.00  0.00     0.002 A 
ATOM      4  C5  UNL d   1       4.667  -5.966   5.491  0.00  0.00    -0.004 A 
ATOM      5  C6  UNL d   1       4.235  -4.742   6.000  0.00  0.00     0.002 A 
ATOM      6  C7  UNL d   1       4.673  -3.551   5.419  0.00  0.00     0.002 A 
ENDROOT
BRANCH   1   7
ATOM      7  C1  UNL d   1       5.982  -2.289   3.669  0.00  0.00     0.055 C 
ATOM      8  C   UNL d   1       6.000  -2.422   2.153  0.00  0.00     0.019 C 
ENDBRANCH   1   7
TORSDOF 1
ENDMDL
