MODEL 1
REMARK minimizedAffinity -2.57532597
REMARK minimizedRMSD -1
REMARK  1 active torsions:
REMARK  status: ('A' for Active; 'I' for Inactive)
REMARK    1  A    between atoms: C1_2  and  C2_3 
ROOT
ATOM      1  C2  UNL d   1       5.494  -3.543   4.539  0.00  0.00    -0.077 A 
ATOM      2  C3  UNL d   1       5.951  -4.746   3.982  0.00  0.00     0.002 A 
ATOM      3  C4  UNL d   1       5.447  -5.969   4.431  0.00  0.00     0.002 A 
ATOM      4  C5  UNL d   1       4.482  -6.000   5.436  0.00  0.00    -0.004 A 
ATOM      5  C6  UNL d   1       4.023  -4.809   5.997  0.00  0.00     0.002 A 
ATOM      6  C7  UNL d   1       4.526  -3.586   5.551  0.00  0.00     0.002 A 
ENDROOT
BRANCH   1   7
ATOM      7  C1  UNL d   1       6.000  -2.222   4.022  0.00  0.00     0.055 C 
ATOM      8  C   UNL d   1       5.986  -2.181   2.501  0.00  0.00     0.019 C 
ENDBRANCH   1   7
TORSDOF 1
ENDMDL
