MODEL 1
REMARK minimizedAffinity -2.87078047
REMARK minimizedRMSD -1
REMARK  1 active torsions:
REMARK  status: ('A' for Active; 'I' for Inactive)
REMARK    1  A    between atoms: C1_2  and  C2_3 
ROOT
ATOM      1  C2  UNL d   1       5.839  -4.796   3.610  0.00  0.00    -0.077 A 
ATOM      2  C3  UNL d   1       5.612  -5.448   4.830  0.00  0.00     0.002 A 
ATOM      3  C4  UNL d   1       5.417  -4.711   6.000  0.00  0.00     0.002 A 
ATOM      4  C5  UNL d   1       5.444  -3.318   5.960  0.00  0.00    -0.004 A 
ATOM      5  C6  UNL d   1       5.671  -2.661   4.752  0.00  0.00     0.002 A 
ATOM      6  C7  UNL d   1       5.867  -3.396   3.582  0.00  0.00     0.002 A 
ENDROOT
BRANCH   1   7
ATOM      7  C1  UNL d   1       6.000  -5.589   2.339  0.00  0.00     0.055 C 
ATOM      8  C   UNL d   1       6.000  -4.682   1.117  0.00  0.00     0.019 C 
ENDBRANCH   1   7
TORSDOF 1
ENDMDL
