MODEL 1
REMARK minimizedAffinity -3.16656208
REMARK minimizedRMSD -1
REMARK  1 active torsions:
REMARK  status: ('A' for Active; 'I' for Inactive)
REMARK    1  A    between atoms: C1_2  and  C2_3 
ROOT
ATOM      1  C2  UNL d   1       5.478  -4.905   3.709  0.00  0.00    -0.077 A 
ATOM      2  C3  UNL d   1       5.298  -5.268   5.051  0.00  0.00     0.002 A 
ATOM      3  C4  UNL d   1       4.936  -4.309   6.000  0.00  0.00     0.002 A 
ATOM      4  C5  UNL d   1       4.746  -2.983   5.616  0.00  0.00    -0.004 A 
ATOM      5  C6  UNL d   1       4.925  -2.612   4.284  0.00  0.00     0.002 A 
ATOM      6  C7  UNL d   1       5.288  -3.568   3.334  0.00  0.00     0.002 A 
ENDROOT
BRANCH   1   7
ATOM      7  C1  UNL d   1       5.820  -5.946   2.676  0.00  0.00     0.055 C 
ATOM      8  C   UNL d   1       6.000  -5.322   1.300  0.00  0.00     0.019 C 
ENDBRANCH   1   7
TORSDOF 1
ENDMDL
