MODEL 1
REMARK minimizedAffinity -3.44891191
REMARK minimizedRMSD -1
REMARK  1 active torsions:
REMARK  status: ('A' for Active; 'I' for Inactive)
REMARK    1  A    between atoms: C1_2  and  C2_3 
ROOT
ATOM      1  C2  UNL d   1       5.256  -3.671   4.895  0.00  0.00    -0.077 A 
ATOM      2  C3  UNL d   1       5.264  -5.031   5.237  0.00  0.00     0.002 A 
ATOM      3  C4  UNL d   1       5.618  -5.995   4.291  0.00  0.00     0.002 A 
ATOM      4  C5  UNL d   1       5.972  -5.609   3.000  0.00  0.00    -0.004 A 
ATOM      5  C6  UNL d   1       5.966  -4.260   2.649  0.00  0.00     0.002 A 
ATOM      6  C7  UNL d   1       5.610  -3.295   3.593  0.00  0.00     0.002 A 
ENDROOT
BRANCH   1   7
ATOM      7  C1  UNL d   1       4.922  -2.626   5.927  0.00  0.00     0.055 C 
ATOM      8  C   UNL d   1       5.998  -1.552   5.997  0.00  0.00     0.019 C 
ENDBRANCH   1   7
TORSDOF 1
ENDMDL
