MODEL 1
REMARK minimizedAffinity -3.36512089
REMARK minimizedRMSD -1
REMARK  1 active torsions:
REMARK  status: ('A' for Active; 'I' for Inactive)
REMARK    1  A    between atoms: C1_2  and  C2_3 
ROOT
ATOM      1  C2  UNL d   1       5.252  -4.167   4.891  0.00  0.00    -0.077 A 
ATOM      2  C3  UNL d   1       5.256  -4.483   3.525  0.00  0.00     0.002 A 
ATOM      3  C4  UNL d   1       5.627  -3.525   2.580  0.00  0.00     0.002 A 
ATOM      4  C5  UNL d   1       6.000  -2.247   2.990  0.00  0.00    -0.004 A 
ATOM      5  C6  UNL d   1       5.997  -1.922   4.346  0.00  0.00     0.002 A 
ATOM      6  C7  UNL d   1       5.625  -2.878   5.293  0.00  0.00     0.002 A 
ENDROOT
BRANCH   1   7
ATOM      7  C1  UNL d   1       4.900  -5.214   5.916  0.00  0.00     0.055 C 
ATOM      8  C   UNL d   1       3.575  -5.888   5.586  0.00  0.00     0.019 C 
ENDBRANCH   1   7
TORSDOF 1
ENDMDL
