MODEL 1
REMARK minimizedAffinity -3.37371254
REMARK minimizedRMSD -1
REMARK  1 active torsions:
REMARK  status: ('A' for Active; 'I' for Inactive)
REMARK    1  A    between atoms: C1_2  and  C2_3 
ROOT
ATOM      1  C2  UNL d   1       4.719  -3.534   3.521  0.00  0.00    -0.077 A 
ATOM      2  C3  UNL d   1       5.237  -2.995   4.707  0.00  0.00     0.002 A 
ATOM      3  C4  UNL d   1       4.673  -3.330   5.940  0.00  0.00     0.002 A 
ATOM      4  C5  UNL d   1       3.592  -4.207   5.998  0.00  0.00    -0.004 A 
ATOM      5  C6  UNL d   1       3.068  -4.746   4.824  0.00  0.00     0.002 A 
ATOM      6  C7  UNL d   1       3.630  -4.412   3.591  0.00  0.00     0.002 A 
ENDROOT
BRANCH   1   7
ATOM      7  C1  UNL d   1       5.356  -3.213   2.194  0.00  0.00     0.055 C 
ATOM      8  C   UNL d   1       5.999  -4.446   1.576  0.00  0.00     0.019 C 
ENDBRANCH   1   7
TORSDOF 1
ENDMDL
