MODEL 1
REMARK minimizedAffinity -1.12424636
REMARK minimizedRMSD -1
REMARK  1 active torsions:
REMARK  status: ('A' for Active; 'I' for Inactive)
REMARK    1  A    between atoms: C1_2  and  C2_3 
ROOT
ATOM      1  C2  UNL d   1       4.757  -4.631   4.908  0.00  0.00    -0.077 A 
ATOM      2  C3  UNL d   1       5.404  -4.322   3.703  0.00  0.00     0.002 A 
ATOM      3  C4  UNL d   1       5.989  -3.068   3.517  0.00  0.00     0.002 A 
ATOM      4  C5  UNL d   1       5.936  -2.115   4.532  0.00  0.00    -0.004 A 
ATOM      5  C6  UNL d   1       5.293  -2.412   5.733  0.00  0.00     0.002 A 
ATOM      6  C7  UNL d   1       4.707  -3.665   5.921  0.00  0.00     0.002 A 
ENDROOT
BRANCH   1   7
ATOM      7  C1  UNL d   1       4.169  -6.000   5.129  0.00  0.00     0.055 C 
ATOM      8  C   UNL d   1       2.807  -5.915   5.802  0.00  0.00     0.019 C 
ENDBRANCH   1   7
TORSDOF 1
ENDMDL
