MODEL 1
REMARK minimizedAffinity -4.16734171
REMARK minimizedRMSD -1
REMARK  0 active torsions:
REMARK  status: ('A' for Active; 'I' for Inactive)
ROOT
ATOM      1  C   UNL d   1      -0.190  -2.462   0.714  0.00  0.00     0.077 C 
ATOM      2  C1  UNL d   1       0.914  -1.531   0.309  0.00  0.00    -0.074 A 
ATOM      3  C2  UNL d   1       2.135  -2.025  -0.161  0.00  0.00    -0.005 A 
ATOM      4  C3  UNL d   1       3.149  -1.146  -0.543  0.00  0.00     0.006 A 
ATOM      5  C4  UNL d   1       2.952   0.233  -0.458  0.00  0.00    -0.005 A 
ATOM      6  C5  UNL d   1       1.738   0.745   0.009  0.00  0.00    -0.074 A 
ATOM      7  C6  UNL d   1       1.507   2.224   0.097  0.00  0.00     0.077 C 
ATOM      8  C7  UNL d   1       0.721  -0.144   0.384  0.00  0.00    -0.001 A 
ENDROOT
TORSDOF 0
ENDMDL
