MODEL 1
REMARK minimizedAffinity -4.42921829
REMARK minimizedRMSD -1
REMARK  0 active torsions:
REMARK  status: ('A' for Active; 'I' for Inactive)
ROOT
ATOM      1  C   UNL d   1       2.474  -0.840   1.584  0.00  0.00     0.077 C 
ATOM      2  C1  UNL d   1       1.644  -0.152   0.540  0.00  0.00    -0.074 A 
ATOM      3  C2  UNL d   1       1.630   1.242   0.437  0.00  0.00    -0.005 A 
ATOM      4  C3  UNL d   1       0.861   1.867  -0.544  0.00  0.00     0.006 A 
ATOM      5  C4  UNL d   1       0.099   1.105  -1.431  0.00  0.00    -0.005 A 
ATOM      6  C5  UNL d   1       0.101  -0.291  -1.344  0.00  0.00    -0.074 A 
ATOM      7  C6  UNL d   1      -0.704  -1.125  -2.295  0.00  0.00     0.077 C 
ATOM      8  C7  UNL d   1       0.882  -0.911  -0.359  0.00  0.00    -0.001 A 
ENDROOT
TORSDOF 0
ENDMDL
