MODEL 1
REMARK minimizedAffinity 0.525903761
REMARK minimizedRMSD -1
REMARK  0 active torsions:
REMARK  status: ('A' for Active; 'I' for Inactive)
ROOT
ATOM      1  C   UNL d   1      -0.819  -1.559  -2.280  0.00  0.00     0.077 C 
ATOM      2  C1  UNL d   1      -0.085  -1.053  -1.074  0.00  0.00    -0.074 A 
ATOM      3  C2  UNL d   1      -0.683  -0.141  -0.199  0.00  0.00    -0.005 A 
ATOM      4  C3  UNL d   1       0.008   0.314   0.924  0.00  0.00     0.006 A 
ATOM      5  C4  UNL d   1       1.304  -0.137   1.181  0.00  0.00    -0.005 A 
ATOM      6  C5  UNL d   1       1.918  -1.049   0.317  0.00  0.00    -0.074 A 
ATOM      7  C6  UNL d   1       3.306  -1.551   0.585  0.00  0.00     0.077 C 
ATOM      8  C7  UNL d   1       1.214  -1.507  -0.805  0.00  0.00    -0.001 A 
ENDROOT
TORSDOF 0
ENDMDL
