MODEL 1
REMARK minimizedAffinity -4.46921873
REMARK minimizedRMSD -1
REMARK  0 active torsions:
REMARK  status: ('A' for Active; 'I' for Inactive)
ROOT
ATOM      1  C   UNL d   1       2.241  -2.834  -1.549  0.00  0.00     0.077 C 
ATOM      2  C1  UNL d   1       1.987  -1.705  -0.595  0.00  0.00    -0.074 A 
ATOM      3  C2  UNL d   1       2.938  -1.349   0.367  0.00  0.00    -0.005 A 
ATOM      4  C3  UNL d   1       2.692  -0.290   1.241  0.00  0.00     0.006 A 
ATOM      5  C4  UNL d   1       1.494   0.422   1.162  0.00  0.00    -0.005 A 
ATOM      6  C5  UNL d   1       0.532   0.081   0.206  0.00  0.00    -0.074 A 
ATOM      7  C6  UNL d   1      -0.756   0.842   0.101  0.00  0.00     0.077 C 
ATOM      8  C7  UNL d   1       0.790  -0.980  -0.673  0.00  0.00    -0.001 A 
ENDROOT
TORSDOF 0
ENDMDL
