MODEL 1
REMARK minimizedAffinity 4.63086843
REMARK minimizedRMSD -1
REMARK  0 active torsions:
REMARK  status: ('A' for Active; 'I' for Inactive)
ROOT
ATOM      1  C   UNL d   1       0.404   3.079   0.365  0.00  0.00     0.077 C 
ATOM      2  C1  UNL d   1       0.453   1.602   0.110  0.00  0.00    -0.074 A 
ATOM      3  C2  UNL d   1      -0.692   0.901  -0.281  0.00  0.00    -0.005 A 
ATOM      4  C3  UNL d   1      -0.628  -0.471  -0.524  0.00  0.00     0.006 A 
ATOM      5  C4  UNL d   1       0.579  -1.155  -0.377  0.00  0.00    -0.005 A 
ATOM      6  C5  UNL d   1       1.735  -0.471   0.013  0.00  0.00    -0.074 A 
ATOM      7  C6  UNL d   1       3.043  -1.189   0.165  0.00  0.00     0.077 C 
ATOM      8  C7  UNL d   1       1.664   0.909   0.248  0.00  0.00    -0.001 A 
ENDROOT
TORSDOF 0
ENDMDL
