MODEL 1
REMARK minimizedAffinity -5.67062235
REMARK minimizedRMSD -1
REMARK  0 active torsions:
REMARK  status: ('A' for Active; 'I' for Inactive)
ROOT
ATOM      1  C   UNL d   1       3.546  -1.493   1.229  0.00  0.00     0.077 C 
ATOM      2  C1  UNL d   1       2.364  -1.009   0.443  0.00  0.00    -0.074 A 
ATOM      3  C2  UNL d   1       1.957   0.328   0.505  0.00  0.00    -0.005 A 
ATOM      4  C3  UNL d   1       0.862   0.765  -0.239  0.00  0.00     0.006 A 
ATOM      5  C4  UNL d   1       0.163  -0.128  -1.052  0.00  0.00    -0.005 A 
ATOM      6  C5  UNL d   1       0.556  -1.468  -1.129  0.00  0.00    -0.074 A 
ATOM      7  C6  UNL d   1      -0.178  -2.439  -2.005  0.00  0.00     0.077 C 
ATOM      8  C7  UNL d   1       1.662  -1.898  -0.383  0.00  0.00    -0.001 A 
ENDROOT
TORSDOF 0
ENDMDL
