MODEL 1
REMARK minimizedAffinity -4.33968496
REMARK minimizedRMSD -1
REMARK  0 active torsions:
REMARK  status: ('A' for Active; 'I' for Inactive)
ROOT
ATOM      1  C   UNL d   1       3.623  -2.517  -2.742  0.00  0.00     0.077 C 
ATOM      2  C1  UNL d   1       3.561  -1.414  -1.727  0.00  0.00    -0.074 A 
ATOM      3  C2  UNL d   1       4.193  -0.188  -1.959  0.00  0.00    -0.005 A 
ATOM      4  C3  UNL d   1       4.118   0.831  -1.010  0.00  0.00     0.006 A 
ATOM      5  C4  UNL d   1       3.413   0.636   0.178  0.00  0.00    -0.005 A 
ATOM      6  C5  UNL d   1       2.774  -0.583   0.427  0.00  0.00    -0.074 A 
ATOM      7  C6  UNL d   1       2.004  -0.807   1.694  0.00  0.00     0.077 C 
ATOM      8  C7  UNL d   1       2.848  -1.601  -0.535  0.00  0.00    -0.001 A 
ENDROOT
TORSDOF 0
ENDMDL
