MODEL 1
REMARK minimizedAffinity -1.1084162
REMARK minimizedRMSD -1
REMARK  0 active torsions:
REMARK  status: ('A' for Active; 'I' for Inactive)
ROOT
ATOM      1  C   UNL d   1       0.392  -1.416  -1.431  0.00  0.00     0.077 C 
ATOM      2  C1  UNL d   1       1.188  -0.641  -0.423  0.00  0.00    -0.074 A 
ATOM      3  C2  UNL d   1       1.969  -1.297   0.534  0.00  0.00    -0.005 A 
ATOM      4  C3  UNL d   1       2.711  -0.563   1.459  0.00  0.00     0.006 A 
ATOM      5  C4  UNL d   1       2.680   0.832   1.437  0.00  0.00    -0.005 A 
ATOM      6  C5  UNL d   1       1.905   1.505   0.487  0.00  0.00    -0.074 A 
ATOM      7  C6  UNL d   1       1.868   3.004   0.443  0.00  0.00     0.077 C 
ATOM      8  C7  UNL d   1       1.168   0.761  -0.444  0.00  0.00    -0.001 A 
ENDROOT
TORSDOF 0
ENDMDL
