MODEL 1
REMARK minimizedAffinity -0.910469651
REMARK minimizedRMSD -1
REMARK  0 active torsions:
REMARK  status: ('A' for Active; 'I' for Inactive)
ROOT
ATOM      1  C   UNL d   1      -1.911   0.161  -1.199  0.00  0.00     0.077 C 
ATOM      2  C1  UNL d   1      -0.549  -0.150  -0.654  0.00  0.00    -0.074 A 
ATOM      3  C2  UNL d   1      -0.017  -1.440  -0.742  0.00  0.00    -0.005 A 
ATOM      4  C3  UNL d   1       1.255  -1.712  -0.238  0.00  0.00     0.006 A 
ATOM      5  C4  UNL d   1       2.006  -0.698   0.357  0.00  0.00    -0.005 A 
ATOM      6  C5  UNL d   1       1.491   0.598   0.453  0.00  0.00    -0.074 A 
ATOM      7  C6  UNL d   1       2.290   1.702   1.081  0.00  0.00     0.077 C 
ATOM      8  C7  UNL d   1       0.215   0.865  -0.061  0.00  0.00    -0.001 A 
ENDROOT
TORSDOF 0
ENDMDL
