MODEL 1
REMARK minimizedAffinity 1.74639845
REMARK minimizedRMSD -1
REMARK  0 active torsions:
REMARK  status: ('A' for Active; 'I' for Inactive)
ROOT
ATOM      1  C   UNL d   1       1.159  -2.563   1.180  0.00  0.00     0.023 A 
ATOM      2  C1  UNL d   1       1.334  -1.372   0.476  0.00  0.00     0.003 A 
ATOM      3  C2  UNL d   1       2.605  -0.805   0.365  0.00  0.00     0.048 A 
ATOM      4  C3  UNL d   1       3.697  -1.435   0.960  0.00  0.00     0.023 A 
ATOM      5  C4  UNL d   1       3.527  -2.627   1.665  0.00  0.00     0.048 A 
ATOM      6  C5  UNL d   1       2.254  -3.190   1.775  0.00  0.00     0.003 A 
ATOM      7  I   UNL d   1       5.590  -0.594   0.796  0.00  0.00    -0.146 I 
ENDROOT
TORSDOF 0
ENDMDL
