MODEL 1
REMARK minimizedAffinity 1.38610172
REMARK minimizedRMSD -1
REMARK  0 active torsions:
REMARK  status: ('A' for Active; 'I' for Inactive)
ROOT
ATOM      1  C   UNL d   1       0.757  -2.200   2.047  0.00  0.00     0.023 A 
ATOM      2  C1  UNL d   1       0.918  -1.438   3.204  0.00  0.00     0.003 A 
ATOM      3  C2  UNL d   1      -0.129  -0.637   3.665  0.00  0.00     0.048 A 
ATOM      4  C3  UNL d   1      -1.334  -0.603   2.964  0.00  0.00     0.023 A 
ATOM      5  C4  UNL d   1      -1.500  -1.365   1.806  0.00  0.00     0.048 A 
ATOM      6  C5  UNL d   1      -0.450  -2.164   1.349  0.00  0.00     0.003 A 
ATOM      7  I   UNL d   1      -2.893   0.588   3.648  0.00  0.00    -0.146 I 
ENDROOT
TORSDOF 0
ENDMDL
