MODEL 1
REMARK minimizedAffinity 4.42245197
REMARK minimizedRMSD -1
REMARK  0 active torsions:
REMARK  status: ('A' for Active; 'I' for Inactive)
ROOT
ATOM      1  C   UNL d   1       2.182  -2.862   0.440  0.00  0.00     0.023 A 
ATOM      2  C1  UNL d   1       1.502  -1.783  -0.126  0.00  0.00     0.003 A 
ATOM      3  C2  UNL d   1       0.440  -1.189   0.558  0.00  0.00     0.048 A 
ATOM      4  C3  UNL d   1       0.064  -1.677   1.809  0.00  0.00     0.023 A 
ATOM      5  C4  UNL d   1       0.742  -2.756   2.380  0.00  0.00     0.048 A 
ATOM      6  C5  UNL d   1       1.802  -3.347   1.691  0.00  0.00     0.003 A 
ATOM      7  I   UNL d   1      -1.516  -0.793   2.830  0.00  0.00    -0.146 I 
ENDROOT
TORSDOF 0
ENDMDL
