MODEL 1
REMARK minimizedAffinity 9.71425819
REMARK minimizedRMSD -1
REMARK  0 active torsions:
REMARK  status: ('A' for Active; 'I' for Inactive)
ROOT
ATOM      1  C   UNL d   1       2.784  -3.214   0.039  0.00  0.00     0.023 A 
ATOM      2  C1  UNL d   1       2.306  -3.980   1.102  0.00  0.00     0.003 A 
ATOM      3  C2  UNL d   1       1.312  -3.470   1.941  0.00  0.00     0.048 A 
ATOM      4  C3  UNL d   1       0.800  -2.194   1.709  0.00  0.00     0.023 A 
ATOM      5  C4  UNL d   1       1.275  -1.424   0.646  0.00  0.00     0.048 A 
ATOM      6  C5  UNL d   1       2.269  -1.938  -0.189  0.00  0.00     0.003 A 
ATOM      7  I   UNL d   1      -0.679  -1.434   2.955  0.00  0.00    -0.146 I 
ENDROOT
TORSDOF 0
ENDMDL
