MODEL 1
REMARK minimizedAffinity 3.13054156
REMARK minimizedRMSD -1
REMARK  0 active torsions:
REMARK  status: ('A' for Active; 'I' for Inactive)
ROOT
ATOM      1  C   UNL d   1       2.530  -2.879   0.750  0.00  0.00     0.023 A 
ATOM      2  C1  UNL d   1       2.409  -2.856   2.140  0.00  0.00     0.003 A 
ATOM      3  C2  UNL d   1       1.297  -2.257   2.735  0.00  0.00     0.048 A 
ATOM      4  C3  UNL d   1       0.308  -1.686   1.934  0.00  0.00     0.023 A 
ATOM      5  C4  UNL d   1       0.425  -1.708   0.544  0.00  0.00     0.048 A 
ATOM      6  C5  UNL d   1       1.539  -2.306  -0.047  0.00  0.00     0.003 A 
ATOM      7  I   UNL d   1      -1.349  -0.795   2.818  0.00  0.00    -0.146 I 
ENDROOT
TORSDOF 0
ENDMDL
