MODEL 1
REMARK minimizedAffinity 1.44676924
REMARK minimizedRMSD -1
REMARK  0 active torsions:
REMARK  status: ('A' for Active; 'I' for Inactive)
ROOT
ATOM      1  C   UNL d   1       1.651  -2.673   0.494  0.00  0.00     0.023 A 
ATOM      2  C1  UNL d   1       1.635  -2.948   1.862  0.00  0.00     0.003 A 
ATOM      3  C2  UNL d   1       0.755  -2.264   2.703  0.00  0.00     0.048 A 
ATOM      4  C3  UNL d   1      -0.108  -1.307   2.169  0.00  0.00     0.023 A 
ATOM      5  C4  UNL d   1      -0.096  -1.029   0.801  0.00  0.00     0.048 A 
ATOM      6  C5  UNL d   1       0.787  -1.715  -0.035  0.00  0.00     0.003 A 
ATOM      7  I   UNL d   1      -1.419  -0.288   3.419  0.00  0.00    -0.146 I 
ENDROOT
TORSDOF 0
ENDMDL
