MODEL 1
REMARK minimizedAffinity 2.82255626
REMARK minimizedRMSD -1
REMARK  0 active torsions:
REMARK  status: ('A' for Active; 'I' for Inactive)
ROOT
ATOM      1  C   UNL d   1       2.662  -3.408  -0.056  0.00  0.00     0.023 A 
ATOM      2  C1  UNL d   1       2.654  -2.015   0.016  0.00  0.00     0.003 A 
ATOM      3  C2  UNL d   1       1.825  -1.366   0.933  0.00  0.00     0.048 A 
ATOM      4  C3  UNL d   1       1.007  -2.117   1.777  0.00  0.00     0.023 A 
ATOM      5  C4  UNL d   1       1.012  -3.511   1.709  0.00  0.00     0.048 A 
ATOM      6  C5  UNL d   1       1.842  -4.155   0.789  0.00  0.00     0.003 A 
ATOM      7  I   UNL d   1      -0.228  -1.154   3.143  0.00  0.00    -0.146 I 
ENDROOT
TORSDOF 0
ENDMDL
