MODEL 1
REMARK minimizedAffinity 2.12467647
REMARK minimizedRMSD -1
REMARK  1 active torsions:
REMARK  status: ('A' for Active; 'I' for Inactive)
REMARK    1  A    between atoms: C1_2  and  C2_3 
ROOT
ATOM      1  C2  UNL d   1       0.464  -0.979   2.772  0.00  0.00    -0.076 A 
ATOM      2  C3  UNL d   1      -0.915  -1.156   2.979  0.00  0.00     0.004 A 
ATOM      3  C4  UNL d   1      -1.850  -0.426   2.246  0.00  0.00    -0.003 A 
ATOM      4  C5  UNL d   1      -1.421   0.492   1.294  0.00  0.00     0.000 A 
ATOM      5  C6  UNL d   1      -0.057   0.668   1.063  0.00  0.00     0.000 A 
ATOM      6  C7  UNL d   1       0.899  -0.072   1.782  0.00  0.00    -0.073 A 
ATOM      7  C8  UNL d   1       2.357   0.163   1.496  0.00  0.00     0.078 C 
ENDROOT
BRANCH   1   8
ATOM      8  C1  UNL d   1       1.432  -1.778   3.615  0.00  0.00     0.053 C 
ATOM      9  C   UNL d   1       0.733  -2.577   4.704  0.00  0.00     0.018 C 
ENDBRANCH   1   8
TORSDOF 1
ENDMDL
