MODEL 1
REMARK minimizedAffinity 7.70403862
REMARK minimizedRMSD -1
REMARK  1 active torsions:
REMARK  status: ('A' for Active; 'I' for Inactive)
REMARK    1  A    between atoms: C1_2  and  C2_3 
ROOT
ATOM      1  C2  UNL d   1       0.420  -1.442   3.100  0.00  0.00    -0.076 A 
ATOM      2  C3  UNL d   1       1.518  -0.997   2.343  0.00  0.00     0.004 A 
ATOM      3  C4  UNL d   1       1.333  -0.292   1.156  0.00  0.00    -0.003 A 
ATOM      4  C5  UNL d   1       0.046  -0.019   0.705  0.00  0.00     0.000 A 
ATOM      5  C6  UNL d   1      -1.055  -0.438   1.452  0.00  0.00     0.000 A 
ATOM      6  C7  UNL d   1      -0.886  -1.136   2.660  0.00  0.00    -0.073 A 
ATOM      7  C8  UNL d   1      -2.108  -1.568   3.421  0.00  0.00     0.078 C 
ENDROOT
BRANCH   1   8
ATOM      8  C1  UNL d   1       0.682  -2.226   4.366  0.00  0.00     0.053 C 
ATOM      9  C   UNL d   1       2.154  -2.237   4.750  0.00  0.00     0.018 C 
ENDBRANCH   1   8
TORSDOF 1
ENDMDL
