MODEL 1
REMARK minimizedAffinity -4.07152843
REMARK minimizedRMSD -1
REMARK  1 active torsions:
REMARK  status: ('A' for Active; 'I' for Inactive)
REMARK    1  A    between atoms: C1_2  and  C2_3 
ROOT
ATOM      1  C2  UNL d   1       0.912  -1.737   3.338  0.00  0.00    -0.076 A 
ATOM      2  C3  UNL d   1       1.038  -0.706   2.391  0.00  0.00     0.004 A 
ATOM      3  C4  UNL d   1      -0.073  -0.229   1.697  0.00  0.00    -0.003 A 
ATOM      4  C5  UNL d   1      -1.329  -0.776   1.940  0.00  0.00     0.000 A 
ATOM      5  C6  UNL d   1      -1.475  -1.787   2.888  0.00  0.00     0.000 A 
ATOM      6  C7  UNL d   1      -0.367  -2.268   3.608  0.00  0.00    -0.073 A 
ATOM      7  C8  UNL d   1      -0.582  -3.365   4.615  0.00  0.00     0.078 C 
ENDROOT
BRANCH   1   8
ATOM      8  C1  UNL d   1       2.157  -2.232   4.039  0.00  0.00     0.053 C 
ATOM      9  C   UNL d   1       2.396  -1.529   5.366  0.00  0.00     0.018 C 
ENDBRANCH   1   8
TORSDOF 1
ENDMDL
