MODEL 1
REMARK minimizedAffinity 0.801947832
REMARK minimizedRMSD -1
REMARK  1 active torsions:
REMARK  status: ('A' for Active; 'I' for Inactive)
REMARK    1  A    between atoms: C1_2  and  C2_3 
ROOT
ATOM      1  C2  UNL d   1       0.713  -1.156   3.533  0.00  0.00    -0.076 A 
ATOM      2  C3  UNL d   1      -0.287  -1.408   4.488  0.00  0.00     0.004 A 
ATOM      3  C4  UNL d   1      -1.636  -1.250   4.173  0.00  0.00    -0.003 A 
ATOM      4  C5  UNL d   1      -2.007  -0.839   2.898  0.00  0.00     0.000 A 
ATOM      5  C6  UNL d   1      -1.029  -0.601   1.932  0.00  0.00     0.000 A 
ATOM      6  C7  UNL d   1       0.335  -0.771   2.228  0.00  0.00    -0.073 A 
ATOM      7  C8  UNL d   1       1.347  -0.495   1.151  0.00  0.00     0.078 C 
ENDROOT
BRANCH   1   8
ATOM      8  C1  UNL d   1       2.160  -1.317   3.939  0.00  0.00     0.053 C 
ATOM      9  C   UNL d   1       2.324  -1.532   5.436  0.00  0.00     0.018 C 
ENDBRANCH   1   8
TORSDOF 1
ENDMDL
