MODEL 1
REMARK minimizedAffinity 6.86089134
REMARK minimizedRMSD -1
REMARK  1 active torsions:
REMARK  status: ('A' for Active; 'I' for Inactive)
REMARK    1  A    between atoms: C1_2  and  C2_3 
ROOT
ATOM      1  C2  UNL d   1       0.831  -0.659   2.421  0.00  0.00    -0.076 A 
ATOM      2  C3  UNL d   1       2.028  -1.109   3.006  0.00  0.00     0.004 A 
ATOM      3  C4  UNL d   1       2.019  -1.791   4.222  0.00  0.00    -0.003 A 
ATOM      4  C5  UNL d   1       0.814  -2.036   4.871  0.00  0.00     0.000 A 
ATOM      5  C6  UNL d   1      -0.383  -1.612   4.296  0.00  0.00     0.000 A 
ATOM      6  C7  UNL d   1      -0.394  -0.937   3.063  0.00  0.00    -0.073 A 
ATOM      7  C8  UNL d   1      -1.714  -0.498   2.492  0.00  0.00     0.078 C 
ENDROOT
BRANCH   1   8
ATOM      8  C1  UNL d   1       0.905   0.099   1.115  0.00  0.00     0.053 C 
ATOM      9  C   UNL d   1       1.838   1.298   1.189  0.00  0.00     0.018 C 
ENDBRANCH   1   8
TORSDOF 1
ENDMDL
