MODEL 1
REMARK minimizedAffinity -1.91273475
REMARK minimizedRMSD -1
REMARK  1 active torsions:
REMARK  status: ('A' for Active; 'I' for Inactive)
REMARK    1  A    between atoms: C1_2  and  C2_3 
ROOT
ATOM      1  C2  UNL d   1       1.308  -0.820   2.201  0.00  0.00    -0.076 A 
ATOM      2  C3  UNL d   1       0.504  -0.216   1.218  0.00  0.00     0.004 A 
ATOM      3  C4  UNL d   1      -0.874  -0.103   1.388  0.00  0.00    -0.003 A 
ATOM      4  C5  UNL d   1      -1.472  -0.591   2.545  0.00  0.00     0.000 A 
ATOM      5  C6  UNL d   1      -0.688  -1.177   3.538  0.00  0.00     0.000 A 
ATOM      6  C7  UNL d   1       0.705  -1.285   3.390  0.00  0.00    -0.073 A 
ATOM      7  C8  UNL d   1       1.501  -1.931   4.490  0.00  0.00     0.078 C 
ENDROOT
BRANCH   1   8
ATOM      8  C1  UNL d   1       2.794  -0.940   1.949  0.00  0.00     0.053 C 
ATOM      9  C   UNL d   1       3.340   0.219   1.128  0.00  0.00     0.018 C 
ENDBRANCH   1   8
TORSDOF 1
ENDMDL
