MODEL 1
REMARK minimizedAffinity -0.372068644
REMARK minimizedRMSD -1
REMARK  1 active torsions:
REMARK  status: ('A' for Active; 'I' for Inactive)
REMARK    1  A    between atoms: C1_2  and  C2_3 
ROOT
ATOM      1  C2  UNL d   1       0.179  -1.438   3.501  0.00  0.00    -0.076 A 
ATOM      2  C3  UNL d   1      -0.781  -2.207   4.182  0.00  0.00     0.004 A 
ATOM      3  C4  UNL d   1      -2.132  -2.126   3.850  0.00  0.00    -0.003 A 
ATOM      4  C5  UNL d   1      -2.545  -1.275   2.830  0.00  0.00     0.000 A 
ATOM      5  C6  UNL d   1      -1.604  -0.519   2.132  0.00  0.00     0.000 A 
ATOM      6  C7  UNL d   1      -0.236  -0.601   2.443  0.00  0.00    -0.073 A 
ATOM      7  C8  UNL d   1       0.734   0.241   1.662  0.00  0.00     0.078 C 
ENDROOT
BRANCH   1   8
ATOM      8  C1  UNL d   1       1.627  -1.548   3.923  0.00  0.00     0.053 C 
ATOM      9  C   UNL d   1       1.802  -1.456   5.431  0.00  0.00     0.018 C 
ENDBRANCH   1   8
TORSDOF 1
ENDMDL
