MODEL 1
REMARK minimizedAffinity 7.63749695
REMARK minimizedRMSD -1
REMARK  1 active torsions:
REMARK  status: ('A' for Active; 'I' for Inactive)
REMARK    1  A    between atoms: C1_2  and  C2_3 
ROOT
ATOM      1  C2  UNL d   1       1.038  -0.500   2.293  0.00  0.00    -0.076 A 
ATOM      2  C3  UNL d   1      -0.341  -0.770   2.338  0.00  0.00     0.004 A 
ATOM      3  C4  UNL d   1      -1.264   0.121   1.795  0.00  0.00    -0.003 A 
ATOM      4  C5  UNL d   1      -0.824   1.297   1.197  0.00  0.00     0.000 A 
ATOM      5  C6  UNL d   1       0.541   1.573   1.129  0.00  0.00     0.000 A 
ATOM      6  C7  UNL d   1       1.486   0.677   1.657  0.00  0.00    -0.073 A 
ATOM      7  C8  UNL d   1       2.946   1.028   1.561  0.00  0.00     0.078 C 
ENDROOT
BRANCH   1   8
ATOM      8  C1  UNL d   1       1.991  -1.491   2.923  0.00  0.00     0.053 C 
ATOM      9  C   UNL d   1       1.940  -1.463   4.443  0.00  0.00     0.018 C 
ENDBRANCH   1   8
TORSDOF 1
ENDMDL
