MODEL 1
REMARK minimizedAffinity 0.055879768
REMARK minimizedRMSD -1
REMARK  1 active torsions:
REMARK  status: ('A' for Active; 'I' for Inactive)
REMARK    1  A    between atoms: C1_2  and  C2_3 
ROOT
ATOM      1  C2  UNL d   1       0.135  -0.378   1.934  0.00  0.00    -0.076 A 
ATOM      2  C3  UNL d   1       1.479  -0.768   2.072  0.00  0.00     0.004 A 
ATOM      3  C4  UNL d   1       1.933  -1.374   3.242  0.00  0.00    -0.003 A 
ATOM      4  C5  UNL d   1       1.051  -1.601   4.293  0.00  0.00     0.000 A 
ATOM      5  C6  UNL d   1      -0.289  -1.237   4.167  0.00  0.00     0.000 A 
ATOM      6  C7  UNL d   1      -0.767  -0.640   2.988  0.00  0.00    -0.073 A 
ATOM      7  C8  UNL d   1      -2.221  -0.262   2.908  0.00  0.00     0.078 C 
ENDROOT
BRANCH   1   8
ATOM      8  C1  UNL d   1      -0.295   0.300   0.653  0.00  0.00     0.053 C 
ATOM      9  C   UNL d   1      -0.944  -0.665  -0.327  0.00  0.00     0.018 C 
ENDBRANCH   1   8
TORSDOF 1
ENDMDL
