MODEL 1
REMARK minimizedAffinity -5.40026236
REMARK minimizedRMSD -1
REMARK  1 active torsions:
REMARK  status: ('A' for Active; 'I' for Inactive)
REMARK    1  A    between atoms: C1_2  and  C2_3 
ROOT
ATOM      1  C2  UNL d   1       0.257  -0.476  -2.875  0.00  0.00    -0.076 A 
ATOM      2  C3  UNL d   1      -1.013  -0.849  -3.347  0.00  0.00     0.004 A 
ATOM      3  C4  UNL d   1      -1.528  -0.310  -4.525  0.00  0.00    -0.003 A 
ATOM      4  C5  UNL d   1      -0.780   0.611  -5.251  0.00  0.00     0.000 A 
ATOM      5  C6  UNL d   1       0.489   0.979  -4.807  0.00  0.00     0.000 A 
ATOM      6  C7  UNL d   1       1.030   0.433  -3.630  0.00  0.00    -0.073 A 
ATOM      7  C8  UNL d   1       2.401   0.870  -3.194  0.00  0.00     0.078 C 
ENDROOT
BRANCH   1   8
ATOM      8  C1  UNL d   1       0.751  -1.073  -1.577  0.00  0.00     0.053 C 
ATOM      9  C   UNL d   1      -0.050  -0.598  -0.375  0.00  0.00     0.018 C 
ENDBRANCH   1   8
TORSDOF 1
ENDMDL
