MODEL 1
REMARK minimizedAffinity -4.43992329
REMARK minimizedRMSD -1
REMARK  1 active torsions:
REMARK  status: ('A' for Active; 'I' for Inactive)
REMARK    1  A    between atoms: C1_2  and  C2_3 
ROOT
ATOM      1  C2  UNL d   1       0.440  -0.006   0.571  0.00  0.00    -0.076 A 
ATOM      2  C3  UNL d   1      -0.814   0.616   0.701  0.00  0.00     0.004 A 
ATOM      3  C4  UNL d   1      -1.324   0.947   1.956  0.00  0.00    -0.003 A 
ATOM      4  C5  UNL d   1      -0.587   0.663   3.100  0.00  0.00     0.000 A 
ATOM      5  C6  UNL d   1       0.666   0.062   2.989  0.00  0.00     0.000 A 
ATOM      6  C7  UNL d   1       1.202  -0.264   1.731  0.00  0.00    -0.073 A 
ATOM      7  C8  UNL d   1       2.556  -0.916   1.669  0.00  0.00     0.078 C 
ENDROOT
BRANCH   1   8
ATOM      8  C1  UNL d   1       0.929  -0.367  -0.814  0.00  0.00     0.053 C 
ATOM      9  C   UNL d   1      -0.176  -0.304  -1.857  0.00  0.00     0.018 C 
ENDBRANCH   1   8
TORSDOF 1
ENDMDL
