MODEL 1
REMARK minimizedAffinity -3.77551317
REMARK minimizedRMSD -1
REMARK  1 active torsions:
REMARK  status: ('A' for Active; 'I' for Inactive)
REMARK    1  A    between atoms: C1_2  and  C2_3 
ROOT
ATOM      1  C2  UNL d   1       0.796  -0.541  -2.688  0.00  0.00    -0.076 A 
ATOM      2  C3  UNL d   1      -0.529  -0.560  -3.157  0.00  0.00     0.004 A 
ATOM      3  C4  UNL d   1      -0.898   0.159  -4.292  0.00  0.00    -0.003 A 
ATOM      4  C5  UNL d   1       0.052   0.907  -4.978  0.00  0.00     0.000 A 
ATOM      5  C6  UNL d   1       1.375   0.923  -4.538  0.00  0.00     0.000 A 
ATOM      6  C7  UNL d   1       1.767   0.191  -3.404  0.00  0.00    -0.073 A 
ATOM      7  C8  UNL d   1       3.206   0.248  -2.969  0.00  0.00     0.078 C 
ENDROOT
BRANCH   1   8
ATOM      8  C1  UNL d   1       1.132  -1.318  -1.435  0.00  0.00     0.053 C 
ATOM      9  C   UNL d   1       0.440  -0.761  -0.200  0.00  0.00     0.018 C 
ENDBRANCH   1   8
TORSDOF 1
ENDMDL
