MODEL 1
REMARK minimizedAffinity 0.0923313126
REMARK minimizedRMSD -1
REMARK  1 active torsions:
REMARK  status: ('A' for Active; 'I' for Inactive)
REMARK    1  A    between atoms: C1_2  and  C2_3 
ROOT
ATOM      1  C2  UNL d   1       0.317   0.040   0.934  0.00  0.00    -0.076 A 
ATOM      2  C3  UNL d   1      -0.941   0.521   1.338  0.00  0.00     0.004 A 
ATOM      3  C4  UNL d   1      -1.264   0.640   2.689  0.00  0.00    -0.003 A 
ATOM      4  C5  UNL d   1      -0.333   0.281   3.658  0.00  0.00     0.000 A 
ATOM      5  C6  UNL d   1       0.926  -0.181   3.275  0.00  0.00     0.000 A 
ATOM      6  C7  UNL d   1       1.273  -0.292   1.918  0.00  0.00    -0.073 A 
ATOM      7  C8  UNL d   1       2.643  -0.801   1.562  0.00  0.00     0.078 C 
ENDROOT
BRANCH   1   8
ATOM      8  C1  UNL d   1       0.601  -0.093  -0.545  0.00  0.00     0.053 C 
ATOM      9  C   UNL d   1       0.050  -1.384  -1.130  0.00  0.00     0.018 C 
ENDBRANCH   1   8
TORSDOF 1
ENDMDL
