MODEL 1
REMARK minimizedAffinity -3.24118447
REMARK minimizedRMSD -1
REMARK  1 active torsions:
REMARK  status: ('A' for Active; 'I' for Inactive)
REMARK    1  A    between atoms: C1_2  and  C2_3 
ROOT
ATOM      1  C2  UNL d   1       0.036   0.127   0.522  0.00  0.00    -0.076 A 
ATOM      2  C3  UNL d   1      -1.089   0.887   0.885  0.00  0.00     0.004 A 
ATOM      3  C4  UNL d   1      -1.141   1.551   2.110  0.00  0.00    -0.003 A 
ATOM      4  C5  UNL d   1      -0.068   1.466   2.991  0.00  0.00     0.000 A 
ATOM      5  C6  UNL d   1       1.063   0.731   2.639  0.00  0.00     0.000 A 
ATOM      6  C7  UNL d   1       1.139   0.069   1.401  0.00  0.00    -0.073 A 
ATOM      7  C8  UNL d   1       2.380  -0.715   1.076  0.00  0.00     0.078 C 
ENDROOT
BRANCH   1   8
ATOM      8  C1  UNL d   1       0.025  -0.594  -0.807  0.00  0.00     0.053 C 
ATOM      9  C   UNL d   1       0.374   0.323  -1.970  0.00  0.00     0.018 C 
ENDBRANCH   1   8
TORSDOF 1
ENDMDL
