MODEL 1
REMARK minimizedAffinity -3.28188753
REMARK minimizedRMSD -1
REMARK  1 active torsions:
REMARK  status: ('A' for Active; 'I' for Inactive)
REMARK    1  A    between atoms: C1_2  and  C2_3 
ROOT
ATOM      1  C2  UNL d   1      -0.172   0.397   0.684  0.00  0.00    -0.076 A 
ATOM      2  C3  UNL d   1      -1.550   0.619   0.518  0.00  0.00     0.004 A 
ATOM      3  C4  UNL d   1      -2.382   0.820   1.618  0.00  0.00    -0.003 A 
ATOM      4  C5  UNL d   1      -1.849   0.804   2.902  0.00  0.00     0.000 A 
ATOM      5  C6  UNL d   1      -0.481   0.603   3.085  0.00  0.00     0.000 A 
ATOM      6  C7  UNL d   1       0.374   0.414   1.985  0.00  0.00    -0.073 A 
ATOM      7  C8  UNL d   1       1.840   0.196   2.241  0.00  0.00     0.078 C 
ENDROOT
BRANCH   1   8
ATOM      8  C1  UNL d   1       0.676   0.157  -0.545  0.00  0.00     0.053 C 
ATOM      9  C   UNL d   1       0.626  -1.288  -1.015  0.00  0.00     0.018 C 
ENDBRANCH   1   8
TORSDOF 1
ENDMDL
