MODEL 1
REMARK minimizedAffinity -3.13703656
REMARK minimizedRMSD -1
REMARK  1 active torsions:
REMARK  status: ('A' for Active; 'I' for Inactive)
REMARK    1  A    between atoms: C1_2  and  C2_3 
ROOT
ATOM      1  C2  UNL d   1      -0.073  -0.009   3.398  0.00  0.00    -0.076 A 
ATOM      2  C3  UNL d   1       1.047   0.152   2.565  0.00  0.00     0.004 A 
ATOM      3  C4  UNL d   1       0.924   0.096   1.178  0.00  0.00    -0.003 A 
ATOM      4  C5  UNL d   1      -0.323  -0.122   0.601  0.00  0.00     0.000 A 
ATOM      5  C6  UNL d   1      -1.448  -0.267   1.412  0.00  0.00     0.000 A 
ATOM      6  C7  UNL d   1      -1.343  -0.197   2.812  0.00  0.00    -0.073 A 
ATOM      7  C8  UNL d   1      -2.588  -0.366   3.639  0.00  0.00     0.078 C 
ENDROOT
BRANCH   1   8
ATOM      8  C1  UNL d   1       0.127   0.034   4.896  0.00  0.00     0.053 C 
ATOM      9  C   UNL d   1       0.865  -1.187   5.422  0.00  0.00     0.018 C 
ENDBRANCH   1   8
TORSDOF 1
ENDMDL
