MODEL 1
REMARK minimizedAffinity 6.03751373
REMARK minimizedRMSD -1
REMARK  0 active torsions:
REMARK  status: ('A' for Active; 'I' for Inactive)
ROOT
ATOM      1  C2' OXE d   1      -2.642  -0.809   5.225  0.00  0.00     0.078 C 
ATOM      2  C1' OXE d   1      -3.056  -0.015   2.565  0.00  0.00     0.078 C 
ATOM      3  C1  OXE d   1      -3.434   0.956   3.656  0.00  0.00    -0.078 A 
ATOM      4  C2  OXE d   1      -3.271   0.541   4.955  0.00  0.00    -0.078 A 
ATOM      5  C3  OXE d   1      -3.553   1.417   5.999  0.00  0.00     0.003 A 
ATOM      6  C4  OXE d   1      -4.144   2.660   5.741  0.00  0.00    -0.002 A 
ATOM      7  C5  OXE d   1      -4.354   3.087   4.426  0.00  0.00    -0.002 A 
ATOM      8  C6  OXE d   1      -3.966   2.266   3.373  0.00  0.00     0.003 A 
ENDROOT
TORSDOF 0
ENDMDL
