MODEL 1
REMARK minimizedAffinity 13.3172112
REMARK minimizedRMSD -1
REMARK  0 active torsions:
REMARK  status: ('A' for Active; 'I' for Inactive)
ROOT
ATOM      1  C2' OXE d   1      -5.957  -5.351   2.061  0.00  0.00     0.078 C 
ATOM      2  C1' OXE d   1      -3.175  -5.726   2.039  0.00  0.00     0.078 C 
ATOM      3  C1  OXE d   1      -3.898  -5.747   0.715  0.00  0.00    -0.078 A 
ATOM      4  C2  OXE d   1      -5.265  -5.609   0.740  0.00  0.00    -0.078 A 
ATOM      5  C3  OXE d   1      -5.975  -5.567  -0.457  0.00  0.00     0.003 A 
ATOM      6  C4  OXE d   1      -5.329  -5.817  -1.674  0.00  0.00    -0.002 A 
ATOM      7  C5  OXE d   1      -3.942  -5.999  -1.717  0.00  0.00    -0.002 A 
ATOM      8  C6  OXE d   1      -3.208  -5.925  -0.538  0.00  0.00     0.003 A 
ENDROOT
TORSDOF 0
ENDMDL
