MODEL 1
REMARK minimizedAffinity 7.28975391
REMARK minimizedRMSD -1
REMARK  0 active torsions:
REMARK  status: ('A' for Active; 'I' for Inactive)
ROOT
ATOM      1  C2' OXE d   1      -5.788  -2.026  -5.971  0.00  0.00     0.078 C 
ATOM      2  C1' OXE d   1      -3.057  -2.296  -5.380  0.00  0.00     0.078 C 
ATOM      3  C1  OXE d   1      -3.869  -3.556  -5.543  0.00  0.00    -0.078 A 
ATOM      4  C2  OXE d   1      -5.214  -3.414  -5.786  0.00  0.00    -0.078 A 
ATOM      5  C3  OXE d   1      -5.999  -4.544  -6.000  0.00  0.00     0.003 A 
ATOM      6  C4  OXE d   1      -5.463  -5.824  -5.817  0.00  0.00    -0.002 A 
ATOM      7  C5  OXE d   1      -4.105  -5.991  -5.529  0.00  0.00    -0.002 A 
ATOM      8  C6  OXE d   1      -3.286  -4.871  -5.432  0.00  0.00     0.003 A 
ENDROOT
TORSDOF 0
ENDMDL
