MODEL 1
REMARK minimizedAffinity 22.8265266
REMARK minimizedRMSD -1
REMARK  0 active torsions:
REMARK  status: ('A' for Active; 'I' for Inactive)
ROOT
ATOM      1  C2' OXE d   1      -3.044   0.820   3.075  0.00  0.00     0.078 C 
ATOM      2  C1' OXE d   1      -2.362   1.098   5.784  0.00  0.00     0.078 C 
ATOM      3  C1  OXE d   1      -3.353   2.076   5.204  0.00  0.00    -0.078 A 
ATOM      4  C2  OXE d   1      -3.645   1.962   3.866  0.00  0.00    -0.078 A 
ATOM      5  C3  OXE d   1      -4.593   2.804   3.293  0.00  0.00     0.003 A 
ATOM      6  C4  OXE d   1      -5.137   3.864   4.029  0.00  0.00    -0.002 A 
ATOM      7  C5  OXE d   1      -4.822   4.023   5.383  0.00  0.00    -0.002 A 
ATOM      8  C6  OXE d   1      -3.966   3.114   5.995  0.00  0.00     0.003 A 
ENDROOT
TORSDOF 0
ENDMDL
