MODEL 1
REMARK minimizedAffinity 19.9910297
REMARK minimizedRMSD -1
REMARK  0 active torsions:
REMARK  status: ('A' for Active; 'I' for Inactive)
ROOT
ATOM      1  C2' OXE d   1      -4.962   3.768   5.999  0.00  0.00     0.078 C 
ATOM      2  C1' OXE d   1      -5.995   3.394   3.416  0.00  0.00     0.078 C 
ATOM      3  C1  OXE d   1      -4.871   2.492   3.861  0.00  0.00    -0.078 A 
ATOM      4  C2  OXE d   1      -4.340   2.713   5.109  0.00  0.00    -0.078 A 
ATOM      5  C3  OXE d   1      -3.338   1.875   5.590  0.00  0.00     0.003 A 
ATOM      6  C4  OXE d   1      -2.762   0.908   4.757  0.00  0.00    -0.002 A 
ATOM      7  C5  OXE d   1      -3.261   0.693   3.468  0.00  0.00    -0.002 A 
ATOM      8  C6  OXE d   1      -4.341   1.447   3.021  0.00  0.00     0.003 A 
ENDROOT
TORSDOF 0
ENDMDL
