MODEL 1
REMARK minimizedAffinity 6.94811678
REMARK minimizedRMSD -1
REMARK  0 active torsions:
REMARK  status: ('A' for Active; 'I' for Inactive)
ROOT
ATOM      1  C2' OXE d   1       4.148  -2.093  -0.248  0.00  0.00     0.078 C 
ATOM      2  C1' OXE d   1       2.164  -1.105  -1.970  0.00  0.00     0.078 C 
ATOM      3  C1  OXE d   1       3.279  -0.171  -1.573  0.00  0.00    -0.078 A 
ATOM      4  C2  OXE d   1       4.220  -0.648  -0.693  0.00  0.00    -0.078 A 
ATOM      5  C3  OXE d   1       5.301   0.154  -0.337  0.00  0.00     0.003 A 
ATOM      6  C4  OXE d   1       5.355   1.492  -0.746  0.00  0.00    -0.002 A 
ATOM      7  C5  OXE d   1       4.386   2.010  -1.611  0.00  0.00    -0.002 A 
ATOM      8  C6  OXE d   1       3.366   1.181  -2.067  0.00  0.00     0.003 A 
ENDROOT
TORSDOF 0
ENDMDL
