MODEL 1
REMARK minimizedAffinity 15.8976679
REMARK minimizedRMSD -1
REMARK  0 active torsions:
REMARK  status: ('A' for Active; 'I' for Inactive)
ROOT
ATOM      1  C2' OXE d   1       1.024   0.405   1.923  0.00  0.00     0.078 C 
ATOM      2  C1' OXE d   1      -1.544   1.328   2.581  0.00  0.00     0.078 C 
ATOM      3  C1  OXE d   1      -0.509   1.288   3.677  0.00  0.00    -0.078 A 
ATOM      4  C2  OXE d   1       0.731   0.791   3.357  0.00  0.00    -0.078 A 
ATOM      5  C3  OXE d   1       1.739   0.782   4.317  0.00  0.00     0.003 A 
ATOM      6  C4  OXE d   1       1.458   1.131   5.644  0.00  0.00    -0.002 A 
ATOM      7  C5  OXE d   1       0.190   1.603   6.000  0.00  0.00    -0.002 A 
ATOM      8  C6  OXE d   1      -0.791   1.727   5.022  0.00  0.00     0.003 A 
ENDROOT
TORSDOF 0
ENDMDL
