MODEL 1
REMARK minimizedAffinity 18.1588936
REMARK minimizedRMSD -1
REMARK  0 active torsions:
REMARK  status: ('A' for Active; 'I' for Inactive)
ROOT
ATOM      1  C2' OXE d   1       3.199   3.013   1.873  0.00  0.00     0.078 C 
ATOM      2  C1' OXE d   1       1.165   4.588   0.751  0.00  0.00     0.078 C 
ATOM      3  C1  OXE d   1       0.755   3.411   1.600  0.00  0.00    -0.078 A 
ATOM      4  C2  OXE d   1       1.757   2.618   2.107  0.00  0.00    -0.078 A 
ATOM      5  C3  OXE d   1       1.436   1.551   2.941  0.00  0.00     0.003 A 
ATOM      6  C4  OXE d   1       0.100   1.187   3.145  0.00  0.00    -0.002 A 
ATOM      7  C5  OXE d   1      -0.936   1.958   2.605  0.00  0.00    -0.002 A 
ATOM      8  C6  OXE d   1      -0.626   3.095   1.868  0.00  0.00     0.003 A 
ENDROOT
TORSDOF 0
ENDMDL
