MODEL 1
REMARK minimizedAffinity 16.5462551
REMARK minimizedRMSD -1
REMARK  0 active torsions:
REMARK  status: ('A' for Active; 'I' for Inactive)
ROOT
ATOM      1  C2' OXE d   1      -5.999   3.442   3.434  0.00  0.00     0.078 C 
ATOM      2  C1' OXE d   1      -4.891   3.175   6.000  0.00  0.00     0.078 C 
ATOM      3  C1  OXE d   1      -4.366   2.275   4.910  0.00  0.00    -0.078 A 
ATOM      4  C2  OXE d   1      -4.946   2.380   3.669  0.00  0.00    -0.078 A 
ATOM      5  C3  OXE d   1      -4.461   1.612   2.614  0.00  0.00     0.003 A 
ATOM      6  C4  OXE d   1      -3.494   0.625   2.842  0.00  0.00    -0.002 A 
ATOM      7  C5  OXE d   1      -2.918   0.475   4.107  0.00  0.00    -0.002 A 
ATOM      8  C6  OXE d   1      -3.311   1.319   5.140  0.00  0.00     0.003 A 
ENDROOT
TORSDOF 0
ENDMDL
