MODEL 1
REMARK minimizedAffinity 8.00174046
REMARK minimizedRMSD -1
REMARK  0 active torsions:
REMARK  status: ('A' for Active; 'I' for Inactive)
ROOT
ATOM      1  C2' OXE d   1      -1.471   5.998  -3.334  0.00  0.00     0.078 C 
ATOM      2  C1' OXE d   1      -3.585   5.999  -5.182  0.00  0.00     0.078 C 
ATOM      3  C1  OXE d   1      -2.683   4.790  -5.145  0.00  0.00    -0.078 A 
ATOM      4  C2  OXE d   1      -1.624   4.818  -4.270  0.00  0.00    -0.078 A 
ATOM      5  C3  OXE d   1      -0.793   3.707  -4.157  0.00  0.00     0.003 A 
ATOM      6  C4  OXE d   1      -0.935   2.624  -5.033  0.00  0.00    -0.002 A 
ATOM      7  C5  OXE d   1      -1.984   2.593  -5.959  0.00  0.00    -0.002 A 
ATOM      8  C6  OXE d   1      -2.890   3.647  -5.998  0.00  0.00     0.003 A 
ENDROOT
TORSDOF 0
ENDMDL
