MODEL 1
REMARK minimizedAffinity 10.0061779
REMARK minimizedRMSD -1
REMARK  0 active torsions:
REMARK  status: ('A' for Active; 'I' for Inactive)
ROOT
ATOM      1  C2' OXE d   1       1.986   0.065  -0.464  0.00  0.00     0.078 C 
ATOM      2  C1' OXE d   1       1.596   1.605   1.851  0.00  0.00     0.078 C 
ATOM      3  C1  OXE d   1       2.834   1.868   1.030  0.00  0.00    -0.078 A 
ATOM      4  C2  OXE d   1       3.040   1.078  -0.075  0.00  0.00    -0.078 A 
ATOM      5  C3  OXE d   1       4.138   1.316  -0.897  0.00  0.00     0.003 A 
ATOM      6  C4  OXE d   1       5.114   2.248  -0.525  0.00  0.00    -0.002 A 
ATOM      7  C5  OXE d   1       4.943   3.036   0.619  0.00  0.00    -0.002 A 
ATOM      8  C6  OXE d   1       3.791   2.888   1.382  0.00  0.00     0.003 A 
ENDROOT
TORSDOF 0
ENDMDL
