MODEL 1
REMARK minimizedAffinity 6.18849993
REMARK minimizedRMSD -1
REMARK  0 active torsions:
REMARK  status: ('A' for Active; 'I' for Inactive)
ROOT
ATOM      1  C2' OXE d   1       2.003  -4.560  -2.581  0.00  0.00     0.078 C 
ATOM      2  C1' OXE d   1       3.533  -4.286  -0.244  0.00  0.00     0.078 C 
ATOM      3  C1  OXE d   1       2.786  -3.074  -0.741  0.00  0.00    -0.078 A 
ATOM      4  C2  OXE d   1       2.077  -3.205  -1.911  0.00  0.00    -0.078 A 
ATOM      5  C3  OXE d   1       1.326  -2.133  -2.385  0.00  0.00     0.003 A 
ATOM      6  C4  OXE d   1       1.408  -0.881  -1.765  0.00  0.00    -0.002 A 
ATOM      7  C5  OXE d   1       2.155  -0.716  -0.594  0.00  0.00    -0.002 A 
ATOM      8  C6  OXE d   1       2.814  -1.811  -0.047  0.00  0.00     0.003 A 
ENDROOT
TORSDOF 0
ENDMDL
