MODEL 1
REMARK minimizedAffinity 10.8937597
REMARK minimizedRMSD -1
REMARK  0 active torsions:
REMARK  status: ('A' for Active; 'I' for Inactive)
ROOT
ATOM      1  C2' OXE d   1       1.003   0.282  -2.593  0.00  0.00     0.078 C 
ATOM      2  C1' OXE d   1       2.052   0.636  -0.013  0.00  0.00     0.078 C 
ATOM      3  C1  OXE d   1       1.972  -0.770  -0.554  0.00  0.00    -0.078 A 
ATOM      4  C2  OXE d   1       1.415  -0.938  -1.798  0.00  0.00    -0.078 A 
ATOM      5  C3  OXE d   1       1.368  -2.208  -2.366  0.00  0.00     0.003 A 
ATOM      6  C4  OXE d   1       1.742  -3.333  -1.620  0.00  0.00    -0.002 A 
ATOM      7  C5  OXE d   1       2.275  -3.187  -0.335  0.00  0.00    -0.002 A 
ATOM      8  C6  OXE d   1       2.437  -1.912   0.195  0.00  0.00     0.003 A 
ENDROOT
TORSDOF 0
ENDMDL
