MODEL 1
REMARK minimizedAffinity 4.06623888
REMARK minimizedRMSD -1
REMARK  0 active torsions:
REMARK  status: ('A' for Active; 'I' for Inactive)
ROOT
ATOM      1  C2' OXE d   1      -1.443  -3.542  -3.697  0.00  0.00     0.078 C 
ATOM      2  C1' OXE d   1      -1.654  -5.999  -5.039  0.00  0.00     0.078 C 
ATOM      3  C1  OXE d   1      -2.800  -5.027  -5.167  0.00  0.00    -0.078 A 
ATOM      4  C2  OXE d   1      -2.709  -3.847  -4.469  0.00  0.00    -0.078 A 
ATOM      5  C3  OXE d   1      -3.714  -2.892  -4.596  0.00  0.00     0.003 A 
ATOM      6  C4  OXE d   1      -4.886  -3.185  -5.303  0.00  0.00    -0.002 A 
ATOM      7  C5  OXE d   1      -5.016  -4.398  -5.988  0.00  0.00    -0.002 A 
ATOM      8  C6  OXE d   1      -3.967  -5.310  -5.965  0.00  0.00     0.003 A 
ENDROOT
TORSDOF 0
ENDMDL
