MODEL 1
REMARK minimizedAffinity 17.752924
REMARK minimizedRMSD -1
REMARK  0 active torsions:
REMARK  status: ('A' for Active; 'I' for Inactive)
ROOT
ATOM      1  C2' OXE d   1      -1.864  -4.650  -3.582  0.00  0.00     0.078 C 
ATOM      2  C1' OXE d   1      -3.215  -5.999  -5.640  0.00  0.00     0.078 C 
ATOM      3  C1  OXE d   1      -3.671  -4.603  -5.296  0.00  0.00    -0.078 A 
ATOM      4  C2  OXE d   1      -3.035  -3.968  -4.256  0.00  0.00    -0.078 A 
ATOM      5  C3  OXE d   1      -3.380  -2.659  -3.933  0.00  0.00     0.003 A 
ATOM      6  C4  OXE d   1      -4.471  -2.039  -4.555  0.00  0.00    -0.002 A 
ATOM      7  C5  OXE d   1      -5.158  -2.683  -5.589  0.00  0.00    -0.002 A 
ATOM      8  C6  OXE d   1      -4.744  -3.946  -6.000  0.00  0.00     0.003 A 
ENDROOT
TORSDOF 0
ENDMDL
