MODEL 1
REMARK minimizedAffinity 13.0515499
REMARK minimizedRMSD -1
REMARK  0 active torsions:
REMARK  status: ('A' for Active; 'I' for Inactive)
ROOT
ATOM      1  C2' OXE d   1      -5.999   2.861   3.443  0.00  0.00     0.078 C 
ATOM      2  C1' OXE d   1      -4.940   3.336   5.999  0.00  0.00     0.078 C 
ATOM      3  C1  OXE d   1      -4.444   2.127   5.246  0.00  0.00    -0.078 A 
ATOM      4  C2  OXE d   1      -5.002   1.877   4.015  0.00  0.00    -0.078 A 
ATOM      5  C3  OXE d   1      -4.541   0.806   3.255  0.00  0.00     0.003 A 
ATOM      6  C4  OXE d   1      -3.626  -0.106   3.795  0.00  0.00    -0.002 A 
ATOM      7  C5  OXE d   1      -3.075   0.109   5.063  0.00  0.00    -0.002 A 
ATOM      8  C6  OXE d   1      -3.441   1.241   5.782  0.00  0.00     0.003 A 
ENDROOT
TORSDOF 0
ENDMDL
