MODEL 1
REMARK minimizedAffinity 0.833285034
REMARK minimizedRMSD -1
REMARK  0 active torsions:
REMARK  status: ('A' for Active; 'I' for Inactive)
ROOT
ATOM      1  C2' OXE d   1      -1.650   5.966  -4.111  0.00  0.00     0.078 C 
ATOM      2  C1' OXE d   1      -1.308   3.344  -5.053  0.00  0.00     0.078 C 
ATOM      3  C1  OXE d   1      -2.657   3.991  -5.246  0.00  0.00    -0.078 A 
ATOM      4  C2  OXE d   1      -2.829   5.257  -4.741  0.00  0.00    -0.078 A 
ATOM      5  C3  OXE d   1      -4.036   5.920  -4.940  0.00  0.00     0.003 A 
ATOM      6  C4  OXE d   1      -5.125   5.253  -5.514  0.00  0.00    -0.002 A 
ATOM      7  C5  OXE d   1      -4.983   3.949  -6.000  0.00  0.00    -0.002 A 
ATOM      8  C6  OXE d   1      -3.746   3.320  -5.912  0.00  0.00     0.003 A 
ENDROOT
TORSDOF 0
ENDMDL
