MODEL 1
REMARK minimizedAffinity 4.59053278
REMARK minimizedRMSD -1
REMARK  0 active torsions:
REMARK  status: ('A' for Active; 'I' for Inactive)
ROOT
ATOM      1  C4' PXY d   1       3.190  -6.000  -1.125  0.00  0.00     0.077 C 
ATOM      2  C1' PXY d   1       1.614  -0.521  -2.083  0.00  0.00     0.077 C 
ATOM      3  C1  PXY d   1       2.017  -1.962  -1.839  0.00  0.00    -0.082 A 
ATOM      4  C2  PXY d   1       2.725  -2.270  -0.764  0.00  0.00     0.003 A 
ATOM      5  C3  PXY d   1       3.126  -3.563  -0.545  0.00  0.00     0.003 A 
ATOM      6  C4  PXY d   1       2.753  -4.560  -1.407  0.00  0.00    -0.082 A 
ATOM      7  C5  PXY d   1       2.022  -4.255  -2.500  0.00  0.00     0.003 A 
ATOM      8  C6  PXY d   1       1.660  -2.930  -2.726  0.00  0.00     0.003 A 
ENDROOT
TORSDOF 0
ENDMDL
