MODEL 1
REMARK minimizedAffinity 10.7449865
REMARK minimizedRMSD -1
REMARK  0 active torsions:
REMARK  status: ('A' for Active; 'I' for Inactive)
ROOT
ATOM      1  C4' PXY d   1       4.970   1.400   0.620  0.00  0.00     0.077 C 
ATOM      2  C1' PXY d   1       2.454  -3.613  -0.778  0.00  0.00     0.077 C 
ATOM      3  C1  PXY d   1       3.106  -2.292  -0.420  0.00  0.00    -0.082 A 
ATOM      4  C2  PXY d   1       4.342  -2.280   0.053  0.00  0.00     0.003 A 
ATOM      5  C3  PXY d   1       4.935  -1.097   0.412  0.00  0.00     0.003 A 
ATOM      6  C4  PXY d   1       4.275   0.090   0.236  0.00  0.00    -0.082 A 
ATOM      7  C5  PXY d   1       3.018   0.087  -0.255  0.00  0.00     0.003 A 
ATOM      8  C6  PXY d   1       2.419  -1.128  -0.575  0.00  0.00     0.003 A 
ENDROOT
TORSDOF 0
ENDMDL
