MODEL 1
REMARK minimizedAffinity 8.08460522
REMARK minimizedRMSD -1
REMARK  0 active torsions:
REMARK  status: ('A' for Active; 'I' for Inactive)
ROOT
ATOM      1  C4' PXY d   1       3.392  -4.091  -0.945  0.00  0.00     0.077 C 
ATOM      2  C1' PXY d   1       1.131   0.707  -3.244  0.00  0.00     0.077 C 
ATOM      3  C1  PXY d   1       1.722  -0.558  -2.652  0.00  0.00    -0.082 A 
ATOM      4  C2  PXY d   1       1.712  -0.733  -1.341  0.00  0.00     0.003 A 
ATOM      5  C3  PXY d   1       2.271  -1.856  -0.787  0.00  0.00     0.003 A 
ATOM      6  C4  PXY d   1       2.798  -2.834  -1.587  0.00  0.00    -0.082 A 
ATOM      7  C5  PXY d   1       2.802  -2.668  -2.927  0.00  0.00     0.003 A 
ATOM      8  C6  PXY d   1       2.267  -1.502  -3.467  0.00  0.00     0.003 A 
ENDROOT
TORSDOF 0
ENDMDL
