MODEL 1
REMARK minimizedAffinity 10.4511967
REMARK minimizedRMSD -1
REMARK  0 active torsions:
REMARK  status: ('A' for Active; 'I' for Inactive)
ROOT
ATOM      1  C4' PXY d   1       1.656  -1.081  -2.618  0.00  0.00     0.077 C 
ATOM      2  C1' PXY d   1       3.179  -6.000   0.009  0.00  0.00     0.077 C 
ATOM      3  C1  PXY d   1       2.776  -4.717  -0.691  0.00  0.00    -0.082 A 
ATOM      4  C2  PXY d   1       3.328  -3.571  -0.325  0.00  0.00     0.003 A 
ATOM      5  C3  PXY d   1       2.952  -2.397  -0.925  0.00  0.00     0.003 A 
ATOM      6  C4  PXY d   1       2.039  -2.402  -1.947  0.00  0.00    -0.082 A 
ATOM      7  C5  PXY d   1       1.479  -3.569  -2.332  0.00  0.00     0.003 A 
ATOM      8  C6  PXY d   1       1.845  -4.744  -1.683  0.00  0.00     0.003 A 
ENDROOT
TORSDOF 0
ENDMDL
