MODEL 1
REMARK minimizedAffinity 0.455837667
REMARK minimizedRMSD -1
REMARK  0 active torsions:
REMARK  status: ('A' for Active; 'I' for Inactive)
ROOT
ATOM      1  C4' PXY d   1       1.390  -1.244  -3.010  0.00  0.00     0.077 C 
ATOM      2  C1' PXY d   1       3.452  -6.000  -0.451  0.00  0.00     0.077 C 
ATOM      3  C1  PXY d   1       2.912  -4.759  -1.134  0.00  0.00    -0.082 A 
ATOM      4  C2  PXY d   1       3.034  -3.581  -0.543  0.00  0.00     0.003 A 
ATOM      5  C3  PXY d   1       2.524  -2.453  -1.131  0.00  0.00     0.003 A 
ATOM      6  C4  PXY d   1       1.928  -2.523  -2.362  0.00  0.00    -0.082 A 
ATOM      7  C5  PXY d   1       1.809  -3.719  -2.977  0.00  0.00     0.003 A 
ATOM      8  C6  PXY d   1       2.298  -4.858  -2.344  0.00  0.00     0.003 A 
ENDROOT
TORSDOF 0
ENDMDL
