MODEL 1
REMARK minimizedAffinity 15.5044003
REMARK minimizedRMSD -1
REMARK  0 active torsions:
REMARK  status: ('A' for Active; 'I' for Inactive)
ROOT
ATOM      1  C4' PXY d   1       2.672  -0.080  -0.076  0.00  0.00     0.077 C 
ATOM      2  C1' PXY d   1       1.294  -5.144  -2.499  0.00  0.00     0.077 C 
ATOM      3  C1  PXY d   1       1.655  -3.822  -1.852  0.00  0.00    -0.082 A 
ATOM      4  C2  PXY d   1       1.372  -2.689  -2.475  0.00  0.00     0.003 A 
ATOM      5  C3  PXY d   1       1.721  -1.486  -1.919  0.00  0.00     0.003 A 
ATOM      6  C4  PXY d   1       2.317  -1.438  -0.687  0.00  0.00    -0.082 A 
ATOM      7  C5  PXY d   1       2.599  -2.589  -0.040  0.00  0.00     0.003 A 
ATOM      8  C6  PXY d   1       2.275  -3.802  -0.640  0.00  0.00     0.003 A 
ENDROOT
TORSDOF 0
ENDMDL
