MODEL 1
REMARK minimizedAffinity 13.5644712
REMARK minimizedRMSD -1
REMARK  0 active torsions:
REMARK  status: ('A' for Active; 'I' for Inactive)
ROOT
ATOM      1  C4' PXY d   1       2.636  -5.337   0.405  0.00  0.00     0.077 C 
ATOM      2  C1' PXY d   1       2.555   0.307  -0.842  0.00  0.00     0.077 C 
ATOM      3  C1  PXY d   1       2.563  -1.173  -0.511  0.00  0.00    -0.082 A 
ATOM      4  C2  PXY d   1       3.709  -1.774  -0.235  0.00  0.00     0.003 A 
ATOM      5  C3  PXY d   1       3.739  -3.118   0.035  0.00  0.00     0.003 A 
ATOM      6  C4  PXY d   1       2.578  -3.843   0.075  0.00  0.00    -0.082 A 
ATOM      7  C5  PXY d   1       1.404  -3.234  -0.196  0.00  0.00     0.003 A 
ATOM      8  C6  PXY d   1       1.400  -1.878  -0.508  0.00  0.00     0.003 A 
ENDROOT
TORSDOF 0
ENDMDL
