MODEL 1
REMARK minimizedAffinity 6.25072813
REMARK minimizedRMSD -1
REMARK  0 active torsions:
REMARK  status: ('A' for Active; 'I' for Inactive)
ROOT
ATOM      1  C4' PXY d   1      -5.738   3.554  -6.000  0.00  0.00     0.077 C 
ATOM      2  C1' PXY d   1      -0.859   5.945  -4.027  0.00  0.00     0.077 C 
ATOM      3  C1  PXY d   1      -2.134   5.306  -4.543  0.00  0.00    -0.082 A 
ATOM      4  C2  PXY d   1      -2.939   5.998  -5.332  0.00  0.00     0.003 A 
ATOM      5  C3  PXY d   1      -4.112   5.447  -5.781  0.00  0.00     0.003 A 
ATOM      6  C4  PXY d   1      -4.437   4.156  -5.463  0.00  0.00    -0.082 A 
ATOM      7  C5  PXY d   1      -3.614   3.439  -4.667  0.00  0.00     0.003 A 
ATOM      8  C6  PXY d   1      -2.450   4.031  -4.188  0.00  0.00     0.003 A 
ENDROOT
TORSDOF 0
ENDMDL
