MODEL 1
REMARK minimizedAffinity 5.16800547
REMARK minimizedRMSD -1
REMARK  0 active torsions:
REMARK  status: ('A' for Active; 'I' for Inactive)
ROOT
ATOM      1  C4' PXY d   1      -0.423  -5.999  -3.392  0.00  0.00     0.077 C 
ATOM      2  C1' PXY d   1      -4.531  -2.878  -6.000  0.00  0.00     0.077 C 
ATOM      3  C1  PXY d   1      -3.457  -3.707  -5.323  0.00  0.00    -0.082 A 
ATOM      4  C2  PXY d   1      -3.040  -3.375  -4.112  0.00  0.00     0.003 A 
ATOM      5  C3  PXY d   1      -2.047  -4.094  -3.499  0.00  0.00     0.003 A 
ATOM      6  C4  PXY d   1      -1.512  -5.197  -4.109  0.00  0.00    -0.082 A 
ATOM      7  C5  PXY d   1      -1.940  -5.549  -5.340  0.00  0.00     0.003 A 
ATOM      8  C6  PXY d   1      -2.920  -4.781  -5.963  0.00  0.00     0.003 A 
ENDROOT
TORSDOF 0
ENDMDL
