MODEL 1
REMARK minimizedAffinity 16.9842453
REMARK minimizedRMSD -1
REMARK  0 active torsions:
REMARK  status: ('A' for Active; 'I' for Inactive)
ROOT
ATOM      1  C4' PXY d   1      -6.000   2.151   3.669  0.00  0.00     0.077 C 
ATOM      2  C1' PXY d   1      -0.566   0.649   2.393  0.00  0.00     0.077 C 
ATOM      3  C1  PXY d   1      -1.995   1.033   2.719  0.00  0.00    -0.082 A 
ATOM      4  C2  PXY d   1      -2.262   2.256   3.148  0.00  0.00     0.003 A 
ATOM      5  C3  PXY d   1      -3.544   2.611   3.479  0.00  0.00     0.003 A 
ATOM      6  C4  PXY d   1      -4.573   1.722   3.318  0.00  0.00    -0.082 A 
ATOM      7  C5  PXY d   1      -4.310   0.475   2.871  0.00  0.00     0.003 A 
ATOM      8  C6  PXY d   1      -2.996   0.122   2.580  0.00  0.00     0.003 A 
ENDROOT
TORSDOF 0
ENDMDL
