MODEL 1
REMARK minimizedAffinity 7.96754551
REMARK minimizedRMSD -1
REMARK  0 active torsions:
REMARK  status: ('A' for Active; 'I' for Inactive)
ROOT
ATOM      1  C4' PXY d   1       2.033  -3.295  -0.210  0.00  0.00     0.077 C 
ATOM      2  C1' PXY d   1       5.756   1.104  -0.657  0.00  0.00     0.077 C 
ATOM      3  C1  PXY d   1       4.770  -0.041  -0.539  0.00  0.00    -0.082 A 
ATOM      4  C2  PXY d   1       5.184  -1.219  -0.099  0.00  0.00     0.003 A 
ATOM      5  C3  PXY d   1       4.313  -2.274  -0.017  0.00  0.00     0.003 A 
ATOM      6  C4  PXY d   1       2.992  -2.108  -0.337  0.00  0.00    -0.082 A 
ATOM      7  C5  PXY d   1       2.559  -0.907  -0.776  0.00  0.00     0.003 A 
ATOM      8  C6  PXY d   1       3.469   0.140  -0.892  0.00  0.00     0.003 A 
ENDROOT
TORSDOF 0
ENDMDL
