MODEL 1
REMARK minimizedAffinity 11.3208151
REMARK minimizedRMSD -1
REMARK  0 active torsions:
REMARK  status: ('A' for Active; 'I' for Inactive)
ROOT
ATOM      1  C4' PXY d   1       4.017   1.585   0.355  0.00  0.00     0.077 C 
ATOM      2  C1' PXY d   1       2.948  -4.088   0.042  0.00  0.00     0.077 C 
ATOM      3  C1  PXY d   1       3.220  -2.598   0.114  0.00  0.00    -0.082 A 
ATOM      4  C2  PXY d   1       4.359  -2.165   0.628  0.00  0.00     0.003 A 
ATOM      5  C3  PXY d   1       4.608  -0.821   0.731  0.00  0.00     0.003 A 
ATOM      6  C4  PXY d   1       3.704   0.089   0.253  0.00  0.00    -0.082 A 
ATOM      7  C5  PXY d   1       2.543  -0.344  -0.283  0.00  0.00     0.003 A 
ATOM      8  C6  PXY d   1       2.292  -1.712  -0.340  0.00  0.00     0.003 A 
ENDROOT
TORSDOF 0
ENDMDL
