MODEL 1
REMARK minimizedAffinity 21.5147266
REMARK minimizedRMSD -1
REMARK  0 active torsions:
REMARK  status: ('A' for Active; 'I' for Inactive)
ROOT
ATOM      1  C4' PXY d   1      -0.792  -3.458  -3.363  0.00  0.00     0.077 C 
ATOM      2  C1' PXY d   1      -5.931  -3.208  -6.000  0.00  0.00     0.077 C 
ATOM      3  C1  PXY d   1      -4.577  -3.275  -5.320  0.00  0.00    -0.082 A 
ATOM      4  C2  PXY d   1      -4.496  -3.674  -4.061  0.00  0.00     0.003 A 
ATOM      5  C3  PXY d   1      -3.284  -3.709  -3.421  0.00  0.00     0.003 A 
ATOM      6  C4  PXY d   1      -2.136  -3.384  -4.093  0.00  0.00    -0.082 A 
ATOM      7  C5  PXY d   1      -2.209  -2.987  -5.381  0.00  0.00     0.003 A 
ATOM      8  C6  PXY d   1      -3.454  -2.918  -6.000  0.00  0.00     0.003 A 
ENDROOT
TORSDOF 0
ENDMDL
