MODEL 1
REMARK minimizedAffinity 7.34259653
REMARK minimizedRMSD -1
REMARK  0 active torsions:
REMARK  status: ('A' for Active; 'I' for Inactive)
ROOT
ATOM      1  C4' PXY d   1       5.997  -4.082   0.655  0.00  0.00     0.077 C 
ATOM      2  C1' PXY d   1       1.735  -0.199   1.079  0.00  0.00     0.077 C 
ATOM      3  C1  PXY d   1       2.844  -1.227   0.969  0.00  0.00    -0.082 A 
ATOM      4  C2  PXY d   1       4.080  -0.894   1.303  0.00  0.00     0.003 A 
ATOM      5  C3  PXY d   1       5.100  -1.802   1.180  0.00  0.00     0.003 A 
ATOM      6  C4  PXY d   1       4.844  -3.079   0.759  0.00  0.00    -0.082 A 
ATOM      7  C5  PXY d   1       3.584  -3.430   0.426  0.00  0.00     0.003 A 
ATOM      8  C6  PXY d   1       2.569  -2.482   0.519  0.00  0.00     0.003 A 
ENDROOT
TORSDOF 0
ENDMDL
