MODEL 1
REMARK minimizedAffinity 16.1218643
REMARK minimizedRMSD -1
REMARK  0 active torsions:
REMARK  status: ('A' for Active; 'I' for Inactive)
ROOT
ATOM      1  C4' PXY d   1       0.859  -5.194  -2.988  0.00  0.00     0.077 C 
ATOM      2  C1' PXY d   1       3.490  -1.429   0.522  0.00  0.00     0.077 C 
ATOM      3  C1  PXY d   1       2.793  -2.407  -0.404  0.00  0.00    -0.082 A 
ATOM      4  C2  PXY d   1       2.712  -3.683  -0.066  0.00  0.00     0.003 A 
ATOM      5  C3  PXY d   1       2.114  -4.587  -0.906  0.00  0.00     0.003 A 
ATOM      6  C4  PXY d   1       1.545  -4.170  -2.080  0.00  0.00    -0.082 A 
ATOM      7  C5  PXY d   1       1.614  -2.867  -2.427  0.00  0.00     0.003 A 
ATOM      8  C6  PXY d   1       2.262  -1.973  -1.580  0.00  0.00     0.003 A 
ENDROOT
TORSDOF 0
ENDMDL
