MODEL 1
REMARK minimizedAffinity 11.4636068
REMARK minimizedRMSD -1
REMARK  0 active torsions:
REMARK  status: ('A' for Active; 'I' for Inactive)
ROOT
ATOM      1  C4' PXY d   1       2.766  -0.370  -0.423  0.00  0.00     0.077 C 
ATOM      2  C1' PXY d   1      -0.579  -4.483  -2.727  0.00  0.00     0.077 C 
ATOM      3  C1  PXY d   1       0.301  -3.400  -2.135  0.00  0.00    -0.082 A 
ATOM      4  C2  PXY d   1       0.785  -3.547  -0.912  0.00  0.00     0.003 A 
ATOM      5  C3  PXY d   1       1.557  -2.563  -0.349  0.00  0.00     0.003 A 
ATOM      6  C4  PXY d   1       1.881  -1.441  -1.065  0.00  0.00    -0.082 A 
ATOM      7  C5  PXY d   1       1.400  -1.289  -2.317  0.00  0.00     0.003 A 
ATOM      8  C6  PXY d   1       0.584  -2.281  -2.855  0.00  0.00     0.003 A 
ENDROOT
TORSDOF 0
ENDMDL
