MODEL 1
REMARK minimizedAffinity 19.2539635
REMARK minimizedRMSD -1
REMARK  0 active torsions:
REMARK  status: ('A' for Active; 'I' for Inactive)
ROOT
ATOM      1  C4' PXY d   1       1.889  -0.947  -1.819  0.00  0.00     0.077 C 
ATOM      2  C1' PXY d   1      -2.958  -3.136  -4.083  0.00  0.00     0.077 C 
ATOM      3  C1  PXY d   1      -1.690  -2.550  -3.494  0.00  0.00    -0.082 A 
ATOM      4  C2  PXY d   1      -0.640  -3.329  -3.297  0.00  0.00     0.003 A 
ATOM      5  C3  PXY d   1       0.504  -2.823  -2.735  0.00  0.00     0.003 A 
ATOM      6  C4  PXY d   1       0.592  -1.493  -2.421  0.00  0.00    -0.082 A 
ATOM      7  C5  PXY d   1      -0.473  -0.689  -2.628  0.00  0.00     0.003 A 
ATOM      8  C6  PXY d   1      -1.638  -1.231  -3.162  0.00  0.00     0.003 A 
ENDROOT
TORSDOF 0
ENDMDL
