MODEL 1
REMARK minimizedAffinity 6.85553694
REMARK minimizedRMSD -1
REMARK  0 active torsions:
REMARK  status: ('A' for Active; 'I' for Inactive)
ROOT
ATOM      1  C4' PXY d   1       2.545   2.477  -2.622  0.00  0.00     0.077 C 
ATOM      2  C1' PXY d   1       1.316  -2.846  -0.734  0.00  0.00     0.077 C 
ATOM      3  C1  PXY d   1       1.641  -1.455  -1.241  0.00  0.00    -0.082 A 
ATOM      4  C2  PXY d   1       2.064  -0.532  -0.393  0.00  0.00     0.003 A 
ATOM      5  C3  PXY d   1       2.331   0.741  -0.829  0.00  0.00     0.003 A 
ATOM      6  C4  PXY d   1       2.215   1.057  -2.156  0.00  0.00    -0.082 A 
ATOM      7  C5  PXY d   1       1.794   0.117  -3.030  0.00  0.00     0.003 A 
ATOM      8  C6  PXY d   1       1.489  -1.157  -2.560  0.00  0.00     0.003 A 
ENDROOT
TORSDOF 0
ENDMDL
