MODEL 1
REMARK minimizedAffinity 14.1706877
REMARK minimizedRMSD -1
REMARK  0 active torsions:
REMARK  status: ('A' for Active; 'I' for Inactive)
ROOT
ATOM      1  C4' PXY d   1      -5.678   3.448   4.209  0.00  0.00     0.077 C 
ATOM      2  C1' PXY d   1      -2.805  -1.535   4.790  0.00  0.00     0.077 C 
ATOM      3  C1  PXY d   1      -3.561  -0.228   4.650  0.00  0.00    -0.082 A 
ATOM      4  C2  PXY d   1      -4.068   0.112   3.476  0.00  0.00     0.003 A 
ATOM      5  C3  PXY d   1      -4.727   1.305   3.325  0.00  0.00     0.003 A 
ATOM      6  C4  PXY d   1      -4.915   2.133   4.398  0.00  0.00    -0.082 A 
ATOM      7  C5  PXY d   1      -4.410   1.789   5.602  0.00  0.00     0.003 A 
ATOM      8  C6  PXY d   1      -3.709   0.593   5.725  0.00  0.00     0.003 A 
ENDROOT
TORSDOF 0
ENDMDL
