MODEL 1
REMARK minimizedAffinity 25.1720238
REMARK minimizedRMSD -1
REMARK  0 active torsions:
REMARK  status: ('A' for Active; 'I' for Inactive)
ROOT
ATOM      1  C4' PXY d   1      -5.281   2.119   3.693  0.00  0.00     0.077 C 
ATOM      2  C1' PXY d   1       0.363   1.061   3.028  0.00  0.00     0.077 C 
ATOM      3  C1  PXY d   1      -1.117   1.329   3.212  0.00  0.00    -0.082 A 
ATOM      4  C2  PXY d   1      -1.816   1.851   2.217  0.00  0.00     0.003 A 
ATOM      5  C3  PXY d   1      -3.149   2.130   2.377  0.00  0.00     0.003 A 
ATOM      6  C4  PXY d   1      -3.785   1.822   3.549  0.00  0.00    -0.082 A 
ATOM      7  C5  PXY d   1      -3.082   1.280   4.566  0.00  0.00     0.003 A 
ATOM      8  C6  PXY d   1      -1.721   1.043   4.397  0.00  0.00     0.003 A 
ENDROOT
TORSDOF 0
ENDMDL
