MODEL 1
REMARK minimizedAffinity 4.56587791
REMARK minimizedRMSD -1
REMARK  0 active torsions:
REMARK  status: ('A' for Active; 'I' for Inactive)
ROOT
ATOM      1  C   UNL d   1      -4.637  -6.000  -5.796  0.00  0.00     0.172 C 
ATOM      2  N   UNL d   1      -4.913  -4.609  -5.522  0.00  0.00    -0.070 N 
ATOM      3  C1  UNL d   1      -4.140  -3.777  -4.757  0.00  0.00    -0.004 A 
ATOM      4  C2  UNL d   1      -4.741  -2.537  -4.742  0.00  0.00    -0.047 A 
ATOM      5  C3  UNL d   1      -5.916  -2.627  -5.525  0.00  0.00    -0.047 A 
ATOM      6  C4  UNL d   1      -5.998  -3.920  -5.996  0.00  0.00    -0.004 A 
ENDROOT
TORSDOF 0
ENDMDL
