MODEL 1
REMARK minimizedAffinity 5.38104057
REMARK minimizedRMSD -1
REMARK  0 active torsions:
REMARK  status: ('A' for Active; 'I' for Inactive)
ROOT
ATOM      1  C   UNL d   1       2.426  -1.501   1.876  0.00  0.00     0.172 C 
ATOM      2  N   UNL d   1       3.850  -1.744   1.845  0.00  0.00    -0.070 N 
ATOM      3  C1  UNL d   1       4.750  -1.113   1.029  0.00  0.00    -0.004 A 
ATOM      4  C2  UNL d   1       6.000  -1.624   1.305  0.00  0.00    -0.047 A 
ATOM      5  C3  UNL d   1       5.845  -2.597   2.321  0.00  0.00    -0.047 A 
ATOM      6  C4  UNL d   1       4.504  -2.651   2.637  0.00  0.00    -0.004 A 
ENDROOT
TORSDOF 0
ENDMDL
