MODEL 1
REMARK minimizedAffinity 8.4809866
REMARK minimizedRMSD -1
REMARK  0 active torsions:
REMARK  status: ('A' for Active; 'I' for Inactive)
ROOT
ATOM      1  C   UNL d   1       1.698  -2.762   4.146  0.00  0.00     0.172 C 
ATOM      2  N   UNL d   1       1.735  -1.976   2.935  0.00  0.00    -0.070 N 
ATOM      3  C1  UNL d   1       2.648  -2.113   1.923  0.00  0.00    -0.004 A 
ATOM      4  C2  UNL d   1       2.344  -1.183   0.953  0.00  0.00    -0.047 A 
ATOM      5  C3  UNL d   1       1.210  -0.462   1.397  0.00  0.00    -0.047 A 
ATOM      6  C4  UNL d   1       0.854  -0.974   2.627  0.00  0.00    -0.004 A 
ENDROOT
TORSDOF 0
ENDMDL
