MODEL 1
REMARK minimizedAffinity 2.40523553
REMARK minimizedRMSD -1
REMARK  0 active torsions:
REMARK  status: ('A' for Active; 'I' for Inactive)
ROOT
ATOM      1  C   UNL d   1      -5.996  -2.489  -5.817  0.00  0.00     0.172 C 
ATOM      2  N   UNL d   1      -5.406  -3.795  -5.636  0.00  0.00    -0.070 N 
ATOM      3  C1  UNL d   1      -4.179  -4.047  -5.084  0.00  0.00    -0.004 A 
ATOM      4  C2  UNL d   1      -3.986  -5.411  -5.089  0.00  0.00    -0.047 A 
ATOM      5  C3  UNL d   1      -5.136  -6.000  -5.665  0.00  0.00    -0.047 A 
ATOM      6  C4  UNL d   1      -6.000  -4.977  -5.994  0.00  0.00    -0.004 A 
ENDROOT
TORSDOF 0
ENDMDL
