MODEL 1
REMARK minimizedAffinity 5.95194435
REMARK minimizedRMSD -1
REMARK  0 active torsions:
REMARK  status: ('A' for Active; 'I' for Inactive)
ROOT
ATOM      1  C   UNL d   1      -4.443  -2.450  -5.103  0.00  0.00     0.172 C 
ATOM      2  N   UNL d   1      -4.760  -3.822  -5.427  0.00  0.00    -0.070 N 
ATOM      3  C1  UNL d   1      -5.999  -4.296  -5.764  0.00  0.00    -0.004 A 
ATOM      4  C2  UNL d   1      -5.884  -5.649  -5.999  0.00  0.00    -0.047 A 
ATOM      5  C3  UNL d   1      -4.528  -6.000  -5.796  0.00  0.00    -0.047 A 
ATOM      6  C4  UNL d   1      -3.855  -4.850  -5.443  0.00  0.00    -0.004 A 
ENDROOT
TORSDOF 0
ENDMDL
