MODEL 1
REMARK minimizedAffinity 7.84263039
REMARK minimizedRMSD -1
REMARK  0 active torsions:
REMARK  status: ('A' for Active; 'I' for Inactive)
ROOT
ATOM      1  C   UNL d   1      -2.470   1.520  -0.212  0.00  0.00     0.172 C 
ATOM      2  N   UNL d   1      -3.192   1.050  -1.372  0.00  0.00    -0.070 N 
ATOM      3  C1  UNL d   1      -3.249  -0.248  -1.804  0.00  0.00    -0.004 A 
ATOM      4  C2  UNL d   1      -4.034  -0.281  -2.936  0.00  0.00    -0.047 A 
ATOM      5  C3  UNL d   1      -4.464   1.043  -3.193  0.00  0.00    -0.047 A 
ATOM      6  C4  UNL d   1      -3.927   1.846  -2.209  0.00  0.00    -0.004 A 
ENDROOT
TORSDOF 0
ENDMDL
