MODEL 1
REMARK minimizedAffinity 4.3588171
REMARK minimizedRMSD -1
REMARK  0 active torsions:
REMARK  status: ('A' for Active; 'I' for Inactive)
ROOT
ATOM      1  C   UNL d   1      -4.603  -5.983  -5.918  0.00  0.00     0.172 C 
ATOM      2  N   UNL d   1      -4.792  -4.551  -5.949  0.00  0.00    -0.070 N 
ATOM      3  C1  UNL d   1      -6.000  -3.906  -5.956  0.00  0.00    -0.004 A 
ATOM      4  C2  UNL d   1      -5.753  -2.550  -5.987  0.00  0.00    -0.047 A 
ATOM      5  C3  UNL d   1      -4.349  -2.375  -6.000  0.00  0.00    -0.047 A 
ATOM      6  C4  UNL d   1      -3.779  -3.630  -5.975  0.00  0.00    -0.004 A 
ENDROOT
TORSDOF 0
ENDMDL
