MODEL 1
REMARK minimizedAffinity 5.27627802
REMARK minimizedRMSD -1
REMARK  0 active torsions:
REMARK  status: ('A' for Active; 'I' for Inactive)
ROOT
ATOM      1  C   UNL d   1       0.448  -2.642   5.255  0.00  0.00     0.172 C 
ATOM      2  N   UNL d   1       0.720  -1.685   4.208  0.00  0.00    -0.070 N 
ATOM      3  C1  UNL d   1       1.194  -0.414   4.392  0.00  0.00    -0.004 A 
ATOM      4  C2  UNL d   1       1.319   0.174   3.151  0.00  0.00    -0.047 A 
ATOM      5  C3  UNL d   1       0.906  -0.778   2.189  0.00  0.00    -0.047 A 
ATOM      6  C4  UNL d   1       0.540  -1.919   2.871  0.00  0.00    -0.004 A 
ENDROOT
TORSDOF 0
ENDMDL
