MODEL 1
REMARK minimizedAffinity 2.77649784
REMARK minimizedRMSD -1
REMARK  0 active torsions:
REMARK  status: ('A' for Active; 'I' for Inactive)
ROOT
ATOM      1  C   UNL d   1       2.428  -1.117   1.148  0.00  0.00     0.172 C 
ATOM      2  N   UNL d   1       1.666  -1.730   2.210  0.00  0.00    -0.070 N 
ATOM      3  C1  UNL d   1       1.744  -3.043   2.594  0.00  0.00    -0.004 A 
ATOM      4  C2  UNL d   1       0.863  -3.230   3.636  0.00  0.00    -0.047 A 
ATOM      5  C3  UNL d   1       0.233  -1.988   3.888  0.00  0.00    -0.047 A 
ATOM      6  C4  UNL d   1       0.749  -1.077   2.990  0.00  0.00    -0.004 A 
ENDROOT
TORSDOF 0
ENDMDL
