MODEL 1
REMARK minimizedAffinity -4.18062735
REMARK minimizedRMSD -1
REMARK  2 active torsions:
REMARK  status: ('A' for Active; 'I' for Inactive)
REMARK    1  A    between atoms: C1_2  and  C2_3 
REMARK    2  A    between atoms: C2_3  and  C3_4 
ROOT
ATOM      1  C3  UNL d   1       0.538  -0.159  -0.080  0.00  0.00    -0.075 A 
ATOM      2  C4  UNL d   1       0.136  -0.912   1.033  0.00  0.00     0.002 A 
ATOM      3  C5  UNL d   1      -0.689  -0.350   2.007  0.00  0.00     0.002 A 
ATOM      4  C6  UNL d   1      -1.114   0.972   1.887  0.00  0.00    -0.004 A 
ATOM      5  C7  UNL d   1      -0.707   1.734   0.794  0.00  0.00     0.002 A 
ATOM      6  C8  UNL d   1       0.116   1.173  -0.185  0.00  0.00     0.002 A 
ENDROOT
BRANCH   1   7
ATOM      7  C2  UNL d   1       1.408  -0.770  -1.153  0.00  0.00     0.056 C 
BRANCH   7   8
ATOM      8  C1  UNL d   1       1.120  -2.252  -1.420  0.00  0.00     0.007 C 
ATOM      9  C   UNL d   1       0.500  -2.506  -2.788  0.00  0.00     0.009 C 
ENDBRANCH   7   8
ENDBRANCH   1   7
TORSDOF 2
ENDMDL
