MODEL 1
REMARK minimizedAffinity -4.638906
REMARK minimizedRMSD -1
REMARK  2 active torsions:
REMARK  status: ('A' for Active; 'I' for Inactive)
REMARK    1  A    between atoms: C1_2  and  C2_3 
REMARK    2  A    between atoms: C2_3  and  C3_4 
ROOT
ATOM      1  C3  UNL d   1      -0.700   1.495   0.057  0.00  0.00    -0.075 A 
ATOM      2  C4  UNL d   1      -0.408   2.856   0.222  0.00  0.00     0.002 A 
ATOM      3  C5  UNL d   1      -1.199   3.655   1.049  0.00  0.00     0.002 A 
ATOM      4  C6  UNL d   1      -2.295   3.107   1.711  0.00  0.00    -0.004 A 
ATOM      5  C7  UNL d   1      -2.605   1.759   1.541  0.00  0.00     0.002 A 
ATOM      6  C8  UNL d   1      -1.812   0.956   0.718  0.00  0.00     0.002 A 
ENDROOT
BRANCH   1   7
ATOM      7  C2  UNL d   1       0.169   0.618  -0.813  0.00  0.00     0.056 C 
BRANCH   7   8
ATOM      8  C1  UNL d   1       0.805  -0.562  -0.071  0.00  0.00     0.007 C 
ATOM      9  C   UNL d   1       1.223  -1.697  -0.996  0.00  0.00     0.009 C 
ENDBRANCH   7   8
ENDBRANCH   1   7
TORSDOF 2
ENDMDL
