MODEL 1
REMARK minimizedAffinity -2.36873841
REMARK minimizedRMSD -1
REMARK  2 active torsions:
REMARK  status: ('A' for Active; 'I' for Inactive)
REMARK    1  A    between atoms: C1_2  and  C2_3 
REMARK    2  A    between atoms: C2_3  and  C3_4 
ROOT
ATOM      1  C3  UNL d   1      -0.073  -1.408  -1.040  0.00  0.00    -0.075 A 
ATOM      2  C4  UNL d   1      -0.994  -1.574  -2.085  0.00  0.00     0.002 A 
ATOM      3  C5  UNL d   1      -0.998  -2.742  -2.847  0.00  0.00     0.002 A 
ATOM      4  C6  UNL d   1      -0.077  -3.754  -2.581  0.00  0.00    -0.004 A 
ATOM      5  C7  UNL d   1       0.853  -3.593  -1.556  0.00  0.00     0.002 A 
ATOM      6  C8  UNL d   1       0.856  -2.427  -0.789  0.00  0.00     0.002 A 
ENDROOT
BRANCH   1   7
ATOM      7  C2  UNL d   1      -0.083  -0.159  -0.192  0.00  0.00     0.056 C 
BRANCH   7   8
ATOM      8  C1  UNL d   1      -0.761  -0.335   1.171  0.00  0.00     0.007 C 
ATOM      9  C   UNL d   1      -0.831   0.955   1.978  0.00  0.00     0.009 C 
ENDBRANCH   7   8
ENDBRANCH   1   7
TORSDOF 2
ENDMDL
