MODEL 1
REMARK minimizedAffinity -1.53354716
REMARK minimizedRMSD -1
REMARK  2 active torsions:
REMARK  status: ('A' for Active; 'I' for Inactive)
REMARK    1  A    between atoms: C1_2  and  C2_3 
REMARK    2  A    between atoms: C2_3  and  C3_4 
ROOT
ATOM      1  C3  UNL d   1       0.332  -0.255  -0.302  0.00  0.00    -0.075 A 
ATOM      2  C4  UNL d   1       0.054   1.091  -0.586  0.00  0.00     0.002 A 
ATOM      3  C5  UNL d   1      -0.583   1.896   0.358  0.00  0.00     0.002 A 
ATOM      4  C6  UNL d   1      -0.960   1.366   1.590  0.00  0.00    -0.004 A 
ATOM      5  C7  UNL d   1      -0.705   0.027   1.876  0.00  0.00     0.002 A 
ATOM      6  C8  UNL d   1      -0.063  -0.781   0.935  0.00  0.00     0.002 A 
ENDROOT
BRANCH   1   7
ATOM      7  C2  UNL d   1       1.048  -1.124  -1.308  0.00  0.00     0.056 C 
BRANCH   7   8
ATOM      8  C1  UNL d   1       0.831  -2.627  -1.100  0.00  0.00     0.007 C 
ATOM      9  C   UNL d   1       0.279  -3.330  -2.333  0.00  0.00     0.009 C 
ENDBRANCH   7   8
ENDBRANCH   1   7
TORSDOF 2
ENDMDL
