MODEL 1
REMARK minimizedAffinity -3.11099696
REMARK minimizedRMSD -1
REMARK  2 active torsions:
REMARK  status: ('A' for Active; 'I' for Inactive)
REMARK    1  A    between atoms: C1_2  and  C2_3 
REMARK    2  A    between atoms: C2_3  and  C3_4 
ROOT
ATOM      1  C3  UNL d   1       0.373  -0.006  -0.610  0.00  0.00    -0.075 A 
ATOM      2  C4  UNL d   1       0.181  -0.472   0.698  0.00  0.00     0.002 A 
ATOM      3  C5  UNL d   1      -0.700   0.182   1.560  0.00  0.00     0.002 A 
ATOM      4  C6  UNL d   1      -1.390   1.313   1.130  0.00  0.00    -0.004 A 
ATOM      5  C7  UNL d   1      -1.194   1.795  -0.162  0.00  0.00     0.002 A 
ATOM      6  C8  UNL d   1      -0.316   1.140  -1.029  0.00  0.00     0.002 A 
ENDROOT
BRANCH   1   7
ATOM      7  C2  UNL d   1       1.303  -0.726  -1.558  0.00  0.00     0.056 C 
BRANCH   7   8
ATOM      8  C1  UNL d   1       0.975  -2.211  -1.745  0.00  0.00     0.007 C 
ATOM      9  C   UNL d   1       0.327  -2.518  -3.088  0.00  0.00     0.009 C 
ENDBRANCH   7   8
ENDBRANCH   1   7
TORSDOF 2
ENDMDL
