MODEL 1
REMARK minimizedAffinity 1.31734216
REMARK minimizedRMSD -1
REMARK  2 active torsions:
REMARK  status: ('A' for Active; 'I' for Inactive)
REMARK    1  A    between atoms: C1_2  and  C2_3 
REMARK    2  A    between atoms: C2_3  and  C3_4 
ROOT
ATOM      1  C3  UNL d   1      -0.028   0.239   0.145  0.00  0.00    -0.075 A 
ATOM      2  C4  UNL d   1      -0.278  -0.531   1.291  0.00  0.00     0.002 A 
ATOM      3  C5  UNL d   1      -0.979   0.010   2.369  0.00  0.00     0.002 A 
ATOM      4  C6  UNL d   1      -1.430   1.327   2.320  0.00  0.00    -0.004 A 
ATOM      5  C7  UNL d   1      -1.173   2.107   1.194  0.00  0.00     0.002 A 
ATOM      6  C8  UNL d   1      -0.476   1.567   0.112  0.00  0.00     0.002 A 
ENDROOT
BRANCH   1   7
ATOM      7  C2  UNL d   1       0.704  -0.350  -1.037  0.00  0.00     0.056 C 
BRANCH   7   8
ATOM      8  C1  UNL d   1       0.359  -1.816  -1.317  0.00  0.00     0.007 C 
ATOM      9  C   UNL d   1      -0.063  -2.069  -2.758  0.00  0.00     0.009 C 
ENDBRANCH   7   8
ENDBRANCH   1   7
TORSDOF 2
ENDMDL
