MODEL 1
REMARK minimizedAffinity -4.51667118
REMARK minimizedRMSD -1
REMARK  2 active torsions:
REMARK  status: ('A' for Active; 'I' for Inactive)
REMARK    1  A    between atoms: C1_2  and  C2_3 
REMARK    2  A    between atoms: C2_3  and  C3_4 
ROOT
ATOM      1  C3  UNL d   1       0.520  -0.694  -0.446  0.00  0.00    -0.075 A 
ATOM      2  C4  UNL d   1       0.481   0.565  -1.063  0.00  0.00     0.002 A 
ATOM      3  C5  UNL d   1       0.406   0.670  -2.452  0.00  0.00     0.002 A 
ATOM      4  C6  UNL d   1       0.378  -0.478  -3.241  0.00  0.00    -0.004 A 
ATOM      5  C7  UNL d   1       0.433  -1.733  -2.639  0.00  0.00     0.002 A 
ATOM      6  C8  UNL d   1       0.505  -1.842  -1.249  0.00  0.00     0.002 A 
ENDROOT
BRANCH   1   7
ATOM      7  C2  UNL d   1       0.572  -0.815   1.059  0.00  0.00     0.056 C 
BRANCH   7   8
ATOM      8  C1  UNL d   1      -0.775  -0.582   1.750  0.00  0.00     0.007 C 
ATOM      9  C   UNL d   1      -0.913   0.815   2.341  0.00  0.00     0.009 C 
ENDBRANCH   7   8
ENDBRANCH   1   7
TORSDOF 2
ENDMDL
