MODEL 1
REMARK minimizedAffinity -3.09112167
REMARK minimizedRMSD -1
REMARK  2 active torsions:
REMARK  status: ('A' for Active; 'I' for Inactive)
REMARK    1  A    between atoms: C1_2  and  C2_3 
REMARK    2  A    between atoms: C2_3  and  C3_4 
ROOT
ATOM      1  C3  UNL d   1      -0.923   1.643   1.241  0.00  0.00    -0.075 A 
ATOM      2  C4  UNL d   1      -0.739   2.933   1.760  0.00  0.00     0.002 A 
ATOM      3  C5  UNL d   1      -0.258   3.961   0.950  0.00  0.00     0.002 A 
ATOM      4  C6  UNL d   1       0.055   3.712  -0.385  0.00  0.00    -0.004 A 
ATOM      5  C7  UNL d   1      -0.109   2.431  -0.907  0.00  0.00     0.002 A 
ATOM      6  C8  UNL d   1      -0.594   1.401  -0.100  0.00  0.00     0.002 A 
ENDROOT
BRANCH   1   7
ATOM      7  C2  UNL d   1      -1.472   0.533   2.105  0.00  0.00     0.056 C 
BRANCH   7   8
ATOM      8  C1  UNL d   1      -0.852  -0.840   1.825  0.00  0.00     0.007 C 
ATOM      9  C   UNL d   1      -0.961  -1.800   3.002  0.00  0.00     0.009 C 
ENDBRANCH   7   8
ENDBRANCH   1   7
TORSDOF 2
ENDMDL
