MODEL 1
REMARK minimizedAffinity -5.05924034
REMARK minimizedRMSD -1
REMARK  2 active torsions:
REMARK  status: ('A' for Active; 'I' for Inactive)
REMARK    1  A    between atoms: C1_2  and  C2_3 
REMARK    2  A    between atoms: C2_3  and  C3_4 
ROOT
ATOM      1  C3  UNL d   1       0.223   0.315   0.245  0.00  0.00    -0.075 A 
ATOM      2  C4  UNL d   1      -0.470   0.804   1.361  0.00  0.00     0.002 A 
ATOM      3  C5  UNL d   1      -0.652   2.176   1.536  0.00  0.00     0.002 A 
ATOM      4  C6  UNL d   1      -0.137   3.075   0.604  0.00  0.00    -0.004 A 
ATOM      5  C7  UNL d   1       0.567   2.600  -0.500  0.00  0.00     0.002 A 
ATOM      6  C8  UNL d   1       0.747   1.228  -0.680  0.00  0.00     0.002 A 
ENDROOT
BRANCH   1   7
ATOM      7  C2  UNL d   1       0.398  -1.170   0.034  0.00  0.00     0.056 C 
BRANCH   7   8
ATOM      8  C1  UNL d   1       0.740  -1.560  -1.408  0.00  0.00     0.007 C 
ATOM      9  C   UNL d   1       0.425  -3.016  -1.727  0.00  0.00     0.009 C 
ENDBRANCH   7   8
ENDBRANCH   1   7
TORSDOF 2
ENDMDL
