MODEL 1
REMARK minimizedAffinity -3.82888699
REMARK minimizedRMSD -1
REMARK  2 active torsions:
REMARK  status: ('A' for Active; 'I' for Inactive)
REMARK    1  A    between atoms: C1_2  and  C2_3 
REMARK    2  A    between atoms: C2_3  and  C3_4 
ROOT
ATOM      1  C3  UNL d   1       0.596  -1.701  -0.987  0.00  0.00    -0.075 A 
ATOM      2  C4  UNL d   1      -0.364  -1.640  -2.007  0.00  0.00     0.002 A 
ATOM      3  C5  UNL d   1      -0.486  -2.680  -2.929  0.00  0.00     0.002 A 
ATOM      4  C6  UNL d   1       0.355  -3.787  -2.850  0.00  0.00    -0.004 A 
ATOM      5  C7  UNL d   1       1.324  -3.851  -1.852  0.00  0.00     0.002 A 
ATOM      6  C8  UNL d   1       1.446  -2.814  -0.925  0.00  0.00     0.002 A 
ENDROOT
BRANCH   1   7
ATOM      7  C2  UNL d   1       0.714  -0.593   0.031  0.00  0.00     0.056 C 
BRANCH   7   8
ATOM      8  C1  UNL d   1      -0.202   0.605  -0.242  0.00  0.00     0.007 C 
ATOM      9  C   UNL d   1       0.510   1.757  -0.939  0.00  0.00     0.009 C 
ENDBRANCH   7   8
ENDBRANCH   1   7
TORSDOF 2
ENDMDL
