MODEL 1
REMARK minimizedAffinity -4.11328697
REMARK minimizedRMSD -1
REMARK  2 active torsions:
REMARK  status: ('A' for Active; 'I' for Inactive)
REMARK    1  A    between atoms: C1_2  and  C2_3 
REMARK    2  A    between atoms: C2_3  and  C3_4 
ROOT
ATOM      1  C3  UNL d   1      -0.591  -0.325   0.563  0.00  0.00    -0.075 A 
ATOM      2  C4  UNL d   1       0.788  -0.576   0.535  0.00  0.00     0.002 A 
ATOM      3  C5  UNL d   1       1.340  -1.388  -0.456  0.00  0.00     0.002 A 
ATOM      4  C6  UNL d   1       0.521  -1.967  -1.422  0.00  0.00    -0.004 A 
ATOM      5  C7  UNL d   1      -0.853  -1.738  -1.394  0.00  0.00     0.002 A 
ATOM      6  C8  UNL d   1      -1.407  -0.922  -0.406  0.00  0.00     0.002 A 
ENDROOT
BRANCH   1   7
ATOM      7  C2  UNL d   1      -1.191   0.577   1.615  0.00  0.00     0.056 C 
BRANCH   7   8
ATOM      8  C1  UNL d   1      -0.645   2.009   1.594  0.00  0.00     0.007 C 
ATOM      9  C   UNL d   1      -0.369   2.525   0.188  0.00  0.00     0.009 C 
ENDBRANCH   7   8
ENDBRANCH   1   7
TORSDOF 2
ENDMDL
