MODEL 1
REMARK minimizedAffinity -3.77974463
REMARK minimizedRMSD -1
REMARK  2 active torsions:
REMARK  status: ('A' for Active; 'I' for Inactive)
REMARK    1  A    between atoms: C1_2  and  C2_3 
REMARK    2  A    between atoms: C2_3  and  C3_4 
ROOT
ATOM      1  C3  UNL d   1       0.116   1.050  -0.195  0.00  0.00    -0.075 A 
ATOM      2  C4  UNL d   1       0.095   2.384  -0.628  0.00  0.00     0.002 A 
ATOM      3  C5  UNL d   1      -0.536   3.366   0.135  0.00  0.00     0.002 A 
ATOM      4  C6  UNL d   1      -1.163   3.027   1.332  0.00  0.00    -0.004 A 
ATOM      5  C7  UNL d   1      -1.163   1.703   1.764  0.00  0.00     0.002 A 
ATOM      6  C8  UNL d   1      -0.528   0.718   1.005  0.00  0.00     0.002 A 
ENDROOT
BRANCH   1   7
ATOM      7  C2  UNL d   1       0.823  -0.013  -1.001  0.00  0.00     0.056 C 
BRANCH   7   8
ATOM      8  C1  UNL d   1       0.839  -1.393  -0.336  0.00  0.00     0.007 C 
ATOM      9  C   UNL d   1       1.204  -2.518  -1.295  0.00  0.00     0.009 C 
ENDBRANCH   7   8
ENDBRANCH   1   7
TORSDOF 2
ENDMDL
