MODEL 1
REMARK minimizedAffinity 3.31919885
REMARK minimizedRMSD -1
REMARK  0 active torsions:
REMARK  status: ('A' for Active; 'I' for Inactive)
ROOT
ATOM      1  C   UNL d   1      -1.575   0.104   0.577  0.00  0.00     0.023 A 
ATOM      2  C1  UNL d   1      -2.207   0.315   1.803  0.00  0.00     0.003 A 
ATOM      3  C2  UNL d   1      -1.563  -0.037   2.991  0.00  0.00     0.048 A 
ATOM      4  C3  UNL d   1      -0.287  -0.598   2.946  0.00  0.00     0.023 A 
ATOM      5  C4  UNL d   1       0.349  -0.810   1.722  0.00  0.00     0.048 A 
ATOM      6  C5  UNL d   1      -0.299  -0.458   0.537  0.00  0.00     0.003 A 
ATOM      7  I   UNL d   1       0.674  -1.122   4.713  0.00  0.00    -0.146 I 
ENDROOT
TORSDOF 0
ENDMDL
