MODEL 1
REMARK minimizedAffinity 3.07283163
REMARK minimizedRMSD -1
REMARK  0 active torsions:
REMARK  status: ('A' for Active; 'I' for Inactive)
ROOT
ATOM      1  C   UNL d   1       0.345  -0.034   0.461  0.00  0.00     0.023 A 
ATOM      2  C1  UNL d   1       0.155  -0.922  -0.599  0.00  0.00     0.003 A 
ATOM      3  C2  UNL d   1      -1.137  -1.252  -1.012  0.00  0.00     0.048 A 
ATOM      4  C3  UNL d   1      -2.235  -0.690  -0.361  0.00  0.00     0.023 A 
ATOM      5  C4  UNL d   1      -2.050   0.199   0.699  0.00  0.00     0.048 A 
ATOM      6  C5  UNL d   1      -0.756   0.525   1.109  0.00  0.00     0.003 A 
ATOM      7  I   UNL d   1      -4.160  -1.180  -0.974  0.00  0.00    -0.146 I 
ENDROOT
TORSDOF 0
ENDMDL
