MODEL 1
REMARK minimizedAffinity 1.37308729
REMARK minimizedRMSD -1
REMARK  0 active torsions:
REMARK  status: ('A' for Active; 'I' for Inactive)
ROOT
ATOM      1  C   UNL d   1       3.526   1.414  -3.286  0.00  0.00     0.023 A 
ATOM      2  C1  UNL d   1       3.906   0.902  -2.045  0.00  0.00     0.003 A 
ATOM      3  C2  UNL d   1       2.938   0.427  -1.158  0.00  0.00     0.048 A 
ATOM      4  C3  UNL d   1       1.591   0.466  -1.518  0.00  0.00     0.023 A 
ATOM      5  C4  UNL d   1       1.206   0.977  -2.759  0.00  0.00     0.048 A 
ATOM      6  C5  UNL d   1       2.178   1.451  -3.642  0.00  0.00     0.003 A 
ATOM      7  I   UNL d   1       0.148  -0.240  -0.200  0.00  0.00    -0.146 I 
ENDROOT
TORSDOF 0
ENDMDL
