MODEL 1
REMARK minimizedAffinity -0.892856538
REMARK minimizedRMSD -1
REMARK  0 active torsions:
REMARK  status: ('A' for Active; 'I' for Inactive)
ROOT
ATOM      1  C   UNL d   1      -2.151   0.379   0.044  0.00  0.00     0.023 A 
ATOM      2  C1  UNL d   1      -2.771   0.532   1.284  0.00  0.00     0.003 A 
ATOM      3  C2  UNL d   1      -2.098   0.168   2.452  0.00  0.00     0.048 A 
ATOM      4  C3  UNL d   1      -0.805  -0.349   2.373  0.00  0.00     0.023 A 
ATOM      5  C4  UNL d   1      -0.181  -0.503   1.134  0.00  0.00     0.048 A 
ATOM      6  C5  UNL d   1      -0.857  -0.138  -0.031  0.00  0.00     0.003 A 
ATOM      7  I   UNL d   1       0.198  -0.892   4.110  0.00  0.00    -0.146 I 
ENDROOT
TORSDOF 0
ENDMDL
