MODEL 1
REMARK minimizedAffinity 10.9540243
REMARK minimizedRMSD -1
REMARK  0 active torsions:
REMARK  status: ('A' for Active; 'I' for Inactive)
ROOT
ATOM      1  C   UNL d   1       5.607   2.961   5.184  0.00  0.00     0.023 A 
ATOM      2  C1  UNL d   1       4.336   2.385   5.205  0.00  0.00     0.003 A 
ATOM      3  C2  UNL d   1       3.455   2.595   4.142  0.00  0.00     0.048 A 
ATOM      4  C3  UNL d   1       3.851   3.381   3.061  0.00  0.00     0.023 A 
ATOM      5  C4  UNL d   1       5.122   3.958   3.035  0.00  0.00     0.048 A 
ATOM      6  C5  UNL d   1       5.999   3.747   4.100  0.00  0.00     0.003 A 
ATOM      7  I   UNL d   1       2.542   3.694   1.477  0.00  0.00    -0.146 I 
ENDROOT
TORSDOF 0
ENDMDL
