MODEL 1
REMARK minimizedAffinity -1.46001077
REMARK minimizedRMSD -1
REMARK  0 active torsions:
REMARK  status: ('A' for Active; 'I' for Inactive)
ROOT
ATOM      1  C   UNL d   1       5.356   2.093   0.102  0.00  0.00     0.023 A 
ATOM      2  C1  UNL d   1       5.818   1.919   1.407  0.00  0.00     0.003 A 
ATOM      3  C2  UNL d   1       6.000   3.027   2.238  0.00  0.00     0.048 A 
ATOM      4  C3  UNL d   1       5.718   4.305   1.758  0.00  0.00     0.023 A 
ATOM      5  C4  UNL d   1       5.255   4.484   0.453  0.00  0.00     0.048 A 
ATOM      6  C5  UNL d   1       5.075   3.374  -0.374  0.00  0.00     0.003 A 
ATOM      7  I   UNL d   1       5.988   5.955   2.993  0.00  0.00    -0.146 I 
ENDROOT
TORSDOF 0
ENDMDL
