MODEL 1
REMARK minimizedAffinity 8.88927174
REMARK minimizedRMSD -1
REMARK  0 active torsions:
REMARK  status: ('A' for Active; 'I' for Inactive)
ROOT
ATOM      1  C   UNL d   1       1.389  -2.128   1.998  0.00  0.00     0.023 A 
ATOM      2  C1  UNL d   1       0.718  -2.949   1.091  0.00  0.00     0.003 A 
ATOM      3  C2  UNL d   1       1.405  -3.968   0.428  0.00  0.00     0.048 A 
ATOM      4  C3  UNL d   1       2.763  -4.161   0.677  0.00  0.00     0.023 A 
ATOM      5  C4  UNL d   1       3.439  -3.344   1.584  0.00  0.00     0.048 A 
ATOM      6  C5  UNL d   1       2.748  -2.325   2.244  0.00  0.00     0.003 A 
ATOM      7  I   UNL d   1       3.787  -5.678  -0.308  0.00  0.00    -0.146 I 
ENDROOT
TORSDOF 0
ENDMDL
