MODEL 1
REMARK minimizedAffinity 7.66875458
REMARK minimizedRMSD -1
REMARK  0 active torsions:
REMARK  status: ('A' for Active; 'I' for Inactive)
ROOT
ATOM      1  C   UNL d   1       4.986  -5.515   0.388  0.00  0.00     0.023 A 
ATOM      2  C1  UNL d   1       4.343  -5.086  -0.773  0.00  0.00     0.003 A 
ATOM      3  C2  UNL d   1       3.316  -4.143  -0.695  0.00  0.00     0.048 A 
ATOM      4  C3  UNL d   1       2.938  -3.633   0.546  0.00  0.00     0.023 A 
ATOM      5  C4  UNL d   1       3.579  -4.059   1.710  0.00  0.00     0.048 A 
ATOM      6  C5  UNL d   1       4.604  -5.003   1.628  0.00  0.00     0.003 A 
ATOM      7  I   UNL d   1       1.410  -2.229   0.664  0.00  0.00    -0.146 I 
ENDROOT
TORSDOF 0
ENDMDL
