MODEL 1
REMARK minimizedAffinity 7.48488522
REMARK minimizedRMSD -1
REMARK  0 active torsions:
REMARK  status: ('A' for Active; 'I' for Inactive)
ROOT
ATOM      1  C   UNL d   1       2.548  -2.673   0.119  0.00  0.00     0.023 A 
ATOM      2  C1  UNL d   1       2.113  -1.356  -0.027  0.00  0.00     0.003 A 
ATOM      3  C2  UNL d   1       1.189  -0.820   0.873  0.00  0.00     0.048 A 
ATOM      4  C3  UNL d   1       0.706  -1.607   1.917  0.00  0.00     0.023 A 
ATOM      5  C4  UNL d   1       1.139  -2.925   2.068  0.00  0.00     0.048 A 
ATOM      6  C5  UNL d   1       2.062  -3.457   1.166  0.00  0.00     0.003 A 
ATOM      7  I   UNL d   1      -0.669  -0.812   3.258  0.00  0.00    -0.146 I 
ENDROOT
TORSDOF 0
ENDMDL
