MODEL 1
REMARK minimizedAffinity 6.70644236
REMARK minimizedRMSD -1
REMARK  0 active torsions:
REMARK  status: ('A' for Active; 'I' for Inactive)
ROOT
ATOM      1  C   UNL d   1      -3.631   6.000   6.000  0.00  0.00     0.023 A 
ATOM      2  C1  UNL d   1      -2.510   5.206   5.760  0.00  0.00     0.003 A 
ATOM      3  C2  UNL d   1      -2.665   3.904   5.279  0.00  0.00     0.048 A 
ATOM      4  C3  UNL d   1      -3.944   3.402   5.040  0.00  0.00     0.023 A 
ATOM      5  C4  UNL d   1      -5.069   4.194   5.279  0.00  0.00     0.048 A 
ATOM      6  C5  UNL d   1      -4.909   5.495   5.760  0.00  0.00     0.003 A 
ATOM      7  I   UNL d   1      -4.177   1.465   4.325  0.00  0.00    -0.146 I 
ENDROOT
TORSDOF 0
ENDMDL
