MODEL 1
REMARK minimizedAffinity 6.54790783
REMARK minimizedRMSD -1
REMARK  0 active torsions:
REMARK  status: ('A' for Active; 'I' for Inactive)
ROOT
ATOM      1  C   UNL d   1      -0.155  -2.390   2.000  0.00  0.00     0.023 A 
ATOM      2  C1  UNL d   1      -0.402  -3.726   1.685  0.00  0.00     0.003 A 
ATOM      3  C2  UNL d   1       0.628  -4.531   1.195  0.00  0.00     0.048 A 
ATOM      4  C3  UNL d   1       1.903  -3.993   1.023  0.00  0.00     0.023 A 
ATOM      5  C4  UNL d   1       2.155  -2.657   1.338  0.00  0.00     0.048 A 
ATOM      6  C5  UNL d   1       1.122  -1.856   1.827  0.00  0.00     0.003 A 
ATOM      7  I   UNL d   1       3.439  -5.189   0.293  0.00  0.00    -0.146 I 
ENDROOT
TORSDOF 0
ENDMDL
