MODEL 1
REMARK minimizedAffinity 0.963303387
REMARK minimizedRMSD -1
REMARK  0 active torsions:
REMARK  status: ('A' for Active; 'I' for Inactive)
ROOT
ATOM      1  C   UNL d   1       2.266  -3.174   0.179  0.00  0.00     0.023 A 
ATOM      2  C1  UNL d   1       1.543  -2.505   1.166  0.00  0.00     0.003 A 
ATOM      3  C2  UNL d   1       2.136  -2.222   2.398  0.00  0.00     0.048 A 
ATOM      4  C3  UNL d   1       3.454  -2.610   2.636  0.00  0.00     0.023 A 
ATOM      5  C4  UNL d   1       4.183  -3.280   1.651  0.00  0.00     0.048 A 
ATOM      6  C5  UNL d   1       3.584  -3.561   0.421  0.00  0.00     0.003 A 
ATOM      7  I   UNL d   1       4.340  -2.190   4.468  0.00  0.00    -0.146 I 
ENDROOT
TORSDOF 0
ENDMDL
