MODEL 1
REMARK minimizedAffinity -1.33793604
REMARK minimizedRMSD -1
REMARK  0 active torsions:
REMARK  status: ('A' for Active; 'I' for Inactive)
ROOT
ATOM      1  C   UNL d   1      -6.000   0.930   4.062  0.00  0.00     0.023 A 
ATOM      2  C1  UNL d   1      -6.000   1.116   5.444  0.00  0.00     0.003 A 
ATOM      3  C2  UNL d   1      -5.365   2.228   6.000  0.00  0.00     0.048 A 
ATOM      4  C3  UNL d   1      -4.733   3.152   5.168  0.00  0.00     0.023 A 
ATOM      5  C4  UNL d   1      -4.731   2.970   3.784  0.00  0.00     0.048 A 
ATOM      6  C5  UNL d   1      -5.367   1.855   3.232  0.00  0.00     0.003 A 
ATOM      7  I   UNL d   1      -3.788   4.808   5.993  0.00  0.00    -0.146 I 
ENDROOT
TORSDOF 0
ENDMDL
