MODEL 1
REMARK minimizedAffinity 9.53509998
REMARK minimizedRMSD -1
REMARK  0 active torsions:
REMARK  status: ('A' for Active; 'I' for Inactive)
ROOT
ATOM      1  C   UNL d   1       0.969  -1.791   0.347  0.00  0.00     0.023 A 
ATOM      2  C1  UNL d   1       0.552  -1.231   1.555  0.00  0.00     0.003 A 
ATOM      3  C2  UNL d   1       1.351  -1.348   2.693  0.00  0.00     0.048 A 
ATOM      4  C3  UNL d   1       2.567  -2.027   2.617  0.00  0.00     0.023 A 
ATOM      5  C4  UNL d   1       2.989  -2.588   1.411  0.00  0.00     0.048 A 
ATOM      6  C5  UNL d   1       2.186  -2.469   0.275  0.00  0.00     0.003 A 
ATOM      7  I   UNL d   1       3.759  -2.203   4.311  0.00  0.00    -0.146 I 
ENDROOT
TORSDOF 0
ENDMDL
