MODEL 1
REMARK minimizedAffinity -3.10963607
REMARK minimizedRMSD -1
REMARK  0 active torsions:
REMARK  status: ('A' for Active; 'I' for Inactive)
ROOT
ATOM      1  C1  BNZ d   1       1.157   0.932  -0.242  0.00  0.00     0.000 A 
ATOM      2  C2  BNZ d   1       2.088   1.077  -1.236  0.00  0.00     0.000 A 
ATOM      3  C3  BNZ d   1       2.626  -0.017  -1.855  0.00  0.00     0.000 A 
ATOM      4  C4  BNZ d   1       2.265  -1.252  -1.452  0.00  0.00     0.000 A 
ATOM      5  C5  BNZ d   1       1.336  -1.415  -0.445  0.00  0.00     0.000 A 
ATOM      6  C6  BNZ d   1       0.766  -0.312   0.150  0.00  0.00     0.000 A 
ENDROOT
TORSDOF 0
ENDMDL
