MODEL 1
REMARK minimizedAffinity -2.85138702
REMARK minimizedRMSD -1
REMARK  0 active torsions:
REMARK  status: ('A' for Active; 'I' for Inactive)
ROOT
ATOM      1  C1  BNZ d   1       0.410  -0.700  -0.452  0.00  0.00     0.000 A 
ATOM      2  C2  BNZ d   1       0.728  -2.030  -0.531  0.00  0.00     0.000 A 
ATOM      3  C3  BNZ d   1       1.833  -2.445  -1.221  0.00  0.00     0.000 A 
ATOM      4  C4  BNZ d   1       2.593  -1.536  -1.864  0.00  0.00     0.000 A 
ATOM      5  C5  BNZ d   1       2.280  -0.193  -1.802  0.00  0.00     0.000 A 
ATOM      6  C6  BNZ d   1       1.189   0.225  -1.074  0.00  0.00     0.000 A 
ENDROOT
TORSDOF 0
ENDMDL
