MODEL 1
REMARK minimizedAffinity -2.69315457
REMARK minimizedRMSD -1
REMARK  0 active torsions:
REMARK  status: ('A' for Active; 'I' for Inactive)
ROOT
ATOM      1  C1  BNZ d   1      -0.671   0.450   1.507  0.00  0.00     0.000 A 
ATOM      2  C2  BNZ d   1      -1.779   0.265   2.290  0.00  0.00     0.000 A 
ATOM      3  C3  BNZ d   1      -3.035   0.435   1.778  0.00  0.00     0.000 A 
ATOM      4  C4  BNZ d   1      -3.181   0.828   0.496  0.00  0.00     0.000 A 
ATOM      5  C5  BNZ d   1      -2.073   1.027  -0.304  0.00  0.00     0.000 A 
ATOM      6  C6  BNZ d   1      -0.812   0.818   0.204  0.00  0.00     0.000 A 
ENDROOT
TORSDOF 0
ENDMDL
