MODEL 1
REMARK minimizedAffinity -0.0523726046
REMARK minimizedRMSD -1
REMARK  0 active torsions:
REMARK  status: ('A' for Active; 'I' for Inactive)
ROOT
ATOM      1  C1  BNZ d   1      -3.882   1.776   2.650  0.00  0.00     0.000 A 
ATOM      2  C2  BNZ d   1      -4.732   1.017   1.891  0.00  0.00     0.000 A 
ATOM      3  C3  BNZ d   1      -4.289  -0.112   1.262  0.00  0.00     0.000 A 
ATOM      4  C4  BNZ d   1      -2.989  -0.460   1.360  0.00  0.00     0.000 A 
ATOM      5  C5  BNZ d   1      -2.118   0.300   2.115  0.00  0.00     0.000 A 
ATOM      6  C6  BNZ d   1      -2.576   1.415   2.779  0.00  0.00     0.000 A 
ENDROOT
TORSDOF 0
ENDMDL
