MODEL 1
REMARK minimizedAffinity -3.43440652
REMARK minimizedRMSD -1
REMARK  0 active torsions:
REMARK  status: ('A' for Active; 'I' for Inactive)
ROOT
ATOM      1  C1  BNZ d   1      -1.883  -0.511   1.114  0.00  0.00     0.000 A 
ATOM      2  C2  BNZ d   1      -3.216  -0.520   0.802  0.00  0.00     0.000 A 
ATOM      3  C3  BNZ d   1      -4.092   0.307   1.448  0.00  0.00     0.000 A 
ATOM      4  C4  BNZ d   1      -3.641   1.111   2.433  0.00  0.00     0.000 A 
ATOM      5  C5  BNZ d   1      -2.301   1.124   2.766  0.00  0.00     0.000 A 
ATOM      6  C6  BNZ d   1      -1.416   0.319   2.086  0.00  0.00     0.000 A 
ENDROOT
TORSDOF 0
ENDMDL
