MODEL 1
REMARK minimizedAffinity -3.70973325
REMARK minimizedRMSD -1
REMARK  0 active torsions:
REMARK  status: ('A' for Active; 'I' for Inactive)
ROOT
ATOM      1  C1  BNZ d   1       0.744   1.239  -0.357  0.00  0.00     0.000 A 
ATOM      2  C2  BNZ d   1      -0.057   0.343   0.300  0.00  0.00     0.000 A 
ATOM      3  C3  BNZ d   1       0.020  -0.994   0.029  0.00  0.00     0.000 A 
ATOM      4  C4  BNZ d   1       0.868  -1.430  -0.925  0.00  0.00     0.000 A 
ATOM      5  C5  BNZ d   1       1.675  -0.539  -1.603  0.00  0.00     0.000 A 
ATOM      6  C6  BNZ d   1       1.623   0.803  -1.300  0.00  0.00     0.000 A 
ENDROOT
TORSDOF 0
ENDMDL
