MODEL 1
REMARK minimizedAffinity -3.22605371
REMARK minimizedRMSD -1
REMARK  0 active torsions:
REMARK  status: ('A' for Active; 'I' for Inactive)
ROOT
ATOM      1  C1  BNZ d   1      -3.837   3.554  -5.972  0.00  0.00     0.000 A 
ATOM      2  C2  BNZ d   1      -5.202   3.438  -5.976  0.00  0.00     0.000 A 
ATOM      3  C3  BNZ d   1      -5.998   4.549  -5.993  0.00  0.00     0.000 A 
ATOM      4  C4  BNZ d   1      -5.431   5.772  -5.965  0.00  0.00     0.000 A 
ATOM      5  C5  BNZ d   1      -4.057   5.905  -5.951  0.00  0.00     0.000 A 
ATOM      6  C6  BNZ d   1      -3.258   4.785  -5.973  0.00  0.00     0.000 A 
ENDROOT
TORSDOF 0
ENDMDL
