MODEL 1
REMARK minimizedAffinity -2.34299541
REMARK minimizedRMSD -1
REMARK  0 active torsions:
REMARK  status: ('A' for Active; 'I' for Inactive)
ROOT
ATOM      1  C1  BNZ d   1       1.821   1.240  -1.462  0.00  0.00     0.000 A 
ATOM      2  C2  BNZ d   1       0.772   1.470  -0.613  0.00  0.00     0.000 A 
ATOM      3  C3  BNZ d   1       0.192   0.442   0.078  0.00  0.00     0.000 A 
ATOM      4  C4  BNZ d   1       0.635  -0.818  -0.113  0.00  0.00     0.000 A 
ATOM      5  C5  BNZ d   1       1.686  -1.066  -0.974  0.00  0.00     0.000 A 
ATOM      6  C6  BNZ d   1       2.292  -0.024  -1.637  0.00  0.00     0.000 A 
ENDROOT
TORSDOF 0
ENDMDL
