MODEL 1
REMARK minimizedAffinity -2.72316551
REMARK minimizedRMSD -1
REMARK  0 active torsions:
REMARK  status: ('A' for Active; 'I' for Inactive)
ROOT
ATOM      1  C1  BNZ d   1       0.920   0.831  -0.094  0.00  0.00     0.000 A 
ATOM      2  C2  BNZ d   1       0.190  -0.167   0.495  0.00  0.00     0.000 A 
ATOM      3  C3  BNZ d   1       0.362  -1.471   0.124  0.00  0.00     0.000 A 
ATOM      4  C4  BNZ d   1       1.233  -1.771  -0.861  0.00  0.00     0.000 A 
ATOM      5  C5  BNZ d   1       1.969  -0.775  -1.471  0.00  0.00     0.000 A 
ATOM      6  C6  BNZ d   1       1.822   0.533  -1.068  0.00  0.00     0.000 A 
ENDROOT
TORSDOF 0
ENDMDL
