MODEL 1
REMARK minimizedAffinity -2.93646741
REMARK minimizedRMSD -1
REMARK  0 active torsions:
REMARK  status: ('A' for Active; 'I' for Inactive)
ROOT
ATOM      1  C1  BNZ d   1      -5.989   1.777  -6.000  0.00  0.00     0.000 A 
ATOM      2  C2  BNZ d   1      -4.853   1.025  -5.856  0.00  0.00     0.000 A 
ATOM      3  C3  BNZ d   1      -3.635   1.621  -5.685  0.00  0.00     0.000 A 
ATOM      4  C4  BNZ d   1      -3.548   2.967  -5.700  0.00  0.00     0.000 A 
ATOM      5  C5  BNZ d   1      -4.683   3.739  -5.854  0.00  0.00     0.000 A 
ATOM      6  C6  BNZ d   1      -5.912   3.136  -5.986  0.00  0.00     0.000 A 
ENDROOT
TORSDOF 0
ENDMDL
