MODEL 1
REMARK minimizedAffinity -4.59777069
REMARK minimizedRMSD -1
REMARK  0 active torsions:
REMARK  status: ('A' for Active; 'I' for Inactive)
ROOT
ATOM      1  C1  BNZ d   1       1.915   1.411  -1.111  0.00  0.00     0.000 A 
ATOM      2  C2  BNZ d   1       1.401   1.309   0.154  0.00  0.00     0.000 A 
ATOM      3  C3  BNZ d   1       0.422   0.399   0.440  0.00  0.00     0.000 A 
ATOM      4  C4  BNZ d   1      -0.069  -0.379  -0.546  0.00  0.00     0.000 A 
ATOM      5  C5  BNZ d   1       0.432  -0.282  -1.828  0.00  0.00     0.000 A 
ATOM      6  C6  BNZ d   1       1.445   0.608  -2.105  0.00  0.00     0.000 A 
ENDROOT
TORSDOF 0
ENDMDL
