MODEL 1
REMARK minimizedAffinity -2.6376946
REMARK minimizedRMSD -1
REMARK  0 active torsions:
REMARK  status: ('A' for Active; 'I' for Inactive)
ROOT
ATOM      1  C1  BNZ d   1      -1.109   0.047   1.336  0.00  0.00     0.000 A 
ATOM      2  C2  BNZ d   1      -1.736   0.836   0.409  0.00  0.00     0.000 A 
ATOM      3  C3  BNZ d   1      -3.094   0.994   0.428  0.00  0.00     0.000 A 
ATOM      4  C4  BNZ d   1      -3.826   0.332   1.347  0.00  0.00     0.000 A 
ATOM      5  C5  BNZ d   1      -3.209  -0.475   2.283  0.00  0.00     0.000 A 
ATOM      6  C6  BNZ d   1      -1.839  -0.601   2.285  0.00  0.00     0.000 A 
ENDROOT
TORSDOF 0
ENDMDL
