MODEL 1
REMARK minimizedAffinity -2.87874198
REMARK minimizedRMSD -1
REMARK  0 active torsions:
REMARK  status: ('A' for Active; 'I' for Inactive)
ROOT
ATOM      1  C1  BNZ d   1      -5.511   3.324  -6.000  0.00  0.00     0.000 A 
ATOM      2  C2  BNZ d   1      -6.000   4.603  -5.955  0.00  0.00     0.000 A 
ATOM      3  C3  BNZ d   1      -5.153   5.675  -5.919  0.00  0.00     0.000 A 
ATOM      4  C4  BNZ d   1      -3.821   5.466  -5.886  0.00  0.00     0.000 A 
ATOM      5  C5  BNZ d   1      -3.313   4.183  -5.922  0.00  0.00     0.000 A 
ATOM      6  C6  BNZ d   1      -4.168   3.108  -5.998  0.00  0.00     0.000 A 
ENDROOT
TORSDOF 0
ENDMDL
