MODEL 1
REMARK minimizedAffinity -3.09292841
REMARK minimizedRMSD -1
REMARK  0 active torsions:
REMARK  status: ('A' for Active; 'I' for Inactive)
ROOT
ATOM      1  C1  BNZ d   1      -0.367   0.827   0.755  0.00  0.00     0.000 A 
ATOM      2  C2  BNZ d   1      -0.609  -0.498   1.001  0.00  0.00     0.000 A 
ATOM      3  C3  BNZ d   1       0.254  -1.461   0.558  0.00  0.00     0.000 A 
ATOM      4  C4  BNZ d   1       1.334  -1.102  -0.165  0.00  0.00     0.000 A 
ATOM      5  C5  BNZ d   1       1.587   0.230  -0.429  0.00  0.00     0.000 A 
ATOM      6  C6  BNZ d   1       0.737   1.199   0.052  0.00  0.00     0.000 A 
ENDROOT
TORSDOF 0
ENDMDL
