MODEL 1
REMARK minimizedAffinity 2.72668576
REMARK minimizedRMSD -1
REMARK  1 active torsions:
REMARK  status: ('A' for Active; 'I' for Inactive)
REMARK    1  A    between atoms: N_2  and  C1_3 
ROOT
ATOM      1  C1  UNL d   1      -0.319  -2.118   1.226  0.00  0.00     0.143 A 
ATOM      2  C2  UNL d   1      -0.221  -3.346   0.563  0.00  0.00    -0.057 A 
ATOM      3  C3  UNL d   1       1.005  -3.812   0.073  0.00  0.00     0.033 A 
ATOM      4  C4  UNL d   1       2.154  -3.041   0.212  0.00  0.00    -0.042 A 
ATOM      5  C5  UNL d   1       2.076  -1.806   0.845  0.00  0.00     0.033 A 
ATOM      6  C6  UNL d   1       0.850  -1.349   1.339  0.00  0.00    -0.057 A 
ENDROOT
BRANCH   1   7
ATOM      7  N   UNL d   1      -1.525  -1.556   1.650  0.00  0.00    -0.732 N 
ATOM      8  C   UNL d   1      -1.807  -0.155   1.419  0.00  0.00     0.284 C 
ATOM      9  H3  UNL d   1      -2.319  -2.172   1.487  0.00  0.00     0.395 HD
ENDBRANCH   1   7
TORSDOF 1
ENDMDL
