MODEL 1
REMARK minimizedAffinity 3.06123948
REMARK minimizedRMSD -1
REMARK  1 active torsions:
REMARK  status: ('A' for Active; 'I' for Inactive)
REMARK    1  A    between atoms: N_2  and  C1_3 
ROOT
ATOM      1  C1  UNL d   1       0.187  -0.343   2.084  0.00  0.00     0.143 A 
ATOM      2  C2  UNL d   1       1.472  -0.331   1.530  0.00  0.00    -0.057 A 
ATOM      3  C3  UNL d   1       1.723  -0.882   0.268  0.00  0.00     0.033 A 
ATOM      4  C4  UNL d   1       0.696  -1.483  -0.453  0.00  0.00    -0.042 A 
ATOM      5  C5  UNL d   1      -0.583  -1.528   0.089  0.00  0.00     0.033 A 
ATOM      6  C6  UNL d   1      -0.829  -0.971   1.347  0.00  0.00    -0.057 A 
ENDROOT
BRANCH   1   7
ATOM      7  N   UNL d   1      -0.107   0.100   3.376  0.00  0.00    -0.732 N 
ATOM      8  C   UNL d   1       0.604  -0.434   4.518  0.00  0.00     0.284 C 
ATOM      9  H3  UNL d   1      -0.263   1.105   3.416  0.00  0.00     0.395 HD
ENDBRANCH   1   7
TORSDOF 1
ENDMDL
