MODEL 1
REMARK minimizedAffinity 0.901067495
REMARK minimizedRMSD -1
REMARK  1 active torsions:
REMARK  status: ('A' for Active; 'I' for Inactive)
REMARK    1  A    between atoms: N_2  and  C1_3 
ROOT
ATOM      1  C1  UNL d   1       4.919   5.844   0.008  0.00  0.00     0.143 A 
ATOM      2  C2  UNL d   1       3.590   5.985  -0.406  0.00  0.00    -0.057 A 
ATOM      3  C3  UNL d   1       2.539   5.995   0.519  0.00  0.00     0.033 A 
ATOM      4  C4  UNL d   1       2.797   5.835   1.876  0.00  0.00    -0.042 A 
ATOM      5  C5  UNL d   1       4.108   5.668   2.308  0.00  0.00     0.033 A 
ATOM      6  C6  UNL d   1       5.154   5.665   1.380  0.00  0.00    -0.057 A 
ENDROOT
BRANCH   1   7
ATOM      7  N   UNL d   1       5.999   5.727  -0.870  0.00  0.00    -0.732 N 
ATOM      8  C   UNL d   1       5.997   4.722  -1.912  0.00  0.00     0.284 C 
ATOM      9  H3  UNL d   1       6.359   6.631  -1.166  0.00  0.00     0.395 HD
ENDBRANCH   1   7
TORSDOF 1
ENDMDL
