MODEL 1
REMARK minimizedAffinity -2.03595567
REMARK minimizedRMSD -1
REMARK  1 active torsions:
REMARK  status: ('A' for Active; 'I' for Inactive)
REMARK    1  A    between atoms: N_2  and  C1_3 
ROOT
ATOM      1  C1  UNL d   1       1.545  -1.718  -0.026  0.00  0.00     0.143 A 
ATOM      2  C2  UNL d   1       0.482  -2.613  -0.186  0.00  0.00    -0.057 A 
ATOM      3  C3  UNL d   1      -0.780  -2.347   0.358  0.00  0.00     0.033 A 
ATOM      4  C4  UNL d   1      -0.994  -1.190   1.100  0.00  0.00    -0.042 A 
ATOM      5  C5  UNL d   1       0.055  -0.298   1.294  0.00  0.00     0.033 A 
ATOM      6  C6  UNL d   1       1.312  -0.567   0.742  0.00  0.00    -0.057 A 
ENDROOT
BRANCH   1   7
ATOM      7  N   UNL d   1       2.849  -1.973  -0.459  0.00  0.00    -0.732 N 
ATOM      8  C   UNL d   1       3.302  -3.331  -0.673  0.00  0.00     0.284 C 
ATOM      9  H3  UNL d   1       3.158  -1.314  -1.170  0.00  0.00     0.395 HD
ENDBRANCH   1   7
TORSDOF 1
ENDMDL
