MODEL 1
REMARK minimizedAffinity -1.724769
REMARK minimizedRMSD -1
REMARK  1 active torsions:
REMARK  status: ('A' for Active; 'I' for Inactive)
REMARK    1  A    between atoms: N_2  and  C1_3 
ROOT
ATOM      1  C1  UNL d   1       0.771  -2.786  -0.034  0.00  0.00     0.143 A 
ATOM      2  C2  UNL d   1      -0.627  -2.827  -0.071  0.00  0.00    -0.057 A 
ATOM      3  C3  UNL d   1      -1.397  -1.741   0.361  0.00  0.00     0.033 A 
ATOM      4  C4  UNL d   1      -0.781  -0.600   0.865  0.00  0.00    -0.042 A 
ATOM      5  C5  UNL d   1       0.607  -0.546   0.934  0.00  0.00     0.033 A 
ATOM      6  C6  UNL d   1       1.370  -1.632   0.495  0.00  0.00    -0.057 A 
ENDROOT
BRANCH   1   7
ATOM      7  N   UNL d   1       1.590  -3.871  -0.357  0.00  0.00    -0.732 N 
ATOM      8  C   UNL d   1       3.031  -3.748  -0.304  0.00  0.00     0.284 C 
ATOM      9  H3  UNL d   1       1.234  -4.749   0.013  0.00  0.00     0.395 HD
ENDBRANCH   1   7
TORSDOF 1
ENDMDL
