MODEL 1
REMARK minimizedAffinity 2.00146174
REMARK minimizedRMSD -1
REMARK  1 active torsions:
REMARK  status: ('A' for Active; 'I' for Inactive)
REMARK    1  A    between atoms: N_2  and  C1_3 
ROOT
ATOM      1  C1  UNL d   1       1.384  -0.917   1.853  0.00  0.00     0.143 A 
ATOM      2  C2  UNL d   1       1.418  -2.125   1.148  0.00  0.00    -0.057 A 
ATOM      3  C3  UNL d   1       0.414  -2.459   0.231  0.00  0.00     0.033 A 
ATOM      4  C4  UNL d   1      -0.661  -1.601   0.024  0.00  0.00    -0.042 A 
ATOM      5  C5  UNL d   1      -0.729  -0.407   0.732  0.00  0.00     0.033 A 
ATOM      6  C6  UNL d   1       0.281  -0.075   1.641  0.00  0.00    -0.057 A 
ENDROOT
BRANCH   1   7
ATOM      7  N   UNL d   1       2.300  -0.572   2.849  0.00  0.00    -0.732 N 
ATOM      8  C   UNL d   1       2.589  -1.486   3.933  0.00  0.00     0.284 C 
ATOM      9  H3  UNL d   1       3.119  -0.096   2.477  0.00  0.00     0.395 HD
ENDBRANCH   1   7
TORSDOF 1
ENDMDL
