MODEL 1
REMARK minimizedAffinity 2.7944541
REMARK minimizedRMSD -1
REMARK  1 active torsions:
REMARK  status: ('A' for Active; 'I' for Inactive)
REMARK    1  A    between atoms: N_2  and  C1_3 
ROOT
ATOM      1  C1  UNL d   1      -0.760  -0.211   1.224  0.00  0.00     0.143 A 
ATOM      2  C2  UNL d   1      -0.823  -1.156   0.194  0.00  0.00    -0.057 A 
ATOM      3  C3  UNL d   1       0.323  -1.830  -0.245  0.00  0.00     0.033 A 
ATOM      4  C4  UNL d   1       1.562  -1.548   0.321  0.00  0.00    -0.042 A 
ATOM      5  C5  UNL d   1       1.653  -0.594   1.329  0.00  0.00     0.033 A 
ATOM      6  C6  UNL d   1       0.504   0.071   1.767  0.00  0.00    -0.057 A 
ENDROOT
BRANCH   1   7
ATOM      7  N   UNL d   1      -1.847   0.563   1.637  0.00  0.00    -0.732 N 
ATOM      8  C   UNL d   1      -2.986   0.758   0.766  0.00  0.00     0.284 C 
ATOM      9  H3  UNL d   1      -2.091   0.401   2.611  0.00  0.00     0.395 HD
ENDBRANCH   1   7
TORSDOF 1
ENDMDL
