MODEL 1
REMARK minimizedAffinity -1.35386813
REMARK minimizedRMSD -1
REMARK  1 active torsions:
REMARK  status: ('A' for Active; 'I' for Inactive)
REMARK    1  A    between atoms: N_2  and  C1_3 
ROOT
ATOM      1  C1  UNL d   1       1.389  -2.906  -0.239  0.00  0.00     0.143 A 
ATOM      2  C2  UNL d   1       0.182  -3.100   0.441  0.00  0.00    -0.057 A 
ATOM      3  C3  UNL d   1      -0.449  -2.048   1.116  0.00  0.00     0.033 A 
ATOM      4  C4  UNL d   1       0.133  -0.785   1.146  0.00  0.00    -0.042 A 
ATOM      5  C5  UNL d   1       1.345  -0.575   0.498  0.00  0.00     0.033 A 
ATOM      6  C6  UNL d   1       1.967  -1.628  -0.180  0.00  0.00    -0.057 A 
ENDROOT
BRANCH   1   7
ATOM      7  N   UNL d   1       2.115  -3.934  -0.845  0.00  0.00    -0.732 N 
ATOM      8  C   UNL d   1       3.503  -4.158  -0.501  0.00  0.00     0.284 C 
ATOM      9  H3  UNL d   1       1.570  -4.787  -0.947  0.00  0.00     0.395 HD
ENDBRANCH   1   7
TORSDOF 1
ENDMDL
