MODEL 1
REMARK minimizedAffinity 2.96443629
REMARK minimizedRMSD -1
REMARK  1 active torsions:
REMARK  status: ('A' for Active; 'I' for Inactive)
REMARK    1  A    between atoms: N_2  and  C1_3 
ROOT
ATOM      1  C1  UNL d   1       1.130  -2.617  -0.260  0.00  0.00     0.143 A 
ATOM      2  C2  UNL d   1      -0.073  -2.742   0.444  0.00  0.00    -0.057 A 
ATOM      3  C3  UNL d   1      -0.704  -1.627   1.007  0.00  0.00     0.033 A 
ATOM      4  C4  UNL d   1      -0.127  -0.366   0.901  0.00  0.00    -0.042 A 
ATOM      5  C5  UNL d   1       1.081  -0.221   0.228  0.00  0.00     0.033 A 
ATOM      6  C6  UNL d   1       1.703  -1.338  -0.338  0.00  0.00    -0.057 A 
ENDROOT
BRANCH   1   7
ATOM      7  N   UNL d   1       1.857  -3.701  -0.758  0.00  0.00    -0.732 N 
ATOM      8  C   UNL d   1       3.279  -3.809  -0.513  0.00  0.00     0.284 C 
ATOM      9  H3  UNL d   1       1.352  -4.580  -0.671  0.00  0.00     0.395 HD
ENDBRANCH   1   7
TORSDOF 1
ENDMDL
