MODEL 1
REMARK minimizedAffinity 2.75139856
REMARK minimizedRMSD -1
REMARK  1 active torsions:
REMARK  status: ('A' for Active; 'I' for Inactive)
REMARK    1  A    between atoms: N_2  and  C1_3 
ROOT
ATOM      1  C1  UNL d   1      -5.658  -4.134   2.860  0.00  0.00     0.143 A 
ATOM      2  C2  UNL d   1      -5.815  -5.204   3.748  0.00  0.00    -0.057 A 
ATOM      3  C3  UNL d   1      -5.618  -5.040   5.124  0.00  0.00     0.033 A 
ATOM      4  C4  UNL d   1      -5.231  -3.806   5.635  0.00  0.00    -0.042 A 
ATOM      5  C5  UNL d   1      -5.044  -2.735   4.769  0.00  0.00     0.033 A 
ATOM      6  C6  UNL d   1      -5.249  -2.903   3.396  0.00  0.00    -0.057 A 
ENDROOT
BRANCH   1   7
ATOM      7  N   UNL d   1      -5.743  -4.257   1.471  0.00  0.00    -0.732 N 
ATOM      8  C   UNL d   1      -5.956  -3.092   0.639  0.00  0.00     0.284 C 
ATOM      9  H3  UNL d   1      -5.064  -4.916   1.097  0.00  0.00     0.395 HD
ENDBRANCH   1   7
TORSDOF 1
ENDMDL
