MODEL 1
REMARK minimizedAffinity 3.09115767
REMARK minimizedRMSD -1
REMARK  1 active torsions:
REMARK  status: ('A' for Active; 'I' for Inactive)
REMARK    1  A    between atoms: N_2  and  C1_3 
ROOT
ATOM      1  C1  UNL d   1       0.148  -1.489   0.853  0.00  0.00     0.143 A 
ATOM      2  C2  UNL d   1      -0.002  -2.787   0.353  0.00  0.00    -0.057 A 
ATOM      3  C3  UNL d   1       1.045  -3.433  -0.315  0.00  0.00     0.033 A 
ATOM      4  C4  UNL d   1       2.255  -2.779  -0.521  0.00  0.00    -0.042 A 
ATOM      5  C5  UNL d   1       2.418  -1.479  -0.055  0.00  0.00     0.033 A 
ATOM      6  C6  UNL d   1       1.371  -0.842   0.617  0.00  0.00    -0.057 A 
ENDROOT
BRANCH   1   7
ATOM      7  N   UNL d   1      -0.888  -0.757   1.438  0.00  0.00    -0.732 N 
ATOM      8  C   UNL d   1      -0.602   0.270   2.417  0.00  0.00     0.284 C 
ATOM      9  H3  UNL d   1      -1.612  -0.504   0.769  0.00  0.00     0.395 HD
ENDBRANCH   1   7
TORSDOF 1
ENDMDL
