MODEL 1
REMARK minimizedAffinity 2.09309697
REMARK minimizedRMSD -1
REMARK  1 active torsions:
REMARK  status: ('A' for Active; 'I' for Inactive)
REMARK    1  A    between atoms: N_2  and  C1_3 
ROOT
ATOM      1  C1  UNL d   1       0.887  -2.439  -0.129  0.00  0.00     0.143 A 
ATOM      2  C2  UNL d   1      -0.468  -2.132   0.040  0.00  0.00    -0.057 A 
ATOM      3  C3  UNL d   1      -0.871  -0.934   0.642  0.00  0.00     0.033 A 
ATOM      4  C4  UNL d   1       0.076  -0.033   1.114  0.00  0.00    -0.042 A 
ATOM      5  C5  UNL d   1       1.428  -0.328   0.980  0.00  0.00     0.033 A 
ATOM      6  C6  UNL d   1       1.825  -1.523   0.372  0.00  0.00    -0.057 A 
ENDROOT
BRANCH   1   7
ATOM      7  N   UNL d   1       1.352  -3.657  -0.630  0.00  0.00    -0.732 N 
ATOM      8  C   UNL d   1       2.683  -4.126  -0.310  0.00  0.00     0.284 C 
ATOM      9  H3  UNL d   1       0.639  -4.383  -0.610  0.00  0.00     0.395 HD
ENDBRANCH   1   7
TORSDOF 1
ENDMDL
