MODEL 1
REMARK minimizedAffinity -1.54908741
REMARK minimizedRMSD -1
REMARK  1 active torsions:
REMARK  status: ('A' for Active; 'I' for Inactive)
REMARK    1  A    between atoms: N_2  and  C1_3 
ROOT
ATOM      1  C1  UNL d   1      -3.737   0.014  -3.338  0.00  0.00     0.143 A 
ATOM      2  C2  UNL d   1      -4.545  -0.360  -4.418  0.00  0.00    -0.057 A 
ATOM      3  C3  UNL d   1      -5.657   0.404  -4.791  0.00  0.00     0.033 A 
ATOM      4  C4  UNL d   1      -5.999   1.544  -4.070  0.00  0.00    -0.042 A 
ATOM      5  C5  UNL d   1      -5.226   1.920  -2.978  0.00  0.00     0.033 A 
ATOM      6  C6  UNL d   1      -4.113   1.156  -2.614  0.00  0.00    -0.057 A 
ENDROOT
BRANCH   1   7
ATOM      7  N   UNL d   1      -2.676  -0.757  -2.856  0.00  0.00    -0.732 N 
ATOM      8  C   UNL d   1      -2.314  -0.720  -1.456  0.00  0.00     0.284 C 
ATOM      9  H3  UNL d   1      -2.655  -1.688  -3.267  0.00  0.00     0.395 HD
ENDBRANCH   1   7
TORSDOF 1
ENDMDL
