MODEL 1
REMARK minimizedAffinity 0.195833981
REMARK minimizedRMSD -1
REMARK  1 active torsions:
REMARK  status: ('A' for Active; 'I' for Inactive)
REMARK    1  A    between atoms: N_2  and  C1_3 
ROOT
ATOM      1  C1  UNL d   1       2.852   5.577   4.897  0.00  0.00     0.143 A 
ATOM      2  C2  UNL d   1       1.669   4.882   5.169  0.00  0.00    -0.057 A 
ATOM      3  C3  UNL d   1       0.756   4.577   4.153  0.00  0.00     0.033 A 
ATOM      4  C4  UNL d   1       0.996   4.990   2.846  0.00  0.00    -0.042 A 
ATOM      5  C5  UNL d   1       2.153   5.705   2.557  0.00  0.00     0.033 A 
ATOM      6  C6  UNL d   1       3.065   6.000   3.575  0.00  0.00    -0.057 A 
ENDROOT
BRANCH   1   7
ATOM      7  N   UNL d   1       3.752   5.996   5.880  0.00  0.00    -0.732 N 
ATOM      8  C   UNL d   1       5.176   6.000   5.622  0.00  0.00     0.284 C 
ATOM      9  H3  UNL d   1       3.419   6.812   6.389  0.00  0.00     0.395 HD
ENDBRANCH   1   7
TORSDOF 1
ENDMDL
