MODEL 1
REMARK minimizedAffinity 7.08269215
REMARK minimizedRMSD -1
REMARK  1 active torsions:
REMARK  status: ('A' for Active; 'I' for Inactive)
REMARK    1  A    between atoms: N_2  and  C1_3 
ROOT
ATOM      1  C1  UNL d   1       2.162  -3.939   0.628  0.00  0.00     0.143 A 
ATOM      2  C2  UNL d   1       0.912  -3.325   0.765  0.00  0.00    -0.057 A 
ATOM      3  C3  UNL d   1       0.722  -2.253   1.645  0.00  0.00     0.033 A 
ATOM      4  C4  UNL d   1       1.776  -1.793   2.428  0.00  0.00    -0.042 A 
ATOM      5  C5  UNL d   1       3.020  -2.404   2.327  0.00  0.00     0.033 A 
ATOM      6  C6  UNL d   1       3.205  -3.470   1.441  0.00  0.00    -0.057 A 
ENDROOT
BRANCH   1   7
ATOM      7  N   UNL d   1       2.390  -5.072  -0.157  0.00  0.00    -0.732 N 
ATOM      8  C   UNL d   1       3.729  -5.595  -0.324  0.00  0.00     0.284 C 
ATOM      9  H3  UNL d   1       1.678  -5.786  -0.024  0.00  0.00     0.395 HD
ENDBRANCH   1   7
TORSDOF 1
ENDMDL
