MODEL 1
REMARK minimizedAffinity 3.82704973
REMARK minimizedRMSD -1
REMARK  1 active torsions:
REMARK  status: ('A' for Active; 'I' for Inactive)
REMARK    1  A    between atoms: N_2  and  C1_3 
ROOT
ATOM      1  C1  UNL d   1      -3.753   3.227   5.486  0.00  0.00     0.143 A 
ATOM      2  C2  UNL d   1      -2.623   4.051   5.474  0.00  0.00    -0.057 A 
ATOM      3  C3  UNL d   1      -2.720   5.422   5.743  0.00  0.00     0.033 A 
ATOM      4  C4  UNL d   1      -3.959   6.000   6.000  0.00  0.00    -0.042 A 
ATOM      5  C5  UNL d   1      -5.100   5.205   5.992  0.00  0.00     0.033 A 
ATOM      6  C6  UNL d   1      -4.995   3.835   5.729  0.00  0.00    -0.057 A 
ENDROOT
BRANCH   1   7
ATOM      7  N   UNL d   1      -3.735   1.877   5.130  0.00  0.00    -0.732 N 
ATOM      8  C   UNL d   1      -4.247   1.445   3.847  0.00  0.00     0.284 C 
ATOM      9  H3  UNL d   1      -2.874   1.413   5.411  0.00  0.00     0.395 HD
ENDBRANCH   1   7
TORSDOF 1
ENDMDL
