MODEL 1
REMARK minimizedAffinity 3.26889205
REMARK minimizedRMSD -1
REMARK  1 active torsions:
REMARK  status: ('A' for Active; 'I' for Inactive)
REMARK    1  A    between atoms: N_2  and  C1_3 
ROOT
ATOM      1  C1  UNL d   1      -3.260   1.204   4.119  0.00  0.00     0.143 A 
ATOM      2  C2  UNL d   1      -4.080   1.189   2.985  0.00  0.00    -0.057 A 
ATOM      3  C3  UNL d   1      -5.433   1.538   3.063  0.00  0.00     0.033 A 
ATOM      4  C4  UNL d   1      -6.000   1.882   4.286  0.00  0.00    -0.042 A 
ATOM      5  C5  UNL d   1      -5.210   1.879   5.431  0.00  0.00     0.033 A 
ATOM      6  C6  UNL d   1      -3.857   1.536   5.345  0.00  0.00    -0.057 A 
ENDROOT
BRANCH   1   7
ATOM      7  N   UNL d   1      -1.932   0.772   4.124  0.00  0.00    -0.732 N 
ATOM      8  C   UNL d   1      -1.534  -0.398   3.371  0.00  0.00     0.284 C 
ATOM      9  H3  UNL d   1      -1.272   1.545   4.071  0.00  0.00     0.395 HD
ENDBRANCH   1   7
TORSDOF 1
ENDMDL
