MODEL 1
REMARK minimizedAffinity 7.1435113
REMARK minimizedRMSD -1
REMARK  1 active torsions:
REMARK  status: ('A' for Active; 'I' for Inactive)
REMARK    1  A    between atoms: N_2  and  C1_3 
ROOT
ATOM      1  C1  UNL d   1       3.692  -1.954   0.304  0.00  0.00     0.143 A 
ATOM      2  C2  UNL d   1       2.707  -1.365   1.104  0.00  0.00    -0.057 A 
ATOM      3  C3  UNL d   1       1.424  -1.916   1.201  0.00  0.00     0.033 A 
ATOM      4  C4  UNL d   1       1.093  -3.055   0.473  0.00  0.00    -0.042 A 
ATOM      5  C5  UNL d   1       2.048  -3.643  -0.348  0.00  0.00     0.033 A 
ATOM      6  C6  UNL d   1       3.330  -3.091  -0.435  0.00  0.00    -0.057 A 
ENDROOT
BRANCH   1   7
ATOM      7  N   UNL d   1       4.955  -1.398   0.089  0.00  0.00    -0.732 N 
ATOM      8  C   UNL d   1       5.121   0.035  -0.024  0.00  0.00     0.284 C 
ATOM      9  H3  UNL d   1       5.680  -1.858   0.636  0.00  0.00     0.395 HD
ENDBRANCH   1   7
TORSDOF 1
ENDMDL
