MODEL 1
REMARK minimizedAffinity 8.12842751
REMARK minimizedRMSD -1
REMARK  1 active torsions:
REMARK  status: ('A' for Active; 'I' for Inactive)
REMARK    1  A    between atoms: N_2  and  C1_3 
ROOT
ATOM      1  C1  UNL d   1       2.224  -1.687   2.749  0.00  0.00     0.143 A 
ATOM      2  C2  UNL d   1       1.089  -1.037   2.252  0.00  0.00    -0.057 A 
ATOM      3  C3  UNL d   1       0.644  -1.253   0.942  0.00  0.00     0.033 A 
ATOM      4  C4  UNL d   1       1.344  -2.105   0.094  0.00  0.00    -0.042 A 
ATOM      5  C5  UNL d   1       2.489  -2.743   0.559  0.00  0.00     0.033 A 
ATOM      6  C6  UNL d   1       2.925  -2.528   1.870  0.00  0.00    -0.057 A 
ENDROOT
BRANCH   1   7
ATOM      7  N   UNL d   1       2.773  -1.438   4.009  0.00  0.00    -0.732 N 
ATOM      8  C   UNL d   1       3.919  -2.189   4.475  0.00  0.00     0.284 C 
ATOM      9  H3  UNL d   1       2.810  -0.445   4.227  0.00  0.00     0.395 HD
ENDBRANCH   1   7
TORSDOF 1
ENDMDL
