MODEL 1
REMARK minimizedAffinity -1.78579402
REMARK minimizedRMSD -1
REMARK  1 active torsions:
REMARK  status: ('A' for Active; 'I' for Inactive)
REMARK    1  A    between atoms: N_2  and  C1_3 
ROOT
ATOM      1  C1  UNL d   1       1.508   3.730   3.951  0.00  0.00     0.143 A 
ATOM      2  C2  UNL d   1       2.219   3.781   5.155  0.00  0.00    -0.057 A 
ATOM      3  C3  UNL d   1       2.137   4.895   5.999  0.00  0.00     0.033 A 
ATOM      4  C4  UNL d   1       1.363   5.993   5.639  0.00  0.00    -0.042 A 
ATOM      5  C5  UNL d   1       0.668   5.974   4.435  0.00  0.00     0.033 A 
ATOM      6  C6  UNL d   1       0.748   4.856   3.599  0.00  0.00    -0.057 A 
ENDROOT
BRANCH   1   7
ATOM      7  N   UNL d   1       1.626   2.693   3.022  0.00  0.00    -0.732 N 
ATOM      8  C   UNL d   1       2.339   2.893   1.779  0.00  0.00     0.284 C 
ATOM      9  H3  UNL d   1       1.805   1.794   3.464  0.00  0.00     0.395 HD
ENDBRANCH   1   7
TORSDOF 1
ENDMDL
