MODEL 1
REMARK minimizedAffinity 1.71420395
REMARK minimizedRMSD -1
REMARK  1 active torsions:
REMARK  status: ('A' for Active; 'I' for Inactive)
REMARK    1  A    between atoms: N_2  and  C1_3 
ROOT
ATOM      1  C1  UNL d   1       4.117  -3.694   2.729  0.00  0.00     0.143 A 
ATOM      2  C2  UNL d   1       4.232  -4.495   1.588  0.00  0.00    -0.057 A 
ATOM      3  C3  UNL d   1       3.533  -4.191   0.414  0.00  0.00     0.033 A 
ATOM      4  C4  UNL d   1       2.682  -3.092   0.369  0.00  0.00    -0.042 A 
ATOM      5  C5  UNL d   1       2.533  -2.295   1.499  0.00  0.00     0.033 A 
ATOM      6  C6  UNL d   1       3.239  -2.601   2.667  0.00  0.00    -0.057 A 
ENDROOT
BRANCH   1   7
ATOM      7  N   UNL d   1       4.709  -4.000   3.957  0.00  0.00    -0.732 N 
ATOM      8  C   UNL d   1       4.785  -3.007   5.007  0.00  0.00     0.284 C 
ATOM      9  H3  UNL d   1       4.466  -4.932   4.284  0.00  0.00     0.395 HD
ENDBRANCH   1   7
TORSDOF 1
ENDMDL
