MODEL 1
REMARK minimizedAffinity -1.08615649
REMARK minimizedRMSD -1
REMARK  1 active torsions:
REMARK  status: ('A' for Active; 'I' for Inactive)
REMARK    1  A    between atoms: N_2  and  C1_3 
ROOT
ATOM      1  C1  UNL d   1       3.502  -2.894   2.376  0.00  0.00     0.143 A 
ATOM      2  C2  UNL d   1       3.386  -3.806   1.322  0.00  0.00    -0.057 A 
ATOM      3  C3  UNL d   1       2.300  -3.761   0.439  0.00  0.00     0.033 A 
ATOM      4  C4  UNL d   1       1.292  -2.818   0.614  0.00  0.00    -0.042 A 
ATOM      5  C5  UNL d   1       1.374  -1.918   1.670  0.00  0.00     0.033 A 
ATOM      6  C6  UNL d   1       2.464  -1.963   2.544  0.00  0.00    -0.057 A 
ENDROOT
BRANCH   1   7
ATOM      7  N   UNL d   1       4.506  -2.950   3.346  0.00  0.00    -0.732 N 
ATOM      8  C   UNL d   1       4.299  -2.370   4.656  0.00  0.00     0.284 C 
ATOM      9  H3  UNL d   1       4.983  -3.848   3.360  0.00  0.00     0.395 HD
ENDBRANCH   1   7
TORSDOF 1
ENDMDL
