MODEL 1
REMARK minimizedAffinity -1.76973653
REMARK minimizedRMSD -1
REMARK  1 active torsions:
REMARK  status: ('A' for Active; 'I' for Inactive)
REMARK    1  A    between atoms: N_2  and  C1_3 
ROOT
ATOM      1  C1  UNL d   1      -4.745   3.120   4.863  0.00  0.00     0.143 A 
ATOM      2  C2  UNL d   1      -5.349   2.627   3.702  0.00  0.00    -0.057 A 
ATOM      3  C3  UNL d   1      -5.984   1.379   3.687  0.00  0.00     0.033 A 
ATOM      4  C4  UNL d   1      -5.999   0.586   4.830  0.00  0.00    -0.042 A 
ATOM      5  C5  UNL d   1      -5.383   1.045   5.989  0.00  0.00     0.033 A 
ATOM      6  C6  UNL d   1      -4.757   2.295   5.999  0.00  0.00    -0.057 A 
ENDROOT
BRANCH   1   7
ATOM      7  N   UNL d   1      -4.014   4.309   4.915  0.00  0.00    -0.732 N 
ATOM      8  C   UNL d   1      -4.227   5.260   5.984  0.00  0.00     0.284 C 
ATOM      9  H3  UNL d   1      -3.036   4.174   4.667  0.00  0.00     0.395 HD
ENDBRANCH   1   7
TORSDOF 1
ENDMDL
