MODEL 1
REMARK minimizedAffinity 9.22647095
REMARK minimizedRMSD -1
REMARK  1 active torsions:
REMARK  status: ('A' for Active; 'I' for Inactive)
REMARK    1  A    between atoms: C1_2  and  C2_3 
ROOT
ATOM      1  C2  UNL d   1      -0.350  -0.302   0.551  0.00  0.00    -0.076 A 
ATOM      2  C3  UNL d   1      -0.118  -0.974  -0.662  0.00  0.00     0.004 A 
ATOM      3  C4  UNL d   1      -1.171  -1.293  -1.518  0.00  0.00    -0.003 A 
ATOM      4  C5  UNL d   1      -2.473  -0.943  -1.175  0.00  0.00     0.000 A 
ATOM      5  C6  UNL d   1      -2.718  -0.260   0.015  0.00  0.00     0.000 A 
ATOM      6  C7  UNL d   1      -1.666   0.083   0.882  0.00  0.00    -0.073 A 
ATOM      7  C8  UNL d   1      -1.990   0.815   2.155  0.00  0.00     0.078 C 
ENDROOT
BRANCH   1   8
ATOM      8  C1  UNL d   1       0.828  -0.007   1.452  0.00  0.00     0.053 C 
ATOM      9  C   UNL d   1       2.110   0.244   0.672  0.00  0.00     0.018 C 
ENDBRANCH   1   8
TORSDOF 1
ENDMDL
