MODEL 1
REMARK minimizedAffinity -3.56393743
REMARK minimizedRMSD -1
REMARK  1 active torsions:
REMARK  status: ('A' for Active; 'I' for Inactive)
REMARK    1  A    between atoms: C1_2  and  C2_3 
ROOT
ATOM      1  C2  UNL d   1      -0.103  -1.064   3.433  0.00  0.00    -0.076 A 
ATOM      2  C3  UNL d   1       0.916  -0.614   2.575  0.00  0.00     0.004 A 
ATOM      3  C4  UNL d   1       0.619   0.144   1.444  0.00  0.00    -0.003 A 
ATOM      4  C5  UNL d   1      -0.702   0.465   1.153  0.00  0.00     0.000 A 
ATOM      5  C6  UNL d   1      -1.724   0.043   2.002  0.00  0.00     0.000 A 
ATOM      6  C7  UNL d   1      -1.440  -0.709   3.155  0.00  0.00    -0.073 A 
ATOM      7  C8  UNL d   1      -2.582  -1.144   4.033  0.00  0.00     0.078 C 
ENDROOT
BRANCH   1   8
ATOM      8  C1  UNL d   1       0.278  -1.906   4.630  0.00  0.00     0.053 C 
ATOM      9  C   UNL d   1       1.429  -1.306   5.422  0.00  0.00     0.018 C 
ENDBRANCH   1   8
TORSDOF 1
ENDMDL
