MODEL 1
REMARK minimizedAffinity -0.71971339
REMARK minimizedRMSD -1
REMARK  1 active torsions:
REMARK  status: ('A' for Active; 'I' for Inactive)
REMARK    1  A    between atoms: C1_2  and  C2_3 
ROOT
ATOM      1  C2  UNL d   1      -0.161  -0.489   2.297  0.00  0.00    -0.076 A 
ATOM      2  C3  UNL d   1      -1.391  -0.134   2.877  0.00  0.00     0.004 A 
ATOM      3  C4  UNL d   1      -2.470   0.260   2.087  0.00  0.00    -0.003 A 
ATOM      4  C5  UNL d   1      -2.336   0.305   0.704  0.00  0.00     0.000 A 
ATOM      5  C6  UNL d   1      -1.128  -0.061   0.110  0.00  0.00     0.000 A 
ATOM      6  C7  UNL d   1      -0.036  -0.476   0.891  0.00  0.00    -0.073 A 
ATOM      7  C8  UNL d   1       1.245  -0.854   0.199  0.00  0.00     0.078 C 
ENDROOT
BRANCH   1   8
ATOM      8  C1  UNL d   1       0.982  -0.881   3.206  0.00  0.00     0.053 C 
ATOM      9  C   UNL d   1       0.542  -1.810   4.327  0.00  0.00     0.018 C 
ENDBRANCH   1   8
TORSDOF 1
ENDMDL
