MODEL 1
REMARK minimizedAffinity 9.76515102
REMARK minimizedRMSD -1
REMARK  1 active torsions:
REMARK  status: ('A' for Active; 'I' for Inactive)
REMARK    1  A    between atoms: C1_2  and  C2_3 
ROOT
ATOM      1  C2  UNL d   1      -1.786  -0.067  -0.864  0.00  0.00    -0.076 A 
ATOM      2  C3  UNL d   1      -0.676  -0.093  -0.002  0.00  0.00     0.004 A 
ATOM      3  C4  UNL d   1      -0.818   0.182   1.357  0.00  0.00    -0.003 A 
ATOM      4  C5  UNL d   1      -2.071   0.487   1.876  0.00  0.00     0.000 A 
ATOM      5  C6  UNL d   1      -3.186   0.500   1.038  0.00  0.00     0.000 A 
ATOM      6  C7  UNL d   1      -3.063   0.209  -0.331  0.00  0.00    -0.073 A 
ATOM      7  C8  UNL d   1      -4.298   0.242  -1.190  0.00  0.00     0.078 C 
ENDROOT
BRANCH   1   8
ATOM      8  C1  UNL d   1      -1.567  -0.347  -2.334  0.00  0.00     0.053 C 
ATOM      9  C   UNL d   1      -0.499   0.547  -2.945  0.00  0.00     0.018 C 
ENDBRANCH   1   8
TORSDOF 1
ENDMDL
