MODEL 1
REMARK minimizedAffinity -1.70799959
REMARK minimizedRMSD -1
REMARK  1 active torsions:
REMARK  status: ('A' for Active; 'I' for Inactive)
REMARK    1  A    between atoms: C1_2  and  C2_3 
ROOT
ATOM      1  C2  UNL d   1       0.315  -0.212   1.601  0.00  0.00    -0.076 A 
ATOM      2  C3  UNL d   1      -0.507   0.229   0.549  0.00  0.00     0.004 A 
ATOM      3  C4  UNL d   1      -1.876   0.412   0.736  0.00  0.00    -0.003 A 
ATOM      4  C5  UNL d   1      -2.446   0.159   1.979  0.00  0.00     0.000 A 
ATOM      5  C6  UNL d   1      -1.643  -0.262   3.039  0.00  0.00     0.000 A 
ATOM      6  C7  UNL d   1      -0.258  -0.436   2.871  0.00  0.00    -0.073 A 
ATOM      7  C8  UNL d   1       0.559  -0.897   4.047  0.00  0.00     0.078 C 
ENDROOT
BRANCH   1   8
ATOM      8  C1  UNL d   1       1.788  -0.419   1.331  0.00  0.00     0.053 C 
ATOM      9  C   UNL d   1       2.273   0.360   0.118  0.00  0.00     0.018 C 
ENDBRANCH   1   8
TORSDOF 1
ENDMDL
