MODEL 1
REMARK minimizedAffinity 2.90455866
REMARK minimizedRMSD -1
REMARK  1 active torsions:
REMARK  status: ('A' for Active; 'I' for Inactive)
REMARK    1  A    between atoms: C1_2  and  C2_3 
ROOT
ATOM      1  C2  UNL d   1      -0.552  -0.840   3.715  0.00  0.00    -0.076 A 
ATOM      2  C3  UNL d   1      -0.759  -0.241   2.460  0.00  0.00     0.004 A 
ATOM      3  C4  UNL d   1      -2.046  -0.034   1.967  0.00  0.00    -0.003 A 
ATOM      4  C5  UNL d   1      -3.147  -0.424   2.721  0.00  0.00     0.000 A 
ATOM      5  C6  UNL d   1      -2.961  -1.004   3.975  0.00  0.00     0.000 A 
ATOM      6  C7  UNL d   1      -1.671  -1.204   4.494  0.00  0.00    -0.073 A 
ATOM      7  C8  UNL d   1      -1.528  -1.840   5.850  0.00  0.00     0.078 C 
ENDROOT
BRANCH   1   8
ATOM      8  C1  UNL d   1       0.868  -1.063   4.186  0.00  0.00     0.053 C 
ATOM      9  C   UNL d   1       1.896  -0.715   3.121  0.00  0.00     0.018 C 
ENDBRANCH   1   8
TORSDOF 1
ENDMDL
