MODEL 1
REMARK minimizedAffinity -1.18451393
REMARK minimizedRMSD -1
REMARK  1 active torsions:
REMARK  status: ('A' for Active; 'I' for Inactive)
REMARK    1  A    between atoms: C1_2  and  C2_3 
ROOT
ATOM      1  C2  UNL d   1      -1.301  -0.305   3.134  0.00  0.00    -0.076 A 
ATOM      2  C3  UNL d   1      -0.604  -0.846   4.228  0.00  0.00     0.004 A 
ATOM      3  C4  UNL d   1       0.760  -1.122   4.146  0.00  0.00    -0.003 A 
ATOM      4  C5  UNL d   1       1.449  -0.861   2.967  0.00  0.00     0.000 A 
ATOM      5  C6  UNL d   1       0.778  -0.309   1.876  0.00  0.00     0.000 A 
ATOM      6  C7  UNL d   1      -0.593  -0.009   1.949  0.00  0.00    -0.073 A 
ATOM      7  C8  UNL d   1      -1.268   0.580   0.741  0.00  0.00     0.078 C 
ENDROOT
BRANCH   1   8
ATOM      8  C1  UNL d   1      -2.785  -0.052   3.273  0.00  0.00     0.053 C 
ATOM      9  C   UNL d   1      -3.519  -1.223   3.906  0.00  0.00     0.018 C 
ENDBRANCH   1   8
TORSDOF 1
ENDMDL
