MODEL 1
REMARK minimizedAffinity 0.00922327023
REMARK minimizedRMSD -1
REMARK  0 active torsions:
REMARK  status: ('A' for Active; 'I' for Inactive)
ROOT
ATOM      1  C   UNL d   1      -0.248  -0.768  -0.323  0.00  0.00     0.077 C 
ATOM      2  C1  UNL d   1      -1.277  -1.239  -1.308  0.00  0.00    -0.074 A 
ATOM      3  C2  UNL d   1      -1.044  -1.159  -2.684  0.00  0.00    -0.005 A 
ATOM      4  C3  UNL d   1      -2.007  -1.610  -3.588  0.00  0.00     0.006 A 
ATOM      5  C4  UNL d   1      -3.210  -2.143  -3.124  0.00  0.00    -0.005 A 
ATOM      6  C5  UNL d   1      -3.460  -2.231  -1.751  0.00  0.00    -0.074 A 
ATOM      7  C6  UNL d   1      -4.744  -2.811  -1.237  0.00  0.00     0.077 C 
ATOM      8  C7  UNL d   1      -2.485  -1.783  -0.850  0.00  0.00    -0.001 A 
ENDROOT
TORSDOF 0
ENDMDL
