MODEL 1
REMARK minimizedAffinity -5.2895627
REMARK minimizedRMSD -1
REMARK  0 active torsions:
REMARK  status: ('A' for Active; 'I' for Inactive)
ROOT
ATOM      1  C   UNL d   1      -1.409  -0.945  -1.194  0.00  0.00     0.077 C 
ATOM      2  C1  UNL d   1      -0.098  -0.379  -0.733  0.00  0.00    -0.074 A 
ATOM      3  C2  UNL d   1       1.104  -1.041  -1.001  0.00  0.00    -0.005 A 
ATOM      4  C3  UNL d   1       2.316  -0.498  -0.574  0.00  0.00     0.006 A 
ATOM      5  C4  UNL d   1       2.337   0.710   0.125  0.00  0.00    -0.005 A 
ATOM      6  C5  UNL d   1       1.145   1.386   0.401  0.00  0.00    -0.074 A 
ATOM      7  C6  UNL d   1       1.151   2.691   1.142  0.00  0.00     0.077 C 
ATOM      8  C7  UNL d   1      -0.068   0.838  -0.037  0.00  0.00    -0.001 A 
ENDROOT
TORSDOF 0
ENDMDL
