MODEL 1
REMARK minimizedAffinity -4.93544197
REMARK minimizedRMSD -1
REMARK  0 active torsions:
REMARK  status: ('A' for Active; 'I' for Inactive)
ROOT
ATOM      1  C   UNL d   1      -0.705  -2.017   1.269  0.00  0.00     0.077 C 
ATOM      2  C1  UNL d   1       0.165  -0.883   0.813  0.00  0.00    -0.074 A 
ATOM      3  C2  UNL d   1       1.273  -1.111  -0.009  0.00  0.00    -0.005 A 
ATOM      4  C3  UNL d   1       2.066  -0.045  -0.433  0.00  0.00     0.006 A 
ATOM      5  C4  UNL d   1       1.761   1.258  -0.038  0.00  0.00    -0.005 A 
ATOM      6  C5  UNL d   1       0.657   1.506   0.784  0.00  0.00    -0.074 A 
ATOM      7  C6  UNL d   1       0.309   2.902   1.209  0.00  0.00     0.077 C 
ATOM      8  C7  UNL d   1      -0.140   0.431   1.199  0.00  0.00    -0.001 A 
ENDROOT
TORSDOF 0
ENDMDL
