MODEL 1
REMARK minimizedAffinity -2.39043617
REMARK minimizedRMSD -1
REMARK  0 active torsions:
REMARK  status: ('A' for Active; 'I' for Inactive)
ROOT
ATOM      1  C   UNL d   1      -0.141   2.877  -1.012  0.00  0.00     0.077 C 
ATOM      2  C1  UNL d   1       0.353   1.552  -0.511  0.00  0.00    -0.074 A 
ATOM      3  C2  UNL d   1       1.705   1.208  -0.604  0.00  0.00    -0.005 A 
ATOM      4  C3  UNL d   1       2.152  -0.023  -0.125  0.00  0.00     0.006 A 
ATOM      5  C4  UNL d   1       1.252  -0.922   0.450  0.00  0.00    -0.005 A 
ATOM      6  C5  UNL d   1      -0.104  -0.595   0.552  0.00  0.00    -0.074 A 
ATOM      7  C6  UNL d   1      -1.082  -1.544   1.176  0.00  0.00     0.077 C 
ATOM      8  C7  UNL d   1      -0.543   0.648   0.075  0.00  0.00    -0.001 A 
ENDROOT
TORSDOF 0
ENDMDL
