MODEL 1
REMARK minimizedAffinity -1.73823845
REMARK minimizedRMSD -1
REMARK  0 active torsions:
REMARK  status: ('A' for Active; 'I' for Inactive)
ROOT
ATOM      1  C   UNL d   1      -2.097   0.327  -2.227  0.00  0.00     0.077 C 
ATOM      2  C1  UNL d   1      -1.225   0.451  -1.013  0.00  0.00    -0.074 A 
ATOM      3  C2  UNL d   1      -1.597  -0.132   0.202  0.00  0.00    -0.005 A 
ATOM      4  C3  UNL d   1      -0.771  -0.016   1.320  0.00  0.00     0.006 A 
ATOM      5  C4  UNL d   1       0.434   0.683   1.235  0.00  0.00    -0.005 A 
ATOM      6  C5  UNL d   1       0.823   1.272   0.027  0.00  0.00    -0.074 A 
ATOM      7  C6  UNL d   1       2.119   2.019  -0.084  0.00  0.00     0.077 C 
ATOM      8  C7  UNL d   1      -0.009   1.145  -1.093  0.00  0.00    -0.001 A 
ENDROOT
TORSDOF 0
ENDMDL
