MODEL 1
REMARK minimizedAffinity 2.09907651
REMARK minimizedRMSD -1
REMARK  0 active torsions:
REMARK  status: ('A' for Active; 'I' for Inactive)
ROOT
ATOM      1  C   UNL d   1       1.033   0.912   4.040  0.00  0.00     0.077 C 
ATOM      2  C1  UNL d   1       1.033   1.198   2.568  0.00  0.00    -0.074 A 
ATOM      3  C2  UNL d   1       1.034   2.513   2.091  0.00  0.00    -0.005 A 
ATOM      4  C3  UNL d   1       1.044   2.764   0.719  0.00  0.00     0.006 A 
ATOM      5  C4  UNL d   1       1.052   1.705  -0.189  0.00  0.00    -0.005 A 
ATOM      6  C5  UNL d   1       1.051   0.383   0.269  0.00  0.00    -0.074 A 
ATOM      7  C6  UNL d   1       1.070  -0.767  -0.693  0.00  0.00     0.077 C 
ATOM      8  C7  UNL d   1       1.049   0.139   1.649  0.00  0.00    -0.001 A 
ENDROOT
TORSDOF 0
ENDMDL
