MODEL 1
REMARK minimizedAffinity -0.797463417
REMARK minimizedRMSD -1
REMARK  0 active torsions:
REMARK  status: ('A' for Active; 'I' for Inactive)
ROOT
ATOM      1  C   UNL d   1       2.237   0.379  -0.968  0.00  0.00     0.077 C 
ATOM      2  C1  UNL d   1       1.339   0.537   0.222  0.00  0.00    -0.074 A 
ATOM      3  C2  UNL d   1       1.125   1.793   0.800  0.00  0.00    -0.005 A 
ATOM      4  C3  UNL d   1       0.280   1.927   1.901  0.00  0.00     0.006 A 
ATOM      5  C4  UNL d   1      -0.360   0.808   2.435  0.00  0.00    -0.005 A 
ATOM      6  C5  UNL d   1      -0.160  -0.456   1.871  0.00  0.00    -0.074 A 
ATOM      7  C6  UNL d   1      -0.848  -1.667   2.426  0.00  0.00     0.077 C 
ATOM      8  C7  UNL d   1       0.686  -0.581   0.760  0.00  0.00    -0.001 A 
ENDROOT
TORSDOF 0
ENDMDL
