MODEL 1
REMARK minimizedAffinity -3.47734547
REMARK minimizedRMSD -1
REMARK  0 active torsions:
REMARK  status: ('A' for Active; 'I' for Inactive)
ROOT
ATOM      1  C   UNL d   1      -1.802   0.597   2.482  0.00  0.00     0.077 C 
ATOM      2  C1  UNL d   1      -0.590   0.997   1.694  0.00  0.00    -0.074 A 
ATOM      3  C2  UNL d   1      -0.070   2.292   1.783  0.00  0.00    -0.005 A 
ATOM      4  C3  UNL d   1       1.064   2.647   1.052  0.00  0.00     0.006 A 
ATOM      5  C4  UNL d   1       1.688   1.711   0.226  0.00  0.00    -0.005 A 
ATOM      6  C5  UNL d   1       1.183   0.411   0.126  0.00  0.00    -0.074 A 
ATOM      7  C6  UNL d   1       1.848  -0.610  -0.749  0.00  0.00     0.077 C 
ATOM      8  C7  UNL d   1       0.048   0.060   0.869  0.00  0.00    -0.001 A 
ENDROOT
TORSDOF 0
ENDMDL
