MODEL 1
REMARK minimizedAffinity 3.89858794
REMARK minimizedRMSD -1
REMARK  0 active torsions:
REMARK  status: ('A' for Active; 'I' for Inactive)
ROOT
ATOM      1  C   UNL d   1       3.144  -0.674  -1.942  0.00  0.00     0.077 C 
ATOM      2  C1  UNL d   1       2.056  -0.202  -1.024  0.00  0.00    -0.074 A 
ATOM      3  C2  UNL d   1       0.823  -0.861  -0.972  0.00  0.00    -0.005 A 
ATOM      4  C3  UNL d   1      -0.176  -0.416  -0.107  0.00  0.00     0.006 A 
ATOM      5  C4  UNL d   1       0.046   0.690   0.714  0.00  0.00    -0.005 A 
ATOM      6  C5  UNL d   1       1.273   1.361   0.677  0.00  0.00    -0.074 A 
ATOM      7  C6  UNL d   1       1.532   2.546   1.560  0.00  0.00     0.077 C 
ATOM      8  C7  UNL d   1       2.274   0.904  -0.190  0.00  0.00    -0.001 A 
ENDROOT
TORSDOF 0
ENDMDL
