MODEL 1
REMARK minimizedAffinity -3.88884878
REMARK minimizedRMSD -1
REMARK  0 active torsions:
REMARK  status: ('A' for Active; 'I' for Inactive)
ROOT
ATOM      1  C   UNL d   1       1.514   3.192   1.327  0.00  0.00     0.077 C 
ATOM      2  C1  UNL d   1       0.720   1.921   1.268  0.00  0.00    -0.074 A 
ATOM      3  C2  UNL d   1       0.164   1.366   2.425  0.00  0.00    -0.005 A 
ATOM      4  C3  UNL d   1      -0.580   0.189   2.353  0.00  0.00     0.006 A 
ATOM      5  C4  UNL d   1      -0.775  -0.445   1.125  0.00  0.00    -0.005 A 
ATOM      6  C5  UNL d   1      -0.228   0.095  -0.043  0.00  0.00    -0.074 A 
ATOM      7  C6  UNL d   1      -0.436  -0.568  -1.372  0.00  0.00     0.077 C 
ATOM      8  C7  UNL d   1       0.513   1.283   0.037  0.00  0.00    -0.001 A 
ENDROOT
TORSDOF 0
ENDMDL
