MODEL 1
REMARK minimizedAffinity -4.13139772
REMARK minimizedRMSD -1
REMARK  0 active torsions:
REMARK  status: ('A' for Active; 'I' for Inactive)
ROOT
ATOM      1  C   UNL d   1      -1.294  -1.091  -1.559  0.00  0.00     0.077 C 
ATOM      2  C1  UNL d   1      -0.096  -0.363  -1.025  0.00  0.00    -0.074 A 
ATOM      3  C2  UNL d   1       1.199  -0.751  -1.385  0.00  0.00    -0.005 A 
ATOM      4  C3  UNL d   1       2.304  -0.059  -0.888  0.00  0.00     0.006 A 
ATOM      5  C4  UNL d   1       2.125   1.026  -0.028  0.00  0.00    -0.005 A 
ATOM      6  C5  UNL d   1       0.837   1.428   0.341  0.00  0.00    -0.074 A 
ATOM      7  C6  UNL d   1       0.627   2.598   1.257  0.00  0.00     0.077 C 
ATOM      8  C7  UNL d   1      -0.268   0.732  -0.167  0.00  0.00    -0.001 A 
ENDROOT
TORSDOF 0
ENDMDL
