MODEL 1
REMARK minimizedAffinity 10.3537006
REMARK minimizedRMSD -1
REMARK  0 active torsions:
REMARK  status: ('A' for Active; 'I' for Inactive)
ROOT
ATOM      1  C   UNL d   1       0.379   0.454   0.394  0.00  0.00     0.077 C 
ATOM      2  C1  UNL d   1       0.375   1.581  -0.596  0.00  0.00    -0.074 A 
ATOM      3  C2  UNL d   1       1.424   1.741  -1.507  0.00  0.00    -0.005 A 
ATOM      4  C3  UNL d   1       1.401   2.789  -2.428  0.00  0.00     0.006 A 
ATOM      5  C4  UNL d   1       0.332   3.685  -2.447  0.00  0.00    -0.005 A 
ATOM      6  C5  UNL d   1      -0.726   3.540  -1.544  0.00  0.00    -0.074 A 
ATOM      7  C6  UNL d   1      -1.888   4.489  -1.558  0.00  0.00     0.077 C 
ATOM      8  C7  UNL d   1      -0.700   2.481  -0.626  0.00  0.00    -0.001 A 
ENDROOT
TORSDOF 0
ENDMDL
