MODEL 1
REMARK minimizedAffinity 6.02930641
REMARK minimizedRMSD -1
REMARK  0 active torsions:
REMARK  status: ('A' for Active; 'I' for Inactive)
ROOT
ATOM      1  C   UNL d   1      -1.352   5.989  -5.026  0.00  0.00     0.077 C 
ATOM      2  C1  UNL d   1      -2.397   5.997  -3.951  0.00  0.00    -0.074 A 
ATOM      3  C2  UNL d   1      -3.758   5.994  -4.272  0.00  0.00    -0.005 A 
ATOM      4  C3  UNL d   1      -4.719   5.992  -3.261  0.00  0.00     0.006 A 
ATOM      5  C4  UNL d   1      -4.330   5.992  -1.921  0.00  0.00    -0.005 A 
ATOM      6  C5  UNL d   1      -2.973   5.993  -1.581  0.00  0.00    -0.074 A 
ATOM      7  C6  UNL d   1      -2.537   5.983  -0.146  0.00  0.00     0.077 C 
ATOM      8  C7  UNL d   1      -2.013   5.989  -2.603  0.00  0.00    -0.001 A 
ENDROOT
TORSDOF 0
ENDMDL
