MODEL 1
REMARK minimizedAffinity -2.87708163
REMARK minimizedRMSD -1
REMARK  0 active torsions:
REMARK  status: ('A' for Active; 'I' for Inactive)
ROOT
ATOM      1  C   UNL d   1      -0.102   6.000  -3.423  0.00  0.00     0.077 C 
ATOM      2  C1  UNL d   1       1.185   5.582  -4.070  0.00  0.00    -0.074 A 
ATOM      3  C2  UNL d   1       1.441   5.872  -5.414  0.00  0.00    -0.005 A 
ATOM      4  C3  UNL d   1       2.646   5.485  -6.000  0.00  0.00     0.006 A 
ATOM      5  C4  UNL d   1       3.607   4.807  -5.249  0.00  0.00    -0.005 A 
ATOM      6  C5  UNL d   1       3.370   4.510  -3.903  0.00  0.00    -0.074 A 
ATOM      7  C6  UNL d   1       4.396   3.791  -3.079  0.00  0.00     0.077 C 
ATOM      8  C7  UNL d   1       2.159   4.908  -3.320  0.00  0.00    -0.001 A 
ENDROOT
TORSDOF 0
ENDMDL
