MODEL 1
REMARK minimizedAffinity -2.76129174
REMARK minimizedRMSD -1
REMARK  0 active torsions:
REMARK  status: ('A' for Active; 'I' for Inactive)
ROOT
ATOM      1  C   UNL d   1      -2.192  -1.430   3.080  0.00  0.00     0.077 C 
ATOM      2  C1  UNL d   1      -1.093  -0.626   2.452  0.00  0.00    -0.074 A 
ATOM      3  C2  UNL d   1      -0.879  -0.656   1.070  0.00  0.00    -0.005 A 
ATOM      4  C3  UNL d   1       0.141   0.105   0.499  0.00  0.00     0.006 A 
ATOM      5  C4  UNL d   1       0.956   0.903   1.303  0.00  0.00    -0.005 A 
ATOM      6  C5  UNL d   1       0.757   0.947   2.687  0.00  0.00    -0.074 A 
ATOM      7  C6  UNL d   1       1.618   1.806   3.564  0.00  0.00     0.077 C 
ATOM      8  C7  UNL d   1      -0.275   0.184   3.252  0.00  0.00    -0.001 A 
ENDROOT
TORSDOF 0
ENDMDL
