MODEL 1
REMARK minimizedAffinity 1.71761382
REMARK minimizedRMSD -1
REMARK  0 active torsions:
REMARK  status: ('A' for Active; 'I' for Inactive)
ROOT
ATOM      1  C   UNL d   1       0.022   0.522  -1.882  0.00  0.00     0.077 C 
ATOM      2  C1  UNL d   1      -1.016  -0.274  -2.615  0.00  0.00    -0.074 A 
ATOM      3  C2  UNL d   1      -1.015  -0.344  -4.011  0.00  0.00    -0.005 A 
ATOM      4  C3  UNL d   1      -1.982  -1.096  -4.679  0.00  0.00     0.006 A 
ATOM      5  C4  UNL d   1      -2.958  -1.785  -3.957  0.00  0.00    -0.005 A 
ATOM      6  C5  UNL d   1      -2.974  -1.727  -2.560  0.00  0.00    -0.074 A 
ATOM      7  C6  UNL d   1      -4.010  -2.470  -1.769  0.00  0.00     0.077 C 
ATOM      8  C7  UNL d   1      -1.995  -0.975  -1.897  0.00  0.00    -0.001 A 
ENDROOT
TORSDOF 0
ENDMDL
