MODEL 1
REMARK minimizedAffinity 7.90753746
REMARK minimizedRMSD -1
REMARK  0 active torsions:
REMARK  status: ('A' for Active; 'I' for Inactive)
ROOT
ATOM      1  C   UNL d   1       2.297   2.337  -2.731  0.00  0.00     0.077 C 
ATOM      2  C1  UNL d   1       1.538   1.104  -3.123  0.00  0.00    -0.074 A 
ATOM      3  C2  UNL d   1       1.525  -0.025  -2.297  0.00  0.00    -0.005 A 
ATOM      4  C3  UNL d   1       0.806  -1.161  -2.671  0.00  0.00     0.006 A 
ATOM      5  C4  UNL d   1       0.096  -1.180  -3.872  0.00  0.00    -0.005 A 
ATOM      6  C5  UNL d   1       0.097  -0.060  -4.710  0.00  0.00    -0.074 A 
ATOM      7  C6  UNL d   1      -0.669  -0.060  -5.999  0.00  0.00     0.077 C 
ATOM      8  C7  UNL d   1       0.816   1.080  -4.324  0.00  0.00    -0.001 A 
ENDROOT
TORSDOF 0
ENDMDL
