MODEL 1
REMARK minimizedAffinity -0.376514554
REMARK minimizedRMSD -1
REMARK  0 active torsions:
REMARK  status: ('A' for Active; 'I' for Inactive)
ROOT
ATOM      1  C   UNL d   1       3.249   2.034   3.377  0.00  0.00     0.077 C 
ATOM      2  C1  UNL d   1       1.940   1.651   2.753  0.00  0.00    -0.074 A 
ATOM      3  C2  UNL d   1       0.728   1.959   3.379  0.00  0.00    -0.005 A 
ATOM      4  C3  UNL d   1      -0.482   1.606   2.782  0.00  0.00     0.006 A 
ATOM      5  C4  UNL d   1      -0.493   0.941   1.555  0.00  0.00    -0.005 A 
ATOM      6  C5  UNL d   1       0.709   0.626   0.914  0.00  0.00    -0.074 A 
ATOM      7  C6  UNL d   1       0.716  -0.079  -0.410  0.00  0.00     0.077 C 
ATOM      8  C7  UNL d   1       1.921   0.991   1.516  0.00  0.00    -0.001 A 
ENDROOT
TORSDOF 0
ENDMDL
