MODEL 1
REMARK minimizedAffinity -0.801281273
REMARK minimizedRMSD -1
REMARK  0 active torsions:
REMARK  status: ('A' for Active; 'I' for Inactive)
ROOT
ATOM      1  N1  IND d   1       0.596  -2.035  -0.405  0.00  0.00    -0.196 N 
ATOM      2  C2  IND d   1      -0.333  -2.146   0.592  0.00  0.00     0.054 A 
ATOM      3  C3  IND d   1      -0.542  -0.944   1.176  0.00  0.00    -0.031 A 
ATOM      4  C4  IND d   1       0.455   1.355   0.587  0.00  0.00     0.051 A 
ATOM      5  C5  IND d   1       1.376   1.954  -0.226  0.00  0.00    -0.031 A 
ATOM      6  C6  IND d   1       2.097   1.239  -1.161  0.00  0.00     0.015 A 
ATOM      7  C7  IND d   1       1.914  -0.104  -1.326  0.00  0.00    -0.016 A 
ATOM      8  C8  IND d   1       0.985  -0.717  -0.497  0.00  0.00    -0.047 A 
ATOM      9  C9  IND d   1       0.281  -0.005   0.482  0.00  0.00    -0.096 A 
ATOM     10  HN1 IND d   1       0.888  -2.680  -0.892  0.00  0.00     0.298 HD
ENDROOT
TORSDOF 0
ENDMDL
