MODEL 1
REMARK minimizedAffinity -3.37405729
REMARK minimizedRMSD -1
REMARK  0 active torsions:
REMARK  status: ('A' for Active; 'I' for Inactive)
ROOT
ATOM      1  N1  IND d   1       1.402  -1.001  -2.203  0.00  0.00    -0.196 N 
ATOM      2  C2  IND d   1       1.759   0.279  -2.524  0.00  0.00     0.054 A 
ATOM      3  C3  IND d   1       1.501   1.112  -1.491  0.00  0.00    -0.031 A 
ATOM      4  C4  IND d   1       0.590   0.574   0.856  0.00  0.00     0.051 A 
ATOM      5  C5  IND d   1       0.085  -0.450   1.607  0.00  0.00    -0.031 A 
ATOM      6  C6  IND d   1      -0.006  -1.737   1.117  0.00  0.00     0.015 A 
ATOM      7  C7  IND d   1       0.417  -2.051  -0.143  0.00  0.00    -0.016 A 
ATOM      8  C8  IND d   1       0.923  -1.012  -0.911  0.00  0.00    -0.047 A 
ATOM      9  C9  IND d   1       0.979   0.304  -0.435  0.00  0.00    -0.096 A 
ATOM     10  HN1 IND d   1       1.465  -1.684  -2.721  0.00  0.00     0.298 HD
ENDROOT
TORSDOF 0
ENDMDL
