MODEL 1
REMARK minimizedAffinity -1.21666193
REMARK minimizedRMSD -1
REMARK  0 active torsions:
REMARK  status: ('A' for Active; 'I' for Inactive)
ROOT
ATOM      1  N1  IND d   1      -1.384   1.569  -0.231  0.00  0.00    -0.196 N 
ATOM      2  C2  IND d   1      -2.180   0.516  -0.584  0.00  0.00     0.054 A 
ATOM      3  C3  IND d   1      -1.435  -0.480  -1.113  0.00  0.00    -0.031 A 
ATOM      4  C4  IND d   1       1.118  -0.637  -1.401  0.00  0.00     0.051 A 
ATOM      5  C5  IND d   1       2.265   0.093  -1.258  0.00  0.00    -0.031 A 
ATOM      6  C6  IND d   1       2.254   1.377  -0.753  0.00  0.00     0.015 A 
ATOM      7  C7  IND d   1       1.092   1.978  -0.359  0.00  0.00    -0.016 A 
ATOM      8  C8  IND d   1      -0.075   1.242  -0.509  0.00  0.00    -0.047 A 
ATOM      9  C9  IND d   1      -0.075  -0.045  -1.061  0.00  0.00    -0.096 A 
ATOM     10  HN1 IND d   1      -1.655   2.311   0.109  0.00  0.00     0.298 HD
ENDROOT
TORSDOF 0
ENDMDL
