MODEL 1
REMARK minimizedAffinity -0.3192527
REMARK minimizedRMSD -1
REMARK  0 active torsions:
REMARK  status: ('A' for Active; 'I' for Inactive)
ROOT
ATOM      1  N1  IND d   1       0.030  -1.094   0.205  0.00  0.00    -0.196 N 
ATOM      2  C2  IND d   1      -0.589  -2.158  -0.389  0.00  0.00     0.054 A 
ATOM      3  C3  IND d   1      -0.388  -2.133  -1.726  0.00  0.00    -0.031 A 
ATOM      4  C4  IND d   1       1.010  -0.498  -3.140  0.00  0.00     0.051 A 
ATOM      5  C5  IND d   1       1.733   0.658  -3.049  0.00  0.00    -0.031 A 
ATOM      6  C6  IND d   1       1.931   1.301  -1.844  0.00  0.00     0.015 A 
ATOM      7  C7  IND d   1       1.421   0.803  -0.678  0.00  0.00    -0.016 A 
ATOM      8  C8  IND d   1       0.681  -0.367  -0.768  0.00  0.00    -0.047 A 
ATOM      9  C9  IND d   1       0.440  -1.001  -1.994  0.00  0.00    -0.096 A 
ATOM     10  HN1 IND d   1       0.015  -0.909   1.044  0.00  0.00     0.298 HD
ENDROOT
TORSDOF 0
ENDMDL
