MODEL 1
REMARK minimizedAffinity 5.24560118
REMARK minimizedRMSD -1
REMARK  0 active torsions:
REMARK  status: ('A' for Active; 'I' for Inactive)
ROOT
ATOM      1  N1  IND d   1      -3.851   5.662  -5.875  0.00  0.00    -0.196 N 
ATOM      2  C2  IND d   1      -5.209   5.822  -5.869  0.00  0.00     0.054 A 
ATOM      3  C3  IND d   1      -5.824   4.620  -5.927  0.00  0.00    -0.031 A 
ATOM      4  C4  IND d   1      -4.802   2.257  -5.934  0.00  0.00     0.051 A 
ATOM      5  C5  IND d   1      -3.603   1.603  -5.985  0.00  0.00    -0.031 A 
ATOM      6  C6  IND d   1      -2.402   2.281  -6.000  0.00  0.00     0.015 A 
ATOM      7  C7  IND d   1      -2.354   3.646  -5.952  0.00  0.00    -0.016 A 
ATOM      8  C8  IND d   1      -3.569   4.314  -5.907  0.00  0.00    -0.047 A 
ATOM      9  C9  IND d   1      -4.792   3.632  -5.935  0.00  0.00    -0.096 A 
ATOM     10  HN1 IND d   1      -3.271   6.297  -5.860  0.00  0.00     0.298 HD
ENDROOT
TORSDOF 0
ENDMDL
