MODEL 1
REMARK minimizedAffinity 1.77553272
REMARK minimizedRMSD -1
REMARK  0 active torsions:
REMARK  status: ('A' for Active; 'I' for Inactive)
ROOT
ATOM      1  N1  IND d   1       0.711  -0.412   0.678  0.00  0.00    -0.196 N 
ATOM      2  C2  IND d   1       0.359   0.907   0.757  0.00  0.00     0.054 A 
ATOM      3  C3  IND d   1       0.248   1.439  -0.481  0.00  0.00    -0.031 A 
ATOM      4  C4  IND d   1       0.499   0.304  -2.778  0.00  0.00     0.051 A 
ATOM      5  C5  IND d   1       0.850  -0.881  -3.361  0.00  0.00    -0.031 A 
ATOM      6  C6  IND d   1       1.177  -1.993  -2.613  0.00  0.00     0.015 A 
ATOM      7  C7  IND d   1       1.153  -1.965  -1.247  0.00  0.00    -0.016 A 
ATOM      8  C8  IND d   1       0.804  -0.761  -0.651  0.00  0.00    -0.047 A 
ATOM      9  C9  IND d   1       0.513   0.383  -1.405  0.00  0.00    -0.096 A 
ATOM     10  HN1 IND d   1       0.850  -0.934   1.346  0.00  0.00     0.298 HD
ENDROOT
TORSDOF 0
ENDMDL
