MODEL 1
REMARK minimizedAffinity 6.34989643
REMARK minimizedRMSD -1
REMARK  0 active torsions:
REMARK  status: ('A' for Active; 'I' for Inactive)
ROOT
ATOM      1  N1  IND d   1      -4.623   1.383  -5.903  0.00  0.00    -0.196 N 
ATOM      2  C2  IND d   1      -3.473   2.121  -5.958  0.00  0.00     0.054 A 
ATOM      3  C3  IND d   1      -2.393   1.308  -5.967  0.00  0.00    -0.031 A 
ATOM      4  C4  IND d   1      -2.281  -1.264  -5.999  0.00  0.00     0.051 A 
ATOM      5  C5  IND d   1      -3.069  -2.377  -5.921  0.00  0.00    -0.031 A 
ATOM      6  C6  IND d   1      -4.444  -2.293  -5.835  0.00  0.00     0.015 A 
ATOM      7  C7  IND d   1      -5.085  -1.086  -5.834  0.00  0.00    -0.016 A 
ATOM      8  C8  IND d   1      -4.287   0.047  -5.905  0.00  0.00    -0.047 A 
ATOM      9  C9  IND d   1      -2.889  -0.031  -5.950  0.00  0.00    -0.096 A 
ATOM     10  HN1 IND d   1      -5.422   1.700  -5.872  0.00  0.00     0.298 HD
ENDROOT
TORSDOF 0
ENDMDL
