MODEL 1
REMARK minimizedAffinity 2.46296215
REMARK minimizedRMSD -1
REMARK  0 active torsions:
REMARK  status: ('A' for Active; 'I' for Inactive)
ROOT
ATOM      1  N1  IND d   1      -2.321   1.205  -5.858  0.00  0.00    -0.196 N 
ATOM      2  C2  IND d   1      -1.323   2.138  -5.800  0.00  0.00     0.054 A 
ATOM      3  C3  IND d   1      -1.844   3.385  -5.812  0.00  0.00    -0.031 A 
ATOM      4  C4  IND d   1      -4.309   4.128  -5.822  0.00  0.00     0.051 A 
ATOM      5  C5  IND d   1      -5.582   3.638  -5.911  0.00  0.00    -0.031 A 
ATOM      6  C6  IND d   1      -5.838   2.284  -5.985  0.00  0.00     0.015 A 
ATOM      7  C7  IND d   1      -4.827   1.366  -5.962  0.00  0.00    -0.016 A 
ATOM      8  C8  IND d   1      -3.533   1.860  -5.879  0.00  0.00    -0.047 A 
ATOM      9  C9  IND d   1      -3.265   3.235  -5.846  0.00  0.00    -0.096 A 
ATOM     10  HN1 IND d   1      -2.210   0.353  -5.878  0.00  0.00     0.298 HD
ENDROOT
TORSDOF 0
ENDMDL
