MODEL 1
REMARK minimizedAffinity 13.33636
REMARK minimizedRMSD -1
REMARK  0 active torsions:
REMARK  status: ('A' for Active; 'I' for Inactive)
ROOT
ATOM      1  N1  IND d   1      -3.970  -1.771  -5.434  0.00  0.00    -0.196 N 
ATOM      2  C2  IND d   1      -5.288  -1.995  -5.715  0.00  0.00     0.054 A 
ATOM      3  C3  IND d   1      -5.494  -3.302  -5.995  0.00  0.00    -0.031 A 
ATOM      4  C4  IND d   1      -3.830  -5.265  -5.951  0.00  0.00     0.051 A 
ATOM      5  C5  IND d   1      -2.503  -5.550  -5.786  0.00  0.00    -0.031 A 
ATOM      6  C6  IND d   1      -1.580  -4.569  -5.486  0.00  0.00     0.015 A 
ATOM      7  C7  IND d   1      -1.951  -3.264  -5.329  0.00  0.00    -0.016 A 
ATOM      8  C8  IND d   1      -3.297  -2.971  -5.503  0.00  0.00    -0.047 A 
ATOM      9  C9  IND d   1      -4.232  -3.954  -5.849  0.00  0.00    -0.096 A 
ATOM     10  HN1 IND d   1      -3.619  -1.008  -5.246  0.00  0.00     0.298 HD
ENDROOT
TORSDOF 0
ENDMDL
