MODEL 1
REMARK minimizedAffinity -1.06418931
REMARK minimizedRMSD -1
REMARK  0 active torsions:
REMARK  status: ('A' for Active; 'I' for Inactive)
ROOT
ATOM      1  N1  IND d   1      -5.123  -4.240  -5.955  0.00  0.00    -0.196 N 
ATOM      2  C2  IND d   1      -3.879  -4.806  -5.960  0.00  0.00     0.054 A 
ATOM      3  C3  IND d   1      -2.926  -3.847  -5.995  0.00  0.00    -0.031 A 
ATOM      4  C4  IND d   1      -3.181  -1.286  -5.946  0.00  0.00     0.051 A 
ATOM      5  C5  IND d   1      -4.124  -0.296  -5.977  0.00  0.00    -0.031 A 
ATOM      6  C6  IND d   1      -5.475  -0.576  -5.999  0.00  0.00     0.015 A 
ATOM      7  C7  IND d   1      -5.936  -1.862  -5.981  0.00  0.00    -0.016 A 
ATOM      8  C8  IND d   1      -4.982  -2.870  -5.957  0.00  0.00    -0.047 A 
ATOM      9  C9  IND d   1      -3.609  -2.592  -5.977  0.00  0.00    -0.096 A 
ATOM     10  HN1 IND d   1      -5.869  -4.668  -5.951  0.00  0.00     0.298 HD
ENDROOT
TORSDOF 0
ENDMDL
