MODEL 1
REMARK minimizedAffinity 8.95138645
REMARK minimizedRMSD -1
REMARK  0 active torsions:
REMARK  status: ('A' for Active; 'I' for Inactive)
ROOT
ATOM      1  N1  IND d   1       1.319   5.998   0.082  0.00  0.00    -0.196 N 
ATOM      2  C2  IND d   1       1.155   6.000  -1.275  0.00  0.00     0.054 A 
ATOM      3  C3  IND d   1       1.102   4.733  -1.745  0.00  0.00    -0.031 A 
ATOM      4  C4  IND d   1       1.162   2.507  -0.454  0.00  0.00     0.051 A 
ATOM      5  C5  IND d   1       1.338   1.993   0.800  0.00  0.00    -0.031 A 
ATOM      6  C6  IND d   1       1.517   2.805   1.902  0.00  0.00     0.015 A 
ATOM      7  C7  IND d   1       1.516   4.166   1.791  0.00  0.00    -0.016 A 
ATOM      8  C8  IND d   1       1.345   4.691   0.518  0.00  0.00    -0.047 A 
ATOM      9  C9  IND d   1       1.205   3.872  -0.610  0.00  0.00    -0.096 A 
ATOM     10  HN1 IND d   1       1.394   6.695   0.579  0.00  0.00     0.298 HD
ENDROOT
TORSDOF 0
ENDMDL
