MODEL 1
REMARK minimizedAffinity 22.8088036
REMARK minimizedRMSD -1
REMARK  0 active torsions:
REMARK  status: ('A' for Active; 'I' for Inactive)
ROOT
ATOM      1  N1  IND d   1      -3.737   0.888   5.110  0.00  0.00    -0.196 N 
ATOM      2  C2  IND d   1      -2.819   1.372   6.000  0.00  0.00     0.054 A 
ATOM      3  C3  IND d   1      -2.093   2.362   5.435  0.00  0.00    -0.031 A 
ATOM      4  C4  IND d   1      -2.308   3.419   3.097  0.00  0.00     0.051 A 
ATOM      5  C5  IND d   1      -2.978   3.288   1.914  0.00  0.00    -0.031 A 
ATOM      6  C6  IND d   1      -3.957   2.333   1.732  0.00  0.00     0.015 A 
ATOM      7  C7  IND d   1      -4.312   1.477   2.735  0.00  0.00    -0.016 A 
ATOM      8  C8  IND d   1      -3.629   1.602   3.937  0.00  0.00    -0.047 A 
ATOM      9  C9  IND d   1      -2.605   2.541   4.113  0.00  0.00    -0.096 A 
ATOM     10  HN1 IND d   1      -4.289   0.246   5.257  0.00  0.00     0.298 HD
ENDROOT
TORSDOF 0
ENDMDL
