MODEL 1
REMARK minimizedAffinity 11.4826975
REMARK minimizedRMSD -1
REMARK  0 active torsions:
REMARK  status: ('A' for Active; 'I' for Inactive)
ROOT
ATOM      1  N1  IND d   1      -0.708   5.611  -5.016  0.00  0.00    -0.196 N 
ATOM      2  C2  IND d   1      -0.396   5.999  -3.742  0.00  0.00     0.054 A 
ATOM      3  C3  IND d   1      -1.325   5.546  -2.871  0.00  0.00    -0.031 A 
ATOM      4  C4  IND d   1      -3.385   4.064  -3.302  0.00  0.00     0.051 A 
ATOM      5  C5  IND d   1      -4.105   3.486  -4.310  0.00  0.00    -0.031 A 
ATOM      6  C6  IND d   1      -3.720   3.587  -5.631  0.00  0.00     0.015 A 
ATOM      7  C7  IND d   1      -2.590   4.263  -5.994  0.00  0.00    -0.016 A 
ATOM      8  C8  IND d   1      -1.860   4.857  -4.974  0.00  0.00    -0.047 A 
ATOM      9  C9  IND d   1      -2.269   4.793  -3.635  0.00  0.00    -0.096 A 
ATOM     10  HN1 IND d   1      -0.261   5.806  -5.723  0.00  0.00     0.298 HD
ENDROOT
TORSDOF 0
ENDMDL
