MODEL 1
REMARK minimizedAffinity 6.78342581
REMARK minimizedRMSD -1
REMARK  0 active torsions:
REMARK  status: ('A' for Active; 'I' for Inactive)
ROOT
ATOM      1  N1  IND d   1      -4.733  -2.121   2.711  0.00  0.00    -0.196 N 
ATOM      2  C2  IND d   1      -3.949  -3.028   3.368  0.00  0.00     0.054 A 
ATOM      3  C3  IND d   1      -3.028  -2.392   4.126  0.00  0.00    -0.031 A 
ATOM      4  C4  IND d   1      -2.692   0.129   4.520  0.00  0.00     0.051 A 
ATOM      5  C5  IND d   1      -3.142   1.353   4.110  0.00  0.00    -0.031 A 
ATOM      6  C6  IND d   1      -4.168   1.484   3.196  0.00  0.00     0.015 A 
ATOM      7  C7  IND d   1      -4.792   0.391   2.665  0.00  0.00    -0.016 A 
ATOM      8  C8  IND d   1      -4.334  -0.853   3.074  0.00  0.00    -0.047 A 
ATOM      9  C9  IND d   1      -3.265  -0.992   3.968  0.00  0.00    -0.096 A 
ATOM     10  HN1 IND d   1      -5.369  -2.310   2.164  0.00  0.00     0.298 HD
ENDROOT
TORSDOF 0
ENDMDL
