MODEL 1
REMARK minimizedAffinity 5.21073961
REMARK minimizedRMSD -1
REMARK  0 active torsions:
REMARK  status: ('A' for Active; 'I' for Inactive)
ROOT
ATOM      1  N1  IND d   1      -3.552   3.492  -3.807  0.00  0.00    -0.196 N 
ATOM      2  C2  IND d   1      -3.873   2.965  -5.026  0.00  0.00     0.054 A 
ATOM      3  C3  IND d   1      -3.095   3.504  -5.992  0.00  0.00    -0.031 A 
ATOM      4  C4  IND d   1      -1.163   5.192  -5.782  0.00  0.00     0.051 A 
ATOM      5  C5  IND d   1      -0.521   5.988  -4.875  0.00  0.00    -0.031 A 
ATOM      6  C6  IND d   1      -0.862   5.991  -3.537  0.00  0.00     0.015 A 
ATOM      7  C7  IND d   1      -1.854   5.185  -3.054  0.00  0.00    -0.016 A 
ATOM      8  C8  IND d   1      -2.512   4.381  -3.973  0.00  0.00    -0.047 A 
ATOM      9  C9  IND d   1      -2.199   4.406  -5.339  0.00  0.00    -0.096 A 
ATOM     10  HN1 IND d   1      -3.934   3.301  -3.061  0.00  0.00     0.298 HD
ENDROOT
TORSDOF 0
ENDMDL
