MODEL 1
REMARK minimizedAffinity -0.184647173
REMARK minimizedRMSD -1
REMARK  0 active torsions:
REMARK  status: ('A' for Active; 'I' for Inactive)
ROOT
ATOM      1  N1  IND d   1       0.620  -1.043   1.983  0.00  0.00    -0.196 N 
ATOM      2  C2  IND d   1      -0.166  -0.082   2.556  0.00  0.00     0.054 A 
ATOM      3  C3  IND d   1      -0.203   1.021   1.775  0.00  0.00    -0.031 A 
ATOM      4  C4  IND d   1       0.868   1.431  -0.530  0.00  0.00     0.051 A 
ATOM      5  C5  IND d   1       1.709   0.860  -1.444  0.00  0.00    -0.031 A 
ATOM      6  C6  IND d   1       2.238  -0.401  -1.260  0.00  0.00     0.015 A 
ATOM      7  C7  IND d   1       1.936  -1.146  -0.155  0.00  0.00    -0.016 A 
ATOM      8  C8  IND d   1       1.088  -0.567   0.778  0.00  0.00    -0.047 A 
ATOM      9  C9  IND d   1       0.582   0.730   0.618  0.00  0.00    -0.096 A 
ATOM     10  HN1 IND d   1       0.793  -1.815   2.320  0.00  0.00     0.298 HD
ENDROOT
TORSDOF 0
ENDMDL
