MODEL 1
REMARK minimizedAffinity 5.68271303
REMARK minimizedRMSD -1
REMARK  0 active torsions:
REMARK  status: ('A' for Active; 'I' for Inactive)
ROOT
ATOM      1  O1  BZF d   1       0.683  -0.782   0.400  0.00  0.00    -0.204 OA
ATOM      2  C2  BZF d   1       1.957  -0.529   0.871  0.00  0.00     0.174 A 
ATOM      3  C3  BZF d   1       1.919   0.317   1.921  0.00  0.00    -0.012 A 
ATOM      4  C3A BZF d   1       0.529   0.538   2.177  0.00  0.00    -0.107 A 
ATOM      5  C4  BZF d   1      -0.149   1.274   3.106  0.00  0.00     0.055 A 
ATOM      6  C5  BZF d   1      -1.505   1.336   3.037  0.00  0.00    -0.016 A 
ATOM      7  C6  BZF d   1      -2.213   0.680   2.052  0.00  0.00     0.022 A 
ATOM      8  C7  BZF d   1      -1.585  -0.067   1.112  0.00  0.00     0.029 A 
ATOM      9  C7A BZF d   1      -0.217  -0.158   1.198  0.00  0.00     0.058 A 
ENDROOT
TORSDOF 0
ENDMDL
