MODEL 1
REMARK minimizedAffinity -0.713586092
REMARK minimizedRMSD -1
REMARK  0 active torsions:
REMARK  status: ('A' for Active; 'I' for Inactive)
ROOT
ATOM      1  O1  BZF d   1      -1.707   0.789   2.622  0.00  0.00    -0.204 OA
ATOM      2  C2  BZF d   1      -1.741  -0.077   1.546  0.00  0.00     0.174 A 
ATOM      3  C3  BZF d   1      -0.562  -0.072   0.891  0.00  0.00    -0.012 A 
ATOM      4  C3A BZF d   1       0.290   0.785   1.656  0.00  0.00    -0.107 A 
ATOM      5  C4  BZF d   1       1.591   1.177   1.522  0.00  0.00     0.055 A 
ATOM      6  C5  BZF d   1       2.102   2.080   2.400  0.00  0.00    -0.016 A 
ATOM      7  C6  BZF d   1       1.340   2.615   3.418  0.00  0.00     0.022 A 
ATOM      8  C7  BZF d   1       0.046   2.253   3.594  0.00  0.00     0.029 A 
ATOM      9  C7A BZF d   1      -0.463   1.315   2.729  0.00  0.00     0.058 A 
ENDROOT
TORSDOF 0
ENDMDL
