MODEL 1
REMARK minimizedAffinity 5.86625862
REMARK minimizedRMSD -1
REMARK  0 active torsions:
REMARK  status: ('A' for Active; 'I' for Inactive)
ROOT
ATOM      1  O1  BZF d   1      -0.221  -1.267  -0.467  0.00  0.00    -0.204 OA
ATOM      2  C2  BZF d   1      -0.874  -2.258  -1.175  0.00  0.00     0.174 A 
ATOM      3  C3  BZF d   1      -2.015  -2.617  -0.553  0.00  0.00    -0.012 A 
ATOM      4  C3A BZF d   1      -2.126  -1.735   0.568  0.00  0.00    -0.107 A 
ATOM      5  C4  BZF d   1      -3.056  -1.587   1.558  0.00  0.00     0.055 A 
ATOM      6  C5  BZF d   1      -2.831  -0.680   2.544  0.00  0.00    -0.016 A 
ATOM      7  C6  BZF d   1      -1.688   0.091   2.575  0.00  0.00     0.022 A 
ATOM      8  C7  BZF d   1      -0.739  -0.017   1.613  0.00  0.00     0.029 A 
ATOM      9  C7A BZF d   1      -0.979  -0.909   0.597  0.00  0.00     0.058 A 
ENDROOT
TORSDOF 0
ENDMDL
