MODEL 1
REMARK minimizedAffinity 2.35051417
REMARK minimizedRMSD -1
REMARK  0 active torsions:
REMARK  status: ('A' for Active; 'I' for Inactive)
ROOT
ATOM      1  O1  BZF d   1      -3.698  -0.211  -0.467  0.00  0.00    -0.204 OA
ATOM      2  C2  BZF d   1      -4.390   0.947  -0.764  0.00  0.00     0.174 A 
ATOM      3  C3  BZF d   1      -3.978   1.965   0.019  0.00  0.00    -0.012 A 
ATOM      4  C3A BZF d   1      -2.900   1.431   0.794  0.00  0.00    -0.107 A 
ATOM      5  C4  BZF d   1      -2.073   1.961   1.742  0.00  0.00     0.055 A 
ATOM      6  C5  BZF d   1      -1.172   1.153   2.359  0.00  0.00    -0.016 A 
ATOM      7  C6  BZF d   1      -1.074  -0.190   2.056  0.00  0.00     0.022 A 
ATOM      8  C7  BZF d   1      -1.870  -0.760   1.119  0.00  0.00     0.029 A 
ATOM      9  C7A BZF d   1      -2.759   0.062   0.470  0.00  0.00     0.058 A 
ENDROOT
TORSDOF 0
ENDMDL
