MODEL 1
REMARK minimizedAffinity 6.87378359
REMARK minimizedRMSD -1
REMARK  0 active torsions:
REMARK  status: ('A' for Active; 'I' for Inactive)
ROOT
ATOM      1  O1  BZF d   1      -2.912  -0.010   3.178  0.00  0.00    -0.204 OA
ATOM      2  C2  BZF d   1      -2.801  -1.321   2.754  0.00  0.00     0.174 A 
ATOM      3  C3  BZF d   1      -1.574  -1.558   2.249  0.00  0.00    -0.012 A 
ATOM      4  C3A BZF d   1      -0.843  -0.344   2.449  0.00  0.00    -0.107 A 
ATOM      5  C4  BZF d   1       0.439   0.037   2.171  0.00  0.00     0.055 A 
ATOM      6  C5  BZF d   1       0.817   1.316   2.427  0.00  0.00    -0.016 A 
ATOM      7  C6  BZF d   1      -0.060   2.242   2.954  0.00  0.00     0.022 A 
ATOM      8  C7  BZF d   1      -1.340   1.909   3.251  0.00  0.00     0.029 A 
ATOM      9  C7A BZF d   1      -1.716   0.608   3.025  0.00  0.00     0.058 A 
ENDROOT
TORSDOF 0
ENDMDL
