MODEL 1
REMARK minimizedAffinity 6.59923649
REMARK minimizedRMSD -1
REMARK  0 active torsions:
REMARK  status: ('A' for Active; 'I' for Inactive)
ROOT
ATOM      1  O1  BZF d   1       0.663   0.241   2.376  0.00  0.00    -0.204 OA
ATOM      2  C2  BZF d   1      -0.631   0.456   2.810  0.00  0.00     0.174 A 
ATOM      3  C3  BZF d   1      -1.519  -0.101   1.961  0.00  0.00    -0.012 A 
ATOM      4  C3A BZF d   1      -0.728  -0.782   0.982  0.00  0.00    -0.107 A 
ATOM      5  C4  BZF d   1      -1.035  -1.537  -0.113  0.00  0.00     0.055 A 
ATOM      6  C5  BZF d   1      -0.028  -1.996  -0.902  0.00  0.00    -0.016 A 
ATOM      7  C6  BZF d   1       1.295  -1.716  -0.628  0.00  0.00     0.022 A 
ATOM      8  C7  BZF d   1       1.649  -0.975   0.451  0.00  0.00     0.029 A 
ATOM      9  C7A BZF d   1       0.636  -0.537   1.268  0.00  0.00     0.058 A 
ENDROOT
TORSDOF 0
ENDMDL
