MODEL 1
REMARK minimizedAffinity 2.81442142
REMARK minimizedRMSD -1
REMARK  1 active torsions:
REMARK  status: ('A' for Active; 'I' for Inactive)
REMARK    1  A    between atoms: C3_4  and  O_7 
ROOT
ATOM      1  C   UNL d   1       2.072   3.645  -1.132  0.00  0.00    -0.033 A 
ATOM      2  C1  UNL d   1       2.188   4.481  -0.020  0.00  0.00     0.039 A 
ATOM      3  C2  UNL d   1       2.549   3.951   1.220  0.00  0.00    -0.080 A 
ATOM      4  C3  UNL d   1       2.792   2.585   1.335  0.00  0.00     0.150 A 
ATOM      5  C4  UNL d   1       2.683   1.747   0.230  0.00  0.00    -0.007 A 
ATOM      6  C5  UNL d   1       2.321   2.278  -1.007  0.00  0.00     0.039 A 
ENDROOT
BRANCH   4   7
ATOM      7  O   UNL d   1       3.143   2.021   2.525  0.00  0.00    -0.526 OA
ATOM      8  H5  UNL d   1       3.152   2.716   3.204  0.00  0.00     0.418 HD
ENDBRANCH   4   7
TORSDOF 1
ENDMDL
