MODEL 1
REMARK minimizedAffinity -1.21817029
REMARK minimizedRMSD -1
REMARK  1 active torsions:
REMARK  status: ('A' for Active; 'I' for Inactive)
REMARK    1  A    between atoms: C3_4  and  O_7 
ROOT
ATOM      1  C   UNL d   1      -5.340  -0.244   4.209  0.00  0.00    -0.033 A 
ATOM      2  C1  UNL d   1      -5.043   0.681   3.206  0.00  0.00     0.039 A 
ATOM      3  C2  UNL d   1      -4.643   1.975   3.543  0.00  0.00    -0.080 A 
ATOM      4  C3  UNL d   1      -4.543   2.332   4.885  0.00  0.00     0.150 A 
ATOM      5  C4  UNL d   1      -4.834   1.415   5.890  0.00  0.00    -0.007 A 
ATOM      6  C5  UNL d   1      -5.235   0.123   5.551  0.00  0.00     0.039 A 
ENDROOT
BRANCH   4   7
ATOM      7  O   UNL d   1      -4.161   3.585   5.263  0.00  0.00    -0.526 OA
ATOM      8  H5  UNL d   1      -4.021   4.118   4.463  0.00  0.00     0.418 HD
ENDBRANCH   4   7
TORSDOF 1
ENDMDL
