MODEL 1
REMARK minimizedAffinity -3.74600053
REMARK minimizedRMSD -1
REMARK  1 active torsions:
REMARK  status: ('A' for Active; 'I' for Inactive)
REMARK    1  A    between atoms: C3_4  and  O_7 
ROOT
ATOM      1  C   UNL d   1       5.003  -4.788   6.000  0.00  0.00    -0.033 A 
ATOM      2  C1  UNL d   1       5.997  -3.807   5.998  0.00  0.00     0.039 A 
ATOM      3  C2  UNL d   1       5.735  -2.547   5.458  0.00  0.00    -0.080 A 
ATOM      4  C3  UNL d   1       4.477  -2.280   4.923  0.00  0.00     0.150 A 
ATOM      5  C4  UNL d   1       3.482  -3.252   4.925  0.00  0.00    -0.007 A 
ATOM      6  C5  UNL d   1       3.745  -4.510   5.464  0.00  0.00     0.039 A 
ENDROOT
BRANCH   4   7
ATOM      7  O   UNL d   1       4.176  -1.067   4.380  0.00  0.00    -0.526 OA
ATOM      8  H5  UNL d   1       4.968  -0.506   4.423  0.00  0.00     0.418 HD
ENDBRANCH   4   7
TORSDOF 1
ENDMDL
