MODEL 1
REMARK minimizedAffinity -2.50524759
REMARK minimizedRMSD -1
REMARK  1 active torsions:
REMARK  status: ('A' for Active; 'I' for Inactive)
REMARK    1  A    between atoms: C3_4  and  O_7 
ROOT
ATOM      1  C   UNL d   1      -3.869   5.991   5.757  0.00  0.00    -0.033 A 
ATOM      2  C1  UNL d   1      -2.534   5.996   5.347  0.00  0.00     0.039 A 
ATOM      3  C2  UNL d   1      -2.220   6.000   3.987  0.00  0.00    -0.080 A 
ATOM      4  C3  UNL d   1      -3.247   6.000   3.048  0.00  0.00     0.150 A 
ATOM      5  C4  UNL d   1      -4.579   5.999   3.449  0.00  0.00    -0.007 A 
ATOM      6  C5  UNL d   1      -4.892   5.994   4.808  0.00  0.00     0.039 A 
ENDROOT
BRANCH   4   7
ATOM      7  O   UNL d   1      -2.990   5.998   1.709  0.00  0.00    -0.526 OA
ATOM      8  H5  UNL d   1      -2.027   5.970   1.582  0.00  0.00     0.418 HD
ENDBRANCH   4   7
TORSDOF 1
ENDMDL
