MODEL 1
REMARK minimizedAffinity 3.02729774
REMARK minimizedRMSD -1
REMARK  1 active torsions:
REMARK  status: ('A' for Active; 'I' for Inactive)
REMARK    1  A    between atoms: C3_4  and  O_7 
ROOT
ATOM      1  C   UNL d   1      -4.739   5.542   2.237  0.00  0.00    -0.033 A 
ATOM      2  C1  UNL d   1      -5.492   5.156   3.348  0.00  0.00     0.039 A 
ATOM      3  C2  UNL d   1      -4.924   5.188   4.623  0.00  0.00    -0.080 A 
ATOM      4  C3  UNL d   1      -3.606   5.610   4.774  0.00  0.00     0.150 A 
ATOM      5  C4  UNL d   1      -2.852   6.000   3.673  0.00  0.00    -0.007 A 
ATOM      6  C5  UNL d   1      -3.420   5.966   2.400  0.00  0.00     0.039 A 
ENDROOT
BRANCH   4   7
ATOM      7  O   UNL d   1      -3.008   5.654   5.998  0.00  0.00    -0.526 OA
ATOM      8  H5  UNL d   1      -3.640   5.329   6.661  0.00  0.00     0.418 HD
ENDBRANCH   4   7
TORSDOF 1
ENDMDL
