MODEL 1
REMARK minimizedAffinity -2.09239125
REMARK minimizedRMSD -1
REMARK  1 active torsions:
REMARK  status: ('A' for Active; 'I' for Inactive)
REMARK    1  A    between atoms: C3_4  and  O_7 
ROOT
ATOM      1  C   UNL d   1      -4.633   5.976   1.854  0.00  0.00    -0.033 A 
ATOM      2  C1  UNL d   1      -5.324   5.968   3.067  0.00  0.00     0.039 A 
ATOM      3  C2  UNL d   1      -4.621   5.973   4.273  0.00  0.00    -0.080 A 
ATOM      4  C3  UNL d   1      -3.229   5.988   4.252  0.00  0.00     0.150 A 
ATOM      5  C4  UNL d   1      -2.534   6.000   3.048  0.00  0.00    -0.007 A 
ATOM      6  C5  UNL d   1      -3.238   5.993   1.844  0.00  0.00     0.039 A 
ENDROOT
BRANCH   4   7
ATOM      7  O   UNL d   1      -2.499   5.989   5.404  0.00  0.00    -0.526 OA
ATOM      8  H5  UNL d   1      -3.113   5.950   6.157  0.00  0.00     0.418 HD
ENDBRANCH   4   7
TORSDOF 1
ENDMDL
