MODEL 1
REMARK minimizedAffinity 10.0149937
REMARK minimizedRMSD -1
REMARK  1 active torsions:
REMARK  status: ('A' for Active; 'I' for Inactive)
REMARK    1  A    between atoms: C3_4  and  O_7 
ROOT
ATOM      1  C   UNL d   1       1.243   3.710  -3.546  0.00  0.00    -0.033 A 
ATOM      2  C1  UNL d   1       0.546   2.533  -3.828  0.00  0.00     0.039 A 
ATOM      3  C2  UNL d   1       0.873   1.349  -3.164  0.00  0.00    -0.080 A 
ATOM      4  C3  UNL d   1       1.898   1.355  -2.222  0.00  0.00     0.150 A 
ATOM      5  C4  UNL d   1       2.594   2.525  -1.933  0.00  0.00    -0.007 A 
ATOM      6  C5  UNL d   1       2.267   3.706  -2.598  0.00  0.00     0.039 A 
ENDROOT
BRANCH   4   7
ATOM      7  O   UNL d   1       2.256   0.224  -1.552  0.00  0.00    -0.526 OA
ATOM      8  H5  UNL d   1       1.709  -0.512  -1.874  0.00  0.00     0.418 HD
ENDBRANCH   4   7
TORSDOF 1
ENDMDL
