MODEL 1
REMARK minimizedAffinity -2.90205121
REMARK minimizedRMSD -1
REMARK  1 active torsions:
REMARK  status: ('A' for Active; 'I' for Inactive)
REMARK    1  A    between atoms: C3_4  and  O_7 
ROOT
ATOM      1  C   UNL d   1      -4.410   5.731   4.498  0.00  0.00    -0.033 A 
ATOM      2  C1  UNL d   1      -5.208   5.637   3.356  0.00  0.00     0.039 A 
ATOM      3  C2  UNL d   1      -4.628   5.724   2.089  0.00  0.00    -0.080 A 
ATOM      4  C3  UNL d   1      -3.252   5.904   1.978  0.00  0.00     0.150 A 
ATOM      5  C4  UNL d   1      -2.451   5.994   3.111  0.00  0.00    -0.007 A 
ATOM      6  C5  UNL d   1      -3.032   5.909   4.376  0.00  0.00     0.039 A 
ENDROOT
BRANCH   4   7
ATOM      7  O   UNL d   1      -2.642   5.999   0.762  0.00  0.00    -0.526 OA
ATOM      8  H5  UNL d   1      -3.323   5.948   0.071  0.00  0.00     0.418 HD
ENDBRANCH   4   7
TORSDOF 1
ENDMDL
