MODEL 1
REMARK minimizedAffinity -0.74529916
REMARK minimizedRMSD -1
REMARK  1 active torsions:
REMARK  status: ('A' for Active; 'I' for Inactive)
REMARK    1  A    between atoms: C3_4  and  O_7 
ROOT
ATOM      1  C   UNL d   1      -4.364   5.759   2.300  0.00  0.00    -0.033 A 
ATOM      2  C1  UNL d   1      -2.978   5.919   2.364  0.00  0.00     0.039 A 
ATOM      3  C2  UNL d   1      -2.339   6.000   3.602  0.00  0.00    -0.080 A 
ATOM      4  C3  UNL d   1      -3.096   5.919   4.768  0.00  0.00     0.150 A 
ATOM      5  C4  UNL d   1      -4.476   5.757   4.712  0.00  0.00    -0.007 A 
ATOM      6  C5  UNL d   1      -5.112   5.677   3.474  0.00  0.00     0.039 A 
ENDROOT
BRANCH   4   7
ATOM      7  O   UNL d   1      -2.517   5.998   6.000  0.00  0.00    -0.526 OA
ATOM      8  H5  UNL d   1      -1.563   6.139   5.883  0.00  0.00     0.418 HD
ENDBRANCH   4   7
TORSDOF 1
ENDMDL
