MODEL 1
REMARK minimizedAffinity -2.7610724
REMARK minimizedRMSD -1
REMARK  1 active torsions:
REMARK  status: ('A' for Active; 'I' for Inactive)
REMARK    1  A    between atoms: C3_4  and  O_7 
ROOT
ATOM      1  C   UNL d   1       1.312   2.643  -5.097  0.00  0.00    -0.033 A 
ATOM      2  C1  UNL d   1       0.459   2.382  -4.023  0.00  0.00     0.039 A 
ATOM      3  C2  UNL d   1       0.879   1.556  -2.980  0.00  0.00    -0.080 A 
ATOM      4  C3  UNL d   1       2.154   0.998  -3.021  0.00  0.00     0.150 A 
ATOM      5  C4  UNL d   1       3.011   1.256  -4.086  0.00  0.00    -0.007 A 
ATOM      6  C5  UNL d   1       2.589   2.081  -5.128  0.00  0.00     0.039 A 
ENDROOT
BRANCH   4   7
ATOM      7  O   UNL d   1       2.607   0.181  -2.028  0.00  0.00    -0.526 OA
ATOM      8  H5  UNL d   1       1.897   0.070  -1.374  0.00  0.00     0.418 HD
ENDBRANCH   4   7
TORSDOF 1
ENDMDL
