MODEL 1
REMARK minimizedAffinity 1.32407916
REMARK minimizedRMSD -1
REMARK  1 active torsions:
REMARK  status: ('A' for Active; 'I' for Inactive)
REMARK    1  A    between atoms: C3_4  and  O_7 
ROOT
ATOM      1  C   UNL d   1      -3.816   5.900   2.242  0.00  0.00    -0.033 A 
ATOM      2  C1  UNL d   1      -4.632   5.870   3.375  0.00  0.00     0.039 A 
ATOM      3  C2  UNL d   1      -4.062   5.900   4.649  0.00  0.00    -0.080 A 
ATOM      4  C3  UNL d   1      -2.677   5.961   4.777  0.00  0.00     0.150 A 
ATOM      5  C4  UNL d   1      -1.859   5.995   3.653  0.00  0.00    -0.007 A 
ATOM      6  C5  UNL d   1      -2.429   5.964   2.381  0.00  0.00     0.039 A 
ENDROOT
BRANCH   4   7
ATOM      7  O   UNL d   1      -2.075   5.987   6.000  0.00  0.00    -0.526 OA
ATOM      8  H5  UNL d   1      -2.764   5.929   6.683  0.00  0.00     0.418 HD
ENDBRANCH   4   7
TORSDOF 1
ENDMDL
