MODEL 1
REMARK minimizedAffinity 4.5432868
REMARK minimizedRMSD -1
REMARK  1 active torsions:
REMARK  status: ('A' for Active; 'I' for Inactive)
REMARK    1  A    between atoms: C3_4  and  O_7 
ROOT
ATOM      1  C   UNL d   1      -4.584   5.995   1.440  0.00  0.00    -0.033 A 
ATOM      2  C1  UNL d   1      -5.448   5.992   2.537  0.00  0.00     0.039 A 
ATOM      3  C2  UNL d   1      -4.933   5.945   3.833  0.00  0.00    -0.080 A 
ATOM      4  C3  UNL d   1      -3.554   5.903   4.020  0.00  0.00     0.150 A 
ATOM      5  C4  UNL d   1      -2.687   5.910   2.932  0.00  0.00    -0.007 A 
ATOM      6  C5  UNL d   1      -3.203   5.955   1.638  0.00  0.00     0.039 A 
ENDROOT
BRANCH   4   7
ATOM      7  O   UNL d   1      -3.005   5.853   5.266  0.00  0.00    -0.526 OA
ATOM      8  H5  UNL d   1      -3.724   5.825   5.919  0.00  0.00     0.418 HD
ENDBRANCH   4   7
TORSDOF 1
ENDMDL
