MODEL 1
REMARK minimizedAffinity 3.79091573
REMARK minimizedRMSD -1
REMARK  0 active torsions:
REMARK  status: ('A' for Active; 'I' for Inactive)
ROOT
ATOM      1  C   UNL d   1       0.646   0.163  -2.290  0.00  0.00     0.020 A 
ATOM      2  C1  UNL d   1       1.195   0.394  -3.551  0.00  0.00     0.020 A 
ATOM      3  C2  UNL d   1       1.870   1.588  -3.811  0.00  0.00     0.034 A 
ATOM      4  C3  UNL d   1       1.997   2.558  -2.809  0.00  0.00     0.017 A 
ATOM      5  C4  UNL d   1       1.445   2.325  -1.544  0.00  0.00     0.017 A 
ATOM      6  C5  UNL d   1       0.771   1.127  -1.289  0.00  0.00     0.034 A 
ATOM      7 Cl   UNL d   1       1.561   3.473  -0.257  0.00  0.00    -0.070 Cl
ATOM      8 Cl1  UNL d   1       2.843   4.012  -3.201  0.00  0.00    -0.070 Cl
ENDROOT
TORSDOF 0
ENDMDL
