MODEL 1
REMARK minimizedAffinity 3.58978176
REMARK minimizedRMSD -1
REMARK  0 active torsions:
REMARK  status: ('A' for Active; 'I' for Inactive)
ROOT
ATOM      1  C   UNL d   1       1.203  -2.188  -1.600  0.00  0.00     0.020 A 
ATOM      2  C1  UNL d   1       0.737  -1.379  -0.564  0.00  0.00     0.020 A 
ATOM      3  C2  UNL d   1       0.465  -0.030  -0.801  0.00  0.00     0.034 A 
ATOM      4  C3  UNL d   1       0.658   0.514  -2.076  0.00  0.00     0.017 A 
ATOM      5  C4  UNL d   1       1.125  -0.299  -3.115  0.00  0.00     0.017 A 
ATOM      6  C5  UNL d   1       1.396  -1.649  -2.872  0.00  0.00     0.034 A 
ATOM      7 Cl   UNL d   1       1.387   0.300  -4.714  0.00  0.00    -0.070 Cl
ATOM      8 Cl1  UNL d   1       0.300   2.190  -2.297  0.00  0.00    -0.070 Cl
ENDROOT
TORSDOF 0
ENDMDL
