MODEL 1
REMARK minimizedAffinity 1.68734944
REMARK minimizedRMSD -1
REMARK  0 active torsions:
REMARK  status: ('A' for Active; 'I' for Inactive)
ROOT
ATOM      1  C   UNL d   1       5.740   0.668  -4.883  0.00  0.00     0.020 A 
ATOM      2  C1  UNL d   1       5.998   1.917  -5.447  0.00  0.00     0.020 A 
ATOM      3  C2  UNL d   1       4.940   2.769  -5.770  0.00  0.00     0.034 A 
ATOM      4  C3  UNL d   1       3.619   2.374  -5.530  0.00  0.00     0.017 A 
ATOM      5  C4  UNL d   1       3.361   1.120  -4.963  0.00  0.00     0.017 A 
ATOM      6  C5  UNL d   1       4.424   0.271  -4.642  0.00  0.00     0.034 A 
ATOM      7 Cl   UNL d   1       1.758   0.563  -4.637  0.00  0.00    -0.070 Cl
ATOM      8 Cl1  UNL d   1       2.360   3.479  -5.954  0.00  0.00    -0.070 Cl
ENDROOT
TORSDOF 0
ENDMDL
