MODEL 1
REMARK minimizedAffinity -0.24617067
REMARK minimizedRMSD -1
REMARK  0 active torsions:
REMARK  status: ('A' for Active; 'I' for Inactive)
ROOT
ATOM      1  C   UNL d   1       1.108   1.099  -3.467  0.00  0.00     0.020 A 
ATOM      2  C1  UNL d   1       0.772   1.612  -2.215  0.00  0.00     0.020 A 
ATOM      3  C2  UNL d   1       0.596   0.749  -1.131  0.00  0.00     0.034 A 
ATOM      4  C3  UNL d   1       0.757  -0.631  -1.297  0.00  0.00     0.017 A 
ATOM      5  C4  UNL d   1       1.096  -1.145  -2.554  0.00  0.00     0.017 A 
ATOM      6  C5  UNL d   1       1.270  -0.277  -3.636  0.00  0.00     0.034 A 
ATOM      7 Cl   UNL d   1       1.312  -2.837  -2.835  0.00  0.00    -0.070 Cl
ATOM      8 Cl1  UNL d   1       0.525  -1.639   0.088  0.00  0.00    -0.070 Cl
ENDROOT
TORSDOF 0
ENDMDL
