MODEL 1
REMARK minimizedAffinity 1.33061564
REMARK minimizedRMSD -1
REMARK  0 active torsions:
REMARK  status: ('A' for Active; 'I' for Inactive)
ROOT
ATOM      1  C   UNL d   1       0.470  -2.469  -3.079  0.00  0.00     0.020 A 
ATOM      2  C1  UNL d   1       0.642  -2.743  -1.723  0.00  0.00     0.020 A 
ATOM      3  C2  UNL d   1       1.039  -1.727  -0.850  0.00  0.00     0.034 A 
ATOM      4  C3  UNL d   1       1.266  -0.433  -1.333  0.00  0.00     0.017 A 
ATOM      5  C4  UNL d   1       1.093  -0.160  -2.695  0.00  0.00     0.017 A 
ATOM      6  C5  UNL d   1       0.696  -1.180  -3.564  0.00  0.00     0.034 A 
ATOM      7 Cl   UNL d   1       1.354   1.412  -3.365  0.00  0.00    -0.070 Cl
ATOM      8 Cl1  UNL d   1       1.754   0.774  -0.198  0.00  0.00    -0.070 Cl
ENDROOT
TORSDOF 0
ENDMDL
