MODEL 1
REMARK minimizedAffinity 4.2319603
REMARK minimizedRMSD -1
REMARK  0 active torsions:
REMARK  status: ('A' for Active; 'I' for Inactive)
ROOT
ATOM      1  C   UNL d   1       1.231   0.869  -3.347  0.00  0.00     0.020 A 
ATOM      2  C1  UNL d   1       0.692   1.285  -2.131  0.00  0.00     0.020 A 
ATOM      3  C2  UNL d   1       0.389   0.345  -1.143  0.00  0.00     0.034 A 
ATOM      4  C3  UNL d   1       0.626  -1.016  -1.371  0.00  0.00     0.017 A 
ATOM      5  C4  UNL d   1       1.167  -1.432  -2.592  0.00  0.00     0.017 A 
ATOM      6  C5  UNL d   1       1.468  -0.487  -3.577  0.00  0.00     0.034 A 
ATOM      7 Cl   UNL d   1       1.487  -3.094  -2.946  0.00  0.00    -0.070 Cl
ATOM      8 Cl1  UNL d   1       0.228  -2.123  -0.105  0.00  0.00    -0.070 Cl
ENDROOT
TORSDOF 0
ENDMDL
