MODEL 1
REMARK minimizedAffinity 3.06438088
REMARK minimizedRMSD -1
REMARK  0 active torsions:
REMARK  status: ('A' for Active; 'I' for Inactive)
ROOT
ATOM      1  C   UNL d   1       1.434  -2.592  -3.603  0.00  0.00     0.020 A 
ATOM      2  C1  UNL d   1       1.134  -1.436  -4.322  0.00  0.00     0.020 A 
ATOM      3  C2  UNL d   1       0.801  -0.260  -3.646  0.00  0.00     0.034 A 
ATOM      4  C3  UNL d   1       0.768  -0.238  -2.247  0.00  0.00     0.017 A 
ATOM      5  C4  UNL d   1       1.070  -1.400  -1.526  0.00  0.00     0.017 A 
ATOM      6  C5  UNL d   1       1.402  -2.574  -2.208  0.00  0.00     0.034 A 
ATOM      7 Cl   UNL d   1       1.050  -1.450   0.201  0.00  0.00    -0.070 Cl
ATOM      8 Cl1  UNL d   1       0.349   1.250  -1.476  0.00  0.00    -0.070 Cl
ENDROOT
TORSDOF 0
ENDMDL
