MODEL 1
REMARK minimizedAffinity 3.2565999
REMARK minimizedRMSD -1
REMARK  0 active torsions:
REMARK  status: ('A' for Active; 'I' for Inactive)
ROOT
ATOM      1  C   UNL d   1       0.763  -2.633  -1.481  0.00  0.00     0.020 A 
ATOM      2  C1  UNL d   1       1.301  -2.983  -2.718  0.00  0.00     0.020 A 
ATOM      3  C2  UNL d   1       1.663  -1.988  -3.629  0.00  0.00     0.034 A 
ATOM      4  C3  UNL d   1       1.488  -0.638  -3.302  0.00  0.00     0.017 A 
ATOM      5  C4  UNL d   1       0.947  -0.288  -2.060  0.00  0.00     0.017 A 
ATOM      6  C5  UNL d   1       0.587  -1.289  -1.152  0.00  0.00     0.034 A 
ATOM      7 Cl   UNL d   1       0.701   1.356  -1.586  0.00  0.00    -0.070 Cl
ATOM      8 Cl1  UNL d   1       1.958   0.540  -4.476  0.00  0.00    -0.070 Cl
ENDROOT
TORSDOF 0
ENDMDL
