MODEL 1
REMARK minimizedAffinity 3.76281857
REMARK minimizedRMSD -1
REMARK  0 active torsions:
REMARK  status: ('A' for Active; 'I' for Inactive)
ROOT
ATOM      1  C   UNL d   1       5.866   2.351  -4.182  0.00  0.00     0.020 A 
ATOM      2  C1  UNL d   1       5.411   2.035  -5.461  0.00  0.00     0.020 A 
ATOM      3  C2  UNL d   1       4.315   2.713  -6.000  0.00  0.00     0.034 A 
ATOM      4  C3  UNL d   1       3.670   3.709  -5.258  0.00  0.00     0.017 A 
ATOM      5  C4  UNL d   1       4.127   4.025  -3.974  0.00  0.00     0.017 A 
ATOM      6  C5  UNL d   1       5.225   3.344  -3.440  0.00  0.00     0.034 A 
ATOM      7 Cl   UNL d   1       3.383   5.243  -2.999  0.00  0.00    -0.070 Cl
ATOM      8 Cl1  UNL d   1       2.321   4.506  -5.986  0.00  0.00    -0.070 Cl
ENDROOT
TORSDOF 0
ENDMDL
