MODEL 1
REMARK minimizedAffinity 3.61978745
REMARK minimizedRMSD -1
REMARK  0 active torsions:
REMARK  status: ('A' for Active; 'I' for Inactive)
ROOT
ATOM      1  C   UNL d   1       1.011   1.234  -3.061  0.00  0.00     0.020 A 
ATOM      2  C1  UNL d   1       0.976   1.610  -1.719  0.00  0.00     0.020 A 
ATOM      3  C2  UNL d   1       0.872   0.636  -0.723  0.00  0.00     0.034 A 
ATOM      4  C3  UNL d   1       0.802  -0.719  -1.069  0.00  0.00     0.017 A 
ATOM      5  C4  UNL d   1       0.837  -1.095  -2.417  0.00  0.00     0.017 A 
ATOM      6  C5  UNL d   1       0.942  -0.115  -3.409  0.00  0.00     0.034 A 
ATOM      7 Cl   UNL d   1       0.756  -2.746  -2.921  0.00  0.00    -0.070 Cl
ATOM      8 Cl1  UNL d   1       0.675  -1.870   0.213  0.00  0.00    -0.070 Cl
ENDROOT
TORSDOF 0
ENDMDL
