MODEL 1
REMARK minimizedAffinity -2.42207956
REMARK minimizedRMSD -1
REMARK  0 active torsions:
REMARK  status: ('A' for Active; 'I' for Inactive)
ROOT
ATOM      1  C   UNL d   1       0.634   0.248  -0.608  0.00  0.00     0.020 A 
ATOM      2  C1  UNL d   1       0.818   1.372  -1.413  0.00  0.00     0.020 A 
ATOM      3  C2  UNL d   1       1.205   1.219  -2.746  0.00  0.00     0.034 A 
ATOM      4  C3  UNL d   1       1.409  -0.059  -3.278  0.00  0.00     0.017 A 
ATOM      5  C4  UNL d   1       1.224  -1.186  -2.469  0.00  0.00     0.017 A 
ATOM      6  C5  UNL d   1       0.836  -1.028  -1.135  0.00  0.00     0.034 A 
ATOM      7 Cl   UNL d   1       1.456  -2.796  -3.055  0.00  0.00    -0.070 Cl
ATOM      8 Cl1  UNL d   1       1.887  -0.173  -4.935  0.00  0.00    -0.070 Cl
ENDROOT
TORSDOF 0
ENDMDL
