MODEL 1
REMARK minimizedAffinity 2.56401443
REMARK minimizedRMSD -1
REMARK  0 active torsions:
REMARK  status: ('A' for Active; 'I' for Inactive)
ROOT
ATOM      1  C   UNL d   1       0.587   1.166  -1.327  0.00  0.00     0.020 A 
ATOM      2  C1  UNL d   1       0.780   0.140  -0.403  0.00  0.00     0.020 A 
ATOM      3  C2  UNL d   1       1.094  -1.147  -0.845  0.00  0.00     0.034 A 
ATOM      4  C3  UNL d   1       1.215  -1.412  -2.214  0.00  0.00     0.017 A 
ATOM      5  C4  UNL d   1       1.020  -0.381  -3.141  0.00  0.00     0.017 A 
ATOM      6  C5  UNL d   1       0.706   0.906  -2.693  0.00  0.00     0.034 A 
ATOM      7 Cl   UNL d   1       1.152  -0.631  -4.846  0.00  0.00    -0.070 Cl
ATOM      8 Cl1  UNL d   1       1.605  -3.027  -2.689  0.00  0.00    -0.070 Cl
ENDROOT
TORSDOF 0
ENDMDL
