MODEL 1
REMARK minimizedAffinity -1.67368793
REMARK minimizedRMSD -1
REMARK  0 active torsions:
REMARK  status: ('A' for Active; 'I' for Inactive)
ROOT
ATOM      1  C   UNL d   1       1.089   0.949  -2.692  0.00  0.00     0.020 A 
ATOM      2  C1  UNL d   1       0.740   1.328  -1.397  0.00  0.00     0.020 A 
ATOM      3  C2  UNL d   1       0.433   0.355  -0.443  0.00  0.00     0.034 A 
ATOM      4  C3  UNL d   1       0.474  -1.002  -0.784  0.00  0.00     0.017 A 
ATOM      5  C4  UNL d   1       0.824  -1.381  -2.085  0.00  0.00     0.017 A 
ATOM      6  C5  UNL d   1       1.131  -0.403  -3.035  0.00  0.00     0.034 A 
ATOM      7 Cl   UNL d   1       0.897  -3.036  -2.579  0.00  0.00    -0.070 Cl
ATOM      8 Cl1  UNL d   1       0.082  -2.151   0.446  0.00  0.00    -0.070 Cl
ENDROOT
TORSDOF 0
ENDMDL
