MODEL 1
REMARK minimizedAffinity 4.08376884
REMARK minimizedRMSD -1
REMARK  0 active torsions:
REMARK  status: ('A' for Active; 'I' for Inactive)
ROOT
ATOM      1  C   UNL d   1       5.999   1.619  -4.560  0.00  0.00     0.020 A 
ATOM      2  C1  UNL d   1       5.211   1.125  -5.599  0.00  0.00     0.020 A 
ATOM      3  C2  UNL d   1       4.068   1.820  -6.000  0.00  0.00     0.034 A 
ATOM      4  C3  UNL d   1       3.710   3.013  -5.362  0.00  0.00     0.017 A 
ATOM      5  C4  UNL d   1       4.502   3.508  -4.319  0.00  0.00     0.017 A 
ATOM      6  C5  UNL d   1       5.645   2.808  -3.922  0.00  0.00     0.034 A 
ATOM      7 Cl   UNL d   1       4.125   4.974  -3.484  0.00  0.00    -0.070 Cl
ATOM      8 Cl1  UNL d   1       2.285   3.821  -5.909  0.00  0.00    -0.070 Cl
ENDROOT
TORSDOF 0
ENDMDL
