MODEL 1
REMARK minimizedAffinity 1.60169482
REMARK minimizedRMSD -1
REMARK  0 active torsions:
REMARK  status: ('A' for Active; 'I' for Inactive)
ROOT
ATOM      1  C   UNL d   1       1.452   1.365  -3.085  0.00  0.00     0.020 A 
ATOM      2  C1  UNL d   1       0.910   1.733  -1.854  0.00  0.00     0.020 A 
ATOM      3  C2  UNL d   1       0.489   0.751  -0.955  0.00  0.00     0.034 A 
ATOM      4  C3  UNL d   1       0.610  -0.604  -1.285  0.00  0.00     0.017 A 
ATOM      5  C4  UNL d   1       1.155  -0.972  -2.521  0.00  0.00     0.017 A 
ATOM      6  C5  UNL d   1       1.575   0.016  -3.417  0.00  0.00     0.034 A 
ATOM      7 Cl   UNL d   1       1.337  -2.623  -2.999  0.00  0.00    -0.070 Cl
ATOM      8 Cl1  UNL d   1       0.070  -1.765  -0.125  0.00  0.00    -0.070 Cl
ENDROOT
TORSDOF 0
ENDMDL
