MODEL 1
REMARK minimizedAffinity 3.35397005
REMARK minimizedRMSD -1
REMARK  0 active torsions:
REMARK  status: ('A' for Active; 'I' for Inactive)
ROOT
ATOM      1  C   UNL d   1      -5.168   5.054   6.000  0.00  0.00     0.020 A 
ATOM      2  C1  UNL d   1      -4.835   5.999   5.031  0.00  0.00     0.020 A 
ATOM      3  C2  UNL d   1      -3.958   5.661   3.998  0.00  0.00     0.034 A 
ATOM      4  C3  UNL d   1      -3.411   4.375   3.931  0.00  0.00     0.017 A 
ATOM      5  C4  UNL d   1      -3.745   3.427   4.905  0.00  0.00     0.017 A 
ATOM      6  C5  UNL d   1      -4.624   3.770   5.937  0.00  0.00     0.034 A 
ATOM      7 Cl   UNL d   1      -3.110   1.819   4.890  0.00  0.00    -0.070 Cl
ATOM      8 Cl1  UNL d   1      -2.334   4.026   2.626  0.00  0.00    -0.070 Cl
ENDROOT
TORSDOF 0
ENDMDL
