MODEL 1
REMARK minimizedAffinity 15.7646189
REMARK minimizedRMSD -1
REMARK  0 active torsions:
REMARK  status: ('A' for Active; 'I' for Inactive)
ROOT
ATOM      1  C   UNL d   1      -3.023  -0.743   2.591  0.00  0.00     0.124 A 
ATOM      2  C1  UNL d   1      -2.243  -1.333   1.606  0.00  0.00     0.062 A 
ATOM      3  C2  UNL d   1      -0.926  -0.925   1.419  0.00  0.00     0.162 A 
ATOM      4  C3  UNL d   1      -0.378   0.077   2.220  0.00  0.00    -0.034 A 
ATOM      5  C4  UNL d   1      -1.169   0.667   3.208  0.00  0.00     0.162 A 
ATOM      6  C5  UNL d   1      -2.486   0.256   3.391  0.00  0.00     0.062 A 
ATOM      7  F   UNL d   1      -3.237   0.828   4.343  0.00  0.00    -0.097 F 
ATOM      8  F1  UNL d   1      -0.675   1.633   3.995  0.00  0.00    -0.096 F 
ATOM      9  I   UNL d   1       1.592   0.689   1.943  0.00  0.00    -0.060 I 
ATOM     10  F2  UNL d   1      -0.195  -1.513   0.460  0.00  0.00    -0.096 F 
ATOM     11  F3  UNL d   1      -2.761  -2.297   0.832  0.00  0.00    -0.097 F 
ATOM     12  F4  UNL d   1      -4.291  -1.136   2.768  0.00  0.00    -0.092 F 
ENDROOT
TORSDOF 0
ENDMDL
