MODEL 1
REMARK minimizedAffinity 5.01955032
REMARK minimizedRMSD -1
REMARK  0 active torsions:
REMARK  status: ('A' for Active; 'I' for Inactive)
ROOT
ATOM      1  C   UNL d   1       1.036  -3.262  -0.348  0.00  0.00     0.124 A 
ATOM      2  C1  UNL d   1       0.871  -3.074   1.018  0.00  0.00     0.062 A 
ATOM      3  C2  UNL d   1      -0.321  -2.553   1.513  0.00  0.00     0.162 A 
ATOM      4  C3  UNL d   1      -1.358  -2.218   0.642  0.00  0.00    -0.034 A 
ATOM      5  C4  UNL d   1      -1.184  -2.409  -0.730  0.00  0.00     0.162 A 
ATOM      6  C5  UNL d   1       0.009  -2.930  -1.220  0.00  0.00     0.062 A 
ATOM      7  F   UNL d   1       0.168  -3.111  -2.539  0.00  0.00    -0.097 F 
ATOM      8  F1  UNL d   1      -2.160  -2.097  -1.595  0.00  0.00    -0.096 F 
ATOM      9  I   UNL d   1      -3.142  -1.439   1.378  0.00  0.00    -0.060 I 
ATOM     10  F2  UNL d   1      -0.454  -2.382   2.836  0.00  0.00    -0.096 F 
ATOM     11  F3  UNL d   1       1.862  -3.393   1.862  0.00  0.00    -0.097 F 
ATOM     12  F4  UNL d   1       2.185  -3.763  -0.821  0.00  0.00    -0.092 F 
ENDROOT
TORSDOF 0
ENDMDL
