MODEL 1
REMARK minimizedAffinity 15.1560516
REMARK minimizedRMSD -1
REMARK  0 active torsions:
REMARK  status: ('A' for Active; 'I' for Inactive)
ROOT
ATOM      1  C   UNL d   1      -4.827  -2.127   4.043  0.00  0.00     0.124 A 
ATOM      2  C1  UNL d   1      -4.799  -1.659   2.737  0.00  0.00     0.062 A 
ATOM      3  C2  UNL d   1      -3.582  -1.418   2.105  0.00  0.00     0.162 A 
ATOM      4  C3  UNL d   1      -2.382  -1.646   2.779  0.00  0.00    -0.034 A 
ATOM      5  C4  UNL d   1      -2.418  -2.115   4.094  0.00  0.00     0.162 A 
ATOM      6  C5  UNL d   1      -3.637  -2.354   4.720  0.00  0.00     0.062 A 
ATOM      7  F   UNL d   1      -3.662  -2.806   5.983  0.00  0.00    -0.097 F 
ATOM      8  F1  UNL d   1      -1.283  -2.345   4.771  0.00  0.00    -0.096 F 
ATOM      9  I   UNL d   1      -0.560  -1.287   1.839  0.00  0.00    -0.060 I 
ATOM     10  F2  UNL d   1      -3.585  -0.966   0.842  0.00  0.00    -0.096 F 
ATOM     11  F3  UNL d   1      -5.947  -1.437   2.081  0.00  0.00    -0.097 F 
ATOM     12  F4  UNL d   1      -5.999  -2.356   4.649  0.00  0.00    -0.092 F 
ENDROOT
TORSDOF 0
ENDMDL
