MODEL 1
REMARK minimizedAffinity 19.4596481
REMARK minimizedRMSD -1
REMARK  0 active torsions:
REMARK  status: ('A' for Active; 'I' for Inactive)
ROOT
ATOM      1  C   UNL d   1       3.072  -2.629   0.530  0.00  0.00     0.124 A 
ATOM      2  C1  UNL d   1       2.202  -3.268   1.403  0.00  0.00     0.062 A 
ATOM      3  C2  UNL d   1       1.010  -2.655   1.776  0.00  0.00     0.162 A 
ATOM      4  C3  UNL d   1       0.679  -1.395   1.277  0.00  0.00    -0.034 A 
ATOM      5  C4  UNL d   1       1.560  -0.758   0.400  0.00  0.00     0.162 A 
ATOM      6  C5  UNL d   1       2.750  -1.375   0.030  0.00  0.00     0.062 A 
ATOM      7  F   UNL d   1       3.590  -0.756  -0.813  0.00  0.00    -0.097 F 
ATOM      8  F1  UNL d   1       1.274   0.453  -0.099  0.00  0.00    -0.096 F 
ATOM      9  I   UNL d   1      -1.103  -0.475   1.833  0.00  0.00    -0.060 I 
ATOM     10  F2  UNL d   1       0.188  -3.296   2.621  0.00  0.00    -0.096 F 
ATOM     11  F3  UNL d   1       2.511  -4.479   1.888  0.00  0.00    -0.097 F 
ATOM     12  F4  UNL d   1       4.219  -3.221   0.173  0.00  0.00    -0.092 F 
ENDROOT
TORSDOF 0
ENDMDL
