MODEL 1
REMARK minimizedAffinity 16.7229195
REMARK minimizedRMSD -1
REMARK  0 active torsions:
REMARK  status: ('A' for Active; 'I' for Inactive)
ROOT
ATOM      1  C   UNL d   1      -2.676  -2.378   0.854  0.00  0.00     0.124 A 
ATOM      2  C1  UNL d   1      -1.773  -2.092   1.868  0.00  0.00     0.062 A 
ATOM      3  C2  UNL d   1      -1.180  -3.124   2.589  0.00  0.00     0.162 A 
ATOM      4  C3  UNL d   1      -1.488  -4.453   2.298  0.00  0.00    -0.034 A 
ATOM      5  C4  UNL d   1      -2.398  -4.733   1.277  0.00  0.00     0.162 A 
ATOM      6  C5  UNL d   1      -2.987  -3.698   0.559  0.00  0.00     0.062 A 
ATOM      7  F   UNL d   1      -3.860  -3.976  -0.421  0.00  0.00    -0.097 F 
ATOM      8  F1  UNL d   1      -2.716  -6.000   0.971  0.00  0.00    -0.096 F 
ATOM      9  I   UNL d   1      -0.603  -6.000   3.374  0.00  0.00    -0.060 I 
ATOM     10  F2  UNL d   1      -0.311  -2.818   3.564  0.00  0.00    -0.096 F 
ATOM     11  F3  UNL d   1      -1.471  -0.817   2.155  0.00  0.00    -0.097 F 
ATOM     12  F4  UNL d   1      -3.246  -1.383   0.162  0.00  0.00    -0.092 F 
ENDROOT
TORSDOF 0
ENDMDL
