MODEL 1
REMARK minimizedAffinity 20.2342091
REMARK minimizedRMSD -1
REMARK  0 active torsions:
REMARK  status: ('A' for Active; 'I' for Inactive)
ROOT
ATOM      1  C   UNL d   1       1.746  -1.585   0.644  0.00  0.00     0.124 A 
ATOM      2  C1  UNL d   1       1.473  -0.225   0.712  0.00  0.00     0.062 A 
ATOM      3  C2  UNL d   1       2.172   0.669  -0.094  0.00  0.00     0.162 A 
ATOM      4  C3  UNL d   1       3.149   0.207  -0.975  0.00  0.00    -0.034 A 
ATOM      5  C4  UNL d   1       3.418  -1.161  -1.037  0.00  0.00     0.162 A 
ATOM      6  C5  UNL d   1       2.717  -2.051  -0.229  0.00  0.00     0.062 A 
ATOM      7  F   UNL d   1       2.982  -3.364  -0.296  0.00  0.00    -0.097 F 
ATOM      8  F1  UNL d   1       4.352  -1.640  -1.873  0.00  0.00    -0.096 F 
ATOM      9  I   UNL d   1       4.196   1.541  -2.182  0.00  0.00    -0.060 I 
ATOM     10  F2  UNL d   1       1.888   1.977  -0.008  0.00  0.00    -0.096 F 
ATOM     11  F3  UNL d   1       0.535   0.228   1.556  0.00  0.00    -0.097 F 
ATOM     12  F4  UNL d   1       1.073  -2.443   1.421  0.00  0.00    -0.092 F 
ENDROOT
TORSDOF 0
ENDMDL
