MODEL 1
REMARK minimizedAffinity 28.6546001
REMARK minimizedRMSD -1
REMARK  0 active torsions:
REMARK  status: ('A' for Active; 'I' for Inactive)
ROOT
ATOM      1  C   UNL d   1       1.526  -2.922   1.878  0.00  0.00     0.124 A 
ATOM      2  C1  UNL d   1       2.635  -3.453   1.233  0.00  0.00     0.062 A 
ATOM      3  C2  UNL d   1       3.341  -2.688   0.310  0.00  0.00     0.162 A 
ATOM      4  C3  UNL d   1       2.942  -1.382   0.027  0.00  0.00    -0.034 A 
ATOM      5  C4  UNL d   1       1.826  -0.855   0.678  0.00  0.00     0.162 A 
ATOM      6  C5  UNL d   1       1.123  -1.624   1.600  0.00  0.00     0.062 A 
ATOM      7  F   UNL d   1       0.053  -1.108   2.222  0.00  0.00    -0.097 F 
ATOM      8  F1  UNL d   1       1.415   0.398   0.429  0.00  0.00    -0.096 F 
ATOM      9  I   UNL d   1       3.996  -0.234  -1.353  0.00  0.00    -0.060 I 
ATOM     10  F2  UNL d   1       4.409  -3.227  -0.298  0.00  0.00    -0.096 F 
ATOM     11  F3  UNL d   1       3.026  -4.708   1.500  0.00  0.00    -0.097 F 
ATOM     12  F4  UNL d   1       0.848  -3.661   2.765  0.00  0.00    -0.092 F 
ENDROOT
TORSDOF 0
ENDMDL
