MODEL 1
REMARK minimizedAffinity 20.366787
REMARK minimizedRMSD -1
REMARK  0 active torsions:
REMARK  status: ('A' for Active; 'I' for Inactive)
ROOT
ATOM      1  C   UNL d   1       1.085  -2.937   0.821  0.00  0.00     0.124 A 
ATOM      2  C1  UNL d   1       2.049  -2.963   1.819  0.00  0.00     0.062 A 
ATOM      3  C2  UNL d   1       1.863  -3.750   2.952  0.00  0.00     0.162 A 
ATOM      4  C3  UNL d   1       0.708  -4.519   3.092  0.00  0.00    -0.034 A 
ATOM      5  C4  UNL d   1      -0.258  -4.487   2.084  0.00  0.00     0.162 A 
ATOM      6  C5  UNL d   1      -0.067  -3.698   0.954  0.00  0.00     0.062 A 
ATOM      7  F   UNL d   1      -1.000  -3.674  -0.009  0.00  0.00    -0.097 F 
ATOM      8  F1  UNL d   1      -1.380  -5.214   2.187  0.00  0.00    -0.096 F 
ATOM      9  I   UNL d   1       0.425  -5.698   4.784  0.00  0.00    -0.060 I 
ATOM     10  F2  UNL d   1       2.811  -3.756   3.900  0.00  0.00    -0.096 F 
ATOM     11  F3  UNL d   1       3.163  -2.227   1.693  0.00  0.00    -0.097 F 
ATOM     12  F4  UNL d   1       1.267  -2.178  -0.267  0.00  0.00    -0.092 F 
ENDROOT
TORSDOF 0
ENDMDL
