MODEL 1
REMARK minimizedAffinity 3.91952968
REMARK minimizedRMSD -1
REMARK  0 active torsions:
REMARK  status: ('A' for Active; 'I' for Inactive)
ROOT
ATOM      1  C   UNL d   1      -3.348   0.284   3.242  0.00  0.00     0.124 A 
ATOM      2  C1  UNL d   1      -2.601   1.327   2.712  0.00  0.00     0.062 A 
ATOM      3  C2  UNL d   1      -2.888   1.819   1.442  0.00  0.00     0.162 A 
ATOM      4  C3  UNL d   1      -3.929   1.269   0.693  0.00  0.00    -0.034 A 
ATOM      5  C4  UNL d   1      -4.675   0.219   1.233  0.00  0.00     0.162 A 
ATOM      6  C5  UNL d   1      -4.384  -0.268   2.503  0.00  0.00     0.062 A 
ATOM      7  F   UNL d   1      -5.107  -1.276   3.013  0.00  0.00    -0.097 F 
ATOM      8  F1  UNL d   1      -5.682  -0.332   0.540  0.00  0.00    -0.096 F 
ATOM      9  I   UNL d   1      -4.361   2.001  -1.206  0.00  0.00    -0.060 I 
ATOM     10  F2  UNL d   1      -2.150   2.827   0.955  0.00  0.00    -0.096 F 
ATOM     11  F3  UNL d   1      -1.599   1.862   3.425  0.00  0.00    -0.097 F 
ATOM     12  F4  UNL d   1      -3.069  -0.187   4.464  0.00  0.00    -0.092 F 
ENDROOT
TORSDOF 0
ENDMDL
