MODEL 1
REMARK minimizedAffinity 7.4594245
REMARK minimizedRMSD -1
REMARK  0 active torsions:
REMARK  status: ('A' for Active; 'I' for Inactive)
ROOT
ATOM      1  C   UNL d   1       1.852  -4.003   0.311  0.00  0.00     0.124 A 
ATOM      2  C1  UNL d   1       2.823  -3.226  -0.307  0.00  0.00     0.062 A 
ATOM      3  C2  UNL d   1       2.830  -1.845  -0.133  0.00  0.00     0.162 A 
ATOM      4  C3  UNL d   1       1.862  -1.231   0.663  0.00  0.00    -0.034 A 
ATOM      5  C4  UNL d   1       0.889  -2.019   1.280  0.00  0.00     0.162 A 
ATOM      6  C5  UNL d   1       0.886  -3.399   1.103  0.00  0.00     0.062 A 
ATOM      7  F   UNL d   1      -0.052  -4.148   1.700  0.00  0.00    -0.097 F 
ATOM      8  F1  UNL d   1      -0.056  -1.462   2.052  0.00  0.00    -0.096 F 
ATOM      9  I   UNL d   1       1.868   0.833   0.926  0.00  0.00    -0.060 I 
ATOM     10  F2  UNL d   1       3.779  -1.119  -0.741  0.00  0.00    -0.096 F 
ATOM     11  F3  UNL d   1       3.757  -3.807  -1.073  0.00  0.00    -0.097 F 
ATOM     12  F4  UNL d   1       1.848  -5.331   0.141  0.00  0.00    -0.092 F 
ENDROOT
TORSDOF 0
ENDMDL
