MODEL 1
REMARK minimizedAffinity 19.5229492
REMARK minimizedRMSD -1
REMARK  0 active torsions:
REMARK  status: ('A' for Active; 'I' for Inactive)
ROOT
ATOM      1  C   UNL d   1       3.029  -3.145  -0.510  0.00  0.00     0.124 A 
ATOM      2  C1  UNL d   1       3.466  -1.916  -0.983  0.00  0.00     0.062 A 
ATOM      3  C2  UNL d   1       3.037  -0.739  -0.376  0.00  0.00     0.162 A 
ATOM      4  C3  UNL d   1       2.165  -0.786   0.712  0.00  0.00    -0.034 A 
ATOM      5  C4  UNL d   1       1.729  -2.026   1.181  0.00  0.00     0.162 A 
ATOM      6  C5  UNL d   1       2.161  -3.199   0.571  0.00  0.00     0.062 A 
ATOM      7  F   UNL d   1       1.736  -4.386   1.030  0.00  0.00    -0.097 F 
ATOM      8  F1  UNL d   1       0.890  -2.107   2.225  0.00  0.00    -0.096 F 
ATOM      9  I   UNL d   1       1.521   0.971   1.622  0.00  0.00    -0.060 I 
ATOM     10  F2  UNL d   1       3.476   0.434  -0.854  0.00  0.00    -0.096 F 
ATOM     11  F3  UNL d   1       4.304  -1.861  -2.028  0.00  0.00    -0.097 F 
ATOM     12  F4  UNL d   1       3.442  -4.276  -1.096  0.00  0.00    -0.092 F 
ENDROOT
TORSDOF 0
ENDMDL
