MODEL 1
REMARK minimizedAffinity 0.356363177
REMARK minimizedRMSD -1
REMARK  0 active torsions:
REMARK  status: ('A' for Active; 'I' for Inactive)
ROOT
ATOM      1  C   UNL d   1      -1.164   0.985   0.546  0.00  0.00     0.124 A 
ATOM      2  C1  UNL d   1      -1.823   1.749  -0.408  0.00  0.00     0.062 A 
ATOM      3  C2  UNL d   1      -3.203   1.917  -0.339  0.00  0.00     0.162 A 
ATOM      4  C3  UNL d   1      -3.934   1.320   0.687  0.00  0.00    -0.034 A 
ATOM      5  C4  UNL d   1      -3.265   0.551   1.642  0.00  0.00     0.162 A 
ATOM      6  C5  UNL d   1      -1.886   0.387   1.569  0.00  0.00     0.062 A 
ATOM      7  F   UNL d   1      -1.252  -0.353   2.491  0.00  0.00    -0.097 F 
ATOM      8  F1  UNL d   1      -3.938  -0.037   2.642  0.00  0.00    -0.096 F 
ATOM      9  I   UNL d   1      -5.998   1.568   0.793  0.00  0.00    -0.060 I 
ATOM     10  F2  UNL d   1      -3.812   2.661  -1.274  0.00  0.00    -0.096 F 
ATOM     11  F3  UNL d   1      -1.128   2.327  -1.398  0.00  0.00    -0.097 F 
ATOM     12  F4  UNL d   1       0.163   0.824   0.477  0.00  0.00    -0.092 F 
ENDROOT
TORSDOF 0
ENDMDL
