MODEL 1
REMARK minimizedAffinity 18.8710155
REMARK minimizedRMSD -1
REMARK  0 active torsions:
REMARK  status: ('A' for Active; 'I' for Inactive)
ROOT
ATOM      1  C   UNL d   1       1.189   0.636   1.819  0.00  0.00     0.124 A 
ATOM      2  C1  UNL d   1      -0.121   0.429   2.230  0.00  0.00     0.062 A 
ATOM      3  C2  UNL d   1      -0.785  -0.746   1.888  0.00  0.00     0.162 A 
ATOM      4  C3  UNL d   1      -0.140  -1.724   1.131  0.00  0.00    -0.034 A 
ATOM      5  C4  UNL d   1       1.177  -1.508   0.720  0.00  0.00     0.162 A 
ATOM      6  C5  UNL d   1       1.836  -0.333   1.065  0.00  0.00     0.062 A 
ATOM      7  F   UNL d   1       3.101  -0.135   0.667  0.00  0.00    -0.097 F 
ATOM      8  F1  UNL d   1       1.827  -2.428  -0.008  0.00  0.00    -0.096 F 
ATOM      9  I   UNL d   1      -1.129  -3.482   0.618  0.00  0.00    -0.060 I 
ATOM     10  F2  UNL d   1      -2.050  -0.919   2.299  0.00  0.00    -0.096 F 
ATOM     11  F3  UNL d   1      -0.749   1.363   2.958  0.00  0.00    -0.097 F 
ATOM     12  F4  UNL d   1       1.825   1.767   2.149  0.00  0.00    -0.092 F 
ENDROOT
TORSDOF 0
ENDMDL
