MODEL 1
REMARK minimizedAffinity -0.956730902
REMARK minimizedRMSD -1
REMARK  0 active torsions:
REMARK  status: ('A' for Active; 'I' for Inactive)
ROOT
ATOM      1  C   UNL d   1       1.025  -4.043  -1.476  0.00  0.00     0.124 A 
ATOM      2  C1  UNL d   1      -0.334  -4.074  -1.758  0.00  0.00     0.062 A 
ATOM      3  C2  UNL d   1      -1.227  -3.342  -0.982  0.00  0.00     0.162 A 
ATOM      4  C3  UNL d   1      -0.764  -2.570   0.085  0.00  0.00    -0.034 A 
ATOM      5  C4  UNL d   1       0.603  -2.545   0.363  0.00  0.00     0.162 A 
ATOM      6  C5  UNL d   1       1.492  -3.279  -0.416  0.00  0.00     0.062 A 
ATOM      7  F   UNL d   1       2.804  -3.247  -0.142  0.00  0.00    -0.097 F 
ATOM      8  F1  UNL d   1       1.082  -1.814   1.380  0.00  0.00    -0.096 F 
ATOM      9  I   UNL d   1      -2.097  -1.474   1.248  0.00  0.00    -0.060 I 
ATOM     10  F2  UNL d   1      -2.535  -3.391  -1.277  0.00  0.00    -0.096 F 
ATOM     11  F3  UNL d   1      -0.788  -4.813  -2.781  0.00  0.00    -0.097 F 
ATOM     12  F4  UNL d   1       1.882  -4.750  -2.224  0.00  0.00    -0.092 F 
ENDROOT
TORSDOF 0
ENDMDL
