MODEL 1
REMARK minimizedAffinity 7.27628756
REMARK minimizedRMSD -1
REMARK  0 active torsions:
REMARK  status: ('A' for Active; 'I' for Inactive)
ROOT
ATOM      1  C   UNL d   1      -3.727   1.833   1.540  0.00  0.00     0.124 A 
ATOM      2  C1  UNL d   1      -2.376   1.974   1.825  0.00  0.00     0.062 A 
ATOM      3  C2  UNL d   1      -1.541   0.860   1.825  0.00  0.00     0.162 A 
ATOM      4  C3  UNL d   1      -2.054  -0.405   1.540  0.00  0.00    -0.034 A 
ATOM      5  C4  UNL d   1      -3.415  -0.539   1.255  0.00  0.00     0.162 A 
ATOM      6  C5  UNL d   1      -4.245   0.577   1.256  0.00  0.00     0.062 A 
ATOM      7  F   UNL d   1      -5.550   0.439   0.980  0.00  0.00    -0.097 F 
ATOM      8  F1  UNL d   1      -3.941  -1.740   0.976  0.00  0.00    -0.096 F 
ATOM      9  I   UNL d   1      -0.809  -2.072   1.540  0.00  0.00    -0.060 I 
ATOM     10  F2  UNL d   1      -0.239   1.026   2.104  0.00  0.00    -0.096 F 
ATOM     11  F3  UNL d   1      -1.873   3.186   2.101  0.00  0.00    -0.097 F 
ATOM     12  F4  UNL d   1      -4.528   2.906   1.541  0.00  0.00    -0.092 F 
ENDROOT
TORSDOF 0
ENDMDL
