MODEL 1
REMARK minimizedAffinity 12.7014503
REMARK minimizedRMSD -1
REMARK  0 active torsions:
REMARK  status: ('A' for Active; 'I' for Inactive)
ROOT
ATOM      1  C   UNL d   1      -4.138   3.633  -5.742  0.00  0.00     0.124 A 
ATOM      2  C1  UNL d   1      -3.437   4.827  -5.842  0.00  0.00     0.062 A 
ATOM      3  C2  UNL d   1      -2.047   4.831  -5.779  0.00  0.00     0.162 A 
ATOM      4  C3  UNL d   1      -1.347   3.635  -5.616  0.00  0.00    -0.034 A 
ATOM      5  C4  UNL d   1      -2.059   2.438  -5.515  0.00  0.00     0.162 A 
ATOM      6  C5  UNL d   1      -3.448   2.440  -5.578  0.00  0.00     0.062 A 
ATOM      7  F   UNL d   1      -4.123   1.286  -5.481  0.00  0.00    -0.097 F 
ATOM      8  F1  UNL d   1      -1.417   1.271  -5.358  0.00  0.00    -0.096 F 
ATOM      9  I   UNL d   1       0.732   3.635  -5.521  0.00  0.00    -0.060 I 
ATOM     10  F2  UNL d   1      -1.396   5.999  -5.878  0.00  0.00    -0.096 F 
ATOM     11  F3  UNL d   1      -4.101   5.982  -5.999  0.00  0.00    -0.097 F 
ATOM     12  F4  UNL d   1      -5.476   3.633  -5.801  0.00  0.00    -0.092 F 
ENDROOT
TORSDOF 0
ENDMDL
