MODEL 1
REMARK minimizedAffinity 6.41809177
REMARK minimizedRMSD -1
REMARK  2 active torsions:
REMARK  status: ('A' for Active; 'I' for Inactive)
REMARK    1  A    between atoms: C2'_3  and  C1'_4 
REMARK    2  A    between atoms: C1'_4  and  C1_5 
ROOT
ATOM      1  C1  I4B d   1       3.447   3.644  -4.597  0.00  0.00    -0.075 A 
ATOM      2  C2  I4B d   1       4.466   4.536  -4.823  0.00  0.00     0.003 A 
ATOM      3  C3  I4B d   1       4.213   5.747  -5.512  0.00  0.00     0.002 A 
ATOM      4  C4  I4B d   1       2.947   5.999  -6.000  0.00  0.00    -0.004 A 
ATOM      5  C5  I4B d   1       1.911   5.104  -5.750  0.00  0.00     0.002 A 
ATOM      6  C6  I4B d   1       2.159   3.925  -5.034  0.00  0.00     0.003 A 
ENDROOT
BRANCH   1   7
ATOM      7  C1' I4B d   1       3.757   2.360  -3.894  0.00  0.00     0.060 C 
BRANCH   7   8
ATOM      8  C2' I4B d   1       5.221   2.382  -3.505  0.00  0.00    -0.013 C 
ATOM      9  C4' I4B d   1       5.391   2.231  -2.016  0.00  0.00     0.013 C 
ATOM     10  C3' I4B d   1       5.913   1.275  -4.244  0.00  0.00     0.013 C 
ENDBRANCH   7   8
ENDBRANCH   1   7
TORSDOF 2
ENDMDL
