MODEL 1
REMARK minimizedAffinity 5.71824503
REMARK minimizedRMSD -1
REMARK  2 active torsions:
REMARK  status: ('A' for Active; 'I' for Inactive)
REMARK    1  A    between atoms: C2'_3  and  C1'_4 
REMARK    2  A    between atoms: C1'_4  and  C1_5 
ROOT
ATOM      1  C1  I4B d   1       2.883   2.823   0.979  0.00  0.00    -0.075 A 
ATOM      2  C2  I4B d   1       4.123   2.398   0.572  0.00  0.00     0.003 A 
ATOM      3  C3  I4B d   1       4.403   1.014   0.464  0.00  0.00     0.002 A 
ATOM      4  C4  I4B d   1       3.436   0.096   0.820  0.00  0.00    -0.004 A 
ATOM      5  C5  I4B d   1       2.172   0.528   1.211  0.00  0.00     0.002 A 
ATOM      6  C6  I4B d   1       1.890   1.900   1.279  0.00  0.00     0.003 A 
ENDROOT
BRANCH   1   7
ATOM      7  C1' I4B d   1       2.633   4.291   1.114  0.00  0.00     0.060 C 
BRANCH   7   8
ATOM      8  C2' I4B d   1       3.973   4.983   1.255  0.00  0.00    -0.013 C 
ATOM      9  C4' I4B d   1       4.197   5.971   0.141  0.00  0.00     0.013 C 
ATOM     10  C3' I4B d   1       4.007   5.659   2.593  0.00  0.00     0.013 C 
ENDBRANCH   7   8
ENDBRANCH   1   7
TORSDOF 2
ENDMDL
