MODEL 1
REMARK minimizedAffinity 5.65190744
REMARK minimizedRMSD -1
REMARK  2 active torsions:
REMARK  status: ('A' for Active; 'I' for Inactive)
REMARK    1  A    between atoms: C2'_3  and  C1'_4 
REMARK    2  A    between atoms: C1'_4  and  C1_5 
ROOT
ATOM      1  C1  I4B d   1       3.850   3.437  -4.990  0.00  0.00    -0.075 A 
ATOM      2  C2  I4B d   1       4.876   4.176  -5.524  0.00  0.00     0.003 A 
ATOM      3  C3  I4B d   1       4.637   5.489  -5.999  0.00  0.00     0.002 A 
ATOM      4  C4  I4B d   1       3.355   6.000  -5.968  0.00  0.00    -0.004 A 
ATOM      5  C5  I4B d   1       2.321   5.257  -5.405  0.00  0.00     0.002 A 
ATOM      6  C6  I4B d   1       2.572   3.973  -4.902  0.00  0.00     0.003 A 
ENDROOT
BRANCH   1   7
ATOM      7  C1' I4B d   1       4.132   2.042  -4.528  0.00  0.00     0.060 C 
BRANCH   7   8
ATOM      8  C2' I4B d   1       4.087   2.034  -3.014  0.00  0.00    -0.013 C 
ATOM      9  C4' I4B d   1       5.188   1.182  -2.440  0.00  0.00     0.013 C 
ATOM     10  C3' I4B d   1       4.197   3.453  -2.540  0.00  0.00     0.013 C 
ENDBRANCH   7   8
ENDBRANCH   1   7
TORSDOF 2
ENDMDL
