MODEL 1
REMARK minimizedAffinity 3.38172579
REMARK minimizedRMSD -1
REMARK  2 active torsions:
REMARK  status: ('A' for Active; 'I' for Inactive)
REMARK    1  A    between atoms: C2'_3  and  C1'_4 
REMARK    2  A    between atoms: C1'_4  and  C1_5 
ROOT
ATOM      1  C1  I4B d   1       3.451   3.511  -4.134  0.00  0.00    -0.075 A 
ATOM      2  C2  I4B d   1       4.503   4.341  -4.432  0.00  0.00     0.003 A 
ATOM      3  C3  I4B d   1       4.266   5.617  -4.998  0.00  0.00     0.002 A 
ATOM      4  C4  I4B d   1       2.973   6.000  -5.292  0.00  0.00    -0.004 A 
ATOM      5  C5  I4B d   1       1.906   5.167  -4.968  0.00  0.00     0.002 A 
ATOM      6  C6  I4B d   1       2.146   3.919  -4.373  0.00  0.00     0.003 A 
ENDROOT
BRANCH   1   7
ATOM      7  C1' I4B d   1       3.740   2.157  -3.568  0.00  0.00     0.060 C 
BRANCH   7   8
ATOM      8  C2' I4B d   1       4.307   2.344  -2.175  0.00  0.00    -0.013 C 
ATOM      9  C4' I4B d   1       3.569   1.500  -1.169  0.00  0.00     0.013 C 
ATOM     10  C3' I4B d   1       5.763   1.988  -2.216  0.00  0.00     0.013 C 
ENDBRANCH   7   8
ENDBRANCH   1   7
TORSDOF 2
ENDMDL
