MODEL 1
REMARK minimizedAffinity 9.69690228
REMARK minimizedRMSD -1
REMARK  2 active torsions:
REMARK  status: ('A' for Active; 'I' for Inactive)
REMARK    1  A    between atoms: C2'_3  and  C1'_4 
REMARK    2  A    between atoms: C1'_4  and  C1_5 
ROOT
ATOM      1  C1  I4B d   1       3.348   3.556  -3.441  0.00  0.00    -0.075 A 
ATOM      2  C2  I4B d   1       3.684   2.663  -4.428  0.00  0.00     0.003 A 
ATOM      3  C3  I4B d   1       4.157   1.372  -4.091  0.00  0.00     0.002 A 
ATOM      4  C4  I4B d   1       4.325   1.035  -2.764  0.00  0.00    -0.004 A 
ATOM      5  C5  I4B d   1       3.963   1.932  -1.764  0.00  0.00     0.002 A 
ATOM      6  C6  I4B d   1       3.460   3.197  -2.104  0.00  0.00     0.003 A 
ENDROOT
BRANCH   1   7
ATOM      7  C1' I4B d   1       2.884   4.923  -3.832  0.00  0.00     0.060 C 
BRANCH   7   8
ATOM      8  C2' I4B d   1       3.239   5.138  -5.289  0.00  0.00    -0.013 C 
ATOM      9  C4' I4B d   1       2.173   5.929  -5.999  0.00  0.00     0.013 C 
ATOM     10  C3' I4B d   1       4.563   5.841  -5.343  0.00  0.00     0.013 C 
ENDBRANCH   7   8
ENDBRANCH   1   7
TORSDOF 2
ENDMDL
