MODEL 1
REMARK minimizedAffinity 7.86152935
REMARK minimizedRMSD -1
REMARK  2 active torsions:
REMARK  status: ('A' for Active; 'I' for Inactive)
REMARK    1  A    between atoms: C2'_3  and  C1'_4 
REMARK    2  A    between atoms: C1'_4  and  C1_5 
ROOT
ATOM      1  C1  I4B d   1       4.054   3.840  -4.091  0.00  0.00    -0.075 A 
ATOM      2  C2  I4B d   1       2.823   3.574  -4.636  0.00  0.00     0.003 A 
ATOM      3  C3  I4B d   1       2.430   2.238  -4.892  0.00  0.00     0.002 A 
ATOM      4  C4  I4B d   1       3.313   1.209  -4.637  0.00  0.00    -0.004 A 
ATOM      5  C5  I4B d   1       4.552   1.479  -4.063  0.00  0.00     0.002 A 
ATOM      6  C6  I4B d   1       4.921   2.802  -3.777  0.00  0.00     0.003 A 
ENDROOT
BRANCH   1   7
ATOM      7  C1' I4B d   1       4.449   5.265  -3.865  0.00  0.00     0.060 C 
BRANCH   7   8
ATOM      8  C2' I4B d   1       4.448   5.969  -5.206  0.00  0.00    -0.013 C 
ATOM      9  C4' I4B d   1       5.742   5.741  -5.943  0.00  0.00     0.013 C 
ATOM     10  C3' I4B d   1       3.279   5.459  -5.995  0.00  0.00     0.013 C 
ENDBRANCH   7   8
ENDBRANCH   1   7
TORSDOF 2
ENDMDL
