MODEL 1
REMARK minimizedAffinity 0.821715891
REMARK minimizedRMSD -1
REMARK  2 active torsions:
REMARK  status: ('A' for Active; 'I' for Inactive)
REMARK    1  A    between atoms: C2'_3  and  C1'_4 
REMARK    2  A    between atoms: C1'_4  and  C1_5 
ROOT
ATOM      1  C1  I4B d   1      -1.841   1.588   2.735  0.00  0.00    -0.075 A 
ATOM      2  C2  I4B d   1      -2.839   2.242   3.414  0.00  0.00     0.003 A 
ATOM      3  C3  I4B d   1      -3.972   1.529   3.876  0.00  0.00     0.002 A 
ATOM      4  C4  I4B d   1      -4.089   0.183   3.595  0.00  0.00    -0.004 A 
ATOM      5  C5  I4B d   1      -3.065  -0.483   2.927  0.00  0.00     0.002 A 
ATOM      6  C6  I4B d   1      -1.928   0.222   2.505  0.00  0.00     0.003 A 
ENDROOT
BRANCH   1   7
ATOM      7  C1' I4B d   1      -0.674   2.379   2.233  0.00  0.00     0.060 C 
BRANCH   7   8
ATOM      8  C2' I4B d   1       0.446   1.408   1.918  0.00  0.00    -0.013 C 
ATOM      9  C4' I4B d   1       1.551   2.083   1.149  0.00  0.00     0.013 C 
ATOM     10  C3' I4B d   1       0.951   0.848   3.214  0.00  0.00     0.013 C 
ENDBRANCH   7   8
ENDBRANCH   1   7
TORSDOF 2
ENDMDL
