MODEL 1
REMARK minimizedAffinity 7.66090012
REMARK minimizedRMSD -1
REMARK  2 active torsions:
REMARK  status: ('A' for Active; 'I' for Inactive)
REMARK    1  A    between atoms: C2'_3  and  C1'_4 
REMARK    2  A    between atoms: C1'_4  and  C1_5 
ROOT
ATOM      1  C1  I4B d   1       4.532   2.172   1.484  0.00  0.00    -0.075 A 
ATOM      2  C2  I4B d   1       5.308   3.292   1.650  0.00  0.00     0.003 A 
ATOM      3  C3  I4B d   1       4.780   4.574   1.364  0.00  0.00     0.002 A 
ATOM      4  C4  I4B d   1       3.497   4.685   0.868  0.00  0.00    -0.004 A 
ATOM      5  C5  I4B d   1       2.704   3.551   0.721  0.00  0.00     0.002 A 
ATOM      6  C6  I4B d   1       3.220   2.287   1.042  0.00  0.00     0.003 A 
ENDROOT
BRANCH   1   7
ATOM      7  C1' I4B d   1       5.132   0.831   1.765  0.00  0.00     0.060 C 
BRANCH   7   8
ATOM      8  C2' I4B d   1       4.050  -0.213   1.577  0.00  0.00    -0.013 C 
ATOM      9  C4' I4B d   1       4.406  -1.174   0.473  0.00  0.00     0.013 C 
ATOM     10  C3' I4B d   1       3.867  -0.931   2.881  0.00  0.00     0.013 C 
ENDBRANCH   7   8
ENDBRANCH   1   7
TORSDOF 2
ENDMDL
