MODEL 1
REMARK minimizedAffinity 6.40256405
REMARK minimizedRMSD -1
REMARK  2 active torsions:
REMARK  status: ('A' for Active; 'I' for Inactive)
REMARK    1  A    between atoms: C2'_3  and  C1'_4 
REMARK    2  A    between atoms: C1'_4  and  C1_5 
ROOT
ATOM      1  C1  I4B d   1      -1.885  -2.171   0.912  0.00  0.00    -0.075 A 
ATOM      2  C2  I4B d   1      -1.128  -3.263   0.569  0.00  0.00     0.003 A 
ATOM      3  C3  I4B d   1      -1.563  -4.139  -0.455  0.00  0.00     0.002 A 
ATOM      4  C4  I4B d   1      -2.777  -3.915  -1.070  0.00  0.00    -0.004 A 
ATOM      5  C5  I4B d   1      -3.533  -2.795  -0.737  0.00  0.00     0.002 A 
ATOM      6  C6  I4B d   1      -3.079  -1.910   0.252  0.00  0.00     0.003 A 
ENDROOT
BRANCH   1   7
ATOM      7  C1' I4B d   1      -1.412  -1.285   2.020  0.00  0.00     0.060 C 
BRANCH   7   8
ATOM      8  C2' I4B d   1      -2.527  -0.314   2.351  0.00  0.00    -0.013 C 
ATOM      9  C4' I4B d   1      -3.378  -0.826   3.483  0.00  0.00     0.013 C 
ATOM     10  C3' I4B d   1      -1.905   1.006   2.695  0.00  0.00     0.013 C 
ENDBRANCH   7   8
ENDBRANCH   1   7
TORSDOF 2
ENDMDL
