MODEL 1
REMARK minimizedAffinity 7.54487181
REMARK minimizedRMSD -1
REMARK  2 active torsions:
REMARK  status: ('A' for Active; 'I' for Inactive)
REMARK    1  A    between atoms: C2'_3  and  C1'_4 
REMARK    2  A    between atoms: C1'_4  and  C1_5 
ROOT
ATOM      1  C1  I4B d   1      -3.213   1.987   3.305  0.00  0.00    -0.075 A 
ATOM      2  C2  I4B d   1      -2.313   2.963   2.953  0.00  0.00     0.003 A 
ATOM      3  C3  I4B d   1      -1.051   2.609   2.418  0.00  0.00     0.002 A 
ATOM      4  C4  I4B d   1      -0.712   1.277   2.299  0.00  0.00    -0.004 A 
ATOM      5  C5  I4B d   1      -1.634   0.289   2.635  0.00  0.00     0.002 A 
ATOM      6  C6  I4B d   1      -2.897   0.646   3.129  0.00  0.00     0.003 A 
ENDROOT
BRANCH   1   7
ATOM      7  C1' I4B d   1      -4.524   2.395   3.898  0.00  0.00     0.060 C 
BRANCH   7   8
ATOM      8  C2' I4B d   1      -4.348   2.488   5.400  0.00  0.00    -0.013 C 
ATOM      9  C4' I4B d   1      -5.300   3.489   6.000  0.00  0.00     0.013 C 
ATOM     10  C3' I4B d   1      -4.566   1.121   5.977  0.00  0.00     0.013 C 
ENDBRANCH   7   8
ENDBRANCH   1   7
TORSDOF 2
ENDMDL
