MODEL 1
REMARK minimizedAffinity 4.46094131
REMARK minimizedRMSD -1
REMARK  2 active torsions:
REMARK  status: ('A' for Active; 'I' for Inactive)
REMARK    1  A    between atoms: C2'_3  and  C1'_4 
REMARK    2  A    between atoms: C1'_4  and  C1_5 
ROOT
ATOM      1  C1  I4B d   1      -2.901   1.820   3.070  0.00  0.00    -0.075 A 
ATOM      2  C2  I4B d   1      -1.683   1.753   3.700  0.00  0.00     0.003 A 
ATOM      3  C3  I4B d   1      -0.509   2.169   3.026  0.00  0.00     0.002 A 
ATOM      4  C4  I4B d   1      -0.592   2.595   1.716  0.00  0.00    -0.004 A 
ATOM      5  C5  I4B d   1      -1.830   2.684   1.088  0.00  0.00     0.002 A 
ATOM      6  C6  I4B d   1      -2.994   2.306   1.773  0.00  0.00     0.003 A 
ENDROOT
BRANCH   1   7
ATOM      7  C1' I4B d   1      -4.116   1.342   3.799  0.00  0.00     0.060 C 
BRANCH   7   8
ATOM      8  C2' I4B d   1      -4.417   2.332   4.906  0.00  0.00    -0.013 C 
ATOM      9  C4' I4B d   1      -5.236   3.489   4.394  0.00  0.00     0.013 C 
ATOM     10  C3' I4B d   1      -5.137   1.601   5.999  0.00  0.00     0.013 C 
ENDBRANCH   7   8
ENDBRANCH   1   7
TORSDOF 2
ENDMDL
