MODEL 1
REMARK minimizedAffinity 7.36191368
REMARK minimizedRMSD -1
REMARK  2 active torsions:
REMARK  status: ('A' for Active; 'I' for Inactive)
REMARK    1  A    between atoms: C2'_3  and  C1'_4 
REMARK    2  A    between atoms: C1'_4  and  C1_5 
ROOT
ATOM      1  C1  I4B d   1      -3.499   2.296   3.314  0.00  0.00    -0.075 A 
ATOM      2  C2  I4B d   1      -2.820   3.367   2.788  0.00  0.00     0.003 A 
ATOM      3  C3  I4B d   1      -1.525   3.192   2.242  0.00  0.00     0.002 A 
ATOM      4  C4  I4B d   1      -0.930   1.947   2.290  0.00  0.00    -0.004 A 
ATOM      5  C5  I4B d   1      -1.629   0.858   2.803  0.00  0.00     0.002 A 
ATOM      6  C6  I4B d   1      -2.926   1.031   3.307  0.00  0.00     0.003 A 
ENDROOT
BRANCH   1   7
ATOM      7  C1' I4B d   1      -4.851   2.523   3.911  0.00  0.00     0.060 C 
BRANCH   7   8
ATOM      8  C2' I4B d   1      -4.686   2.630   5.414  0.00  0.00    -0.013 C 
ATOM      9  C4' I4B d   1      -5.655   3.623   5.999  0.00  0.00     0.013 C 
ATOM     10  C3' I4B d   1      -4.889   1.265   6.000  0.00  0.00     0.013 C 
ENDBRANCH   7   8
ENDBRANCH   1   7
TORSDOF 2
ENDMDL
