MODEL 1
REMARK minimizedAffinity -3.84133649
REMARK minimizedRMSD -1
REMARK  1 active torsions:
REMARK  status: ('A' for Active; 'I' for Inactive)
REMARK    1  A    between atoms: C1_2  and  C2_3 
ROOT
ATOM      1  C2  UNL d   1      -0.363   0.737   0.703  0.00  0.00    -0.076 A 
ATOM      2  C3  UNL d   1      -0.003   1.445  -0.457  0.00  0.00     0.004 A 
ATOM      3  C4  UNL d   1       0.805   0.863  -1.431  0.00  0.00    -0.003 A 
ATOM      4  C5  UNL d   1       1.266  -0.439  -1.262  0.00  0.00     0.000 A 
ATOM      5  C6  UNL d   1       0.904  -1.162  -0.127  0.00  0.00     0.000 A 
ATOM      6  C7  UNL d   1       0.077  -0.595   0.858  0.00  0.00    -0.073 A 
ATOM      7  C8  UNL d   1      -0.277  -1.419   2.065  0.00  0.00     0.078 C 
ENDROOT
BRANCH   1   8
ATOM      8  C1  UNL d   1      -1.219   1.430   1.739  0.00  0.00     0.053 C 
ATOM      9  C   UNL d   1      -2.380   2.193   1.119  0.00  0.00     0.018 C 
ENDBRANCH   1   8
TORSDOF 1
ENDMDL
