MODEL 1
REMARK minimizedAffinity -3.43902302
REMARK minimizedRMSD -1
REMARK  1 active torsions:
REMARK  status: ('A' for Active; 'I' for Inactive)
REMARK    1  A    between atoms: C1_2  and  C2_3 
ROOT
ATOM      1  C2  UNL d   1      -0.973   0.618   0.483  0.00  0.00    -0.076 A 
ATOM      2  C3  UNL d   1      -0.686  -0.598   1.126  0.00  0.00     0.004 A 
ATOM      3  C4  UNL d   1       0.259  -1.480   0.604  0.00  0.00    -0.003 A 
ATOM      4  C5  UNL d   1       0.934  -1.159  -0.569  0.00  0.00     0.000 A 
ATOM      5  C6  UNL d   1       0.674   0.052  -1.211  0.00  0.00     0.000 A 
ATOM      6  C7  UNL d   1      -0.264   0.959  -0.689  0.00  0.00    -0.073 A 
ATOM      7  C8  UNL d   1      -0.509   2.247  -1.426  0.00  0.00     0.078 C 
ENDROOT
BRANCH   1   8
ATOM      8  C1  UNL d   1      -2.028   1.522   1.080  0.00  0.00     0.053 C 
ATOM      9  C   UNL d   1      -1.659   2.006   2.474  0.00  0.00     0.018 C 
ENDBRANCH   1   8
TORSDOF 1
ENDMDL
