MODEL 1
REMARK minimizedAffinity -4.15620279
REMARK minimizedRMSD -1
REMARK  1 active torsions:
REMARK  status: ('A' for Active; 'I' for Inactive)
REMARK    1  A    between atoms: C1_2  and  C2_3 
ROOT
ATOM      1  C2  UNL d   1       0.265   0.295   0.421  0.00  0.00    -0.076 A 
ATOM      2  C3  UNL d   1      -0.103  -0.427   1.569  0.00  0.00     0.004 A 
ATOM      3  C4  UNL d   1      -0.983   0.113   2.506  0.00  0.00    -0.003 A 
ATOM      4  C5  UNL d   1      -1.510   1.385   2.308  0.00  0.00     0.000 A 
ATOM      5  C6  UNL d   1      -1.169   2.109   1.166  0.00  0.00     0.000 A 
ATOM      6  C7  UNL d   1      -0.296   1.572   0.205  0.00  0.00    -0.073 A 
ATOM      7  C8  UNL d   1       0.042   2.399  -1.006  0.00  0.00     0.078 C 
ENDROOT
BRANCH   1   8
ATOM      8  C1  UNL d   1       1.245  -0.331  -0.545  0.00  0.00     0.053 C 
ATOM      9  C   UNL d   1       0.903  -1.778  -0.865  0.00  0.00     0.018 C 
ENDBRANCH   1   8
TORSDOF 1
ENDMDL
