MODEL 1
REMARK minimizedAffinity 0.763799608
REMARK minimizedRMSD -1
REMARK  1 active torsions:
REMARK  status: ('A' for Active; 'I' for Inactive)
REMARK    1  A    between atoms: C1_2  and  C2_3 
ROOT
ATOM      1  C2  UNL d   1      -0.248   0.997   1.329  0.00  0.00    -0.076 A 
ATOM      2  C3  UNL d   1       0.376  -0.119   1.912  0.00  0.00     0.004 A 
ATOM      3  C4  UNL d   1       0.880  -1.153   1.125  0.00  0.00    -0.003 A 
ATOM      4  C5  UNL d   1       0.768  -1.087  -0.260  0.00  0.00     0.000 A 
ATOM      5  C6  UNL d   1       0.167   0.021  -0.857  0.00  0.00     0.000 A 
ATOM      6  C7  UNL d   1      -0.331   1.079  -0.078  0.00  0.00    -0.073 A 
ATOM      7  C8  UNL d   1      -0.974   2.247  -0.774  0.00  0.00     0.078 C 
ENDROOT
BRANCH   1   8
ATOM      8  C1  UNL d   1      -0.799   2.075   2.235  0.00  0.00     0.053 C 
ATOM      9  C   UNL d   1       0.087   2.328   3.444  0.00  0.00     0.018 C 
ENDBRANCH   1   8
TORSDOF 1
ENDMDL
