MODEL 1
REMARK minimizedAffinity -4.23039293
REMARK minimizedRMSD -1
REMARK  1 active torsions:
REMARK  status: ('A' for Active; 'I' for Inactive)
REMARK    1  A    between atoms: C1_2  and  C2_3 
ROOT
ATOM      1  C2  UNL d   1       0.023  -0.026  -0.139  0.00  0.00    -0.076 A 
ATOM      2  C3  UNL d   1      -0.701   0.904  -0.905  0.00  0.00     0.004 A 
ATOM      3  C4  UNL d   1      -1.570   1.811  -0.300  0.00  0.00    -0.003 A 
ATOM      4  C5  UNL d   1      -1.728   1.804   1.081  0.00  0.00     0.000 A 
ATOM      5  C6  UNL d   1      -1.004   0.900   1.859  0.00  0.00     0.000 A 
ATOM      6  C7  UNL d   1      -0.112  -0.010   1.266  0.00  0.00    -0.073 A 
ATOM      7  C8  UNL d   1       0.638  -0.967   2.152  0.00  0.00     0.078 C 
ENDROOT
BRANCH   1   8
ATOM      8  C1  UNL d   1       0.929  -1.003  -0.853  0.00  0.00     0.053 C 
ATOM      9  C   UNL d   1       0.166  -1.932  -1.784  0.00  0.00     0.018 C 
ENDBRANCH   1   8
TORSDOF 1
ENDMDL
