MODEL 1
REMARK minimizedAffinity -0.617263734
REMARK minimizedRMSD -1
REMARK  1 active torsions:
REMARK  status: ('A' for Active; 'I' for Inactive)
REMARK    1  A    between atoms: C1_2  and  C2_3 
ROOT
ATOM      1  C2  UNL d   1      -0.745   0.869  -0.096  0.00  0.00    -0.076 A 
ATOM      2  C3  UNL d   1      -0.579  -0.418   0.445  0.00  0.00     0.004 A 
ATOM      3  C4  UNL d   1       0.457  -1.247   0.019  0.00  0.00    -0.003 A 
ATOM      4  C5  UNL d   1       1.345  -0.802  -0.954  0.00  0.00     0.000 A 
ATOM      5  C6  UNL d   1       1.206   0.479  -1.488  0.00  0.00     0.000 A 
ATOM      6  C7  UNL d   1       0.176   1.333  -1.059  0.00  0.00    -0.073 A 
ATOM      7  C8  UNL d   1       0.070   2.702  -1.674  0.00  0.00     0.078 C 
ENDROOT
BRANCH   1   8
ATOM      8  C1  UNL d   1      -1.904   1.713   0.385  0.00  0.00     0.053 C 
ATOM      9  C   UNL d   1      -1.584   2.468   1.666  0.00  0.00     0.018 C 
ENDBRANCH   1   8
TORSDOF 1
ENDMDL
