MODEL 1
REMARK minimizedAffinity -4.31990957
REMARK minimizedRMSD -1
REMARK  1 active torsions:
REMARK  status: ('A' for Active; 'I' for Inactive)
REMARK    1  A    between atoms: C1_2  and  C2_3 
ROOT
ATOM      1  C2  UNL d   1      -1.144   0.653   0.303  0.00  0.00    -0.076 A 
ATOM      2  C3  UNL d   1      -0.880   1.245  -0.945  0.00  0.00     0.004 A 
ATOM      3  C4  UNL d   1       0.258   0.905  -1.674  0.00  0.00    -0.003 A 
ATOM      4  C5  UNL d   1       1.151  -0.033  -1.169  0.00  0.00     0.000 A 
ATOM      5  C6  UNL d   1       0.896  -0.644   0.059  0.00  0.00     0.000 A 
ATOM      6  C7  UNL d   1      -0.255  -0.324   0.800  0.00  0.00    -0.073 A 
ATOM      7  C8  UNL d   1      -0.476  -1.009   2.120  0.00  0.00     0.078 C 
ENDROOT
BRANCH   1   8
ATOM      8  C1  UNL d   1      -2.380   1.081   1.061  0.00  0.00     0.053 C 
ATOM      9  C   UNL d   1      -2.058   2.008   2.223  0.00  0.00     0.018 C 
ENDBRANCH   1   8
TORSDOF 1
ENDMDL
