MODEL 1
REMARK minimizedAffinity -4.96545744
REMARK minimizedRMSD -1
REMARK  1 active torsions:
REMARK  status: ('A' for Active; 'I' for Inactive)
REMARK    1  A    between atoms: C1_2  and  C2_3 
ROOT
ATOM      1  C2  UNL d   1       0.015   0.464   0.072  0.00  0.00    -0.076 A 
ATOM      2  C3  UNL d   1      -0.454   1.520  -0.728  0.00  0.00     0.004 A 
ATOM      3  C4  UNL d   1      -1.388   2.431  -0.238  0.00  0.00    -0.003 A 
ATOM      4  C5  UNL d   1      -1.869   2.300   1.060  0.00  0.00     0.000 A 
ATOM      5  C6  UNL d   1      -1.402   1.269   1.874  0.00  0.00     0.000 A 
ATOM      6  C7  UNL d   1      -0.448   0.351   1.401  0.00  0.00    -0.073 A 
ATOM      7  C8  UNL d   1       0.017  -0.745   2.320  0.00  0.00     0.078 C 
ENDROOT
BRANCH   1   8
ATOM      8  C1  UNL d   1       1.008  -0.509  -0.522  0.00  0.00     0.053 C 
ATOM      9  C   UNL d   1       0.332  -1.645  -1.274  0.00  0.00     0.018 C 
ENDBRANCH   1   8
TORSDOF 1
ENDMDL
