MODEL 1
REMARK minimizedAffinity -1.61923397
REMARK minimizedRMSD -1
REMARK  1 active torsions:
REMARK  status: ('A' for Active; 'I' for Inactive)
REMARK    1  A    between atoms: C1_2  and  C2_3 
ROOT
ATOM      1  C2  UNL d   1      -0.545   0.059   0.298  0.00  0.00    -0.076 A 
ATOM      2  C3  UNL d   1      -1.293   1.077  -0.319  0.00  0.00     0.004 A 
ATOM      3  C4  UNL d   1      -1.904   2.076   0.437  0.00  0.00    -0.003 A 
ATOM      4  C5  UNL d   1      -1.775   2.074   1.822  0.00  0.00     0.000 A 
ATOM      5  C6  UNL d   1      -1.022   1.082   2.449  0.00  0.00     0.000 A 
ATOM      6  C7  UNL d   1      -0.387   0.077   1.700  0.00  0.00    -0.073 A 
ATOM      7  C8  UNL d   1       0.408  -0.972   2.428  0.00  0.00     0.078 C 
ENDROOT
BRANCH   1   8
ATOM      8  C1  UNL d   1       0.072  -1.014  -0.571  0.00  0.00     0.053 C 
ATOM      9  C   UNL d   1       1.498  -0.682  -0.982  0.00  0.00     0.018 C 
ENDBRANCH   1   8
TORSDOF 1
ENDMDL
