MODEL 1
REMARK minimizedAffinity -1.11013198
REMARK minimizedRMSD -1
REMARK  1 active torsions:
REMARK  status: ('A' for Active; 'I' for Inactive)
REMARK    1  A    between atoms: C1_2  and  C2_3 
ROOT
ATOM      1  C2  UNL d   1       0.467  -0.054   0.102  0.00  0.00    -0.076 A 
ATOM      2  C3  UNL d   1      -0.104  -0.585   1.271  0.00  0.00     0.004 A 
ATOM      3  C4  UNL d   1      -0.844   0.218   2.137  0.00  0.00    -0.003 A 
ATOM      4  C5  UNL d   1      -1.027   1.566   1.847  0.00  0.00     0.000 A 
ATOM      5  C6  UNL d   1      -0.483   2.106   0.682  0.00  0.00     0.000 A 
ATOM      6  C7  UNL d   1       0.252   1.306  -0.210  0.00  0.00    -0.073 A 
ATOM      7  C8  UNL d   1       0.822   1.942  -1.449  0.00  0.00     0.078 C 
ENDROOT
BRANCH   1   8
ATOM      8  C1  UNL d   1       1.282  -0.967  -0.785  0.00  0.00     0.053 C 
ATOM      9  C   UNL d   1       0.429  -2.011  -1.488  0.00  0.00     0.018 C 
ENDBRANCH   1   8
TORSDOF 1
ENDMDL
