MODEL 1
REMARK minimizedAffinity -4.42025709
REMARK minimizedRMSD -1
REMARK  1 active torsions:
REMARK  status: ('A' for Active; 'I' for Inactive)
REMARK    1  A    between atoms: C1_2  and  C2_3 
ROOT
ATOM      1  C2  UNL d   1      -0.614  -0.210   0.901  0.00  0.00    -0.076 A 
ATOM      2  C3  UNL d   1      -1.178  -1.460   1.209  0.00  0.00     0.004 A 
ATOM      3  C4  UNL d   1      -0.871  -2.592   0.455  0.00  0.00    -0.003 A 
ATOM      4  C5  UNL d   1       0.006  -2.491  -0.620  0.00  0.00     0.000 A 
ATOM      5  C6  UNL d   1       0.588  -1.262  -0.929  0.00  0.00     0.000 A 
ATOM      6  C7  UNL d   1       0.302  -0.116  -0.169  0.00  0.00    -0.073 A 
ATOM      7  C8  UNL d   1       0.954   1.185  -0.551  0.00  0.00     0.078 C 
ENDROOT
BRANCH   1   8
ATOM      8  C1  UNL d   1      -1.006   0.987   1.737  0.00  0.00     0.053 C 
ATOM      9  C   UNL d   1      -2.203   1.730   1.166  0.00  0.00     0.018 C 
ENDBRANCH   1   8
TORSDOF 1
ENDMDL
