MODEL 1
REMARK minimizedAffinity 8.74499416
REMARK minimizedRMSD -1
REMARK  1 active torsions:
REMARK  status: ('A' for Active; 'I' for Inactive)
REMARK    1  A    between atoms: C1_2  and  C2_3 
ROOT
ATOM      1  C2  UNL d   1       2.858   2.096   1.859  0.00  0.00    -0.073 A 
ATOM      2  C3  UNL d   1       4.017   1.334   2.047  0.00  0.00    -0.002 A 
ATOM      3  C4  UNL d   1       5.180   1.929   2.538  0.00  0.00     0.004 A 
ATOM      4  C5  UNL d   1       5.194   3.288   2.853  0.00  0.00    -0.004 A 
ATOM      5  C6  UNL d   1       4.043   4.063   2.683  0.00  0.00    -0.075 A 
ATOM      6  C7  UNL d   1       4.042   5.527   3.015  0.00  0.00     0.076 C 
ATOM      7  C8  UNL d   1       2.880   3.459   2.187  0.00  0.00     0.001 A 
ENDROOT
BRANCH   1   8
ATOM      8  C1  UNL d   1       1.598   1.457   1.335  0.00  0.00     0.053 C 
ATOM      9  C   UNL d   1       1.894   0.347   0.339  0.00  0.00     0.018 C 
ENDBRANCH   1   8
TORSDOF 1
ENDMDL
