MODEL 1
REMARK minimizedAffinity 10.1528091
REMARK minimizedRMSD -1
REMARK  1 active torsions:
REMARK  status: ('A' for Active; 'I' for Inactive)
REMARK    1  A    between atoms: C1_2  and  C2_3 
ROOT
ATOM      1  C2  UNL d   1      -2.941  -2.177  -1.086  0.00  0.00    -0.073 A 
ATOM      2  C3  UNL d   1      -2.416  -1.356  -0.082  0.00  0.00    -0.002 A 
ATOM      3  C4  UNL d   1      -1.279  -1.748   0.626  0.00  0.00     0.004 A 
ATOM      4  C5  UNL d   1      -0.653  -2.960   0.333  0.00  0.00    -0.004 A 
ATOM      5  C6  UNL d   1      -1.156  -3.789  -0.674  0.00  0.00    -0.075 A 
ATOM      6  C7  UNL d   1      -0.496  -5.096  -1.000  0.00  0.00     0.076 C 
ATOM      7  C8  UNL d   1      -2.300  -3.389  -1.379  0.00  0.00     0.001 A 
ENDROOT
BRANCH   1   8
ATOM      8  C1  UNL d   1      -4.165  -1.755  -1.858  0.00  0.00     0.053 C 
ATOM      9  C   UNL d   1      -4.677  -0.394  -1.415  0.00  0.00     0.018 C 
ENDBRANCH   1   8
TORSDOF 1
ENDMDL
