MODEL 1
REMARK minimizedAffinity 4.949368
REMARK minimizedRMSD -1
REMARK  1 active torsions:
REMARK  status: ('A' for Active; 'I' for Inactive)
REMARK    1  A    between atoms: C1_2  and  C2_3 
ROOT
ATOM      1  C2  UNL d   1       4.014   4.389   3.090  0.00  0.00    -0.073 A 
ATOM      2  C3  UNL d   1       5.222   3.732   2.832  0.00  0.00    -0.002 A 
ATOM      3  C4  UNL d   1       5.225   2.468   2.241  0.00  0.00     0.004 A 
ATOM      4  C5  UNL d   1       4.023   1.852   1.896  0.00  0.00    -0.004 A 
ATOM      5  C6  UNL d   1       2.805   2.498   2.134  0.00  0.00    -0.075 A 
ATOM      6  C7  UNL d   1       1.503   1.847   1.771  0.00  0.00     0.076 C 
ATOM      7  C8  UNL d   1       2.810   3.766   2.731  0.00  0.00     0.001 A 
ENDROOT
BRANCH   1   8
ATOM      8  C1  UNL d   1       4.006   5.757   3.723  0.00  0.00     0.053 C 
ATOM      9  C   UNL d   1       4.925   5.831   4.932  0.00  0.00     0.018 C 
ENDBRANCH   1   8
TORSDOF 1
ENDMDL
