MODEL 1
REMARK minimizedAffinity 13.9251375
REMARK minimizedRMSD -1
REMARK  1 active torsions:
REMARK  status: ('A' for Active; 'I' for Inactive)
REMARK    1  A    between atoms: C1_2  and  C2_3 
ROOT
ATOM      1  C2  UNL d   1      -3.421   0.355   0.543  0.00  0.00    -0.073 A 
ATOM      2  C3  UNL d   1      -3.279   1.675   0.984  0.00  0.00    -0.002 A 
ATOM      3  C4  UNL d   1      -4.007   2.702   0.382  0.00  0.00     0.004 A 
ATOM      4  C5  UNL d   1      -4.889   2.419  -0.661  0.00  0.00    -0.004 A 
ATOM      5  C6  UNL d   1      -5.054   1.104  -1.108  0.00  0.00    -0.075 A 
ATOM      6  C7  UNL d   1      -5.997   0.782  -2.231  0.00  0.00     0.076 C 
ATOM      7  C8  UNL d   1      -4.317   0.078  -0.500  0.00  0.00     0.001 A 
ENDROOT
BRANCH   1   8
ATOM      8  C1  UNL d   1      -2.642  -0.758   1.195  0.00  0.00     0.053 C 
ATOM      9  C   UNL d   1      -2.269  -1.849   0.204  0.00  0.00     0.018 C 
ENDBRANCH   1   8
TORSDOF 1
ENDMDL
