MODEL 1
REMARK minimizedAffinity 11.1951532
REMARK minimizedRMSD -1
REMARK  1 active torsions:
REMARK  status: ('A' for Active; 'I' for Inactive)
REMARK    1  A    between atoms: C1_2  and  C2_3 
ROOT
ATOM      1  C2  UNL d   1      -1.676  -3.337  -0.367  0.00  0.00    -0.073 A 
ATOM      2  C3  UNL d   1      -0.723  -4.029  -1.122  0.00  0.00    -0.002 A 
ATOM      3  C4  UNL d   1      -0.947  -5.356  -1.494  0.00  0.00     0.004 A 
ATOM      4  C5  UNL d   1      -2.127  -6.000  -1.121  0.00  0.00    -0.004 A 
ATOM      5  C6  UNL d   1      -3.096  -5.321  -0.376  0.00  0.00    -0.075 A 
ATOM      6  C7  UNL d   1      -4.370  -6.000   0.034  0.00  0.00     0.076 C 
ATOM      7  C8  UNL d   1      -2.863  -3.990  -0.005  0.00  0.00     0.001 A 
ENDROOT
BRANCH   1   8
ATOM      8  C1  UNL d   1      -1.442  -1.902   0.031  0.00  0.00     0.053 C 
ATOM      9  C   UNL d   1      -2.542  -1.376   0.940  0.00  0.00     0.018 C 
ENDBRANCH   1   8
TORSDOF 1
ENDMDL
