MODEL 1
REMARK minimizedAffinity 11.8433504
REMARK minimizedRMSD -1
REMARK  1 active torsions:
REMARK  status: ('A' for Active; 'I' for Inactive)
REMARK    1  A    between atoms: C1_2  and  C2_3 
ROOT
ATOM      1  C2  UNL d   1       0.048  -3.785  -0.214  0.00  0.00    -0.073 A 
ATOM      2  C3  UNL d   1       0.379  -4.995  -0.834  0.00  0.00    -0.002 A 
ATOM      3  C4  UNL d   1      -0.454  -5.536  -1.814  0.00  0.00     0.004 A 
ATOM      4  C5  UNL d   1      -1.622  -4.871  -2.189  0.00  0.00    -0.004 A 
ATOM      5  C6  UNL d   1      -1.964  -3.654  -1.589  0.00  0.00    -0.075 A 
ATOM      6  C7  UNL d   1      -3.217  -2.927  -1.979  0.00  0.00     0.076 C 
ATOM      7  C8  UNL d   1      -1.123  -3.119  -0.604  0.00  0.00     0.001 A 
ENDROOT
BRANCH   1   8
ATOM      8  C1  UNL d   1       0.947  -3.194   0.840  0.00  0.00     0.053 C 
ATOM      9  C   UNL d   1       1.588  -1.894   0.380  0.00  0.00     0.018 C 
ENDBRANCH   1   8
TORSDOF 1
ENDMDL
