MODEL 1
REMARK minimizedAffinity 8.31432343
REMARK minimizedRMSD -1
REMARK  1 active torsions:
REMARK  status: ('A' for Active; 'I' for Inactive)
REMARK    1  A    between atoms: C1_2  and  C2_3 
ROOT
ATOM      1  C2  UNL d   1       3.846   4.290   2.953  0.00  0.00    -0.073 A 
ATOM      2  C3  UNL d   1       5.084   3.638   2.951  0.00  0.00    -0.002 A 
ATOM      3  C4  UNL d   1       5.188   2.325   2.490  0.00  0.00     0.004 A 
ATOM      4  C5  UNL d   1       4.058   1.654   2.021  0.00  0.00    -0.004 A 
ATOM      5  C6  UNL d   1       2.814   2.294   2.004  0.00  0.00    -0.075 A 
ATOM      6  C7  UNL d   1       1.590   1.585   1.504  0.00  0.00     0.076 C 
ATOM      7  C8  UNL d   1       2.718   3.611   2.471  0.00  0.00     0.001 A 
ENDROOT
BRANCH   1   8
ATOM      8  C1  UNL d   1       3.730   5.710   3.444  0.00  0.00     0.053 C 
ATOM      9  C   UNL d   1       4.629   5.975   4.641  0.00  0.00     0.018 C 
ENDBRANCH   1   8
TORSDOF 1
ENDMDL
