MODEL 1
REMARK minimizedAffinity 2.81323147
REMARK minimizedRMSD -1
REMARK  1 active torsions:
REMARK  status: ('A' for Active; 'I' for Inactive)
REMARK    1  A    between atoms: C1_2  and  C2_3 
ROOT
ATOM      1  C2  UNL d   1       4.176   3.669   2.841  0.00  0.00    -0.073 A 
ATOM      2  C3  UNL d   1       5.092   2.630   3.040  0.00  0.00    -0.002 A 
ATOM      3  C4  UNL d   1       6.000   2.684   4.098  0.00  0.00     0.004 A 
ATOM      4  C5  UNL d   1       5.997   3.772   4.971  0.00  0.00    -0.004 A 
ATOM      5  C6  UNL d   1       5.082   4.814   4.795  0.00  0.00    -0.075 A 
ATOM      6  C7  UNL d   1       5.067   5.993   5.724  0.00  0.00     0.076 C 
ATOM      7  C8  UNL d   1       4.175   4.754   3.729  0.00  0.00     0.001 A 
ENDROOT
BRANCH   1   8
ATOM      8  C1  UNL d   1       3.189   3.612   1.704  0.00  0.00     0.053 C 
ATOM      9  C   UNL d   1       2.070   2.618   1.969  0.00  0.00     0.018 C 
ENDBRANCH   1   8
TORSDOF 1
ENDMDL
