MODEL 1
REMARK minimizedAffinity 7.94462729
REMARK minimizedRMSD -1
REMARK  1 active torsions:
REMARK  status: ('A' for Active; 'I' for Inactive)
REMARK    1  A    between atoms: C1_2  and  C2_3 
ROOT
ATOM      1  C2  UNL d   1      -2.419  -3.152  -0.781  0.00  0.00    -0.073 A 
ATOM      2  C3  UNL d   1      -1.947  -2.276   0.202  0.00  0.00    -0.002 A 
ATOM      3  C4  UNL d   1      -0.724  -2.514   0.831  0.00  0.00     0.004 A 
ATOM      4  C5  UNL d   1       0.042  -3.625   0.478  0.00  0.00    -0.004 A 
ATOM      5  C6  UNL d   1      -0.407  -4.506  -0.511  0.00  0.00    -0.075 A 
ATOM      6  C7  UNL d   1       0.403  -5.707  -0.900  0.00  0.00     0.076 C 
ATOM      7  C8  UNL d   1      -1.638  -4.262  -1.136  0.00  0.00     0.001 A 
ENDROOT
BRANCH   1   8
ATOM      8  C1  UNL d   1      -3.736  -2.896  -1.467  0.00  0.00     0.053 C 
ATOM      9  C   UNL d   1      -4.206  -1.462  -1.281  0.00  0.00     0.018 C 
ENDBRANCH   1   8
TORSDOF 1
ENDMDL
