MODEL 1
REMARK minimizedAffinity 9.30707932
REMARK minimizedRMSD -1
REMARK  1 active torsions:
REMARK  status: ('A' for Active; 'I' for Inactive)
REMARK    1  A    between atoms: C1_2  and  C2_3 
ROOT
ATOM      1  C2  UNL d   1       2.848   1.024   1.128  0.00  0.00    -0.073 A 
ATOM      2  C3  UNL d   1       4.239   0.971   1.275  0.00  0.00    -0.002 A 
ATOM      3  C4  UNL d   1       4.907   1.940   2.024  0.00  0.00     0.004 A 
ATOM      4  C5  UNL d   1       4.192   2.968   2.639  0.00  0.00    -0.004 A 
ATOM      5  C6  UNL d   1       2.800   3.032   2.514  0.00  0.00    -0.075 A 
ATOM      6  C7  UNL d   1       2.017   4.132   3.168  0.00  0.00     0.076 C 
ATOM      7  C8  UNL d   1       2.137   2.056   1.758  0.00  0.00     0.001 A 
ENDROOT
BRANCH   1   8
ATOM      8  C1  UNL d   1       2.122  -0.024   0.326  0.00  0.00     0.053 C 
ATOM      9  C   UNL d   1       3.056  -1.125  -0.152  0.00  0.00     0.018 C 
ENDBRANCH   1   8
TORSDOF 1
ENDMDL
