MODEL 1
REMARK minimizedAffinity -4.04049492
REMARK minimizedRMSD -1
REMARK  0 active torsions:
REMARK  status: ('A' for Active; 'I' for Inactive)
ROOT
ATOM      1  N1  IND d   1      -0.513   0.767  -1.396  0.00  0.00    -0.196 N 
ATOM      2  C2  IND d   1       0.384  -0.264  -1.388  0.00  0.00     0.054 A 
ATOM      3  C3  IND d   1       0.619  -0.674  -0.122  0.00  0.00    -0.031 A 
ATOM      4  C4  IND d   1      -0.435   0.138   2.082  0.00  0.00     0.051 A 
ATOM      5  C5  IND d   1      -1.280   1.086   2.587  0.00  0.00    -0.031 A 
ATOM      6  C6  IND d   1      -1.927   1.993   1.774  0.00  0.00     0.015 A 
ATOM      7  C7  IND d   1      -1.762   1.978   0.417  0.00  0.00    -0.016 A 
ATOM      8  C8  IND d   1      -0.900   1.021  -0.098  0.00  0.00    -0.047 A 
ATOM      9  C9  IND d   1      -0.207   0.126   0.726  0.00  0.00    -0.096 A 
ATOM     10  HN1 IND d   1      -0.790   1.187  -2.094  0.00  0.00     0.298 HD
ENDROOT
TORSDOF 0
ENDMDL
