MODEL 1
REMARK minimizedAffinity -2.19701195
REMARK minimizedRMSD -1
REMARK  0 active torsions:
REMARK  status: ('A' for Active; 'I' for Inactive)
ROOT
ATOM      1  N1  IND d   1       0.844   1.792  -0.625  0.00  0.00    -0.196 N 
ATOM      2  C2  IND d   1       1.666   0.812  -1.106  0.00  0.00     0.054 A 
ATOM      3  C3  IND d   1       1.510  -0.325  -0.392  0.00  0.00    -0.031 A 
ATOM      4  C4  IND d   1      -0.110  -0.832   1.544  0.00  0.00     0.051 A 
ATOM      5  C5  IND d   1      -1.033  -0.240   2.359  0.00  0.00    -0.031 A 
ATOM      6  C6  IND d   1      -1.387   1.086   2.217  0.00  0.00     0.015 A 
ATOM      7  C7  IND d   1      -0.836   1.870   1.242  0.00  0.00    -0.016 A 
ATOM      8  C8  IND d   1       0.106   1.274   0.417  0.00  0.00    -0.047 A 
ATOM      9  C9  IND d   1       0.501  -0.060   0.584  0.00  0.00    -0.096 A 
ATOM     10  HN1 IND d   1       0.795   2.598  -0.922  0.00  0.00     0.298 HD
ENDROOT
TORSDOF 0
ENDMDL
