MODEL 1
REMARK minimizedAffinity -3.5667522
REMARK minimizedRMSD -1
REMARK  0 active torsions:
REMARK  status: ('A' for Active; 'I' for Inactive)
ROOT
ATOM      1  N1  IND d   1      -1.662   2.142   0.112  0.00  0.00    -0.196 N 
ATOM      2  C2  IND d   1      -1.911   2.483   1.412  0.00  0.00     0.054 A 
ATOM      3  C3  IND d   1      -1.375   1.567   2.249  0.00  0.00    -0.031 A 
ATOM      4  C4  IND d   1       0.038  -0.516   1.707  0.00  0.00     0.051 A 
ATOM      5  C5  IND d   1       0.501  -1.260   0.659  0.00  0.00    -0.031 A 
ATOM      6  C6  IND d   1       0.265  -0.900  -0.652  0.00  0.00     0.015 A 
ATOM      7  C7  IND d   1      -0.438   0.229  -0.965  0.00  0.00    -0.016 A 
ATOM      8  C8  IND d   1      -0.915   0.984   0.097  0.00  0.00    -0.047 A 
ATOM      9  C9  IND d   1      -0.715   0.601   1.430  0.00  0.00    -0.096 A 
ATOM     10  HN1 IND d   1      -1.926   2.577  -0.581  0.00  0.00     0.298 HD
ENDROOT
TORSDOF 0
ENDMDL
