MODEL 1
REMARK minimizedAffinity -4.74973726
REMARK minimizedRMSD -1
REMARK  0 active torsions:
REMARK  status: ('A' for Active; 'I' for Inactive)
ROOT
ATOM      1  N1  IND d   1       0.335  -0.342  -1.282  0.00  0.00    -0.196 N 
ATOM      2  C2  IND d   1       1.288  -1.004  -0.559  0.00  0.00     0.054 A 
ATOM      3  C3  IND d   1       1.115  -0.780   0.763  0.00  0.00    -0.031 A 
ATOM      4  C4  IND d   1      -0.726   0.556   1.968  0.00  0.00     0.051 A 
ATOM      5  C5  IND d   1      -1.798   1.370   1.730  0.00  0.00    -0.031 A 
ATOM      6  C6  IND d   1      -2.224   1.658   0.449  0.00  0.00     0.015 A 
ATOM      7  C7  IND d   1      -1.597   1.132  -0.645  0.00  0.00    -0.016 A 
ATOM      8  C8  IND d   1      -0.504   0.311  -0.407  0.00  0.00    -0.047 A 
ATOM      9  C9  IND d   1      -0.042   0.049   0.889  0.00  0.00    -0.096 A 
ATOM     10  HN1 IND d   1       0.271  -0.334  -2.140  0.00  0.00     0.298 HD
ENDROOT
TORSDOF 0
ENDMDL
