MODEL 1
REMARK minimizedAffinity -5.38055372
REMARK minimizedRMSD -1
REMARK  0 active torsions:
REMARK  status: ('A' for Active; 'I' for Inactive)
ROOT
ATOM      1  N1  IND d   1       1.013   0.974  -0.599  0.00  0.00    -0.196 N 
ATOM      2  C2  IND d   1       0.931  -0.306  -0.126  0.00  0.00     0.054 A 
ATOM      3  C3  IND d   1      -0.092  -0.419   0.751  0.00  0.00    -0.031 A 
ATOM      4  C4  IND d   1      -1.823   1.341   1.480  0.00  0.00     0.051 A 
ATOM      5  C5  IND d   1      -2.135   2.665   1.346  0.00  0.00    -0.031 A 
ATOM      6  C6  IND d   1      -1.400   3.510   0.539  0.00  0.00     0.015 A 
ATOM      7  C7  IND d   1      -0.328   3.057  -0.176  0.00  0.00    -0.016 A 
ATOM      8  C8  IND d   1      -0.004   1.714  -0.038  0.00  0.00    -0.047 A 
ATOM      9  C9  IND d   1      -0.721   0.862   0.813  0.00  0.00    -0.096 A 
ATOM     10  HN1 IND d   1       1.601   1.267  -1.153  0.00  0.00     0.298 HD
ENDROOT
TORSDOF 0
ENDMDL
