MODEL 1
REMARK minimizedAffinity -4.18627167
REMARK minimizedRMSD -1
REMARK  0 active torsions:
REMARK  status: ('A' for Active; 'I' for Inactive)
ROOT
ATOM      1  N1  IND d   1      -1.609  -1.027  -0.336  0.00  0.00    -0.196 N 
ATOM      2  C2  IND d   1      -0.811  -0.238   0.444  0.00  0.00     0.054 A 
ATOM      3  C3  IND d   1       0.477  -0.640   0.358  0.00  0.00    -0.031 A 
ATOM      4  C4  IND d   1       1.515  -2.505  -1.082  0.00  0.00     0.051 A 
ATOM      5  C5  IND d   1       1.181  -3.522  -1.931  0.00  0.00    -0.031 A 
ATOM      6  C6  IND d   1      -0.127  -3.763  -2.302  0.00  0.00     0.015 A 
ATOM      7  C7  IND d   1      -1.152  -2.984  -1.844  0.00  0.00    -0.016 A 
ATOM      8  C8  IND d   1      -0.817  -1.955  -0.976  0.00  0.00    -0.047 A 
ATOM      9  C9  IND d   1       0.503  -1.733  -0.562  0.00  0.00    -0.096 A 
ATOM     10  HN1 IND d   1      -2.462  -0.956  -0.414  0.00  0.00     0.298 HD
ENDROOT
TORSDOF 0
ENDMDL
