MODEL 1
REMARK minimizedAffinity -5.41131163
REMARK minimizedRMSD -1
REMARK  0 active torsions:
REMARK  status: ('A' for Active; 'I' for Inactive)
ROOT
ATOM      1  N1  IND d   1       0.933   1.347  -1.104  0.00  0.00    -0.196 N 
ATOM      2  C2  IND d   1       0.610   0.089  -0.678  0.00  0.00     0.054 A 
ATOM      3  C3  IND d   1      -0.339   0.148   0.284  0.00  0.00    -0.031 A 
ATOM      4  C4  IND d   1      -1.576   2.194   1.238  0.00  0.00     0.051 A 
ATOM      5  C5  IND d   1      -1.598   3.560   1.186  0.00  0.00    -0.031 A 
ATOM      6  C6  IND d   1      -0.763   4.272   0.349  0.00  0.00     0.015 A 
ATOM      7  C7  IND d   1       0.122   3.641  -0.479  0.00  0.00    -0.016 A 
ATOM      8  C8  IND d   1       0.152   2.255  -0.424  0.00  0.00    -0.047 A 
ATOM      9  C9  IND d   1      -0.663   1.529   0.454  0.00  0.00    -0.096 A 
ATOM     10  HN1 IND d   1       1.525   1.539  -1.698  0.00  0.00     0.298 HD
ENDROOT
TORSDOF 0
ENDMDL
