MODEL 1
REMARK minimizedAffinity 2.07101703
REMARK minimizedRMSD -1
REMARK  0 active torsions:
REMARK  status: ('A' for Active; 'I' for Inactive)
ROOT
ATOM      1  N1  IND d   1      -0.434   2.693   1.089  0.00  0.00    -0.196 N 
ATOM      2  C2  IND d   1      -1.099   2.321   2.225  0.00  0.00     0.054 A 
ATOM      3  C3  IND d   1      -1.030   0.982   2.393  0.00  0.00    -0.031 A 
ATOM      4  C4  IND d   1       0.205  -0.783   0.983  0.00  0.00     0.051 A 
ATOM      5  C5  IND d   1       0.923  -0.930  -0.171  0.00  0.00    -0.031 A 
ATOM      6  C6  IND d   1       1.233   0.145  -0.979  0.00  0.00     0.015 A 
ATOM      7  C7  IND d   1       0.846   1.415  -0.655  0.00  0.00    -0.016 A 
ATOM      8  C8  IND d   1       0.111   1.567   0.512  0.00  0.00    -0.047 A 
ATOM      9  C9  IND d   1      -0.243   0.474   1.314  0.00  0.00    -0.096 A 
ATOM     10  HN1 IND d   1      -0.368   3.495   0.787  0.00  0.00     0.298 HD
ENDROOT
TORSDOF 0
ENDMDL
