MODEL 1
REMARK minimizedAffinity -6.4956975
REMARK minimizedRMSD -1
REMARK  0 active torsions:
REMARK  status: ('A' for Active; 'I' for Inactive)
ROOT
ATOM      1  N1  IND d   1       0.632   0.364  -0.599  0.00  0.00    -0.196 N 
ATOM      2  C2  IND d   1       0.554  -0.621   0.345  0.00  0.00     0.054 A 
ATOM      3  C3  IND d   1      -0.264  -0.242   1.353  0.00  0.00    -0.031 A 
ATOM      4  C4  IND d   1      -1.659   1.907   1.608  0.00  0.00     0.051 A 
ATOM      5  C5  IND d   1      -1.888   3.118   1.019  0.00  0.00    -0.031 A 
ATOM      6  C6  IND d   1      -1.280   3.479  -0.166  0.00  0.00     0.015 A 
ATOM      7  C7  IND d   1      -0.424   2.635  -0.814  0.00  0.00    -0.016 A 
ATOM      8  C8  IND d   1      -0.182   1.407  -0.214  0.00  0.00    -0.047 A 
ATOM      9  C9  IND d   1      -0.764   1.051   1.010  0.00  0.00    -0.096 A 
ATOM     10  HN1 IND d   1       1.109   0.337  -1.314  0.00  0.00     0.298 HD
ENDROOT
TORSDOF 0
ENDMDL
