MODEL 1
REMARK minimizedAffinity -5.2069335
REMARK minimizedRMSD -1
REMARK  0 active torsions:
REMARK  status: ('A' for Active; 'I' for Inactive)
ROOT
ATOM      1  N1  IND d   1      -1.895  -0.137   1.010  0.00  0.00    -0.196 N 
ATOM      2  C2  IND d   1      -2.639   0.997   1.174  0.00  0.00     0.054 A 
ATOM      3  C3  IND d   1      -1.981   2.068   0.676  0.00  0.00    -0.031 A 
ATOM      4  C4  IND d   1       0.283   2.173  -0.545  0.00  0.00     0.051 A 
ATOM      5  C5  IND d   1       1.351   1.399  -0.902  0.00  0.00    -0.031 A 
ATOM      6  C6  IND d   1       1.392   0.045  -0.637  0.00  0.00     0.015 A 
ATOM      7  C7  IND d   1       0.356  -0.589  -0.012  0.00  0.00    -0.016 A 
ATOM      8  C8  IND d   1      -0.728   0.195   0.358  0.00  0.00    -0.047 A 
ATOM      9  C9  IND d   1      -0.756   1.576   0.130  0.00  0.00    -0.096 A 
ATOM     10  HN1 IND d   1      -2.118  -0.926   1.270  0.00  0.00     0.298 HD
ENDROOT
TORSDOF 0
ENDMDL
