MODEL 1
REMARK minimizedAffinity -5.06996441
REMARK minimizedRMSD -1
REMARK  0 active torsions:
REMARK  status: ('A' for Active; 'I' for Inactive)
ROOT
ATOM      1  N1  IND d   1      -0.799   2.265  -0.881  0.00  0.00    -0.196 N 
ATOM      2  C2  IND d   1      -1.311   3.341  -0.211  0.00  0.00     0.054 A 
ATOM      3  C3  IND d   1      -1.420   3.066   1.108  0.00  0.00    -0.031 A 
ATOM      4  C4  IND d   1      -0.721   0.952   2.401  0.00  0.00     0.051 A 
ATOM      5  C5  IND d   1      -0.240  -0.314   2.216  0.00  0.00    -0.031 A 
ATOM      6  C6  IND d   1       0.090  -0.793   0.965  0.00  0.00     0.015 A 
ATOM      7  C7  IND d   1      -0.041  -0.018  -0.152  0.00  0.00    -0.016 A 
ATOM      8  C8  IND d   1      -0.536   1.266   0.031  0.00  0.00    -0.047 A 
ATOM      9  C9  IND d   1      -0.912   1.743   1.293  0.00  0.00    -0.096 A 
ATOM     10  HN1 IND d   1      -0.664   2.219  -1.728  0.00  0.00     0.298 HD
ENDROOT
TORSDOF 0
ENDMDL
