MODEL 1
REMARK minimizedAffinity -3.02275944
REMARK minimizedRMSD -1
REMARK  0 active torsions:
REMARK  status: ('A' for Active; 'I' for Inactive)
ROOT
ATOM      1  N1  IND d   1       0.893   2.273  -1.071  0.00  0.00    -0.196 N 
ATOM      2  C2  IND d   1       0.511   3.580  -0.949  0.00  0.00     0.054 A 
ATOM      3  C3  IND d   1      -0.397   3.713   0.044  0.00  0.00    -0.031 A 
ATOM      4  C4  IND d   1      -1.320   1.940   1.666  0.00  0.00     0.051 A 
ATOM      5  C5  IND d   1      -1.295   0.598   1.922  0.00  0.00    -0.031 A 
ATOM      6  C6  IND d   1      -0.521  -0.272   1.181  0.00  0.00     0.015 A 
ATOM      7  C7  IND d   1       0.268   0.172   0.158  0.00  0.00    -0.016 A 
ATOM      8  C8  IND d   1       0.240   1.533  -0.110  0.00  0.00    -0.047 A 
ATOM      9  C9  IND d   1      -0.576   2.415   0.611  0.00  0.00    -0.096 A 
ATOM     10  HN1 IND d   1       1.448   1.965  -1.651  0.00  0.00     0.298 HD
ENDROOT
TORSDOF 0
ENDMDL
