MODEL 1
REMARK minimizedAffinity -2.54187417
REMARK minimizedRMSD -1
REMARK  0 active torsions:
REMARK  status: ('A' for Active; 'I' for Inactive)
ROOT
ATOM      1  N1  IND d   1      -0.532  -0.200  -1.288  0.00  0.00    -0.196 N 
ATOM      2  C2  IND d   1       0.441  -1.153  -1.166  0.00  0.00     0.054 A 
ATOM      3  C3  IND d   1       1.008  -1.093   0.059  0.00  0.00    -0.031 A 
ATOM      4  C4  IND d   1       0.426   0.424   2.057  0.00  0.00     0.051 A 
ATOM      5  C5  IND d   1      -0.367   1.478   2.414  0.00  0.00    -0.031 A 
ATOM      6  C6  IND d   1      -1.276   2.036   1.539  0.00  0.00     0.015 A 
ATOM      7  C7  IND d   1      -1.434   1.551   0.271  0.00  0.00    -0.016 A 
ATOM      8  C8  IND d   1      -0.625   0.485  -0.097  0.00  0.00    -0.047 A 
ATOM      9  C9  IND d   1       0.329  -0.058   0.773  0.00  0.00    -0.096 A 
ATOM     10  HN1 IND d   1      -1.005  -0.054  -1.991  0.00  0.00     0.298 HD
ENDROOT
TORSDOF 0
ENDMDL
