MODEL 1
REMARK minimizedAffinity -4.82382059
REMARK minimizedRMSD -1
REMARK  0 active torsions:
REMARK  status: ('A' for Active; 'I' for Inactive)
ROOT
ATOM      1  N1  IND d   1       0.530   0.501  -0.876  0.00  0.00    -0.196 N 
ATOM      2  C2  IND d   1       0.559  -0.629  -0.107  0.00  0.00     0.054 A 
ATOM      3  C3  IND d   1      -0.154  -0.444   1.026  0.00  0.00    -0.031 A 
ATOM      4  C4  IND d   1      -1.535   1.595   1.777  0.00  0.00     0.051 A 
ATOM      5  C5  IND d   1      -1.836   2.881   1.425  0.00  0.00    -0.031 A 
ATOM      6  C6  IND d   1      -1.356   3.450   0.263  0.00  0.00     0.015 A 
ATOM      7  C7  IND d   1      -0.563   2.747  -0.599  0.00  0.00    -0.016 A 
ATOM      8  C8  IND d   1      -0.250   1.443  -0.242  0.00  0.00    -0.047 A 
ATOM      9  C9  IND d   1      -0.699   0.874   0.957  0.00  0.00    -0.096 A 
ATOM     10  HN1 IND d   1       0.931   0.606  -1.630  0.00  0.00     0.298 HD
ENDROOT
TORSDOF 0
ENDMDL
