MODEL 1
REMARK minimizedAffinity -4.04798126
REMARK minimizedRMSD -1
REMARK  0 active torsions:
REMARK  status: ('A' for Active; 'I' for Inactive)
ROOT
ATOM      1  N1  IND d   1       0.502   0.654  -1.125  0.00  0.00    -0.196 N 
ATOM      2  C2  IND d   1       0.285  -0.606  -0.642  0.00  0.00     0.054 A 
ATOM      3  C3  IND d   1      -0.319  -0.548   0.567  0.00  0.00    -0.031 A 
ATOM      4  C4  IND d   1      -1.132   1.503   1.892  0.00  0.00     0.051 A 
ATOM      5  C5  IND d   1      -1.124   2.869   1.875  0.00  0.00    -0.031 A 
ATOM      6  C6  IND d   1      -0.564   3.582   0.834  0.00  0.00     0.015 A 
ATOM      7  C7  IND d   1       0.000   2.951  -0.238  0.00  0.00    -0.016 A 
ATOM      8  C8  IND d   1       0.000   1.563  -0.220  0.00  0.00    -0.047 A 
ATOM      9  C9  IND d   1      -0.528   0.835   0.853  0.00  0.00    -0.096 A 
ATOM     10  HN1 IND d   1       0.888   0.846  -1.869  0.00  0.00     0.298 HD
ENDROOT
TORSDOF 0
ENDMDL
