MODEL 1
REMARK minimizedAffinity 4.28373051
REMARK minimizedRMSD -1
REMARK  0 active torsions:
REMARK  status: ('A' for Active; 'I' for Inactive)
ROOT
ATOM      1  C2' OXE d   1       4.072  -4.526  -3.664  0.00  0.00     0.078 C 
ATOM      2  C1' OXE d   1       4.556  -4.074  -0.936  0.00  0.00     0.078 C 
ATOM      3  C1  OXE d   1       3.272  -4.768  -1.317  0.00  0.00    -0.078 A 
ATOM      4  C2  OXE d   1       3.022  -4.943  -2.657  0.00  0.00    -0.078 A 
ATOM      5  C3  OXE d   1       1.878  -5.626  -3.061  0.00  0.00     0.003 A 
ATOM      6  C4  OXE d   1       0.907  -6.000  -2.124  0.00  0.00    -0.002 A 
ATOM      7  C5  OXE d   1       1.124  -5.795  -0.758  0.00  0.00    -0.002 A 
ATOM      8  C6  OXE d   1       2.317  -5.221  -0.335  0.00  0.00     0.003 A 
ENDROOT
TORSDOF 0
ENDMDL
