MODEL 1
REMARK minimizedAffinity 8.84766388
REMARK minimizedRMSD -1
REMARK  0 active torsions:
REMARK  status: ('A' for Active; 'I' for Inactive)
ROOT
ATOM      1  C2' OXE d   1       0.358   1.783   0.101  0.00  0.00     0.078 C 
ATOM      2  C1' OXE d   1       0.146   2.864   2.683  0.00  0.00     0.078 C 
ATOM      3  C1  OXE d   1      -0.067   3.791   1.512  0.00  0.00    -0.078 A 
ATOM      4  C2  OXE d   1       0.085   3.264   0.252  0.00  0.00    -0.078 A 
ATOM      5  C3  OXE d   1      -0.154   4.062  -0.863  0.00  0.00     0.003 A 
ATOM      6  C4  OXE d   1      -0.397   5.433  -0.714  0.00  0.00    -0.002 A 
ATOM      7  C5  OXE d   1      -0.516   5.999   0.560  0.00  0.00    -0.002 A 
ATOM      8  C6  OXE d   1      -0.396   5.185   1.681  0.00  0.00     0.003 A 
ENDROOT
TORSDOF 0
ENDMDL
