MODEL 1
REMARK minimizedAffinity 11.151865
REMARK minimizedRMSD -1
REMARK  0 active torsions:
REMARK  status: ('A' for Active; 'I' for Inactive)
ROOT
ATOM      1  C2' OXE d   1       5.105  -4.613  -3.364  0.00  0.00     0.078 C 
ATOM      2  C1' OXE d   1       3.235  -5.388  -1.419  0.00  0.00     0.078 C 
ATOM      3  C1  OXE d   1       3.918  -4.054  -1.246  0.00  0.00    -0.078 A 
ATOM      4  C2  OXE d   1       4.865  -3.704  -2.178  0.00  0.00    -0.078 A 
ATOM      5  C3  OXE d   1       5.486  -2.460  -2.096  0.00  0.00     0.003 A 
ATOM      6  C4  OXE d   1       5.266  -1.630  -0.991  0.00  0.00    -0.002 A 
ATOM      7  C5  OXE d   1       4.334  -1.985  -0.010  0.00  0.00    -0.002 A 
ATOM      8  C6  OXE d   1       3.622  -3.172  -0.144  0.00  0.00     0.003 A 
ENDROOT
TORSDOF 0
ENDMDL
