MODEL 1
REMARK minimizedAffinity 9.74290276
REMARK minimizedRMSD -1
REMARK  0 active torsions:
REMARK  status: ('A' for Active; 'I' for Inactive)
ROOT
ATOM      1  C2' OXE d   1      -3.082   0.746   0.110  0.00  0.00     0.078 C 
ATOM      2  C1' OXE d   1      -3.093   2.267  -2.249  0.00  0.00     0.078 C 
ATOM      3  C1  OXE d   1      -2.340   0.960  -2.258  0.00  0.00    -0.078 A 
ATOM      4  C2  OXE d   1      -2.300   0.245  -1.085  0.00  0.00    -0.078 A 
ATOM      5  C3  OXE d   1      -1.665  -0.993  -1.054  0.00  0.00     0.003 A 
ATOM      6  C4  OXE d   1      -0.936  -1.444  -2.161  0.00  0.00    -0.002 A 
ATOM      7  C5  OXE d   1      -0.930  -0.712  -3.353  0.00  0.00    -0.002 A 
ATOM      8  C6  OXE d   1      -1.660   0.469  -3.431  0.00  0.00     0.003 A 
ENDROOT
TORSDOF 0
ENDMDL
