MODEL 1
REMARK minimizedAffinity 15.8169889
REMARK minimizedRMSD -1
REMARK  0 active torsions:
REMARK  status: ('A' for Active; 'I' for Inactive)
ROOT
ATOM      1  C2' OXE d   1      -1.915   2.974   3.163  0.00  0.00     0.078 C 
ATOM      2  C1' OXE d   1      -2.369   5.522   2.077  0.00  0.00     0.078 C 
ATOM      3  C1  OXE d   1      -1.484   4.576   1.305  0.00  0.00    -0.078 A 
ATOM      4  C2  OXE d   1      -1.230   3.348   1.866  0.00  0.00    -0.078 A 
ATOM      5  C3  OXE d   1      -0.465   2.416   1.170  0.00  0.00     0.003 A 
ATOM      6  C4  OXE d   1       0.173   2.773  -0.024  0.00  0.00    -0.002 A 
ATOM      7  C5  OXE d   1      -0.041   4.033  -0.594  0.00  0.00    -0.002 A 
ATOM      8  C6  OXE d   1      -0.898   4.928   0.035  0.00  0.00     0.003 A 
ENDROOT
TORSDOF 0
ENDMDL
