MODEL 1
REMARK minimizedAffinity 13.0610342
REMARK minimizedRMSD -1
REMARK  0 active torsions:
REMARK  status: ('A' for Active; 'I' for Inactive)
ROOT
ATOM      1  C2' OXE d   1       0.685   1.868   0.134  0.00  0.00     0.078 C 
ATOM      2  C1' OXE d   1      -0.700   2.738   2.415  0.00  0.00     0.078 C 
ATOM      3  C1  OXE d   1      -0.513   3.722   1.288  0.00  0.00    -0.078 A 
ATOM      4  C2  OXE d   1       0.206   3.303   0.195  0.00  0.00    -0.078 A 
ATOM      5  C3  OXE d   1       0.361   4.153  -0.896  0.00  0.00     0.003 A 
ATOM      6  C4  OXE d   1      -0.076   5.482  -0.827  0.00  0.00    -0.002 A 
ATOM      7  C5  OXE d   1      -0.777   5.941   0.294  0.00  0.00    -0.002 A 
ATOM      8  C6  OXE d   1      -1.040   5.064   1.340  0.00  0.00     0.003 A 
ENDROOT
TORSDOF 0
ENDMDL
