MODEL 1
REMARK minimizedAffinity 7.20738316
REMARK minimizedRMSD -1
REMARK  0 active torsions:
REMARK  status: ('A' for Active; 'I' for Inactive)
ROOT
ATOM      1  C2' OXE d   1       1.782  -0.774  -0.916  0.00  0.00     0.078 C 
ATOM      2  C1' OXE d   1       3.248  -0.997   1.467  0.00  0.00     0.078 C 
ATOM      3  C1  OXE d   1       3.914  -1.439   0.188  0.00  0.00    -0.078 A 
ATOM      4  C2  OXE d   1       3.173  -1.370  -0.967  0.00  0.00    -0.078 A 
ATOM      5  C3  OXE d   1       3.757  -1.714  -2.183  0.00  0.00     0.003 A 
ATOM      6  C4  OXE d   1       5.039  -2.274  -2.220  0.00  0.00    -0.002 A 
ATOM      7  C5  OXE d   1       5.797  -2.390  -1.050  0.00  0.00    -0.002 A 
ATOM      8  C6  OXE d   1       5.266  -1.939   0.154  0.00  0.00     0.003 A 
ENDROOT
TORSDOF 0
ENDMDL
