MODEL 1
REMARK minimizedAffinity 5.54687405
REMARK minimizedRMSD -1
REMARK  0 active torsions:
REMARK  status: ('A' for Active; 'I' for Inactive)
ROOT
ATOM      1  C2' OXE d   1      -0.646   3.203   0.346  0.00  0.00     0.078 C 
ATOM      2  C1' OXE d   1       0.840   1.123  -0.815  0.00  0.00     0.078 C 
ATOM      3  C1  OXE d   1       0.939   1.311   0.678  0.00  0.00    -0.078 A 
ATOM      4  C2  OXE d   1       0.246   2.360   1.231  0.00  0.00    -0.078 A 
ATOM      5  C3  OXE d   1       0.259   2.545   2.611  0.00  0.00     0.003 A 
ATOM      6  C4  OXE d   1       1.094   1.767   3.422  0.00  0.00    -0.002 A 
ATOM      7  C5  OXE d   1       1.840   0.718   2.873  0.00  0.00    -0.002 A 
ATOM      8  C6  OXE d   1       1.741   0.450   1.512  0.00  0.00     0.003 A 
ENDROOT
TORSDOF 0
ENDMDL
