MODEL 1
REMARK minimizedAffinity 6.3544364
REMARK minimizedRMSD -1
REMARK  0 active torsions:
REMARK  status: ('A' for Active; 'I' for Inactive)
ROOT
ATOM      1  C2' OXE d   1       0.396   6.000  -3.507  0.00  0.00     0.078 C 
ATOM      2  C1' OXE d   1      -2.258   5.999  -2.595  0.00  0.00     0.078 C 
ATOM      3  C1  OXE d   1      -1.204   5.412  -1.690  0.00  0.00    -0.078 A 
ATOM      4  C2  OXE d   1       0.085   5.374  -2.164  0.00  0.00    -0.078 A 
ATOM      5  C3  OXE d   1       1.106   4.892  -1.349  0.00  0.00     0.003 A 
ATOM      6  C4  OXE d   1       0.808   4.306  -0.113  0.00  0.00    -0.002 A 
ATOM      7  C5  OXE d   1      -0.504   4.299   0.372  0.00  0.00    -0.002 A 
ATOM      8  C6  OXE d   1      -1.513   4.884  -0.384  0.00  0.00     0.003 A 
ENDROOT
TORSDOF 0
ENDMDL
