MODEL 1
REMARK minimizedAffinity 0.120137416
REMARK minimizedRMSD -1
REMARK  3 active torsions:
REMARK  status: ('A' for Active; 'I' for Inactive)
REMARK    1  A    between atoms: C3'_2  and  C2'_3 
REMARK    2  A    between atoms: C2'_3  and  C1'_4 
REMARK    3  A    between atoms: C1'_4  and  C1_5 
ROOT
ATOM      1  C1  N4B d   1       2.546  -0.403  -0.982  0.00  0.00    -0.075 A 
ATOM      2  C2  N4B d   1       3.009   0.028   0.280  0.00  0.00     0.002 A 
ATOM      3  C3  N4B d   1       2.146   0.081   1.347  0.00  0.00     0.002 A 
ATOM      4  C4  N4B d   1       0.817  -0.273   1.172  0.00  0.00    -0.004 A 
ATOM      5  C5  N4B d   1       0.383  -0.713  -0.044  0.00  0.00     0.002 A 
ATOM      6  C6  N4B d   1       1.240  -0.775  -1.124  0.00  0.00     0.002 A 
ENDROOT
BRANCH   1   7
ATOM      7  C1' N4B d   1       3.431  -0.396  -2.198  0.00  0.00     0.057 C 
BRANCH   7   8
ATOM      8  C2' N4B d   1       3.853   1.039  -2.502  0.00  0.00     0.009 C 
BRANCH   8   9
ATOM      9  C3' N4B d   1       3.699   1.377  -3.975  0.00  0.00     0.004 C 
ATOM     10  C4' N4B d   1       2.678   0.522  -4.663  0.00  0.00     0.003 C 
ENDBRANCH   8   9
ENDBRANCH   7   8
ENDBRANCH   1   7
TORSDOF 3
ENDMDL
