MODEL 1
REMARK minimizedAffinity 0.00137092697
REMARK minimizedRMSD -1
REMARK  3 active torsions:
REMARK  status: ('A' for Active; 'I' for Inactive)
REMARK    1  A    between atoms: C3'_2  and  C2'_3 
REMARK    2  A    between atoms: C2'_3  and  C1'_4 
REMARK    3  A    between atoms: C1'_4  and  C1_5 
ROOT
ATOM      1  C1  N4B d   1      -0.492  -4.481  -4.406  0.00  0.00    -0.075 A 
ATOM      2  C2  N4B d   1      -1.638  -5.266  -4.151  0.00  0.00     0.002 A 
ATOM      3  C3  N4B d   1      -2.185  -5.293  -2.891  0.00  0.00     0.002 A 
ATOM      4  C4  N4B d   1      -1.596  -4.560  -1.872  0.00  0.00    -0.004 A 
ATOM      5  C5  N4B d   1      -0.504  -3.784  -2.132  0.00  0.00     0.002 A 
ATOM      6  C6  N4B d   1       0.054  -3.745  -3.394  0.00  0.00     0.002 A 
ENDROOT
BRANCH   1   7
ATOM      7  C1' N4B d   1       0.193  -4.487  -5.745  0.00  0.00     0.057 C 
BRANCH   7   8
ATOM      8  C2' N4B d   1       0.832  -3.123  -5.987  0.00  0.00     0.009 C 
BRANCH   8   9
ATOM      9  C3' N4B d   1      -0.199  -2.007  -6.000  0.00  0.00     0.004 C 
ATOM     10  C4' N4B d   1       0.423  -0.642  -5.997  0.00  0.00     0.003 C 
ENDBRANCH   8   9
ENDBRANCH   7   8
ENDBRANCH   1   7
TORSDOF 3
ENDMDL
