MODEL 1
REMARK minimizedAffinity 5.42221355
REMARK minimizedRMSD -1
REMARK  3 active torsions:
REMARK  status: ('A' for Active; 'I' for Inactive)
REMARK    1  A    between atoms: C3'_2  and  C2'_3 
REMARK    2  A    between atoms: C2'_3  and  C1'_4 
REMARK    3  A    between atoms: C1'_4  and  C1_5 
ROOT
ATOM      1  C1  N4B d   1      -0.999   0.179   2.816  0.00  0.00    -0.075 A 
ATOM      2  C2  N4B d   1      -2.019  -0.798   2.803  0.00  0.00     0.002 A 
ATOM      3  C3  N4B d   1      -3.129  -0.621   2.014  0.00  0.00     0.002 A 
ATOM      4  C4  N4B d   1      -3.250   0.528   1.247  0.00  0.00    -0.004 A 
ATOM      5  C5  N4B d   1      -2.248   1.455   1.246  0.00  0.00     0.002 A 
ATOM      6  C6  N4B d   1      -1.125   1.289   2.031  0.00  0.00     0.002 A 
ENDROOT
BRANCH   1   7
ATOM      7  C1' N4B d   1       0.193   0.071   3.727  0.00  0.00     0.057 C 
BRANCH   7   8
ATOM      8  C2' N4B d   1       1.339  -0.600   2.975  0.00  0.00     0.009 C 
BRANCH   8   9
ATOM      9  C3' N4B d   1       1.546   0.005   1.598  0.00  0.00     0.004 C 
ATOM     10  C4' N4B d   1       2.706  -0.601   0.866  0.00  0.00     0.003 C 
ENDBRANCH   8   9
ENDBRANCH   7   8
ENDBRANCH   1   7
TORSDOF 3
ENDMDL
