MODEL 1
REMARK minimizedAffinity 0.711580336
REMARK minimizedRMSD -1
REMARK  3 active torsions:
REMARK  status: ('A' for Active; 'I' for Inactive)
REMARK    1  A    between atoms: C3'_2  and  C2'_3 
REMARK    2  A    between atoms: C2'_3  and  C1'_4 
REMARK    3  A    between atoms: C1'_4  and  C1_5 
ROOT
ATOM      1  C1  N4B d   1       0.844  -3.337  -2.344  0.00  0.00    -0.075 A 
ATOM      2  C2  N4B d   1       0.013  -4.477  -2.420  0.00  0.00     0.002 A 
ATOM      3  C3  N4B d   1      -0.721  -4.717  -3.556  0.00  0.00     0.002 A 
ATOM      4  C4  N4B d   1      -0.655  -3.825  -4.616  0.00  0.00    -0.004 A 
ATOM      5  C5  N4B d   1       0.170  -2.740  -4.544  0.00  0.00     0.002 A 
ATOM      6  C6  N4B d   1       0.916  -2.489  -3.411  0.00  0.00     0.002 A 
ENDROOT
BRANCH   1   7
ATOM      7  C1' N4B d   1       1.599  -2.987  -1.091  0.00  0.00     0.057 C 
BRANCH   7   8
ATOM      8  C2' N4B d   1       1.561  -1.475  -0.889  0.00  0.00     0.009 C 
BRANCH   8   9
ATOM      9  C3' N4B d   1       2.533  -1.021   0.186  0.00  0.00     0.004 C 
ATOM     10  C4' N4B d   1       1.869  -0.225   1.270  0.00  0.00     0.003 C 
ENDBRANCH   8   9
ENDBRANCH   7   8
ENDBRANCH   1   7
TORSDOF 3
ENDMDL
