MODEL 1
REMARK minimizedAffinity 11.5711346
REMARK minimizedRMSD -1
REMARK  3 active torsions:
REMARK  status: ('A' for Active; 'I' for Inactive)
REMARK    1  A    between atoms: C3'_2  and  C2'_3 
REMARK    2  A    between atoms: C2'_3  and  C1'_4 
REMARK    3  A    between atoms: C1'_4  and  C1_5 
ROOT
ATOM      1  C1  N4B d   1      -0.940  -2.720  -4.663  0.00  0.00    -0.075 A 
ATOM      2  C2  N4B d   1      -2.016  -3.611  -4.455  0.00  0.00     0.002 A 
ATOM      3  C3  N4B d   1      -1.812  -4.966  -4.545  0.00  0.00     0.002 A 
ATOM      4  C4  N4B d   1      -0.551  -5.451  -4.859  0.00  0.00    -0.004 A 
ATOM      5  C5  N4B d   1       0.488  -4.584  -5.033  0.00  0.00     0.002 A 
ATOM      6  C6  N4B d   1       0.299  -3.220  -4.942  0.00  0.00     0.002 A 
ENDROOT
BRANCH   1   7
ATOM      7  C1' N4B d   1      -1.133  -1.228  -4.659  0.00  0.00     0.057 C 
BRANCH   7   8
ATOM      8  C2' N4B d   1      -0.039  -0.580  -5.503  0.00  0.00     0.009 C 
BRANCH   8   9
ATOM      9  C3' N4B d   1       0.771   0.427  -4.706  0.00  0.00     0.004 C 
ATOM     10  C4' N4B d   1       2.025   0.853  -5.410  0.00  0.00     0.003 C 
ENDBRANCH   8   9
ENDBRANCH   7   8
ENDBRANCH   1   7
TORSDOF 3
ENDMDL
