MODEL 1
REMARK minimizedAffinity 3.81552696
REMARK minimizedRMSD -1
REMARK  3 active torsions:
REMARK  status: ('A' for Active; 'I' for Inactive)
REMARK    1  A    between atoms: C3'_2  and  C2'_3 
REMARK    2  A    between atoms: C2'_3  and  C1'_4 
REMARK    3  A    between atoms: C1'_4  and  C1_5 
ROOT
ATOM      1  C1  N4B d   1      -0.819  -2.260  -5.254  0.00  0.00    -0.075 A 
ATOM      2  C2  N4B d   1       0.305  -2.678  -6.000  0.00  0.00     0.002 A 
ATOM      3  C3  N4B d   1       0.693  -3.995  -5.976  0.00  0.00     0.002 A 
ATOM      4  C4  N4B d   1      -0.013  -4.904  -5.202  0.00  0.00    -0.004 A 
ATOM      5  C5  N4B d   1      -1.113  -4.497  -4.504  0.00  0.00     0.002 A 
ATOM      6  C6  N4B d   1      -1.516  -3.177  -4.523  0.00  0.00     0.002 A 
ENDROOT
BRANCH   1   7
ATOM      7  C1' N4B d   1      -1.230  -0.814  -5.181  0.00  0.00     0.057 C 
BRANCH   7   8
ATOM      8  C2' N4B d   1      -0.098   0.056  -5.717  0.00  0.00     0.009 C 
BRANCH   8   9
ATOM      9  C3' N4B d   1       0.927   0.380  -4.643  0.00  0.00     0.004 C 
ATOM     10  C4' N4B d   1       2.322  -0.005  -5.036  0.00  0.00     0.003 C 
ENDBRANCH   8   9
ENDBRANCH   7   8
ENDBRANCH   1   7
TORSDOF 3
ENDMDL
