MODEL 1
REMARK minimizedAffinity -4.14873266
REMARK minimizedRMSD -1
REMARK  1 active torsions:
REMARK  status: ('A' for Active; 'I' for Inactive)
REMARK    1  A    between atoms: N_2  and  C1_3 
ROOT
ATOM      1  C1  UNL d   1      -0.420   0.871  -0.343  0.00  0.00     0.143 A 
ATOM      2  C2  UNL d   1       0.462  -0.001   0.304  0.00  0.00    -0.057 A 
ATOM      3  C3  UNL d   1       0.794   0.171   1.653  0.00  0.00     0.033 A 
ATOM      4  C4  UNL d   1       0.271   1.240   2.373  0.00  0.00    -0.042 A 
ATOM      5  C5  UNL d   1      -0.588   2.134   1.744  0.00  0.00     0.033 A 
ATOM      6  C6  UNL d   1      -0.921   1.953   0.398  0.00  0.00    -0.057 A 
ENDROOT
BRANCH   1   7
ATOM      7  N   UNL d   1      -0.712   0.810  -1.708  0.00  0.00    -0.732 N 
ATOM      8  C   UNL d   1      -1.032   2.013  -2.447  0.00  0.00     0.284 C 
ATOM      9  H3  UNL d   1      -0.104   0.165  -2.207  0.00  0.00     0.395 HD
ENDBRANCH   1   7
TORSDOF 1
ENDMDL
