MODEL 1
REMARK minimizedAffinity -3.39221454
REMARK minimizedRMSD -1
REMARK  1 active torsions:
REMARK  status: ('A' for Active; 'I' for Inactive)
REMARK    1  A    between atoms: N_2  and  C1_3 
ROOT
ATOM      1  C1  UNL d   1      -0.127   0.494  -0.022  0.00  0.00     0.143 A 
ATOM      2  C2  UNL d   1       0.624   0.925   1.076  0.00  0.00    -0.057 A 
ATOM      3  C3  UNL d   1       0.091   1.816   2.016  0.00  0.00     0.033 A 
ATOM      4  C4  UNL d   1      -1.198   2.315   1.857  0.00  0.00    -0.042 A 
ATOM      5  C5  UNL d   1      -1.954   1.919   0.759  0.00  0.00     0.033 A 
ATOM      6  C6  UNL d   1      -1.418   1.025  -0.173  0.00  0.00    -0.057 A 
ENDROOT
BRANCH   1   7
ATOM      7  N   UNL d   1       0.381  -0.312  -1.044  0.00  0.00    -0.732 N 
ATOM      8  C   UNL d   1       0.089  -1.729  -1.079  0.00  0.00     0.284 C 
ATOM      9  H3  UNL d   1       0.344   0.142  -1.953  0.00  0.00     0.395 HD
ENDBRANCH   1   7
TORSDOF 1
ENDMDL
