MODEL 1
REMARK minimizedAffinity -3.39942288
REMARK minimizedRMSD -1
REMARK  1 active torsions:
REMARK  status: ('A' for Active; 'I' for Inactive)
REMARK    1  A    between atoms: N_2  and  C1_3 
ROOT
ATOM      1  C1  UNL d   1       2.379  -5.283  -0.095  0.00  0.00     0.143 A 
ATOM      2  C2  UNL d   1       2.430  -4.048  -0.749  0.00  0.00    -0.057 A 
ATOM      3  C3  UNL d   1       1.270  -3.442  -1.247  0.00  0.00     0.033 A 
ATOM      4  C4  UNL d   1       0.039  -4.077  -1.125  0.00  0.00    -0.042 A 
ATOM      5  C5  UNL d   1      -0.032  -5.317  -0.500  0.00  0.00     0.033 A 
ATOM      6  C6  UNL d   1       1.129  -5.914   0.001  0.00  0.00    -0.057 A 
ENDROOT
BRANCH   1   7
ATOM      7  N   UNL d   1       3.510  -5.983   0.335  0.00  0.00    -0.732 N 
ATOM      8  C   UNL d   1       4.715  -6.000  -0.466  0.00  0.00     0.284 C 
ATOM      9  H3  UNL d   1       3.675  -5.877   1.334  0.00  0.00     0.395 HD
ENDBRANCH   1   7
TORSDOF 1
ENDMDL
