MODEL 1
REMARK minimizedAffinity 0.0726228207
REMARK minimizedRMSD -1
REMARK  1 active torsions:
REMARK  status: ('A' for Active; 'I' for Inactive)
REMARK    1  A    between atoms: N_2  and  C1_3 
ROOT
ATOM      1  C1  UNL d   1      -0.065   2.074   2.084  0.00  0.00     0.143 A 
ATOM      2  C2  UNL d   1      -1.333   2.652   1.960  0.00  0.00    -0.057 A 
ATOM      3  C3  UNL d   1      -2.215   2.259   0.946  0.00  0.00     0.033 A 
ATOM      4  C4  UNL d   1      -1.830   1.299   0.015  0.00  0.00    -0.042 A 
ATOM      5  C5  UNL d   1      -0.565   0.729   0.104  0.00  0.00     0.033 A 
ATOM      6  C6  UNL d   1       0.308   1.120   1.123  0.00  0.00    -0.057 A 
ENDROOT
BRANCH   1   7
ATOM      7  N   UNL d   1       0.893   2.491   3.011  0.00  0.00    -0.732 N 
ATOM      8  C   UNL d   1       1.942   3.409   2.624  0.00  0.00     0.284 C 
ATOM      9  H3  UNL d   1       0.491   2.681   3.926  0.00  0.00     0.395 HD
ENDBRANCH   1   7
TORSDOF 1
ENDMDL
