MODEL 1
REMARK minimizedAffinity -4.81511402
REMARK minimizedRMSD -1
REMARK  1 active torsions:
REMARK  status: ('A' for Active; 'I' for Inactive)
REMARK    1  A    between atoms: N_2  and  C1_3 
ROOT
ATOM      1  C1  UNL d   1      -0.416   0.313   0.289  0.00  0.00     0.143 A 
ATOM      2  C2  UNL d   1      -0.075   0.583   1.618  0.00  0.00    -0.057 A 
ATOM      3  C3  UNL d   1      -0.415   1.799   2.223  0.00  0.00     0.033 A 
ATOM      4  C4  UNL d   1      -1.079   2.782   1.496  0.00  0.00    -0.042 A 
ATOM      5  C5  UNL d   1      -1.405   2.546   0.165  0.00  0.00     0.033 A 
ATOM      6  C6  UNL d   1      -1.069   1.327  -0.431  0.00  0.00    -0.057 A 
ENDROOT
BRANCH   1   7
ATOM      7  N   UNL d   1      -0.019  -0.837  -0.398  0.00  0.00    -0.732 N 
ATOM      8  C   UNL d   1       1.146  -0.819  -1.256  0.00  0.00     0.284 C 
ATOM      9  H3  UNL d   1      -0.104  -1.677   0.170  0.00  0.00     0.395 HD
ENDBRANCH   1   7
TORSDOF 1
ENDMDL
