MODEL 1
REMARK minimizedAffinity -1.37951171
REMARK minimizedRMSD -1
REMARK  1 active torsions:
REMARK  status: ('A' for Active; 'I' for Inactive)
REMARK    1  A    between atoms: N_2  and  C1_3 
ROOT
ATOM      1  C1  UNL d   1       0.157  -0.969  -0.972  0.00  0.00     0.143 A 
ATOM      2  C2  UNL d   1       0.209  -0.271  -2.183  0.00  0.00    -0.057 A 
ATOM      3  C3  UNL d   1      -0.289   1.033  -2.290  0.00  0.00     0.033 A 
ATOM      4  C4  UNL d   1      -0.876   1.653  -1.192  0.00  0.00    -0.042 A 
ATOM      5  C5  UNL d   1      -0.961   0.968   0.015  0.00  0.00     0.033 A 
ATOM      6  C6  UNL d   1      -0.456  -0.332   0.118  0.00  0.00    -0.057 A 
ENDROOT
BRANCH   1   7
ATOM      7  N   UNL d   1       0.546  -2.303  -0.826  0.00  0.00    -0.732 N 
ATOM      8  C   UNL d   1       0.099  -3.308  -1.767  0.00  0.00     0.284 C 
ATOM      9  H3  UNL d   1       1.521  -2.396  -0.551  0.00  0.00     0.395 HD
ENDBRANCH   1   7
TORSDOF 1
ENDMDL
