MODEL 1
REMARK minimizedAffinity -1.56202459
REMARK minimizedRMSD -1
REMARK  0 active torsions:
REMARK  status: ('A' for Active; 'I' for Inactive)
ROOT
ATOM      1  C   UNL d   1       1.177  -1.406  -0.683  0.00  0.00     0.172 C 
ATOM      2  N   UNL d   1       0.684  -2.213  -1.775  0.00  0.00    -0.070 N 
ATOM      3  C1  UNL d   1       1.139  -2.173  -3.066  0.00  0.00    -0.004 A 
ATOM      4  C2  UNL d   1       0.415  -3.090  -3.797  0.00  0.00    -0.047 A 
ATOM      5  C3  UNL d   1      -0.507  -3.702  -2.915  0.00  0.00    -0.047 A 
ATOM      6  C4  UNL d   1      -0.319  -3.140  -1.670  0.00  0.00    -0.004 A 
ENDROOT
TORSDOF 0
ENDMDL
