MODEL 1
REMARK minimizedAffinity -2.99279976
REMARK minimizedRMSD -1
REMARK  0 active torsions:
REMARK  status: ('A' for Active; 'I' for Inactive)
ROOT
ATOM      1  C   UNL d   1      -0.017  -3.052  -2.755  0.00  0.00     0.172 C 
ATOM      2  N   UNL d   1       0.364  -2.155  -1.690  0.00  0.00    -0.070 N 
ATOM      3  C1  UNL d   1      -0.430  -1.184  -1.141  0.00  0.00    -0.004 A 
ATOM      4  C2  UNL d   1       0.297  -0.549  -0.158  0.00  0.00    -0.047 A 
ATOM      5  C3  UNL d   1       1.574  -1.159  -0.115  0.00  0.00    -0.047 A 
ATOM      6  C4  UNL d   1       1.588  -2.149  -1.074  0.00  0.00    -0.004 A 
ENDROOT
TORSDOF 0
ENDMDL
