MODEL 1
REMARK minimizedAffinity -2.06186676
REMARK minimizedRMSD -1
REMARK  0 active torsions:
REMARK  status: ('A' for Active; 'I' for Inactive)
ROOT
ATOM      1  C   UNL d   1      -1.109   1.743   2.097  0.00  0.00     0.172 C 
ATOM      2  N   UNL d   1      -0.405   0.979   1.094  0.00  0.00    -0.070 N 
ATOM      3  C1  UNL d   1       0.008  -0.320   1.223  0.00  0.00    -0.004 A 
ATOM      4  C2  UNL d   1       0.638  -0.681   0.052  0.00  0.00    -0.047 A 
ATOM      5  C3  UNL d   1       0.604   0.440  -0.811  0.00  0.00    -0.047 A 
ATOM      6  C4  UNL d   1      -0.048   1.454  -0.141  0.00  0.00    -0.004 A 
ENDROOT
TORSDOF 0
ENDMDL
