MODEL 1
REMARK minimizedAffinity -2.75026584
REMARK minimizedRMSD -1
REMARK  0 active torsions:
REMARK  status: ('A' for Active; 'I' for Inactive)
ROOT
ATOM      1  C   UNL d   1       0.412  -0.808  -0.745  0.00  0.00     0.172 C 
ATOM      2  N   UNL d   1      -0.172   0.108   0.206  0.00  0.00    -0.070 N 
ATOM      3  C1  UNL d   1      -0.321   1.458   0.028  0.00  0.00    -0.004 A 
ATOM      4  C2  UNL d   1      -0.919   1.970   1.159  0.00  0.00    -0.047 A 
ATOM      5  C3  UNL d   1      -1.135   0.891   2.049  0.00  0.00    -0.047 A 
ATOM      6  C4  UNL d   1      -0.663  -0.250   1.434  0.00  0.00    -0.004 A 
ENDROOT
TORSDOF 0
ENDMDL
