MODEL 1
REMARK minimizedAffinity -3.14566541
REMARK minimizedRMSD -1
REMARK  0 active torsions:
REMARK  status: ('A' for Active; 'I' for Inactive)
ROOT
ATOM      1  C   UNL d   1       1.054  -0.462  -0.254  0.00  0.00     0.172 C 
ATOM      2  N   UNL d   1       0.148   0.125   0.705  0.00  0.00    -0.070 N 
ATOM      3  C1  UNL d   1      -0.281  -0.466   1.864  0.00  0.00    -0.004 A 
ATOM      4  C2  UNL d   1      -1.131   0.415   2.497  0.00  0.00    -0.047 A 
ATOM      5  C3  UNL d   1      -1.218   1.574   1.690  0.00  0.00    -0.047 A 
ATOM      6  C4  UNL d   1      -0.417   1.367   0.587  0.00  0.00    -0.004 A 
ENDROOT
TORSDOF 0
ENDMDL
