MODEL 1
REMARK minimizedAffinity -2.84108019
REMARK minimizedRMSD -1
REMARK  0 active torsions:
REMARK  status: ('A' for Active; 'I' for Inactive)
ROOT
ATOM      1  C   UNL d   1       0.658  -0.717  -0.641  0.00  0.00     0.172 C 
ATOM      2  N   UNL d   1      -0.069   0.114   0.289  0.00  0.00    -0.070 N 
ATOM      3  C1  UNL d   1      -0.524  -0.275   1.520  0.00  0.00    -0.004 A 
ATOM      4  C2  UNL d   1      -1.163   0.802   2.094  0.00  0.00    -0.047 A 
ATOM      5  C3  UNL d   1      -1.091   1.876   1.176  0.00  0.00    -0.047 A 
ATOM      6  C4  UNL d   1      -0.408   1.423   0.067  0.00  0.00    -0.004 A 
ENDROOT
TORSDOF 0
ENDMDL
