MODEL 1
REMARK minimizedAffinity -2.37068534
REMARK minimizedRMSD -1
REMARK  0 active torsions:
REMARK  status: ('A' for Active; 'I' for Inactive)
ROOT
ATOM      1  C   UNL d   1       0.717  -2.343  -1.515  0.00  0.00     0.172 C 
ATOM      2  N   UNL d   1       0.386  -1.087  -0.884  0.00  0.00    -0.070 N 
ATOM      3  C1  UNL d   1       0.905   0.136  -1.218  0.00  0.00    -0.004 A 
ATOM      4  C2  UNL d   1       0.336   1.077  -0.386  0.00  0.00    -0.047 A 
ATOM      5  C3  UNL d   1      -0.554   0.396   0.477  0.00  0.00    -0.047 A 
ATOM      6  C4  UNL d   1      -0.504  -0.942   0.147  0.00  0.00    -0.004 A 
ENDROOT
TORSDOF 0
ENDMDL
