MODEL 1
REMARK minimizedAffinity -0.929441273
REMARK minimizedRMSD -1
REMARK  0 active torsions:
REMARK  status: ('A' for Active; 'I' for Inactive)
ROOT
ATOM      1  C   UNL d   1       1.030  -0.598  -1.126  0.00  0.00     0.172 C 
ATOM      2  N   UNL d   1       0.957  -1.970  -1.569  0.00  0.00    -0.070 N 
ATOM      3  C1  UNL d   1       1.476  -3.052  -0.909  0.00  0.00    -0.004 A 
ATOM      4  C2  UNL d   1       1.196  -4.176  -1.656  0.00  0.00    -0.047 A 
ATOM      5  C3  UNL d   1       0.485  -3.755  -2.805  0.00  0.00    -0.047 A 
ATOM      6  C4  UNL d   1       0.351  -2.385  -2.726  0.00  0.00    -0.004 A 
ENDROOT
TORSDOF 0
ENDMDL
