MODEL 1
REMARK minimizedAffinity -2.9715898
REMARK minimizedRMSD -1
REMARK  0 active torsions:
REMARK  status: ('A' for Active; 'I' for Inactive)
ROOT
ATOM      1  C   UNL d   1       0.030  -0.090  -0.127  0.00  0.00     0.172 C 
ATOM      2  N   UNL d   1       0.051  -1.244  -0.994  0.00  0.00    -0.070 N 
ATOM      3  C1  UNL d   1       1.152  -2.006  -1.283  0.00  0.00    -0.004 A 
ATOM      4  C2  UNL d   1       0.758  -3.008  -2.143  0.00  0.00    -0.047 A 
ATOM      5  C3  UNL d   1      -0.627  -2.842  -2.380  0.00  0.00    -0.047 A 
ATOM      6  C4  UNL d   1      -1.039  -1.743  -1.657  0.00  0.00    -0.004 A 
ENDROOT
TORSDOF 0
ENDMDL
