MODEL 1
REMARK minimizedAffinity -2.4870851
REMARK minimizedRMSD -1
REMARK  0 active torsions:
REMARK  status: ('A' for Active; 'I' for Inactive)
ROOT
ATOM      1  C   UNL d   1       0.434  -2.839  -1.996  0.00  0.00     0.172 C 
ATOM      2  N   UNL d   1       0.051  -1.782  -1.091  0.00  0.00    -0.070 N 
ATOM      3  C1  UNL d   1       0.623  -0.539  -1.027  0.00  0.00    -0.004 A 
ATOM      4  C2  UNL d   1      -0.024   0.173  -0.040  0.00  0.00    -0.047 A 
ATOM      5  C3  UNL d   1      -1.018  -0.671   0.509  0.00  0.00    -0.047 A 
ATOM      6  C4  UNL d   1      -0.950  -1.875  -0.160  0.00  0.00    -0.004 A 
ENDROOT
TORSDOF 0
ENDMDL
