MODEL 1
REMARK minimizedAffinity -2.72602463
REMARK minimizedRMSD -1
REMARK  0 active torsions:
REMARK  status: ('A' for Active; 'I' for Inactive)
ROOT
ATOM      1  C   UNL d   1       1.321  -1.768  -1.310  0.00  0.00     0.172 C 
ATOM      2  N   UNL d   1       0.618  -1.159  -0.205  0.00  0.00    -0.070 N 
ATOM      3  C1  UNL d   1       1.201  -0.557   0.878  0.00  0.00    -0.004 A 
ATOM      4  C2  UNL d   1       0.194  -0.104   1.702  0.00  0.00    -0.047 A 
ATOM      5  C3  UNL d   1      -1.037  -0.447   1.095  0.00  0.00    -0.047 A 
ATOM      6  C4  UNL d   1      -0.745  -1.099  -0.085  0.00  0.00    -0.004 A 
ENDROOT
TORSDOF 0
ENDMDL
