MODEL 1
REMARK minimizedAffinity -2.83855295
REMARK minimizedRMSD -1
REMARK  0 active torsions:
REMARK  status: ('A' for Active; 'I' for Inactive)
ROOT
ATOM      1  C   UNL d   1       0.771  -0.527  -0.472  0.00  0.00     0.172 C 
ATOM      2  N   UNL d   1      -0.021   0.266   0.439  0.00  0.00    -0.070 N 
ATOM      3  C1  UNL d   1      -0.842  -0.225   1.418  0.00  0.00    -0.004 A 
ATOM      4  C2  UNL d   1      -1.416   0.848   2.065  0.00  0.00    -0.047 A 
ATOM      5  C3  UNL d   1      -0.923   2.025   1.453  0.00  0.00    -0.047 A 
ATOM      6  C4  UNL d   1      -0.061   1.635   0.450  0.00  0.00    -0.004 A 
ENDROOT
TORSDOF 0
ENDMDL
