MODEL 1
REMARK minimizedAffinity -2.46271276
REMARK minimizedRMSD -1
REMARK  0 active torsions:
REMARK  status: ('A' for Active; 'I' for Inactive)
ROOT
ATOM      1  C   UNL d   1       0.174   3.231  -1.128  0.00  0.00     0.172 C 
ATOM      2  N   UNL d   1      -0.272   2.324  -0.096  0.00  0.00    -0.070 N 
ATOM      3  C1  UNL d   1      -1.003   2.669   1.009  0.00  0.00    -0.004 A 
ATOM      4  C2  UNL d   1      -1.225   1.524   1.743  0.00  0.00    -0.047 A 
ATOM      5  C3  UNL d   1      -0.606   0.453   1.055  0.00  0.00    -0.047 A 
ATOM      6  C4  UNL d   1      -0.023   0.977  -0.080  0.00  0.00    -0.004 A 
ENDROOT
TORSDOF 0
ENDMDL
