MODEL 1
REMARK minimizedAffinity -3.10613823
REMARK minimizedRMSD -1
REMARK  0 active torsions:
REMARK  status: ('A' for Active; 'I' for Inactive)
ROOT
ATOM      1  C   UNL d   1       0.350  -2.815  -2.760  0.00  0.00     0.172 C 
ATOM      2  N   UNL d   1       0.423  -1.939  -1.615  0.00  0.00    -0.070 N 
ATOM      3  C1  UNL d   1       1.488  -1.827  -0.762  0.00  0.00    -0.004 A 
ATOM      4  C2  UNL d   1       1.165  -0.889   0.195  0.00  0.00    -0.047 A 
ATOM      5  C3  UNL d   1      -0.139  -0.422  -0.092  0.00  0.00    -0.047 A 
ATOM      6  C4  UNL d   1      -0.575  -1.088  -1.217  0.00  0.00    -0.004 A 
ENDROOT
TORSDOF 0
ENDMDL
