MODEL 1
REMARK minimizedAffinity 13.250041
REMARK minimizedRMSD -1
REMARK  1 active torsions:
REMARK  status: ('A' for Active; 'I' for Inactive)
REMARK    1  A    between atoms: C1_2  and  C2_3 
ROOT
ATOM      1  C2  UNL d   1      -0.325   0.157   0.599  0.00  0.00    -0.076 A 
ATOM      2  C3  UNL d   1      -0.671   0.444   1.931  0.00  0.00     0.004 A 
ATOM      3  C4  UNL d   1      -2.002   0.626   2.303  0.00  0.00    -0.003 A 
ATOM      4  C5  UNL d   1      -3.009   0.522   1.349  0.00  0.00     0.000 A 
ATOM      5  C6  UNL d   1      -2.685   0.220   0.027  0.00  0.00     0.000 A 
ATOM      6  C7  UNL d   1      -1.350   0.018  -0.362  0.00  0.00    -0.073 A 
ATOM      7  C8  UNL d   1      -1.057  -0.299  -1.803  0.00  0.00     0.078 C 
ENDROOT
BRANCH   1   8
ATOM      8  C1  UNL d   1       1.137  -0.003   0.249  0.00  0.00     0.053 C 
ATOM      9  C   UNL d   1       2.038   0.890   1.087  0.00  0.00     0.018 C 
ENDBRANCH   1   8
TORSDOF 1
ENDMDL
