MODEL 1
REMARK minimizedAffinity 7.507195
REMARK minimizedRMSD -1
REMARK  1 active torsions:
REMARK  status: ('A' for Active; 'I' for Inactive)
REMARK    1  A    between atoms: C1_2  and  C2_3 
ROOT
ATOM      1  C2  UNL d   1      -1.800   0.298   1.937  0.00  0.00    -0.076 A 
ATOM      2  C3  UNL d   1      -3.167   0.367   1.617  0.00  0.00     0.004 A 
ATOM      3  C4  UNL d   1      -3.591   0.438   0.291  0.00  0.00    -0.003 A 
ATOM      4  C5  UNL d   1      -2.655   0.441  -0.737  0.00  0.00     0.000 A 
ATOM      5  C6  UNL d   1      -1.295   0.356  -0.439  0.00  0.00     0.000 A 
ATOM      6  C7  UNL d   1      -0.852   0.267   0.892  0.00  0.00    -0.073 A 
ATOM      7  C8  UNL d   1       0.627   0.184   1.156  0.00  0.00     0.078 C 
ENDROOT
BRANCH   1   8
ATOM      8  C1  UNL d   1      -1.398   0.251   3.394  0.00  0.00     0.053 C 
ATOM      9  C   UNL d   1      -1.174  -1.170   3.890  0.00  0.00     0.018 C 
ENDBRANCH   1   8
TORSDOF 1
ENDMDL
