MODEL 1
REMARK minimizedAffinity 3.00688958
REMARK minimizedRMSD -1
REMARK  1 active torsions:
REMARK  status: ('A' for Active; 'I' for Inactive)
REMARK    1  A    between atoms: C1_2  and  C2_3 
ROOT
ATOM      1  C2  UNL d   1      -0.294  -0.723   2.445  0.00  0.00    -0.076 A 
ATOM      2  C3  UNL d   1      -1.598  -0.436   2.884  0.00  0.00     0.004 A 
ATOM      3  C4  UNL d   1      -2.596  -0.076   1.979  0.00  0.00    -0.003 A 
ATOM      4  C5  UNL d   1      -2.306   0.002   0.622  0.00  0.00     0.000 A 
ATOM      5  C6  UNL d   1      -1.022  -0.296   0.167  0.00  0.00     0.000 A 
ATOM      6  C7  UNL d   1      -0.008  -0.677   1.064  0.00  0.00    -0.073 A 
ATOM      7  C8  UNL d   1       1.360  -0.981   0.519  0.00  0.00     0.078 C 
ENDROOT
BRANCH   1   8
ATOM      8  C1  UNL d   1       0.754  -1.081   3.475  0.00  0.00     0.053 C 
ATOM      9  C   UNL d   1       0.147  -1.615   4.763  0.00  0.00     0.018 C 
ENDBRANCH   1   8
TORSDOF 1
ENDMDL
