MODEL 1
REMARK minimizedAffinity 4.63211966
REMARK minimizedRMSD -1
REMARK  1 active torsions:
REMARK  status: ('A' for Active; 'I' for Inactive)
REMARK    1  A    between atoms: C1_2  and  C2_3 
ROOT
ATOM      1  C2  UNL d   1      -1.320  -0.279   1.580  0.00  0.00    -0.076 A 
ATOM      2  C3  UNL d   1      -2.178  -0.340   2.692  0.00  0.00     0.004 A 
ATOM      3  C4  UNL d   1      -1.708  -0.744   3.940  0.00  0.00    -0.003 A 
ATOM      4  C5  UNL d   1      -0.371  -1.093   4.097  0.00  0.00     0.000 A 
ATOM      5  C6  UNL d   1       0.498  -1.021   3.010  0.00  0.00     0.000 A 
ATOM      6  C7  UNL d   1       0.044  -0.600   1.748  0.00  0.00    -0.073 A 
ATOM      7  C8  UNL d   1       1.024  -0.547   0.608  0.00  0.00     0.078 C 
ENDROOT
BRANCH   1   8
ATOM      8  C1  UNL d   1      -1.893   0.140   0.245  0.00  0.00     0.053 C 
ATOM      9  C   UNL d   1      -2.724  -0.956  -0.402  0.00  0.00     0.018 C 
ENDBRANCH   1   8
TORSDOF 1
ENDMDL
