MODEL 1
REMARK minimizedAffinity 0.222324178
REMARK minimizedRMSD -1
REMARK  1 active torsions:
REMARK  status: ('A' for Active; 'I' for Inactive)
REMARK    1  A    between atoms: C1_2  and  C2_3 
ROOT
ATOM      1  C2  UNL d   1      -0.137  -0.284   2.243  0.00  0.00    -0.076 A 
ATOM      2  C3  UNL d   1      -1.338   0.118   2.854  0.00  0.00     0.004 A 
ATOM      3  C4  UNL d   1      -2.450   0.468   2.090  0.00  0.00    -0.003 A 
ATOM      4  C5  UNL d   1      -2.379   0.422   0.702  0.00  0.00     0.000 A 
ATOM      5  C6  UNL d   1      -1.202   0.009   0.079  0.00  0.00     0.000 A 
ATOM      6  C7  UNL d   1      -0.077  -0.363   0.835  0.00  0.00    -0.073 A 
ATOM      7  C8  UNL d   1       1.169  -0.795   0.111  0.00  0.00     0.078 C 
ENDROOT
BRANCH   1   8
ATOM      8  C1  UNL d   1       1.044  -0.626   3.123  0.00  0.00     0.053 C 
ATOM      9  C   UNL d   1       0.638  -1.396   4.370  0.00  0.00     0.018 C 
ENDBRANCH   1   8
TORSDOF 1
ENDMDL
