MODEL 1
REMARK minimizedAffinity 2.06748128
REMARK minimizedRMSD -1
REMARK  0 active torsions:
REMARK  status: ('A' for Active; 'I' for Inactive)
ROOT
ATOM      1  C   UNL d   1      -0.276  -5.766   4.878  0.00  0.00    -0.002 A 
ATOM      2  C1  UNL d   1       0.630  -5.901   5.921  0.00  0.00     0.010 A 
ATOM      3  C2  UNL d   1       1.751  -5.073   6.000  0.00  0.00     0.041 A 
ATOM      4  C3  UNL d   1       1.949  -4.096   5.004  0.00  0.00    -0.075 A 
ATOM      5  S   UNL d   1       3.250  -2.971   4.896  0.00  0.00     0.015 SA
ATOM      6  C4  UNL d   1       2.634  -2.283   3.463  0.00  0.00     0.022 A 
ATOM      7  C5  UNL d   1       1.465  -2.886   3.063  0.00  0.00     0.026 A 
ATOM      8  C6  UNL d   1       1.050  -3.941   3.944  0.00  0.00    -0.082 A 
ATOM      9  C7  UNL d   1      -0.076  -4.796   3.892  0.00  0.00     0.045 A 
ENDROOT
TORSDOF 0
ENDMDL
