MODEL 1
REMARK minimizedAffinity 9.28510475
REMARK minimizedRMSD -1
REMARK  0 active torsions:
REMARK  status: ('A' for Active; 'I' for Inactive)
ROOT
ATOM      1  C   UNL d   1       5.123  -2.957   6.000  0.00  0.00    -0.002 A 
ATOM      2  C1  UNL d   1       6.000  -2.587   4.990  0.00  0.00     0.010 A 
ATOM      3  C2  UNL d   1       5.544  -1.873   3.880  0.00  0.00     0.041 A 
ATOM      4  C3  UNL d   1       4.179  -1.533   3.802  0.00  0.00    -0.075 A 
ATOM      5  S   UNL d   1       3.396  -0.661   2.538  0.00  0.00     0.015 SA
ATOM      6  C4  UNL d   1       1.879  -0.759   3.309  0.00  0.00     0.022 A 
ATOM      7  C5  UNL d   1       1.950  -1.437   4.502  0.00  0.00     0.026 A 
ATOM      8  C6  UNL d   1       3.277  -1.894   4.807  0.00  0.00    -0.082 A 
ATOM      9  C7  UNL d   1       3.770  -2.618   5.919  0.00  0.00     0.045 A 
ENDROOT
TORSDOF 0
ENDMDL
