MODEL 1
REMARK minimizedAffinity 19.4454994
REMARK minimizedRMSD -1
REMARK  0 active torsions:
REMARK  status: ('A' for Active; 'I' for Inactive)
ROOT
ATOM      1  C   UNL d   1       5.482  -2.619   5.787  0.00  0.00    -0.002 A 
ATOM      2  C1  UNL d   1       6.000  -2.251   4.554  0.00  0.00     0.010 A 
ATOM      3  C2  UNL d   1       5.151  -1.883   3.508  0.00  0.00     0.041 A 
ATOM      4  C3  UNL d   1       3.759  -1.890   3.726  0.00  0.00    -0.075 A 
ATOM      5  S   UNL d   1       2.527  -1.476   2.593  0.00  0.00     0.015 SA
ATOM      6  C4  UNL d   1       1.285  -1.778   3.720  0.00  0.00     0.022 A 
ATOM      7  C5  UNL d   1       1.780  -2.185   4.936  0.00  0.00     0.026 A 
ATOM      8  C6  UNL d   1       3.214  -2.256   4.960  0.00  0.00    -0.082 A 
ATOM      9  C7  UNL d   1       4.101  -2.625   6.000  0.00  0.00     0.045 A 
ENDROOT
TORSDOF 0
ENDMDL
