MODEL 1
REMARK minimizedAffinity 12.3328447
REMARK minimizedRMSD -1
REMARK  0 active torsions:
REMARK  status: ('A' for Active; 'I' for Inactive)
ROOT
ATOM      1  C   UNL d   1       1.516  -1.784   3.737  0.00  0.00    -0.002 A 
ATOM      2  C1  UNL d   1       2.164  -1.104   2.715  0.00  0.00     0.010 A 
ATOM      3  C2  UNL d   1       3.553  -0.971   2.721  0.00  0.00     0.041 A 
ATOM      4  C3  UNL d   1       4.288  -1.540   3.779  0.00  0.00    -0.075 A 
ATOM      5  S   UNL d   1       5.999  -1.504   3.995  0.00  0.00     0.015 SA
ATOM      6  C4  UNL d   1       5.909  -2.391   5.447  0.00  0.00     0.022 A 
ATOM      7  C5  UNL d   1       4.614  -2.715   5.775  0.00  0.00     0.026 A 
ATOM      8  C6  UNL d   1       3.658  -2.230   4.819  0.00  0.00    -0.082 A 
ATOM      9  C7  UNL d   1       2.248  -2.347   4.785  0.00  0.00     0.045 A 
ENDROOT
TORSDOF 0
ENDMDL
