MODEL 1
REMARK minimizedAffinity 1.39612484
REMARK minimizedRMSD -1
REMARK  0 active torsions:
REMARK  status: ('A' for Active; 'I' for Inactive)
ROOT
ATOM      1  C   UNL d   1       1.530  -1.967   3.921  0.00  0.00    -0.002 A 
ATOM      2  C1  UNL d   1       2.255  -1.210   3.011  0.00  0.00     0.010 A 
ATOM      3  C2  UNL d   1       3.646  -1.134   3.100  0.00  0.00     0.041 A 
ATOM      4  C3  UNL d   1       4.304  -1.839   4.127  0.00  0.00    -0.075 A 
ATOM      5  S   UNL d   1       6.000  -1.894   4.430  0.00  0.00     0.015 SA
ATOM      6  C4  UNL d   1       5.803  -2.924   5.773  0.00  0.00     0.022 A 
ATOM      7  C5  UNL d   1       4.481  -3.229   6.000  0.00  0.00     0.026 A 
ATOM      8  C6  UNL d   1       3.595  -2.609   5.054  0.00  0.00    -0.082 A 
ATOM      9  C7  UNL d   1       2.186  -2.665   4.939  0.00  0.00     0.045 A 
ENDROOT
TORSDOF 0
ENDMDL
