MODEL 1
REMARK minimizedAffinity 12.6410456
REMARK minimizedRMSD -1
REMARK  0 active torsions:
REMARK  status: ('A' for Active; 'I' for Inactive)
ROOT
ATOM      1  C   UNL d   1      -5.895   3.343  -4.480  0.00  0.00    -0.002 A 
ATOM      2  C1  UNL d   1      -5.998   2.970  -3.147  0.00  0.00     0.010 A 
ATOM      3  C2  UNL d   1      -6.000   1.621  -2.785  0.00  0.00     0.041 A 
ATOM      4  C3  UNL d   1      -5.892   0.645  -3.795  0.00  0.00    -0.075 A 
ATOM      5  S   UNL d   1      -5.872  -1.067  -3.588  0.00  0.00     0.015 SA
ATOM      6  C4  UNL d   1      -5.724  -1.342  -5.263  0.00  0.00     0.022 A 
ATOM      7  C5  UNL d   1      -5.690  -0.169  -5.978  0.00  0.00     0.026 A 
ATOM      8  C6  UNL d   1      -5.786   0.996  -5.144  0.00  0.00    -0.082 A 
ATOM      9  C7  UNL d   1      -5.788   2.372  -5.478  0.00  0.00     0.045 A 
ENDROOT
TORSDOF 0
ENDMDL
