MODEL 1
REMARK minimizedAffinity 3.61856842
REMARK minimizedRMSD -1
REMARK  0 active torsions:
REMARK  status: ('A' for Active; 'I' for Inactive)
ROOT
ATOM      1  C   UNL d   1       1.671  -1.589   2.398  0.00  0.00     0.077 C 
ATOM      2  C1  UNL d   1       2.045  -1.780   0.958  0.00  0.00    -0.074 A 
ATOM      3  C2  UNL d   1       2.666  -2.956   0.527  0.00  0.00    -0.005 A 
ATOM      4  C3  UNL d   1       2.999  -3.124  -0.817  0.00  0.00     0.006 A 
ATOM      5  C4  UNL d   1       2.715  -2.118  -1.742  0.00  0.00    -0.005 A 
ATOM      6  C5  UNL d   1       2.093  -0.935  -1.329  0.00  0.00    -0.074 A 
ATOM      7  C6  UNL d   1       1.771   0.151  -2.312  0.00  0.00     0.077 C 
ATOM      8  C7  UNL d   1       1.755  -0.778   0.022  0.00  0.00    -0.001 A 
ENDROOT
TORSDOF 0
ENDMDL
