MODEL 1
REMARK minimizedAffinity 6.05522394
REMARK minimizedRMSD -1
REMARK  0 active torsions:
REMARK  status: ('A' for Active; 'I' for Inactive)
ROOT
ATOM      1  C   UNL d   1      -0.387  -0.826   3.712  0.00  0.00     0.077 C 
ATOM      2  C1  UNL d   1       0.652  -1.130   2.674  0.00  0.00    -0.074 A 
ATOM      3  C2  UNL d   1       1.724  -1.982   2.959  0.00  0.00    -0.005 A 
ATOM      4  C3  UNL d   1       2.677  -2.263   1.980  0.00  0.00     0.006 A 
ATOM      5  C4  UNL d   1       2.569  -1.696   0.710  0.00  0.00    -0.005 A 
ATOM      6  C5  UNL d   1       1.504  -0.842   0.407  0.00  0.00    -0.074 A 
ATOM      7  C6  UNL d   1       1.368  -0.231  -0.956  0.00  0.00     0.077 C 
ATOM      8  C7  UNL d   1       0.546  -0.570   1.394  0.00  0.00    -0.001 A 
ENDROOT
TORSDOF 0
ENDMDL
