MODEL 1
REMARK minimizedAffinity 6.38922644
REMARK minimizedRMSD -1
REMARK  0 active torsions:
REMARK  status: ('A' for Active; 'I' for Inactive)
ROOT
ATOM      1  C   UNL d   1       1.495  -1.508   0.557  0.00  0.00     0.077 C 
ATOM      2  C1  UNL d   1       1.739  -0.229  -0.187  0.00  0.00    -0.074 A 
ATOM      3  C2  UNL d   1       2.206   0.910   0.477  0.00  0.00    -0.005 A 
ATOM      4  C3  UNL d   1       2.438   2.090  -0.229  0.00  0.00     0.006 A 
ATOM      5  C4  UNL d   1       2.205   2.144  -1.604  0.00  0.00    -0.005 A 
ATOM      6  C5  UNL d   1       1.739   1.015  -2.285  0.00  0.00    -0.074 A 
ATOM      7  C6  UNL d   1       1.493   1.052  -3.764  0.00  0.00     0.077 C 
ATOM      8  C7  UNL d   1       1.515  -0.170  -1.569  0.00  0.00    -0.001 A 
ENDROOT
TORSDOF 0
ENDMDL
