MODEL 1
REMARK minimizedAffinity -1.02975845
REMARK minimizedRMSD -1
REMARK  0 active torsions:
REMARK  status: ('A' for Active; 'I' for Inactive)
ROOT
ATOM      1  C   UNL d   1       1.929  -1.379  -1.212  0.00  0.00     0.077 C 
ATOM      2  C1  UNL d   1       1.759  -1.456   0.276  0.00  0.00    -0.074 A 
ATOM      3  C2  UNL d   1       2.691  -2.128   1.073  0.00  0.00    -0.005 A 
ATOM      4  C3  UNL d   1       2.525  -2.183   2.457  0.00  0.00     0.006 A 
ATOM      5  C4  UNL d   1       1.427  -1.567   3.057  0.00  0.00    -0.005 A 
ATOM      6  C5  UNL d   1       0.484  -0.889   2.277  0.00  0.00    -0.074 A 
ATOM      7  C6  UNL d   1      -0.697  -0.213   2.908  0.00  0.00     0.077 C 
ATOM      8  C7  UNL d   1       0.662  -0.832   0.888  0.00  0.00    -0.001 A 
ENDROOT
TORSDOF 0
ENDMDL
