MODEL 1
REMARK minimizedAffinity 0.717523158
REMARK minimizedRMSD -1
REMARK  0 active torsions:
REMARK  status: ('A' for Active; 'I' for Inactive)
ROOT
ATOM      1  C   UNL d   1      -0.102  -1.079   3.009  0.00  0.00     0.077 C 
ATOM      2  C1  UNL d   1       0.153  -0.986   1.534  0.00  0.00    -0.074 A 
ATOM      3  C2  UNL d   1       1.458  -0.933   1.032  0.00  0.00    -0.005 A 
ATOM      4  C3  UNL d   1       1.680  -0.856  -0.343  0.00  0.00     0.006 A 
ATOM      5  C4  UNL d   1       0.602  -0.832  -1.228  0.00  0.00    -0.005 A 
ATOM      6  C5  UNL d   1      -0.709  -0.886  -0.745  0.00  0.00    -0.074 A 
ATOM      7  C6  UNL d   1      -1.879  -0.871  -1.684  0.00  0.00     0.077 C 
ATOM      8  C7  UNL d   1      -0.924  -0.970   0.637  0.00  0.00    -0.001 A 
ENDROOT
TORSDOF 0
ENDMDL
