MODEL 1
REMARK minimizedAffinity 1.99983215
REMARK minimizedRMSD -1
REMARK  0 active torsions:
REMARK  status: ('A' for Active; 'I' for Inactive)
ROOT
ATOM      1  C   UNL d   1       2.061   1.606  -4.023  0.00  0.00     0.077 C 
ATOM      2  C1  UNL d   1       2.299   1.092  -2.634  0.00  0.00    -0.074 A 
ATOM      3  C2  UNL d   1       2.093  -0.255  -2.321  0.00  0.00    -0.005 A 
ATOM      4  C3  UNL d   1       2.328  -0.720  -1.027  0.00  0.00     0.006 A 
ATOM      5  C4  UNL d   1       2.769   0.156  -0.035  0.00  0.00    -0.005 A 
ATOM      6  C5  UNL d   1       2.981   1.506  -0.330  0.00  0.00    -0.074 A 
ATOM      7  C6  UNL d   1       3.465   2.459   0.723  0.00  0.00     0.077 C 
ATOM      8  C7  UNL d   1       2.750   1.965  -1.634  0.00  0.00    -0.001 A 
ENDROOT
TORSDOF 0
ENDMDL
