MODEL 1
REMARK minimizedAffinity 9.47727585
REMARK minimizedRMSD -1
REMARK  0 active torsions:
REMARK  status: ('A' for Active; 'I' for Inactive)
ROOT
ATOM      1  C   UNL d   1       1.403  -0.574  -0.942  0.00  0.00     0.077 C 
ATOM      2  C1  UNL d   1       1.636  -1.122   0.435  0.00  0.00    -0.074 A 
ATOM      3  C2  UNL d   1       2.696  -1.998   0.691  0.00  0.00    -0.005 A 
ATOM      4  C3  UNL d   1       2.905  -2.491   1.978  0.00  0.00     0.006 A 
ATOM      5  C4  UNL d   1       2.058  -2.115   3.022  0.00  0.00    -0.005 A 
ATOM      6  C5  UNL d   1       0.994  -1.240   2.785  0.00  0.00    -0.074 A 
ATOM      7  C6  UNL d   1       0.080  -0.818   3.897  0.00  0.00     0.077 C 
ATOM      8  C7  UNL d   1       0.794  -0.743   1.490  0.00  0.00    -0.001 A 
ENDROOT
TORSDOF 0
ENDMDL
