MODEL 1
REMARK minimizedAffinity -2.09963107
REMARK minimizedRMSD -1
REMARK  0 active torsions:
REMARK  status: ('A' for Active; 'I' for Inactive)
ROOT
ATOM      1  C   UNL d   1       2.610  -1.615  -1.205  0.00  0.00     0.077 C 
ATOM      2  C1  UNL d   1       2.471  -1.395   0.272  0.00  0.00    -0.074 A 
ATOM      3  C2  UNL d   1       3.600  -1.298   1.093  0.00  0.00    -0.005 A 
ATOM      4  C3  UNL d   1       3.455  -1.084   2.464  0.00  0.00     0.006 A 
ATOM      5  C4  UNL d   1       2.184  -0.966   3.026  0.00  0.00    -0.005 A 
ATOM      6  C5  UNL d   1       1.045  -1.059   2.221  0.00  0.00    -0.074 A 
ATOM      7  C6  UNL d   1      -0.329  -0.925   2.809  0.00  0.00     0.077 C 
ATOM      8  C7  UNL d   1       1.198  -1.267   0.844  0.00  0.00    -0.001 A 
ENDROOT
TORSDOF 0
ENDMDL
