MODEL 1
REMARK minimizedAffinity 0.373553932
REMARK minimizedRMSD -1
REMARK  0 active torsions:
REMARK  status: ('A' for Active; 'I' for Inactive)
ROOT
ATOM      1  C   UNL d   1       2.430  -1.480   0.011  0.00  0.00     0.077 C 
ATOM      2  C1  UNL d   1       2.461  -0.131  -0.644  0.00  0.00    -0.074 A 
ATOM      3  C2  UNL d   1       2.568   1.037   0.119  0.00  0.00    -0.005 A 
ATOM      4  C3  UNL d   1       2.605   2.283  -0.505  0.00  0.00     0.006 A 
ATOM      5  C4  UNL d   1       2.537   2.376  -1.896  0.00  0.00    -0.005 A 
ATOM      6  C5  UNL d   1       2.432   1.219  -2.675  0.00  0.00    -0.074 A 
ATOM      7  C6  UNL d   1       2.367   1.300  -4.171  0.00  0.00     0.077 C 
ATOM      8  C7  UNL d   1       2.402  -0.031  -2.041  0.00  0.00    -0.001 A 
ENDROOT
TORSDOF 0
ENDMDL
