MODEL 1
REMARK minimizedAffinity 3.23217583
REMARK minimizedRMSD -1
REMARK  0 active torsions:
REMARK  status: ('A' for Active; 'I' for Inactive)
ROOT
ATOM      1  C   UNL d   1       4.110  -2.235   3.992  0.00  0.00     0.077 C 
ATOM      2  C1  UNL d   1       3.062  -1.954   2.957  0.00  0.00    -0.074 A 
ATOM      3  C2  UNL d   1       3.339  -2.102   1.595  0.00  0.00    -0.005 A 
ATOM      4  C3  UNL d   1       2.351  -1.847   0.644  0.00  0.00     0.006 A 
ATOM      5  C4  UNL d   1       1.077  -1.442   1.045  0.00  0.00    -0.005 A 
ATOM      6  C5  UNL d   1       0.781  -1.290   2.404  0.00  0.00    -0.074 A 
ATOM      7  C6  UNL d   1      -0.585  -0.864   2.853  0.00  0.00     0.077 C 
ATOM      8  C7  UNL d   1       1.778  -1.555   3.353  0.00  0.00    -0.001 A 
ENDROOT
TORSDOF 0
ENDMDL
