MODEL 1
REMARK minimizedAffinity 7.14984417
REMARK minimizedRMSD -1
REMARK  0 active torsions:
REMARK  status: ('A' for Active; 'I' for Inactive)
ROOT
ATOM      1  C   UNL d   1       1.330   3.023   0.213  0.00  0.00     0.020 A 
ATOM      2  C1  UNL d   1       2.239   2.280   0.966  0.00  0.00     0.020 A 
ATOM      3  C2  UNL d   1       1.809   1.602   2.108  0.00  0.00     0.034 A 
ATOM      4  C3  UNL d   1       0.467   1.665   2.501  0.00  0.00     0.017 A 
ATOM      5  C4  UNL d   1      -0.444   2.411   1.745  0.00  0.00     0.017 A 
ATOM      6  C5  UNL d   1      -0.008   3.088   0.602  0.00  0.00     0.034 A 
ATOM      7 Cl   UNL d   1      -2.116   2.536   2.166  0.00  0.00    -0.070 Cl
ATOM      8 Cl1  UNL d   1       0.005   0.801   3.925  0.00  0.00    -0.070 Cl
ENDROOT
TORSDOF 0
ENDMDL
