MODEL 1
REMARK minimizedAffinity 6.55199385
REMARK minimizedRMSD -1
REMARK  0 active torsions:
REMARK  status: ('A' for Active; 'I' for Inactive)
ROOT
ATOM      1  C   UNL d   1       2.119  -2.348   0.272  0.00  0.00     0.020 A 
ATOM      2  C1  UNL d   1       3.219  -2.814   0.992  0.00  0.00     0.020 A 
ATOM      3  C2  UNL d   1       4.119  -1.908   1.555  0.00  0.00     0.034 A 
ATOM      4  C3  UNL d   1       3.923  -0.531   1.399  0.00  0.00     0.017 A 
ATOM      5  C4  UNL d   1       2.819  -0.064   0.676  0.00  0.00     0.017 A 
ATOM      6  C5  UNL d   1       1.920  -0.976   0.114  0.00  0.00     0.034 A 
ATOM      7 Cl   UNL d   1       2.510   1.620   0.441  0.00  0.00    -0.070 Cl
ATOM      8 Cl1  UNL d   1       5.076   0.533   2.123  0.00  0.00    -0.070 Cl
ENDROOT
TORSDOF 0
ENDMDL
