MODEL 1
REMARK minimizedAffinity 4.62176466
REMARK minimizedRMSD -1
REMARK  0 active torsions:
REMARK  status: ('A' for Active; 'I' for Inactive)
ROOT
ATOM      1  C   UNL d   1      -0.232  -2.768  -0.912  0.00  0.00     0.020 A 
ATOM      2  C1  UNL d   1       0.754  -3.719  -0.653  0.00  0.00     0.020 A 
ATOM      3  C2  UNL d   1       2.012  -3.315  -0.200  0.00  0.00     0.034 A 
ATOM      4  C3  UNL d   1       2.287  -1.956  -0.006  0.00  0.00     0.017 A 
ATOM      5  C4  UNL d   1       1.297  -1.002  -0.267  0.00  0.00     0.017 A 
ATOM      6  C5  UNL d   1       0.039  -1.412  -0.720  0.00  0.00     0.034 A 
ATOM      7 Cl   UNL d   1       1.562   0.692  -0.051  0.00  0.00    -0.070 Cl
ATOM      8 Cl1  UNL d   1       3.864  -1.528   0.556  0.00  0.00    -0.070 Cl
ENDROOT
TORSDOF 0
ENDMDL
