MODEL 1
REMARK minimizedAffinity 5.98885822
REMARK minimizedRMSD -1
REMARK  0 active torsions:
REMARK  status: ('A' for Active; 'I' for Inactive)
ROOT
ATOM      1  C   UNL d   1       2.224  -2.242   0.571  0.00  0.00     0.020 A 
ATOM      2  C1  UNL d   1       2.796  -1.537  -0.488  0.00  0.00     0.020 A 
ATOM      3  C2  UNL d   1       2.558  -0.168  -0.624  0.00  0.00     0.034 A 
ATOM      4  C3  UNL d   1       1.748   0.502   0.300  0.00  0.00     0.017 A 
ATOM      5  C4  UNL d   1       1.175  -0.206   1.362  0.00  0.00     0.017 A 
ATOM      6  C5  UNL d   1       1.416  -1.577   1.494  0.00  0.00     0.034 A 
ATOM      7 Cl   UNL d   1       0.164   0.551   2.542  0.00  0.00    -0.070 Cl
ATOM      8 Cl1  UNL d   1       1.498   2.196   0.070  0.00  0.00    -0.070 Cl
ENDROOT
TORSDOF 0
ENDMDL
