MODEL 1
REMARK minimizedAffinity -2.2475791
REMARK minimizedRMSD -1
REMARK  0 active torsions:
REMARK  status: ('A' for Active; 'I' for Inactive)
ROOT
ATOM      1  C   UNL d   1       0.977  -2.467  -0.449  0.00  0.00     0.020 A 
ATOM      2  C1  UNL d   1       1.825  -1.741   0.386  0.00  0.00     0.020 A 
ATOM      3  C2  UNL d   1       1.682  -0.356   0.493  0.00  0.00     0.034 A 
ATOM      4  C3  UNL d   1       0.688   0.307  -0.237  0.00  0.00     0.017 A 
ATOM      5  C4  UNL d   1      -0.162  -0.423  -1.075  0.00  0.00     0.017 A 
ATOM      6  C5  UNL d   1      -0.015  -1.809  -1.178  0.00  0.00     0.034 A 
ATOM      7 Cl   UNL d   1      -1.411   0.325  -2.007  0.00  0.00    -0.070 Cl
ATOM      8 Cl1  UNL d   1       0.568   2.021  -0.056  0.00  0.00    -0.070 Cl
ENDROOT
TORSDOF 0
ENDMDL
