MODEL 1
REMARK minimizedAffinity 1.72903728
REMARK minimizedRMSD -1
REMARK  0 active torsions:
REMARK  status: ('A' for Active; 'I' for Inactive)
ROOT
ATOM      1  C   UNL d   1      -0.189  -2.591  -2.228  0.00  0.00     0.020 A 
ATOM      2  C1  UNL d   1      -0.434  -3.630  -1.332  0.00  0.00     0.020 A 
ATOM      3  C2  UNL d   1       0.269  -3.695  -0.127  0.00  0.00     0.034 A 
ATOM      4  C3  UNL d   1       1.222  -2.718   0.185  0.00  0.00     0.017 A 
ATOM      5  C4  UNL d   1       1.468  -1.675  -0.715  0.00  0.00     0.017 A 
ATOM      6  C5  UNL d   1       0.760  -1.615  -1.920  0.00  0.00     0.034 A 
ATOM      7 Cl   UNL d   1       2.628  -0.433  -0.400  0.00  0.00    -0.070 Cl
ATOM      8 Cl1  UNL d   1       2.054  -2.860   1.693  0.00  0.00    -0.070 Cl
ENDROOT
TORSDOF 0
ENDMDL
