MODEL 1
REMARK minimizedAffinity 5.29899549
REMARK minimizedRMSD -1
REMARK  0 active torsions:
REMARK  status: ('A' for Active; 'I' for Inactive)
ROOT
ATOM      1  C   UNL d   1       2.797  -1.893   0.510  0.00  0.00     0.020 A 
ATOM      2  C1  UNL d   1       2.518  -1.459  -0.786  0.00  0.00     0.020 A 
ATOM      3  C2  UNL d   1       2.166  -0.128  -1.016  0.00  0.00     0.034 A 
ATOM      4  C3  UNL d   1       2.092   0.775   0.051  0.00  0.00     0.017 A 
ATOM      5  C4  UNL d   1       2.372   0.339   1.351  0.00  0.00     0.017 A 
ATOM      6  C5  UNL d   1       2.724  -0.996   1.576  0.00  0.00     0.034 A 
ATOM      7 Cl   UNL d   1       2.301   1.394   2.719  0.00  0.00    -0.070 Cl
ATOM      8 Cl1  UNL d   1       1.651   2.407  -0.306  0.00  0.00    -0.070 Cl
ENDROOT
TORSDOF 0
ENDMDL
