MODEL 1
REMARK minimizedAffinity -2.48759389
REMARK minimizedRMSD -1
REMARK  0 active torsions:
REMARK  status: ('A' for Active; 'I' for Inactive)
ROOT
ATOM      1  C   UNL d   1      -0.202  -2.114  -1.209  0.00  0.00     0.020 A 
ATOM      2  C1  UNL d   1       1.086  -2.646  -1.165  0.00  0.00     0.020 A 
ATOM      3  C2  UNL d   1       2.187  -1.797  -1.034  0.00  0.00     0.034 A 
ATOM      4  C3  UNL d   1       2.002  -0.412  -0.946  0.00  0.00     0.017 A 
ATOM      5  C4  UNL d   1       0.709   0.120  -0.990  0.00  0.00     0.017 A 
ATOM      6  C5  UNL d   1      -0.390  -0.734  -1.121  0.00  0.00     0.034 A 
ATOM      7 Cl   UNL d   1       0.401   1.818  -0.887  0.00  0.00    -0.070 Cl
ATOM      8 Cl1  UNL d   1       3.409   0.578  -0.786  0.00  0.00    -0.070 Cl
ENDROOT
TORSDOF 0
ENDMDL
