MODEL 1
REMARK minimizedAffinity 3.0650425
REMARK minimizedRMSD -1
REMARK  0 active torsions:
REMARK  status: ('A' for Active; 'I' for Inactive)
ROOT
ATOM      1  C   UNL d   1       1.501   1.485   0.051  0.00  0.00     0.020 A 
ATOM      2  C1  UNL d   1       0.455   2.047   0.781  0.00  0.00     0.020 A 
ATOM      3  C2  UNL d   1      -0.754   1.360   0.910  0.00  0.00     0.034 A 
ATOM      4  C3  UNL d   1      -0.920   0.107   0.308  0.00  0.00     0.017 A 
ATOM      5  C4  UNL d   1       0.132  -0.456  -0.424  0.00  0.00     0.017 A 
ATOM      6  C5  UNL d   1       1.340   0.236  -0.550  0.00  0.00     0.034 A 
ATOM      7 Cl   UNL d   1       0.003  -1.998  -1.195  0.00  0.00    -0.070 Cl
ATOM      8 Cl1  UNL d   1      -2.441  -0.686   0.509  0.00  0.00    -0.070 Cl
ENDROOT
TORSDOF 0
ENDMDL
