MODEL 1
REMARK minimizedAffinity -5.7174859
REMARK minimizedRMSD -1
REMARK  2 active torsions:
REMARK  status: ('A' for Active; 'I' for Inactive)
REMARK    1  A    between atoms: C2'_3  and  C1'_4 
REMARK    2  A    between atoms: C1'_4  and  C1_5 
ROOT
ATOM      1  C1  I4B d   1       0.050   0.280   0.043  0.00  0.00    -0.075 A 
ATOM      2  C2  I4B d   1      -1.198   0.800   0.280  0.00  0.00     0.003 A 
ATOM      3  C3  I4B d   1      -1.358   2.187   0.521  0.00  0.00     0.002 A 
ATOM      4  C4  I4B d   1      -0.245   3.002   0.564  0.00  0.00    -0.004 A 
ATOM      5  C5  I4B d   1       1.016   2.476   0.300  0.00  0.00     0.002 A 
ATOM      6  C6  I4B d   1       1.164   1.108   0.026  0.00  0.00     0.003 A 
ENDROOT
BRANCH   1   7
ATOM      7  C1' I4B d   1       0.186  -1.194  -0.175  0.00  0.00     0.060 C 
BRANCH   7   8
ATOM      8  C2' I4B d   1      -0.691  -1.576  -1.350  0.00  0.00    -0.013 C 
ATOM      9  C4' I4B d   1       0.132  -1.819  -2.587  0.00  0.00     0.013 C 
ATOM     10  C3' I4B d   1      -1.470  -2.799  -0.968  0.00  0.00     0.013 C 
ENDBRANCH   7   8
ENDBRANCH   1   7
TORSDOF 2
ENDMDL
