MODEL 1
REMARK minimizedAffinity -4.14868498
REMARK minimizedRMSD -1
REMARK  2 active torsions:
REMARK  status: ('A' for Active; 'I' for Inactive)
REMARK    1  A    between atoms: C2'_3  and  C1'_4 
REMARK    2  A    between atoms: C1'_4  and  C1_5 
ROOT
ATOM      1  C1  I4B d   1      -0.295  -0.534   0.359  0.00  0.00    -0.075 A 
ATOM      2  C2  I4B d   1       0.312   0.534  -0.253  0.00  0.00     0.003 A 
ATOM      3  C3  I4B d   1      -0.175   1.847  -0.045  0.00  0.00     0.002 A 
ATOM      4  C4  I4B d   1      -1.294   2.040   0.738  0.00  0.00    -0.004 A 
ATOM      5  C5  I4B d   1      -1.895   0.959   1.377  0.00  0.00     0.002 A 
ATOM      6  C6  I4B d   1      -1.385  -0.335   1.197  0.00  0.00     0.003 A 
ENDROOT
BRANCH   1   7
ATOM      7  C1' I4B d   1       0.226  -1.910   0.091  0.00  0.00     0.060 C 
BRANCH   7   8
ATOM      8  C2' I4B d   1      -0.706  -2.576  -0.902  0.00  0.00    -0.013 C 
ATOM      9  C4' I4B d   1       0.046  -3.066  -2.111  0.00  0.00     0.013 C 
ATOM     10  C3' I4B d   1      -1.398  -3.707  -0.200  0.00  0.00     0.013 C 
ENDBRANCH   7   8
ENDBRANCH   1   7
TORSDOF 2
ENDMDL
