MODEL 1
REMARK minimizedAffinity -4.82570934
REMARK minimizedRMSD -1
REMARK  2 active torsions:
REMARK  status: ('A' for Active; 'I' for Inactive)
REMARK    1  A    between atoms: C2'_3  and  C1'_4 
REMARK    2  A    between atoms: C1'_4  and  C1_5 
ROOT
ATOM      1  C1  I4B d   1      -0.106  -0.171   0.230  0.00  0.00    -0.075 A 
ATOM      2  C2  I4B d   1      -1.186  -0.029   1.066  0.00  0.00     0.003 A 
ATOM      3  C3  I4B d   1      -1.697   1.259   1.357  0.00  0.00     0.002 A 
ATOM      4  C4  I4B d   1      -1.071   2.373   0.836  0.00  0.00    -0.004 A 
ATOM      5  C5  I4B d   1       0.010   2.226  -0.029  0.00  0.00     0.002 A 
ATOM      6  C6  I4B d   1       0.488   0.946  -0.344  0.00  0.00     0.003 A 
ENDROOT
BRANCH   1   7
ATOM      7  C1' I4B d   1       0.428  -1.543  -0.030  0.00  0.00     0.060 C 
BRANCH   7   8
ATOM      8  C2' I4B d   1      -0.553  -2.262  -0.934  0.00  0.00    -0.013 C 
ATOM      9  C4' I4B d   1       0.060  -2.559  -2.277  0.00  0.00     0.013 C 
ATOM     10  C3' I4B d   1      -0.980  -3.523  -0.244  0.00  0.00     0.013 C 
ENDBRANCH   7   8
ENDBRANCH   1   7
TORSDOF 2
ENDMDL
