MODEL 1
REMARK minimizedAffinity -5.96559811
REMARK minimizedRMSD -1
REMARK  2 active torsions:
REMARK  status: ('A' for Active; 'I' for Inactive)
REMARK    1  A    between atoms: C2'_3  and  C1'_4 
REMARK    2  A    between atoms: C1'_4  and  C1_5 
ROOT
ATOM      1  C1  I4B d   1       0.029  -0.280   0.035  0.00  0.00    -0.075 A 
ATOM      2  C2  I4B d   1      -1.202   0.015   0.567  0.00  0.00     0.003 A 
ATOM      3  C3  I4B d   1      -1.610   1.362   0.716  0.00  0.00     0.002 A 
ATOM      4  C4  I4B d   1      -0.742   2.377   0.369  0.00  0.00    -0.004 A 
ATOM      5  C5  I4B d   1       0.496   2.076  -0.191  0.00  0.00     0.002 A 
ATOM      6  C6  I4B d   1       0.880   0.739  -0.371  0.00  0.00     0.003 A 
ENDROOT
BRANCH   1   7
ATOM      7  C1' I4B d   1       0.440  -1.714  -0.077  0.00  0.00     0.060 C 
BRANCH   7   8
ATOM      8  C2' I4B d   1      -0.253  -2.305  -1.287  0.00  0.00    -0.013 C 
ATOM      9  C4' I4B d   1       0.742  -2.703  -2.346  0.00  0.00     0.013 C 
ATOM     10  C3' I4B d   1      -1.057  -3.486  -0.829  0.00  0.00     0.013 C 
ENDBRANCH   7   8
ENDBRANCH   1   7
TORSDOF 2
ENDMDL
