MODEL 1
REMARK minimizedAffinity -2.18418217
REMARK minimizedRMSD -1
REMARK  2 active torsions:
REMARK  status: ('A' for Active; 'I' for Inactive)
REMARK    1  A    between atoms: C2'_3  and  C1'_4 
REMARK    2  A    between atoms: C1'_4  and  C1_5 
ROOT
ATOM      1  C1  I4B d   1      -0.303  -0.229   0.310  0.00  0.00    -0.075 A 
ATOM      2  C2  I4B d   1      -1.663  -0.049   0.363  0.00  0.00     0.003 A 
ATOM      3  C3  I4B d   1      -2.202   1.232   0.635  0.00  0.00     0.002 A 
ATOM      4  C4  I4B d   1      -1.351   2.286   0.896  0.00  0.00    -0.004 A 
ATOM      5  C5  I4B d   1       0.027   2.107   0.820  0.00  0.00     0.002 A 
ATOM      6  C6  I4B d   1       0.555   0.844   0.513  0.00  0.00     0.003 A 
ENDROOT
BRANCH   1   7
ATOM      7  C1' I4B d   1       0.233  -1.602   0.054  0.00  0.00     0.060 C 
BRANCH   7   8
ATOM      8  C2' I4B d   1      -0.408  -2.123  -1.217  0.00  0.00    -0.013 C 
ATOM      9  C4' I4B d   1       0.589  -2.869  -2.064  0.00  0.00     0.013 C 
ATOM     10  C3' I4B d   1      -1.556  -3.006  -0.827  0.00  0.00     0.013 C 
ENDBRANCH   7   8
ENDBRANCH   1   7
TORSDOF 2
ENDMDL
