MODEL 1
REMARK minimizedAffinity -2.53990269
REMARK minimizedRMSD -1
REMARK  2 active torsions:
REMARK  status: ('A' for Active; 'I' for Inactive)
REMARK    1  A    between atoms: C2'_3  and  C1'_4 
REMARK    2  A    between atoms: C1'_4  and  C1_5 
ROOT
ATOM      1  C1  I4B d   1      -0.292  -0.570  -0.022  0.00  0.00    -0.075 A 
ATOM      2  C2  I4B d   1      -1.436  -0.366   0.709  0.00  0.00     0.003 A 
ATOM      3  C3  I4B d   1      -1.837   0.947   1.054  0.00  0.00     0.002 A 
ATOM      4  C4  I4B d   1      -1.043   2.017   0.693  0.00  0.00    -0.004 A 
ATOM      5  C5  I4B d   1       0.104   1.810  -0.067  0.00  0.00     0.002 A 
ATOM      6  C6  I4B d   1       0.476   0.509  -0.438  0.00  0.00     0.003 A 
ENDROOT
BRANCH   1   7
ATOM      7  C1' I4B d   1       0.119  -1.973  -0.340  0.00  0.00     0.060 C 
BRANCH   7   8
ATOM      8  C2' I4B d   1      -0.709  -2.446  -1.517  0.00  0.00    -0.013 C 
ATOM      9  C4' I4B d   1       0.163  -2.783  -2.698  0.00  0.00     0.013 C 
ATOM     10  C3' I4B d   1      -1.504  -3.638  -1.074  0.00  0.00     0.013 C 
ENDBRANCH   7   8
ENDBRANCH   1   7
TORSDOF 2
ENDMDL
