MODEL 1
REMARK minimizedAffinity -5.42014885
REMARK minimizedRMSD -1
REMARK  2 active torsions:
REMARK  status: ('A' for Active; 'I' for Inactive)
REMARK    1  A    between atoms: C2'_3  and  C1'_4 
REMARK    2  A    between atoms: C1'_4  and  C1_5 
ROOT
ATOM      1  C1  I4B d   1      -0.120  -0.131   0.302  0.00  0.00    -0.075 A 
ATOM      2  C2  I4B d   1      -1.355   0.176   0.817  0.00  0.00     0.003 A 
ATOM      3  C3  I4B d   1      -1.764   1.526   0.932  0.00  0.00     0.002 A 
ATOM      4  C4  I4B d   1      -0.893   2.533   0.570  0.00  0.00    -0.004 A 
ATOM      5  C5  I4B d   1       0.350   2.220   0.027  0.00  0.00     0.002 A 
ATOM      6  C6  I4B d   1       0.734   0.879  -0.119  0.00  0.00     0.003 A 
ENDROOT
BRANCH   1   7
ATOM      7  C1' I4B d   1       0.292  -1.567   0.225  0.00  0.00     0.060 C 
BRANCH   7   8
ATOM      8  C2' I4B d   1      -0.345  -2.170  -1.010  0.00  0.00    -0.013 C 
ATOM      9  C4' I4B d   1       0.672  -2.381  -2.101  0.00  0.00     0.013 C 
ATOM     10  C3' I4B d   1      -0.989  -3.464  -0.614  0.00  0.00     0.013 C 
ENDBRANCH   7   8
ENDBRANCH   1   7
TORSDOF 2
ENDMDL
