MODEL 1
REMARK minimizedAffinity -5.19665098
REMARK minimizedRMSD -1
REMARK  2 active torsions:
REMARK  status: ('A' for Active; 'I' for Inactive)
REMARK    1  A    between atoms: C2'_3  and  C1'_4 
REMARK    2  A    between atoms: C1'_4  and  C1_5 
ROOT
ATOM      1  C1  I4B d   1       0.223   0.134   0.065  0.00  0.00    -0.075 A 
ATOM      2  C2  I4B d   1      -0.986   0.598   0.521  0.00  0.00     0.003 A 
ATOM      3  C3  I4B d   1      -1.238   1.991   0.580  0.00  0.00     0.002 A 
ATOM      4  C4  I4B d   1      -0.242   2.877   0.223  0.00  0.00    -0.004 A 
ATOM      5  C5  I4B d   1       0.974   2.404  -0.260  0.00  0.00     0.002 A 
ATOM      6  C6  I4B d   1       1.204   1.023  -0.351  0.00  0.00     0.003 A 
ENDROOT
BRANCH   1   7
ATOM      7  C1' I4B d   1       0.467  -1.342   0.048  0.00  0.00     0.060 C 
BRANCH   7   8
ATOM      8  C2' I4B d   1      -0.500  -1.963  -0.940  0.00  0.00    -0.013 C 
ATOM      9  C4' I4B d   1       0.206  -2.387  -2.201  0.00  0.00     0.013 C 
ATOM     10  C3' I4B d   1      -1.159  -3.132  -0.270  0.00  0.00     0.013 C 
ENDBRANCH   7   8
ENDBRANCH   1   7
TORSDOF 2
ENDMDL
