MODEL 1
REMARK minimizedAffinity 4.47188616
REMARK minimizedRMSD -1
REMARK  2 active torsions:
REMARK  status: ('A' for Active; 'I' for Inactive)
REMARK    1  A    between atoms: C2'_3  and  C1'_4 
REMARK    2  A    between atoms: C1'_4  and  C1_5 
ROOT
ATOM      1  C1  I4B d   1      -0.064  -0.362   0.512  0.00  0.00    -0.075 A 
ATOM      2  C2  I4B d   1      -0.430  -0.772  -0.746  0.00  0.00     0.003 A 
ATOM      3  C3  I4B d   1       0.559  -1.032  -1.726  0.00  0.00     0.002 A 
ATOM      4  C4  I4B d   1       1.888  -0.822  -1.423  0.00  0.00    -0.004 A 
ATOM      5  C5  I4B d   1       2.259  -0.429  -0.140  0.00  0.00     0.002 A 
ATOM      6  C6  I4B d   1       1.277  -0.209   0.838  0.00  0.00     0.003 A 
ENDROOT
BRANCH   1   7
ATOM      7  C1' I4B d   1      -1.135  -0.065   1.513  0.00  0.00     0.060 C 
BRANCH   7   8
ATOM      8  C2' I4B d   1      -1.961   1.090   0.984  0.00  0.00    -0.013 C 
ATOM      9  C4' I4B d   1      -3.401   0.970   1.407  0.00  0.00     0.013 C 
ATOM     10  C3' I4B d   1      -1.353   2.364   1.490  0.00  0.00     0.013 C 
ENDBRANCH   7   8
ENDBRANCH   1   7
TORSDOF 2
ENDMDL
