MODEL 1
REMARK minimizedAffinity -3.37864065
REMARK minimizedRMSD -1
REMARK  1 active torsions:
REMARK  status: ('A' for Active; 'I' for Inactive)
REMARK    1  A    between atoms: C3_4  and  O_7 
ROOT
ATOM      1  C   UNL d   1       4.844   1.382  -6.000  0.00  0.00    -0.033 A 
ATOM      2  C1  UNL d   1       5.969   0.570  -5.843  0.00  0.00     0.039 A 
ATOM      3  C2  UNL d   1       5.995  -0.403  -4.842  0.00  0.00    -0.080 A 
ATOM      4  C3  UNL d   1       4.892  -0.554  -4.007  0.00  0.00     0.150 A 
ATOM      5  C4  UNL d   1       3.767   0.249  -4.160  0.00  0.00    -0.007 A 
ATOM      6  C5  UNL d   1       3.742   1.221  -5.159  0.00  0.00     0.039 A 
ENDROOT
BRANCH   4   7
ATOM      7  O   UNL d   1       4.873  -1.487  -3.013  0.00  0.00    -0.526 OA
ATOM      8  H5  UNL d   1       5.729  -1.948  -3.007  0.00  0.00     0.418 HD
ENDBRANCH   4   7
TORSDOF 1
ENDMDL
