MODEL 1
REMARK minimizedAffinity -4.02288818
REMARK minimizedRMSD -1
REMARK  1 active torsions:
REMARK  status: ('A' for Active; 'I' for Inactive)
REMARK    1  A    between atoms: C3_4  and  O_7 
ROOT
ATOM      1  C   UNL d   1      -5.845  -4.939  -5.998  0.00  0.00    -0.033 A 
ATOM      2  C1  UNL d   1      -5.991  -3.645  -5.495  0.00  0.00     0.039 A 
ATOM      3  C2  UNL d   1      -5.878  -3.410  -4.123  0.00  0.00    -0.080 A 
ATOM      4  C3  UNL d   1      -5.617  -4.476  -3.267  0.00  0.00     0.150 A 
ATOM      5  C4  UNL d   1      -5.465  -5.767  -3.761  0.00  0.00    -0.007 A 
ATOM      6  C5  UNL d   1      -5.580  -6.000  -5.131  0.00  0.00     0.039 A 
ENDROOT
BRANCH   4   7
ATOM      7  O   UNL d   1      -5.502  -4.297  -1.920  0.00  0.00    -0.526 OA
ATOM      8  H5  UNL d   1      -5.658  -3.359  -1.720  0.00  0.00     0.418 HD
ENDBRANCH   4   7
TORSDOF 1
ENDMDL
