MODEL 1
REMARK minimizedAffinity 1.07250512
REMARK minimizedRMSD -1
REMARK  1 active torsions:
REMARK  status: ('A' for Active; 'I' for Inactive)
REMARK    1  A    between atoms: C3_4  and  O_7 
ROOT
ATOM      1  C   UNL d   1       5.180   0.756  -6.000  0.00  0.00    -0.033 A 
ATOM      2  C1  UNL d   1       4.135   1.143  -5.159  0.00  0.00     0.039 A 
ATOM      3  C2  UNL d   1       3.905   0.455  -3.966  0.00  0.00    -0.080 A 
ATOM      4  C3  UNL d   1       4.726  -0.616  -3.626  0.00  0.00     0.150 A 
ATOM      5  C4  UNL d   1       5.772  -1.005  -4.458  0.00  0.00    -0.007 A 
ATOM      6  C5  UNL d   1       5.999  -0.317  -5.649  0.00  0.00     0.039 A 
ENDROOT
BRANCH   4   7
ATOM      7  O   UNL d   1       4.538  -1.322  -2.475  0.00  0.00    -0.526 OA
ATOM      8  H5  UNL d   1       3.762  -0.959  -2.015  0.00  0.00     0.418 HD
ENDBRANCH   4   7
TORSDOF 1
ENDMDL
