MODEL 1
REMARK minimizedAffinity -1.90998411
REMARK minimizedRMSD -1
REMARK  1 active torsions:
REMARK  status: ('A' for Active; 'I' for Inactive)
REMARK    1  A    between atoms: C3_4  and  O_7 
ROOT
ATOM      1  C   UNL d   1       5.328   0.601  -5.972  0.00  0.00    -0.033 A 
ATOM      2  C1  UNL d   1       4.608   1.472  -5.152  0.00  0.00     0.039 A 
ATOM      3  C2  UNL d   1       4.552   1.251  -3.775  0.00  0.00    -0.080 A 
ATOM      4  C3  UNL d   1       5.221   0.158  -3.230  0.00  0.00     0.150 A 
ATOM      5  C4  UNL d   1       5.943  -0.711  -4.040  0.00  0.00    -0.007 A 
ATOM      6  C5  UNL d   1       5.997  -0.490  -5.416  0.00  0.00     0.039 A 
ENDROOT
BRANCH   4   7
ATOM      7  O   UNL d   1       5.191  -0.101  -1.892  0.00  0.00    -0.526 OA
ATOM      8  H5  UNL d   1       4.630   0.566  -1.462  0.00  0.00     0.418 HD
ENDBRANCH   4   7
TORSDOF 1
ENDMDL
