MODEL 1
REMARK minimizedAffinity -3.00879407
REMARK minimizedRMSD -1
REMARK  0 active torsions:
REMARK  status: ('A' for Active; 'I' for Inactive)
ROOT
ATOM      1  C   UNL d   1       1.123  -2.818   2.156  0.00  0.00     0.172 C 
ATOM      2  N   UNL d   1       0.957  -1.718   1.236  0.00  0.00    -0.070 N 
ATOM      3  C1  UNL d   1       1.933  -1.199   0.428  0.00  0.00    -0.004 A 
ATOM      4  C2  UNL d   1       1.377  -0.166  -0.295  0.00  0.00    -0.047 A 
ATOM      5  C3  UNL d   1       0.021  -0.060   0.092  0.00  0.00    -0.047 A 
ATOM      6  C4  UNL d   1      -0.213  -1.033   1.041  0.00  0.00    -0.004 A 
ENDROOT
TORSDOF 0
ENDMDL
