MODEL 1
REMARK minimizedAffinity -2.07447696
REMARK minimizedRMSD -1
REMARK  0 active torsions:
REMARK  status: ('A' for Active; 'I' for Inactive)
ROOT
ATOM      1  C   UNL d   1      -1.682  -0.566  -0.007  0.00  0.00     0.172 C 
ATOM      2  N   UNL d   1      -0.317  -0.096  -0.059  0.00  0.00    -0.070 N 
ATOM      3  C1  UNL d   1       0.103   1.074  -0.634  0.00  0.00    -0.004 A 
ATOM      4  C2  UNL d   1       1.470   1.156  -0.472  0.00  0.00    -0.047 A 
ATOM      5  C3  UNL d   1       1.885  -0.004   0.223  0.00  0.00    -0.047 A 
ATOM      6  C4  UNL d   1       0.758  -0.762   0.467  0.00  0.00    -0.004 A 
ENDROOT
TORSDOF 0
ENDMDL
