MODEL 1
REMARK minimizedAffinity -3.51627398
REMARK minimizedRMSD -1
REMARK  0 active torsions:
REMARK  status: ('A' for Active; 'I' for Inactive)
ROOT
ATOM      1  C   UNL d   1      -0.733   0.872  -0.128  0.00  0.00     0.172 C 
ATOM      2  N   UNL d   1      -1.504  -0.044   0.680  0.00  0.00    -0.070 N 
ATOM      3  C1  UNL d   1      -2.576   0.291   1.464  0.00  0.00    -0.004 A 
ATOM      4  C2  UNL d   1      -3.032  -0.861   2.069  0.00  0.00    -0.047 A 
ATOM      5  C3  UNL d   1      -2.205  -1.924   1.634  0.00  0.00    -0.047 A 
ATOM      6  C4  UNL d   1      -1.268  -1.390   0.775  0.00  0.00    -0.004 A 
ENDROOT
TORSDOF 0
ENDMDL
