MODEL 1
REMARK minimizedAffinity -3.47370791
REMARK minimizedRMSD -1
REMARK  0 active torsions:
REMARK  status: ('A' for Active; 'I' for Inactive)
ROOT
ATOM      1  C   UNL d   1       0.042   2.329   0.500  0.00  0.00     0.172 C 
ATOM      2  N   UNL d   1       0.080   0.887   0.550  0.00  0.00    -0.070 N 
ATOM      3  C1  UNL d   1       1.208   0.114   0.474  0.00  0.00    -0.004 A 
ATOM      4  C2  UNL d   1       0.823  -1.206   0.560  0.00  0.00    -0.047 A 
ATOM      5  C3  UNL d   1      -0.586  -1.228   0.692  0.00  0.00    -0.047 A 
ATOM      6  C4  UNL d   1      -1.020   0.081   0.683  0.00  0.00    -0.004 A 
ENDROOT
TORSDOF 0
ENDMDL
