MODEL 1
REMARK minimizedAffinity -3.51701188
REMARK minimizedRMSD -1
REMARK  0 active torsions:
REMARK  status: ('A' for Active; 'I' for Inactive)
ROOT
ATOM      1  C   UNL d   1      -1.922   0.843   1.455  0.00  0.00     0.172 C 
ATOM      2  N   UNL d   1      -1.097  -0.303   1.155  0.00  0.00    -0.070 N 
ATOM      3  C1  UNL d   1      -0.051  -0.325   0.271  0.00  0.00    -0.004 A 
ATOM      4  C2  UNL d   1       0.475  -1.598   0.270  0.00  0.00    -0.047 A 
ATOM      5  C3  UNL d   1      -0.281  -2.370   1.184  0.00  0.00    -0.047 A 
ATOM      6  C4  UNL d   1      -1.248  -1.543   1.717  0.00  0.00    -0.004 A 
ENDROOT
TORSDOF 0
ENDMDL
