MODEL 1
REMARK minimizedAffinity -2.40323257
REMARK minimizedRMSD -1
REMARK  0 active torsions:
REMARK  status: ('A' for Active; 'I' for Inactive)
ROOT
ATOM      1  C   UNL d   1      -1.403   0.308   1.787  0.00  0.00     0.172 C 
ATOM      2  N   UNL d   1      -0.460  -0.738   1.469  0.00  0.00    -0.070 N 
ATOM      3  C1  UNL d   1      -0.497  -2.020   1.950  0.00  0.00    -0.004 A 
ATOM      4  C2  UNL d   1       0.572  -2.704   1.412  0.00  0.00    -0.047 A 
ATOM      5  C3  UNL d   1       1.275  -1.802   0.578  0.00  0.00    -0.047 A 
ATOM      6  C4  UNL d   1       0.615  -0.593   0.632  0.00  0.00    -0.004 A 
ENDROOT
TORSDOF 0
ENDMDL
