MODEL 1
REMARK minimizedAffinity -0.356992632
REMARK minimizedRMSD -1
REMARK  0 active torsions:
REMARK  status: ('A' for Active; 'I' for Inactive)
ROOT
ATOM      1  C   UNL d   1      -1.223  -1.819   1.254  0.00  0.00     0.172 C 
ATOM      2  N   UNL d   1      -0.844  -0.456   0.967  0.00  0.00    -0.070 N 
ATOM      3  C1  UNL d   1      -1.621   0.651   1.182  0.00  0.00    -0.004 A 
ATOM      4  C2  UNL d   1      -0.902   1.756   0.780  0.00  0.00    -0.047 A 
ATOM      5  C3  UNL d   1       0.350   1.297   0.306  0.00  0.00    -0.047 A 
ATOM      6  C4  UNL d   1       0.359  -0.076   0.433  0.00  0.00    -0.004 A 
ENDROOT
TORSDOF 0
ENDMDL
