MODEL 1
REMARK minimizedAffinity -3.32755375
REMARK minimizedRMSD -1
REMARK  0 active torsions:
REMARK  status: ('A' for Active; 'I' for Inactive)
ROOT
ATOM      1  C   UNL d   1      -0.049  -2.571   1.043  0.00  0.00     0.172 C 
ATOM      2  N   UNL d   1       0.226  -1.275   0.467  0.00  0.00    -0.070 N 
ATOM      3  C1  UNL d   1      -0.537  -0.150   0.634  0.00  0.00    -0.004 A 
ATOM      4  C2  UNL d   1       0.060   0.872  -0.073  0.00  0.00    -0.047 A 
ATOM      5  C3  UNL d   1       1.220   0.343  -0.685  0.00  0.00    -0.047 A 
ATOM      6  C4  UNL d   1       1.299  -0.989  -0.334  0.00  0.00    -0.004 A 
ENDROOT
TORSDOF 0
ENDMDL
