MODEL 1
REMARK minimizedAffinity -3.12847066
REMARK minimizedRMSD -1
REMARK  0 active torsions:
REMARK  status: ('A' for Active; 'I' for Inactive)
ROOT
ATOM      1  C   UNL d   1       1.018   1.882  -3.284  0.00  0.00     0.172 C 
ATOM      2  N   UNL d   1       0.767   1.254  -2.008  0.00  0.00    -0.070 N 
ATOM      3  C1  UNL d   1       0.074   0.089  -1.814  0.00  0.00    -0.004 A 
ATOM      4  C2  UNL d   1       0.056  -0.171  -0.460  0.00  0.00    -0.047 A 
ATOM      5  C3  UNL d   1       0.762   0.875   0.181  0.00  0.00    -0.047 A 
ATOM      6  C4  UNL d   1       1.191   1.743  -0.800  0.00  0.00    -0.004 A 
ENDROOT
TORSDOF 0
ENDMDL
