MODEL 1
REMARK minimizedAffinity -4.33514595
REMARK minimizedRMSD -1
REMARK  0 active torsions:
REMARK  status: ('A' for Active; 'I' for Inactive)
ROOT
ATOM      1  C   UNL d   1       0.294   0.538  -0.506  0.00  0.00     0.172 C 
ATOM      2  N   UNL d   1      -0.767   0.098   0.369  0.00  0.00    -0.070 N 
ATOM      3  C1  UNL d   1      -1.657   0.913   1.016  0.00  0.00    -0.004 A 
ATOM      4  C2  UNL d   1      -2.506   0.112   1.749  0.00  0.00    -0.047 A 
ATOM      5  C3  UNL d   1      -2.112  -1.230   1.536  0.00  0.00    -0.047 A 
ATOM      6  C4  UNL d   1      -1.033  -1.210   0.678  0.00  0.00    -0.004 A 
ENDROOT
TORSDOF 0
ENDMDL
