MODEL 1
REMARK minimizedAffinity -2.87442374
REMARK minimizedRMSD -1
REMARK  0 active torsions:
REMARK  status: ('A' for Active; 'I' for Inactive)
ROOT
ATOM      1  C   UNL d   1       0.356   0.708  -0.441  0.00  0.00     0.172 C 
ATOM      2  N   UNL d   1       0.042  -0.509   0.270  0.00  0.00    -0.070 N 
ATOM      3  C1  UNL d   1      -1.025  -0.690   1.110  0.00  0.00    -0.004 A 
ATOM      4  C2  UNL d   1      -0.972  -1.982   1.587  0.00  0.00    -0.047 A 
ATOM      5  C3  UNL d   1       0.167  -2.598   1.015  0.00  0.00    -0.047 A 
ATOM      6  C4  UNL d   1       0.776  -1.663   0.205  0.00  0.00    -0.004 A 
ENDROOT
TORSDOF 0
ENDMDL
