MODEL 1
REMARK minimizedAffinity -3.94466376
REMARK minimizedRMSD -1
REMARK  0 active torsions:
REMARK  status: ('A' for Active; 'I' for Inactive)
ROOT
ATOM      1  C   UNL d   1      -2.002  -0.046   0.777  0.00  0.00     0.172 C 
ATOM      2  N   UNL d   1      -0.881  -0.948   0.902  0.00  0.00    -0.070 N 
ATOM      3  C1  UNL d   1      -0.914  -2.187   1.486  0.00  0.00    -0.004 A 
ATOM      4  C2  UNL d   1       0.352  -2.725   1.404  0.00  0.00    -0.047 A 
ATOM      5  C3  UNL d   1       1.174  -1.778   0.749  0.00  0.00    -0.047 A 
ATOM      6  C4  UNL d   1       0.386  -0.687   0.450  0.00  0.00    -0.004 A 
ENDROOT
TORSDOF 0
ENDMDL
