MODEL 1
REMARK minimizedAffinity -3.49764109
REMARK minimizedRMSD -1
REMARK  0 active torsions:
REMARK  status: ('A' for Active; 'I' for Inactive)
ROOT
ATOM      1  C   UNL d   1      -0.723  -2.563   0.960  0.00  0.00     0.172 C 
ATOM      2  N   UNL d   1      -0.372  -1.215   0.578  0.00  0.00    -0.070 N 
ATOM      3  C1  UNL d   1       0.892  -0.767   0.300  0.00  0.00    -0.004 A 
ATOM      4  C2  UNL d   1       0.805   0.570  -0.022  0.00  0.00    -0.047 A 
ATOM      5  C3  UNL d   1      -0.558   0.939   0.067  0.00  0.00    -0.047 A 
ATOM      6  C4  UNL d   1      -1.265  -0.185   0.441  0.00  0.00    -0.004 A 
ENDROOT
TORSDOF 0
ENDMDL
