MODEL 1
REMARK minimizedAffinity -3.58598304
REMARK minimizedRMSD -1
REMARK  0 active torsions:
REMARK  status: ('A' for Active; 'I' for Inactive)
ROOT
ATOM      1  C   UNL d   1       1.467  -1.164   0.304  0.00  0.00     0.172 C 
ATOM      2  N   UNL d   1       0.108  -1.616   0.491  0.00  0.00    -0.070 N 
ATOM      3  C1  UNL d   1      -1.019  -0.923   0.139  0.00  0.00    -0.004 A 
ATOM      4  C2  UNL d   1      -2.111  -1.691   0.481  0.00  0.00    -0.047 A 
ATOM      5  C3  UNL d   1      -1.623  -2.886   1.061  0.00  0.00    -0.047 A 
ATOM      6  C4  UNL d   1      -0.246  -2.813   1.055  0.00  0.00    -0.004 A 
ENDROOT
TORSDOF 0
ENDMDL
