MODEL 1
REMARK minimizedAffinity -3.9517293
REMARK minimizedRMSD -1
REMARK  0 active torsions:
REMARK  status: ('A' for Active; 'I' for Inactive)
ROOT
ATOM      1  C   UNL d   1       0.413   0.115  -0.153  0.00  0.00     0.172 C 
ATOM      2  N   UNL d   1      -0.487  -0.950   0.224  0.00  0.00    -0.070 N 
ATOM      3  C1  UNL d   1      -0.335  -2.273  -0.095  0.00  0.00    -0.004 A 
ATOM      4  C2  UNL d   1      -1.398  -2.962   0.447  0.00  0.00    -0.047 A 
ATOM      5  C3  UNL d   1      -2.218  -2.020   1.114  0.00  0.00    -0.047 A 
ATOM      6  C4  UNL d   1      -1.630  -0.783   0.960  0.00  0.00    -0.004 A 
ENDROOT
TORSDOF 0
ENDMDL
