MODEL 1
REMARK minimizedAffinity -3.94135046
REMARK minimizedRMSD -1
REMARK  0 active torsions:
REMARK  status: ('A' for Active; 'I' for Inactive)
ROOT
ATOM      1  C   UNL d   1      -0.182   0.903  -0.009  0.00  0.00     0.172 C 
ATOM      2  N   UNL d   1      -1.077  -0.129   0.458  0.00  0.00    -0.070 N 
ATOM      3  C1  UNL d   1      -0.861  -1.478   0.359  0.00  0.00    -0.004 A 
ATOM      4  C2  UNL d   1      -1.944  -2.121   0.919  0.00  0.00    -0.047 A 
ATOM      5  C3  UNL d   1      -2.842  -1.124   1.369  0.00  0.00    -0.047 A 
ATOM      6  C4  UNL d   1      -2.281   0.100   1.070  0.00  0.00    -0.004 A 
ENDROOT
TORSDOF 0
ENDMDL
