MODEL 1
REMARK minimizedAffinity 17.5892162
REMARK minimizedRMSD -1
REMARK  1 active torsions:
REMARK  status: ('A' for Active; 'I' for Inactive)
REMARK    1  A    between atoms: C1_2  and  C2_3 
ROOT
ATOM      1  C2  UNL d   1      -3.771  -0.011  -0.085  0.00  0.00    -0.081 A 
ATOM      2  C3  UNL d   1      -2.711   0.902  -0.035  0.00  0.00     0.006 A 
ATOM      3  C4  UNL d   1      -2.456   1.752  -1.114  0.00  0.00     0.002 A 
ATOM      4  C5  UNL d   1      -3.261   1.707  -2.258  0.00  0.00    -0.080 A 
ATOM      5  C6  UNL d   1      -3.017   2.634  -3.411  0.00  0.00     0.076 C 
ATOM      6  C7  UNL d   1      -4.309   0.782  -2.316  0.00  0.00     0.002 A 
ATOM      7  C8  UNL d   1      -4.564  -0.068  -1.237  0.00  0.00     0.006 A 
ENDROOT
BRANCH   1   8
ATOM      8  C1  UNL d   1      -4.088  -0.884   1.102  0.00  0.00     0.054 C 
ATOM      9  C   UNL d   1      -4.617  -0.060   2.268  0.00  0.00     0.018 C 
ENDBRANCH   1   8
TORSDOF 1
ENDMDL
