MODEL 1
REMARK minimizedAffinity 1.45702088
REMARK minimizedRMSD -1
REMARK  1 active torsions:
REMARK  status: ('A' for Active; 'I' for Inactive)
REMARK    1  A    between atoms: C1_2  and  C2_3 
ROOT
ATOM      1  C2  UNL d   1       0.787   2.690   0.398  0.00  0.00    -0.081 A 
ATOM      2  C3  UNL d   1       0.900   2.682   1.794  0.00  0.00     0.006 A 
ATOM      3  C4  UNL d   1       0.623   1.522   2.520  0.00  0.00     0.002 A 
ATOM      4  C5  UNL d   1       0.235   0.349   1.863  0.00  0.00    -0.080 A 
ATOM      5  C6  UNL d   1      -0.037  -0.912   2.629  0.00  0.00     0.076 C 
ATOM      6  C7  UNL d   1       0.104   0.362   0.471  0.00  0.00     0.002 A 
ATOM      7  C8  UNL d   1       0.381   1.522  -0.256  0.00  0.00     0.006 A 
ENDROOT
BRANCH   1   8
ATOM      8  C1  UNL d   1       1.148   3.922  -0.393  0.00  0.00     0.054 C 
ATOM      9  C   UNL d   1      -0.095   4.683  -0.830  0.00  0.00     0.018 C 
ENDBRANCH   1   8
TORSDOF 1
ENDMDL
