MODEL 1
REMARK minimizedAffinity 19.8863659
REMARK minimizedRMSD -1
REMARK  1 active torsions:
REMARK  status: ('A' for Active; 'I' for Inactive)
REMARK    1  A    between atoms: C1_2  and  C2_3 
ROOT
ATOM      1  C2  UNL d   1      -4.201   2.028  -3.801  0.00  0.00    -0.081 A 
ATOM      2  C3  UNL d   1      -3.857   2.601  -5.032  0.00  0.00     0.006 A 
ATOM      3  C4  UNL d   1      -3.034   3.729  -5.082  0.00  0.00     0.002 A 
ATOM      4  C5  UNL d   1      -2.536   4.298  -3.904  0.00  0.00    -0.080 A 
ATOM      5  C6  UNL d   1      -1.628   5.490  -3.945  0.00  0.00     0.076 C 
ATOM      6  C7  UNL d   1      -2.895   3.735  -2.674  0.00  0.00     0.002 A 
ATOM      7  C8  UNL d   1      -3.717   2.608  -2.624  0.00  0.00     0.006 A 
ENDROOT
BRANCH   1   8
ATOM      8  C1  UNL d   1      -5.035   0.773  -3.747  0.00  0.00     0.054 C 
ATOM      9  C   UNL d   1      -5.994   0.797  -2.566  0.00  0.00     0.018 C 
ENDBRANCH   1   8
TORSDOF 1
ENDMDL
