MODEL 1
REMARK minimizedAffinity 2.93393373
REMARK minimizedRMSD -1
REMARK  1 active torsions:
REMARK  status: ('A' for Active; 'I' for Inactive)
REMARK    1  A    between atoms: C1_2  and  C2_3 
ROOT
ATOM      1  C2  UNL d   1      -1.081   4.210  -0.308  0.00  0.00    -0.081 A 
ATOM      2  C3  UNL d   1      -1.414   4.140   1.050  0.00  0.00     0.006 A 
ATOM      3  C4  UNL d   1      -2.590   4.729   1.522  0.00  0.00     0.002 A 
ATOM      4  C5  UNL d   1      -3.456   5.389   0.643  0.00  0.00    -0.080 A 
ATOM      5  C6  UNL d   1      -4.736   5.999   1.132  0.00  0.00     0.076 C 
ATOM      6  C7  UNL d   1      -3.114   5.473  -0.711  0.00  0.00     0.002 A 
ATOM      7  C8  UNL d   1      -1.939   4.886  -1.183  0.00  0.00     0.006 A 
ENDROOT
BRANCH   1   8
ATOM      8  C1  UNL d   1       0.153   3.521  -0.831  0.00  0.00     0.054 C 
ATOM      9  C   UNL d   1       1.129   4.519  -1.438  0.00  0.00     0.018 C 
ENDBRANCH   1   8
TORSDOF 1
ENDMDL
