MODEL 1
REMARK minimizedAffinity -2.2804358
REMARK minimizedRMSD -1
REMARK  0 active torsions:
REMARK  status: ('A' for Active; 'I' for Inactive)
ROOT
ATOM      1  N1  IND d   1       1.209  -0.630  -0.594  0.00  0.00    -0.196 N 
ATOM      2  C2  IND d   1       0.342  -0.711  -1.648  0.00  0.00     0.054 A 
ATOM      3  C3  IND d   1      -0.878  -0.252  -1.290  0.00  0.00    -0.031 A 
ATOM      4  C4  IND d   1      -1.649   0.774   0.942  0.00  0.00     0.051 A 
ATOM      5  C5  IND d   1      -1.223   1.026   2.216  0.00  0.00    -0.031 A 
ATOM      6  C6  IND d   1       0.062   0.735   2.626  0.00  0.00     0.015 A 
ATOM      7  C7  IND d   1       0.977   0.190   1.770  0.00  0.00    -0.016 A 
ATOM      8  C8  IND d   1       0.546  -0.073   0.478  0.00  0.00    -0.047 A 
ATOM      9  C9  IND d   1      -0.770   0.180   0.068  0.00  0.00    -0.096 A 
ATOM     10  HN1 IND d   1       2.031  -0.883  -0.599  0.00  0.00     0.298 HD
ENDROOT
TORSDOF 0
ENDMDL
