MODEL 1
REMARK minimizedAffinity -4.54032755
REMARK minimizedRMSD -1
REMARK  0 active torsions:
REMARK  status: ('A' for Active; 'I' for Inactive)
ROOT
ATOM      1  N1  IND d   1      -0.711  -0.623  -0.956  0.00  0.00    -0.196 N 
ATOM      2  C2  IND d   1       0.570  -0.922  -1.330  0.00  0.00     0.054 A 
ATOM      3  C3  IND d   1       1.450  -0.420  -0.435  0.00  0.00    -0.031 A 
ATOM      4  C4  IND d   1       1.006   0.836   1.768  0.00  0.00     0.051 A 
ATOM      5  C5  IND d   1      -0.003   1.376   2.516  0.00  0.00    -0.031 A 
ATOM      6  C6  IND d   1      -1.326   1.272   2.138  0.00  0.00     0.015 A 
ATOM      7  C7  IND d   1      -1.692   0.613   0.999  0.00  0.00    -0.016 A 
ATOM      8  C8  IND d   1      -0.670   0.069   0.234  0.00  0.00    -0.047 A 
ATOM      9  C9  IND d   1       0.677   0.208   0.590  0.00  0.00    -0.096 A 
ATOM     10  HN1 IND d   1      -1.422  -0.832  -1.392  0.00  0.00     0.298 HD
ENDROOT
TORSDOF 0
ENDMDL
