MODEL 1
REMARK minimizedAffinity -1.82098341
REMARK minimizedRMSD -1
REMARK  0 active torsions:
REMARK  status: ('A' for Active; 'I' for Inactive)
ROOT
ATOM      1  N1  IND d   1       1.013  -0.395   0.120  0.00  0.00    -0.196 N 
ATOM      2  C2  IND d   1       1.043  -0.891  -1.153  0.00  0.00     0.054 A 
ATOM      3  C3  IND d   1      -0.187  -0.827  -1.712  0.00  0.00    -0.031 A 
ATOM      4  C4  IND d   1      -2.368   0.149  -0.755  0.00  0.00     0.051 A 
ATOM      5  C5  IND d   1      -2.901   0.684   0.384  0.00  0.00    -0.031 A 
ATOM      6  C6  IND d   1      -2.139   0.893   1.516  0.00  0.00     0.015 A 
ATOM      7  C7  IND d   1      -0.809   0.584   1.546  0.00  0.00    -0.016 A 
ATOM      8  C8  IND d   1      -0.267   0.034   0.393  0.00  0.00    -0.047 A 
ATOM      9  C9  IND d   1      -1.044  -0.220  -0.744  0.00  0.00    -0.096 A 
ATOM     10  HN1 IND d   1       1.682  -0.358   0.659  0.00  0.00     0.298 HD
ENDROOT
TORSDOF 0
ENDMDL
