MODEL 1
REMARK minimizedAffinity -4.23551702
REMARK minimizedRMSD -1
REMARK  0 active torsions:
REMARK  status: ('A' for Active; 'I' for Inactive)
ROOT
ATOM      1  N1  IND d   1      -0.287  -0.296  -0.485  0.00  0.00    -0.196 N 
ATOM      2  C2  IND d   1       0.958  -0.743  -0.830  0.00  0.00     0.054 A 
ATOM      3  C3  IND d   1       1.834  -0.516   0.174  0.00  0.00    -0.031 A 
ATOM      4  C4  IND d   1       1.422   0.482   2.511  0.00  0.00     0.051 A 
ATOM      5  C5  IND d   1       0.453   1.070   3.276  0.00  0.00    -0.031 A 
ATOM      6  C6  IND d   1      -0.838   1.233   2.818  0.00  0.00     0.015 A 
ATOM      7  C7  IND d   1      -1.214   0.802   1.577  0.00  0.00    -0.016 A 
ATOM      8  C8  IND d   1      -0.231   0.212   0.795  0.00  0.00    -0.047 A 
ATOM      9  C9  IND d   1       1.091   0.082   1.238  0.00  0.00    -0.096 A 
ATOM     10  HN1 IND d   1      -0.987  -0.327  -0.983  0.00  0.00     0.298 HD
ENDROOT
TORSDOF 0
ENDMDL
