MODEL 1
REMARK minimizedAffinity -0.439823657
REMARK minimizedRMSD -1
REMARK  0 active torsions:
REMARK  status: ('A' for Active; 'I' for Inactive)
ROOT
ATOM      1  N1  IND d   1      -2.170  -0.520   0.841  0.00  0.00    -0.196 N 
ATOM      2  C2  IND d   1      -1.679  -1.347  -0.131  0.00  0.00     0.054 A 
ATOM      3  C3  IND d   1      -0.405  -1.011  -0.434  0.00  0.00    -0.031 A 
ATOM      4  C4  IND d   1       1.103   0.795   0.609  0.00  0.00     0.051 A 
ATOM      5  C5  IND d   1       1.086   1.826   1.506  0.00  0.00    -0.031 A 
ATOM      6  C6  IND d   1      -0.039   2.132   2.244  0.00  0.00     0.015 A 
ATOM      7  C7  IND d   1      -1.191   1.408   2.120  0.00  0.00    -0.016 A 
ATOM      8  C8  IND d   1      -1.180   0.365   1.205  0.00  0.00    -0.047 A 
ATOM      9  C9  IND d   1      -0.054   0.077   0.423  0.00  0.00    -0.096 A 
ATOM     10  HN1 IND d   1      -2.965  -0.548   1.169  0.00  0.00     0.298 HD
ENDROOT
TORSDOF 0
ENDMDL
