MODEL 1
REMARK minimizedAffinity -5.29966497
REMARK minimizedRMSD -1
REMARK  0 active torsions:
REMARK  status: ('A' for Active; 'I' for Inactive)
ROOT
ATOM      1  N1  IND d   1       0.516   0.936   2.487  0.00  0.00    -0.196 N 
ATOM      2  C2  IND d   1      -0.703   1.265   3.012  0.00  0.00     0.054 A 
ATOM      3  C3  IND d   1      -1.681   1.048   2.103  0.00  0.00    -0.031 A 
ATOM      4  C4  IND d   1      -1.519   0.063  -0.269  0.00  0.00     0.051 A 
ATOM      5  C5  IND d   1      -0.612  -0.354  -1.203  0.00  0.00    -0.031 A 
ATOM      6  C6  IND d   1       0.744  -0.366  -0.949  0.00  0.00     0.015 A 
ATOM      7  C7  IND d   1       1.245   0.031   0.259  0.00  0.00    -0.016 A 
ATOM      8  C8  IND d   1       0.328   0.462   1.207  0.00  0.00    -0.047 A 
ATOM      9  C9  IND d   1      -1.046   0.516   0.939  0.00  0.00    -0.096 A 
ATOM     10  HN1 IND d   1       1.272   1.012   2.888  0.00  0.00     0.298 HD
ENDROOT
TORSDOF 0
ENDMDL
