MODEL 1
REMARK minimizedAffinity -5.73948622
REMARK minimizedRMSD -1
REMARK  0 active torsions:
REMARK  status: ('A' for Active; 'I' for Inactive)
ROOT
ATOM      1  N1  IND d   1       1.737  -0.634   0.437  0.00  0.00    -0.196 N 
ATOM      2  C2  IND d   1       1.282  -1.160  -0.740  0.00  0.00     0.054 A 
ATOM      3  C3  IND d   1      -0.001  -0.792  -0.955  0.00  0.00    -0.031 A 
ATOM      4  C4  IND d   1      -1.516   0.751   0.443  0.00  0.00     0.051 A 
ATOM      5  C5  IND d   1      -1.556   1.441   1.621  0.00  0.00    -0.031 A 
ATOM      6  C6  IND d   1      -0.477   1.478   2.482  0.00  0.00     0.015 A 
ATOM      7  C7  IND d   1       0.690   0.832   2.189  0.00  0.00    -0.016 A 
ATOM      8  C8  IND d   1       0.732   0.124   0.996  0.00  0.00    -0.047 A 
ATOM      9  C9  IND d   1      -0.373   0.048   0.139  0.00  0.00    -0.096 A 
ATOM     10  HN1 IND d   1       2.520  -0.757   0.772  0.00  0.00     0.298 HD
ENDROOT
TORSDOF 0
ENDMDL
