MODEL 1
REMARK minimizedAffinity -0.448702514
REMARK minimizedRMSD -1
REMARK  0 active torsions:
REMARK  status: ('A' for Active; 'I' for Inactive)
ROOT
ATOM      1  C   UNL d   1       3.122  -5.999  -4.552  0.00  0.00     0.020 A 
ATOM      2  C1  UNL d   1       3.000  -5.801  -3.177  0.00  0.00     0.020 A 
ATOM      3  C2  UNL d   1       3.151  -4.520  -2.640  0.00  0.00     0.034 A 
ATOM      4  C3  UNL d   1       3.425  -3.433  -3.479  0.00  0.00     0.017 A 
ATOM      5  C4  UNL d   1       3.547  -3.634  -4.859  0.00  0.00     0.017 A 
ATOM      6  C5  UNL d   1       3.395  -4.918  -5.391  0.00  0.00     0.034 A 
ATOM      7 Cl   UNL d   1       3.883  -2.342  -5.956  0.00  0.00    -0.070 Cl
ATOM      8 Cl1  UNL d   1       3.598  -1.878  -2.747  0.00  0.00    -0.070 Cl
ENDROOT
TORSDOF 0
ENDMDL
