MODEL 1
REMARK minimizedAffinity 3.39979434
REMARK minimizedRMSD -1
REMARK  0 active torsions:
REMARK  status: ('A' for Active; 'I' for Inactive)
ROOT
ATOM      1  C   UNL d   1       1.033   1.351   0.105  0.00  0.00     0.020 A 
ATOM      2  C1  UNL d   1       2.048   1.798   0.949  0.00  0.00     0.020 A 
ATOM      3  C2  UNL d   1       2.454   1.014   2.030  0.00  0.00     0.034 A 
ATOM      4  C3  UNL d   1       1.843  -0.223   2.271  0.00  0.00     0.017 A 
ATOM      5  C4  UNL d   1       0.824  -0.671   1.423  0.00  0.00     0.017 A 
ATOM      6  C5  UNL d   1       0.422   0.119   0.342  0.00  0.00     0.034 A 
ATOM      7 Cl   UNL d   1       0.023  -2.185   1.656  0.00  0.00    -0.070 Cl
ATOM      8 Cl1  UNL d   1       2.395  -1.141   3.627  0.00  0.00    -0.070 Cl
ENDROOT
TORSDOF 0
ENDMDL
