MODEL 1
REMARK minimizedAffinity 4.23926449
REMARK minimizedRMSD -1
REMARK  0 active torsions:
REMARK  status: ('A' for Active; 'I' for Inactive)
ROOT
ATOM      1  C   UNL d   1       1.104   1.309   0.032  0.00  0.00     0.020 A 
ATOM      2  C1  UNL d   1       2.196   0.966   0.828  0.00  0.00     0.020 A 
ATOM      3  C2  UNL d   1       2.171  -0.212   1.578  0.00  0.00     0.034 A 
ATOM      4  C3  UNL d   1       1.052  -1.052   1.532  0.00  0.00     0.017 A 
ATOM      5  C4  UNL d   1      -0.043  -0.707   0.733  0.00  0.00     0.017 A 
ATOM      6  C5  UNL d   1      -0.013   0.474  -0.016  0.00  0.00     0.034 A 
ATOM      7 Cl   UNL d   1      -1.459  -1.693   0.625  0.00  0.00    -0.070 Cl
ATOM      8 Cl1  UNL d   1       1.091  -2.493   2.485  0.00  0.00    -0.070 Cl
ENDROOT
TORSDOF 0
ENDMDL
