MODEL 1
REMARK minimizedAffinity 10.6106415
REMARK minimizedRMSD -1
REMARK  0 active torsions:
REMARK  status: ('A' for Active; 'I' for Inactive)
ROOT
ATOM      1  C   UNL d   1      -3.433   0.530  -4.996  0.00  0.00     0.020 A 
ATOM      2  C1  UNL d   1      -2.978   0.072  -3.760  0.00  0.00     0.020 A 
ATOM      3  C2  UNL d   1      -3.301   0.771  -2.595  0.00  0.00     0.034 A 
ATOM      4  C3  UNL d   1      -4.081   1.932  -2.664  0.00  0.00     0.017 A 
ATOM      5  C4  UNL d   1      -4.537   2.390  -3.905  0.00  0.00     0.017 A 
ATOM      6  C5  UNL d   1      -4.210   1.686  -5.068  0.00  0.00     0.034 A 
ATOM      7 Cl   UNL d   1      -5.503   3.814  -4.070  0.00  0.00    -0.070 Cl
ATOM      8 Cl1  UNL d   1      -4.442   2.746  -1.183  0.00  0.00    -0.070 Cl
ENDROOT
TORSDOF 0
ENDMDL
