MODEL 1
REMARK minimizedAffinity 4.91829062
REMARK minimizedRMSD -1
REMARK  0 active torsions:
REMARK  status: ('A' for Active; 'I' for Inactive)
ROOT
ATOM      1  C   UNL d   1       2.573  -0.360   1.150  0.00  0.00     0.020 A 
ATOM      2  C1  UNL d   1       3.478   0.335   0.348  0.00  0.00     0.020 A 
ATOM      3  C2  UNL d   1       3.094   1.531  -0.263  0.00  0.00     0.034 A 
ATOM      4  C3  UNL d   1       1.802   2.034  -0.074  0.00  0.00     0.017 A 
ATOM      5  C4  UNL d   1       0.894   1.336   0.730  0.00  0.00     0.017 A 
ATOM      6  C5  UNL d   1       1.284   0.140   1.340  0.00  0.00     0.034 A 
ATOM      7 Cl   UNL d   1      -0.717   1.895   1.010  0.00  0.00    -0.070 Cl
ATOM      8 Cl1  UNL d   1       1.395   3.518  -0.861  0.00  0.00    -0.070 Cl
ENDROOT
TORSDOF 0
ENDMDL
