MODEL 1
REMARK minimizedAffinity 6.4264369
REMARK minimizedRMSD -1
REMARK  0 active torsions:
REMARK  status: ('A' for Active; 'I' for Inactive)
ROOT
ATOM      1  C   UNL d   1       0.401  -2.333   0.648  0.00  0.00     0.020 A 
ATOM      2  C1  UNL d   1      -0.819  -1.688   0.843  0.00  0.00     0.020 A 
ATOM      3  C2  UNL d   1      -1.606  -1.335  -0.256  0.00  0.00     0.034 A 
ATOM      4  C3  UNL d   1      -1.173  -1.627  -1.554  0.00  0.00     0.017 A 
ATOM      5  C4  UNL d   1       0.052  -2.275  -1.749  0.00  0.00     0.017 A 
ATOM      6  C5  UNL d   1       0.836  -2.626  -0.645  0.00  0.00     0.034 A 
ATOM      7 Cl   UNL d   1       0.653  -2.669  -3.321  0.00  0.00    -0.070 Cl
ATOM      8 Cl1  UNL d   1      -2.197  -1.162  -2.866  0.00  0.00    -0.070 Cl
ENDROOT
TORSDOF 0
ENDMDL
