MODEL 1
REMARK minimizedAffinity 5.03624582
REMARK minimizedRMSD -1
REMARK  0 active torsions:
REMARK  status: ('A' for Active; 'I' for Inactive)
ROOT
ATOM      1  C   UNL d   1       1.081   0.801   0.372  0.00  0.00     0.020 A 
ATOM      2  C1  UNL d   1      -0.206   0.305   0.579  0.00  0.00     0.020 A 
ATOM      3  C2  UNL d   1      -0.591  -0.904  -0.004  0.00  0.00     0.034 A 
ATOM      4  C3  UNL d   1       0.312  -1.622  -0.797  0.00  0.00     0.017 A 
ATOM      5  C4  UNL d   1       1.603  -1.124  -1.005  0.00  0.00     0.017 A 
ATOM      6  C5  UNL d   1       1.983   0.088  -0.419  0.00  0.00     0.034 A 
ATOM      7 Cl   UNL d   1       2.772  -1.953  -1.971  0.00  0.00    -0.070 Cl
ATOM      8 Cl1  UNL d   1      -0.232  -3.110  -1.486  0.00  0.00    -0.070 Cl
ENDROOT
TORSDOF 0
ENDMDL
