MODEL 1
REMARK minimizedAffinity 7.33697939
REMARK minimizedRMSD -1
REMARK  0 active torsions:
REMARK  status: ('A' for Active; 'I' for Inactive)
ROOT
ATOM      1  C   UNL d   1       3.195  -3.640  -3.773  0.00  0.00     0.020 A 
ATOM      2  C1  UNL d   1       3.416  -3.572  -5.148  0.00  0.00     0.020 A 
ATOM      3  C2  UNL d   1       3.885  -2.388  -5.722  0.00  0.00     0.034 A 
ATOM      4  C3  UNL d   1       4.135  -1.269  -4.921  0.00  0.00     0.017 A 
ATOM      5  C4  UNL d   1       3.914  -1.338  -3.540  0.00  0.00     0.017 A 
ATOM      6  C5  UNL d   1       3.444  -2.526  -2.971  0.00  0.00     0.034 A 
ATOM      7 Cl   UNL d   1       4.200   0.002  -2.487  0.00  0.00    -0.070 Cl
ATOM      8 Cl1  UNL d   1       4.715   0.162  -5.697  0.00  0.00    -0.070 Cl
ENDROOT
TORSDOF 0
ENDMDL
