MODEL 1
REMARK minimizedAffinity 7.035882
REMARK minimizedRMSD -1
REMARK  0 active torsions:
REMARK  status: ('A' for Active; 'I' for Inactive)
ROOT
ATOM      1  C   UNL d   1       2.220   0.258   0.713  0.00  0.00     0.020 A 
ATOM      2  C1  UNL d   1       1.198  -0.688   0.639  0.00  0.00     0.020 A 
ATOM      3  C2  UNL d   1      -0.099  -0.291   0.307  0.00  0.00     0.034 A 
ATOM      4  C3  UNL d   1      -0.378   1.056   0.048  0.00  0.00     0.017 A 
ATOM      5  C4  UNL d   1       0.649   2.005   0.123  0.00  0.00     0.017 A 
ATOM      6  C5  UNL d   1       1.946   1.602   0.455  0.00  0.00     0.034 A 
ATOM      7 Cl   UNL d   1       0.382   3.685  -0.184  0.00  0.00    -0.070 Cl
ATOM      8 Cl1  UNL d   1      -2.004   1.477  -0.356  0.00  0.00    -0.070 Cl
ENDROOT
TORSDOF 0
ENDMDL
