MODEL 1
REMARK minimizedAffinity -2.39371514
REMARK minimizedRMSD -1
REMARK  1 active torsions:
REMARK  status: ('A' for Active; 'I' for Inactive)
REMARK    1  A    between atoms: C1_2  and  C2_3 
ROOT
ATOM      1  C2  UNL d   1      -0.154   0.476  -0.064  0.00  0.00    -0.076 A 
ATOM      2  C3  UNL d   1       1.137   0.253   0.444  0.00  0.00     0.004 A 
ATOM      3  C4  UNL d   1       1.344   0.019   1.803  0.00  0.00    -0.003 A 
ATOM      4  C5  UNL d   1       0.262   0.004   2.675  0.00  0.00     0.000 A 
ATOM      5  C6  UNL d   1      -1.029   0.205   2.186  0.00  0.00     0.000 A 
ATOM      6  C7  UNL d   1      -1.256   0.426   0.817  0.00  0.00    -0.073 A 
ATOM      7  C8  UNL d   1      -2.667   0.644   0.346  0.00  0.00     0.078 C 
ENDROOT
BRANCH   1   8
ATOM      8  C1  UNL d   1      -0.314   0.752  -1.542  0.00  0.00     0.053 C 
ATOM      9  C   UNL d   1       0.557  -0.153  -2.400  0.00  0.00     0.018 C 
ENDBRANCH   1   8
TORSDOF 1
ENDMDL
