MODEL 1
REMARK minimizedAffinity -4.56073427
REMARK minimizedRMSD -1
REMARK  1 active torsions:
REMARK  status: ('A' for Active; 'I' for Inactive)
REMARK    1  A    between atoms: C1_2  and  C2_3 
ROOT
ATOM      1  C2  UNL d   1      -0.586   0.470   1.123  0.00  0.00    -0.076 A 
ATOM      2  C3  UNL d   1      -1.100   1.124  -0.011  0.00  0.00     0.004 A 
ATOM      3  C4  UNL d   1      -2.475   1.232  -0.215  0.00  0.00    -0.003 A 
ATOM      4  C5  UNL d   1      -3.358   0.688   0.711  0.00  0.00     0.000 A 
ATOM      5  C6  UNL d   1      -2.865   0.051   1.850  0.00  0.00     0.000 A 
ATOM      6  C7  UNL d   1      -1.483  -0.052   2.079  0.00  0.00    -0.073 A 
ATOM      7  C8  UNL d   1      -1.007  -0.754   3.321  0.00  0.00     0.078 C 
ENDROOT
BRANCH   1   8
ATOM      8  C1  UNL d   1       0.914   0.360   1.277  0.00  0.00     0.053 C 
ATOM      9  C   UNL d   1       1.664   1.350   0.399  0.00  0.00     0.018 C 
ENDBRANCH   1   8
TORSDOF 1
ENDMDL
