MODEL 1
REMARK minimizedAffinity -2.36829376
REMARK minimizedRMSD -1
REMARK  1 active torsions:
REMARK  status: ('A' for Active; 'I' for Inactive)
REMARK    1  A    between atoms: C1_2  and  C2_3 
ROOT
ATOM      1  C2  UNL d   1      -0.319   0.219  -0.050  0.00  0.00    -0.076 A 
ATOM      2  C3  UNL d   1       0.986   0.070   0.450  0.00  0.00     0.004 A 
ATOM      3  C4  UNL d   1       1.216  -0.114   1.812  0.00  0.00    -0.003 A 
ATOM      4  C5  UNL d   1       0.144  -0.153   2.697  0.00  0.00     0.000 A 
ATOM      5  C6  UNL d   1      -1.159  -0.024   2.217  0.00  0.00     0.000 A 
ATOM      6  C7  UNL d   1      -1.409   0.146   0.844  0.00  0.00    -0.073 A 
ATOM      7  C8  UNL d   1      -2.833   0.286   0.382  0.00  0.00     0.078 C 
ENDROOT
BRANCH   1   8
ATOM      8  C1  UNL d   1      -0.505   0.443  -1.534  0.00  0.00     0.053 C 
ATOM      9  C   UNL d   1       0.541  -0.279  -2.368  0.00  0.00     0.018 C 
ENDBRANCH   1   8
TORSDOF 1
ENDMDL
