MODEL 1
REMARK minimizedAffinity -3.98620534
REMARK minimizedRMSD -1
REMARK  1 active torsions:
REMARK  status: ('A' for Active; 'I' for Inactive)
REMARK    1  A    between atoms: C1_2  and  C2_3 
ROOT
ATOM      1  C2  UNL d   1      -0.585   0.162   0.285  0.00  0.00    -0.076 A 
ATOM      2  C3  UNL d   1      -1.913  -0.244   0.502  0.00  0.00     0.004 A 
ATOM      3  C4  UNL d   1      -2.346  -0.634   1.768  0.00  0.00    -0.003 A 
ATOM      4  C5  UNL d   1      -1.458  -0.622   2.838  0.00  0.00     0.000 A 
ATOM      5  C6  UNL d   1      -0.142  -0.205   2.645  0.00  0.00     0.000 A 
ATOM      6  C7  UNL d   1       0.307   0.206   1.378  0.00  0.00    -0.073 A 
ATOM      7  C8  UNL d   1       1.738   0.641   1.225  0.00  0.00     0.078 C 
ENDROOT
BRANCH   1   8
ATOM      8  C1  UNL d   1      -0.165   0.548  -1.116  0.00  0.00     0.053 C 
ATOM      9  C   UNL d   1       0.411  -0.624  -1.895  0.00  0.00     0.018 C 
ENDBRANCH   1   8
TORSDOF 1
ENDMDL
