MODEL 1
REMARK minimizedAffinity -4.95278645
REMARK minimizedRMSD -1
REMARK  1 active torsions:
REMARK  status: ('A' for Active; 'I' for Inactive)
REMARK    1  A    between atoms: C1_2  and  C2_3 
ROOT
ATOM      1  C2  UNL d   1      -0.302   0.261   0.615  0.00  0.00    -0.076 A 
ATOM      2  C3  UNL d   1       0.828  -0.226   1.295  0.00  0.00     0.004 A 
ATOM      3  C4  UNL d   1       0.712  -0.802   2.559  0.00  0.00    -0.003 A 
ATOM      4  C5  UNL d   1      -0.537  -0.901   3.164  0.00  0.00     0.000 A 
ATOM      5  C6  UNL d   1      -1.671  -0.439   2.496  0.00  0.00     0.000 A 
ATOM      6  C7  UNL d   1      -1.573   0.129   1.214  0.00  0.00    -0.073 A 
ATOM      7  C8  UNL d   1      -2.828   0.617   0.543  0.00  0.00     0.078 C 
ENDROOT
BRANCH   1   8
ATOM      8  C1  UNL d   1      -0.111   0.899  -0.742  0.00  0.00     0.053 C 
ATOM      9  C   UNL d   1       0.725   0.040  -1.678  0.00  0.00     0.018 C 
ENDBRANCH   1   8
TORSDOF 1
ENDMDL
