MODEL 1
REMARK minimizedAffinity -4.5502758
REMARK minimizedRMSD -1
REMARK  1 active torsions:
REMARK  status: ('A' for Active; 'I' for Inactive)
REMARK    1  A    between atoms: C1_2  and  C2_3 
ROOT
ATOM      1  C2  UNL d   1      -0.806  -0.438   0.988  0.00  0.00    -0.076 A 
ATOM      2  C3  UNL d   1      -2.149  -0.229   0.631  0.00  0.00     0.004 A 
ATOM      3  C4  UNL d   1      -2.483   0.515  -0.500  0.00  0.00    -0.003 A 
ATOM      4  C5  UNL d   1      -1.479   1.061  -1.292  0.00  0.00     0.000 A 
ATOM      5  C6  UNL d   1      -0.141   0.848  -0.963  0.00  0.00     0.000 A 
ATOM      6  C7  UNL d   1       0.213   0.087   0.164  0.00  0.00    -0.073 A 
ATOM      7  C8  UNL d   1       1.672  -0.105   0.476  0.00  0.00     0.078 C 
ENDROOT
BRANCH   1   8
ATOM      8  C1  UNL d   1      -0.504  -1.230   2.240  0.00  0.00     0.053 C 
ATOM      9  C   UNL d   1      -0.518  -0.368   3.492  0.00  0.00     0.018 C 
ENDBRANCH   1   8
TORSDOF 1
ENDMDL
