MODEL 1
REMARK minimizedAffinity -2.21011615
REMARK minimizedRMSD -1
REMARK  1 active torsions:
REMARK  status: ('A' for Active; 'I' for Inactive)
REMARK    1  A    between atoms: C1_2  and  C2_3 
ROOT
ATOM      1  C2  UNL d   1      -0.963  -0.510   1.004  0.00  0.00    -0.076 A 
ATOM      2  C3  UNL d   1      -0.129  -0.404  -0.123  0.00  0.00     0.004 A 
ATOM      3  C4  UNL d   1       1.236  -0.157   0.015  0.00  0.00    -0.003 A 
ATOM      4  C5  UNL d   1       1.789  -0.014   1.283  0.00  0.00     0.000 A 
ATOM      5  C6  UNL d   1       0.980  -0.135   2.412  0.00  0.00     0.000 A 
ATOM      6  C7  UNL d   1      -0.395  -0.399   2.291  0.00  0.00    -0.073 A 
ATOM      7  C8  UNL d   1      -1.222  -0.513   3.542  0.00  0.00     0.078 C 
ENDROOT
BRANCH   1   8
ATOM      8  C1  UNL d   1      -2.441  -0.751   0.791  0.00  0.00     0.053 C 
ATOM      9  C   UNL d   1      -3.102   0.358  -0.013  0.00  0.00     0.018 C 
ENDBRANCH   1   8
TORSDOF 1
ENDMDL
