MODEL 1
REMARK minimizedAffinity -5.37323904
REMARK minimizedRMSD -1
REMARK  1 active torsions:
REMARK  status: ('A' for Active; 'I' for Inactive)
REMARK    1  A    between atoms: C1_2  and  C2_3 
ROOT
ATOM      1  C2  UNL d   1       0.163  -0.065  -0.046  0.00  0.00    -0.076 A 
ATOM      2  C3  UNL d   1      -1.203  -0.308   0.177  0.00  0.00     0.004 A 
ATOM      3  C4  UNL d   1      -1.698  -0.501   1.466  0.00  0.00    -0.003 A 
ATOM      4  C5  UNL d   1      -0.833  -0.454   2.554  0.00  0.00     0.000 A 
ATOM      5  C6  UNL d   1       0.523  -0.196   2.353  0.00  0.00     0.000 A 
ATOM      6  C7  UNL d   1       1.034   0.017   1.062  0.00  0.00    -0.073 A 
ATOM      7  C8  UNL d   1       2.506   0.285   0.903  0.00  0.00     0.078 C 
ENDROOT
BRANCH   1   8
ATOM      8  C1  UNL d   1       0.646   0.110  -1.468  0.00  0.00     0.053 C 
ATOM      9  C   UNL d   1       0.680  -1.202  -2.237  0.00  0.00     0.018 C 
ENDBRANCH   1   8
TORSDOF 1
ENDMDL
