MODEL 1
REMARK minimizedAffinity -1.87952232
REMARK minimizedRMSD -1
REMARK  1 active torsions:
REMARK  status: ('A' for Active; 'I' for Inactive)
REMARK    1  A    between atoms: C1_2  and  C2_3 
ROOT
ATOM      1  C2  UNL d   1      -0.435  -0.271   0.740  0.00  0.00    -0.076 A 
ATOM      2  C3  UNL d   1       0.898  -0.159   0.307  0.00  0.00     0.004 A 
ATOM      3  C4  UNL d   1       1.198   0.215  -1.002  0.00  0.00    -0.003 A 
ATOM      4  C5  UNL d   1       0.170   0.483  -1.899  0.00  0.00     0.000 A 
ATOM      5  C6  UNL d   1      -1.158   0.394  -1.482  0.00  0.00     0.000 A 
ATOM      6  C7  UNL d   1      -1.477   0.034  -0.161  0.00  0.00    -0.073 A 
ATOM      7  C8  UNL d   1      -2.926  -0.052   0.232  0.00  0.00     0.078 C 
ENDROOT
BRANCH   1   8
ATOM      8  C1  UNL d   1      -0.700  -0.708   2.163  0.00  0.00     0.053 C 
ATOM      9  C   UNL d   1      -0.413   0.393   3.173  0.00  0.00     0.018 C 
ENDBRANCH   1   8
TORSDOF 1
ENDMDL
