MODEL 1
REMARK minimizedAffinity 0.0471858829
REMARK minimizedRMSD -1
REMARK  1 active torsions:
REMARK  status: ('A' for Active; 'I' for Inactive)
REMARK    1  A    between atoms: C1_2  and  C2_3 
ROOT
ATOM      1  C2  UNL d   1       0.475  -0.117  -1.041  0.00  0.00    -0.076 A 
ATOM      2  C3  UNL d   1       1.687  -0.255  -0.344  0.00  0.00     0.004 A 
ATOM      3  C4  UNL d   1       1.752  -0.038   1.032  0.00  0.00    -0.003 A 
ATOM      4  C5  UNL d   1       0.605   0.319   1.732  0.00  0.00     0.000 A 
ATOM      5  C6  UNL d   1      -0.610   0.444   1.059  0.00  0.00     0.000 A 
ATOM      6  C7  UNL d   1      -0.696   0.213  -0.325  0.00  0.00    -0.073 A 
ATOM      7  C8  UNL d   1      -2.030   0.367  -1.001  0.00  0.00     0.078 C 
ENDROOT
BRANCH   1   8
ATOM      8  C1  UNL d   1       0.471  -0.339  -2.537  0.00  0.00     0.053 C 
ATOM      9  C   UNL d   1       1.861  -0.236  -3.145  0.00  0.00     0.018 C 
ENDBRANCH   1   8
TORSDOF 1
ENDMDL
