MODEL 1
REMARK minimizedAffinity 9.02106094
REMARK minimizedRMSD -1
REMARK  2 active torsions:
REMARK  status: ('A' for Active; 'I' for Inactive)
REMARK    1  A    between atoms: C2'_3  and  C1'_4 
REMARK    2  A    between atoms: C1'_4  and  C1_5 
ROOT
ATOM      1  C1  I4B d   1       0.242   2.082   1.716  0.00  0.00    -0.075 A 
ATOM      2  C2  I4B d   1      -0.672   1.886   0.710  0.00  0.00     0.003 A 
ATOM      3  C3  I4B d   1      -0.720   2.773  -0.392  0.00  0.00     0.002 A 
ATOM      4  C4  I4B d   1       0.125   3.864  -0.424  0.00  0.00    -0.004 A 
ATOM      5  C5  I4B d   1       1.066   4.048   0.585  0.00  0.00     0.002 A 
ATOM      6  C6  I4B d   1       1.134   3.145   1.655  0.00  0.00     0.003 A 
ENDROOT
BRANCH   1   7
ATOM      7  C1' I4B d   1       0.242   1.145   2.882  0.00  0.00     0.060 C 
BRANCH   7   8
ATOM      8  C2' I4B d   1       1.502   0.307   2.807  0.00  0.00    -0.013 C 
ATOM      9  C4' I4B d   1       2.705   1.089   3.264  0.00  0.00     0.013 C 
ATOM     10  C3' I4B d   1       1.297  -0.915   3.652  0.00  0.00     0.013 C 
ENDBRANCH   7   8
ENDBRANCH   1   7
TORSDOF 2
ENDMDL
