MODEL 1
REMARK minimizedAffinity 0.210914165
REMARK minimizedRMSD -1
REMARK  2 active torsions:
REMARK  status: ('A' for Active; 'I' for Inactive)
REMARK    1  A    between atoms: C2'_3  and  C1'_4 
REMARK    2  A    between atoms: C1'_4  and  C1_5 
ROOT
ATOM      1  C1  I4B d   1       0.852   2.767   0.075  0.00  0.00    -0.075 A 
ATOM      2  C2  I4B d   1      -0.513   2.904   0.124  0.00  0.00     0.003 A 
ATOM      3  C3  I4B d   1      -1.141   4.010  -0.499  0.00  0.00     0.002 A 
ATOM      4  C4  I4B d   1      -0.368   4.974  -1.112  0.00  0.00    -0.004 A 
ATOM      5  C5  I4B d   1       1.014   4.822  -1.181  0.00  0.00     0.002 A 
ATOM      6  C6  I4B d   1       1.627   3.705  -0.594  0.00  0.00     0.003 A 
ENDROOT
BRANCH   1   7
ATOM      7  C1' I4B d   1       1.485   1.605   0.772  0.00  0.00     0.060 C 
BRANCH   7   8
ATOM      8  C2' I4B d   1       0.866   0.337   0.222  0.00  0.00    -0.013 C 
ATOM      9  C4' I4B d   1       1.288   0.098  -1.204  0.00  0.00     0.013 C 
ATOM     10  C3' I4B d   1       1.279  -0.802   1.106  0.00  0.00     0.013 C 
ENDBRANCH   7   8
ENDBRANCH   1   7
TORSDOF 2
ENDMDL
