MODEL 1
REMARK minimizedAffinity -1.06651688
REMARK minimizedRMSD -1
REMARK  2 active torsions:
REMARK  status: ('A' for Active; 'I' for Inactive)
REMARK    1  A    between atoms: C2'_3  and  C1'_4 
REMARK    2  A    between atoms: C1'_4  and  C1_5 
ROOT
ATOM      1  C1  I4B d   1       0.009   2.871  -0.202  0.00  0.00    -0.075 A 
ATOM      2  C2  I4B d   1       1.215   3.527  -0.211  0.00  0.00     0.003 A 
ATOM      3  C3  I4B d   1       1.315   4.828  -0.761  0.00  0.00     0.002 A 
ATOM      4  C4  I4B d   1       0.202   5.412  -1.332  0.00  0.00    -0.004 A 
ATOM      5  C5  I4B d   1      -1.025   4.755  -1.301  0.00  0.00     0.002 A 
ATOM      6  C6  I4B d   1      -1.125   3.481  -0.722  0.00  0.00     0.003 A 
ENDROOT
BRANCH   1   7
ATOM      7  C1' I4B d   1      -0.053   1.484   0.356  0.00  0.00     0.060 C 
BRANCH   7   8
ATOM      8  C2' I4B d   1       1.213   0.759  -0.054  0.00  0.00    -0.013 C 
ATOM      9  C4' I4B d   1       1.491  -0.408   0.857  0.00  0.00     0.013 C 
ATOM     10  C3' I4B d   1       1.050   0.310  -1.475  0.00  0.00     0.013 C 
ENDBRANCH   7   8
ENDBRANCH   1   7
TORSDOF 2
ENDMDL
