MODEL 1
REMARK minimizedAffinity 9.23671341
REMARK minimizedRMSD -1
REMARK  2 active torsions:
REMARK  status: ('A' for Active; 'I' for Inactive)
REMARK    1  A    between atoms: C2'_3  and  C1'_4 
REMARK    2  A    between atoms: C1'_4  and  C1_5 
ROOT
ATOM      1  C1  I4B d   1       0.487   2.987   0.279  0.00  0.00    -0.075 A 
ATOM      2  C2  I4B d   1       1.617   3.760   0.180  0.00  0.00     0.003 A 
ATOM      3  C3  I4B d   1       1.535   5.078  -0.331  0.00  0.00     0.002 A 
ATOM      4  C4  I4B d   1       0.321   5.561  -0.776  0.00  0.00    -0.004 A 
ATOM      5  C5  I4B d   1      -0.827   4.783  -0.654  0.00  0.00     0.002 A 
ATOM      6  C6  I4B d   1      -0.746   3.493  -0.112  0.00  0.00     0.003 A 
ENDROOT
BRANCH   1   7
ATOM      7  C1' I4B d   1       0.615   1.588   0.792  0.00  0.00     0.060 C 
BRANCH   7   8
ATOM      8  C2' I4B d   1       1.579   0.845  -0.110  0.00  0.00    -0.013 C 
ATOM      9  C4' I4B d   1       2.135  -0.376   0.573  0.00  0.00     0.013 C 
ATOM     10  C3' I4B d   1       0.847   0.476  -1.366  0.00  0.00     0.013 C 
ENDBRANCH   7   8
ENDBRANCH   1   7
TORSDOF 2
ENDMDL
