MODEL 1
REMARK minimizedAffinity 11.7188435
REMARK minimizedRMSD -1
REMARK  2 active torsions:
REMARK  status: ('A' for Active; 'I' for Inactive)
REMARK    1  A    between atoms: C2'_3  and  C1'_4 
REMARK    2  A    between atoms: C1'_4  and  C1_5 
ROOT
ATOM      1  C1  I4B d   1      -5.155   2.283  -3.321  0.00  0.00    -0.075 A 
ATOM      2  C2  I4B d   1      -5.773   1.117  -2.943  0.00  0.00     0.003 A 
ATOM      3  C3  I4B d   1      -5.002  -0.002  -2.544  0.00  0.00     0.002 A 
ATOM      4  C4  I4B d   1      -3.625   0.072  -2.587  0.00  0.00    -0.004 A 
ATOM      5  C5  I4B d   1      -3.000   1.262  -2.949  0.00  0.00     0.002 A 
ATOM      6  C6  I4B d   1      -3.770   2.379  -3.307  0.00  0.00     0.003 A 
ENDROOT
BRANCH   1   7
ATOM      7  C1' I4B d   1      -5.999   3.434  -3.768  0.00  0.00     0.060 C 
BRANCH   7   8
ATOM      8  C2' I4B d   1      -5.146   4.325  -4.648  0.00  0.00    -0.013 C 
ATOM      9  C4' I4B d   1      -5.998   5.256  -5.470  0.00  0.00     0.013 C 
ATOM     10  C3' I4B d   1      -4.208   5.088  -3.763  0.00  0.00     0.013 C 
ENDBRANCH   7   8
ENDBRANCH   1   7
TORSDOF 2
ENDMDL
