MODEL 1
REMARK minimizedAffinity 6.0147109
REMARK minimizedRMSD -1
REMARK  2 active torsions:
REMARK  status: ('A' for Active; 'I' for Inactive)
REMARK    1  A    between atoms: C2'_3  and  C1'_4 
REMARK    2  A    between atoms: C1'_4  and  C1_5 
ROOT
ATOM      1  C1  I4B d   1      -5.098   2.898  -3.980  0.00  0.00    -0.075 A 
ATOM      2  C2  I4B d   1      -3.909   3.434  -3.552  0.00  0.00     0.003 A 
ATOM      3  C3  I4B d   1      -3.585   4.779  -3.851  0.00  0.00     0.002 A 
ATOM      4  C4  I4B d   1      -4.450   5.532  -4.618  0.00  0.00    -0.004 A 
ATOM      5  C5  I4B d   1      -5.665   4.994  -5.032  0.00  0.00     0.002 A 
ATOM      6  C6  I4B d   1      -5.997   3.672  -4.700  0.00  0.00     0.003 A 
ENDROOT
BRANCH   1   7
ATOM      7  C1' I4B d   1      -5.393   1.464  -3.674  0.00  0.00     0.060 C 
BRANCH   7   8
ATOM      8  C2' I4B d   1      -4.394   0.992  -2.637  0.00  0.00    -0.013 C 
ATOM      9  C4' I4B d   1      -5.090   0.445  -1.419  0.00  0.00     0.013 C 
ATOM     10  C3' I4B d   1      -3.521  -0.048  -3.274  0.00  0.00     0.013 C 
ENDBRANCH   7   8
ENDBRANCH   1   7
TORSDOF 2
ENDMDL
