MODEL 1
REMARK minimizedAffinity 16.0851021
REMARK minimizedRMSD -1
REMARK  2 active torsions:
REMARK  status: ('A' for Active; 'I' for Inactive)
REMARK    1  A    between atoms: C2'_3  and  C1'_4 
REMARK    2  A    between atoms: C1'_4  and  C1_5 
ROOT
ATOM      1  C1  I4B d   1      -3.576   4.927  -4.080  0.00  0.00    -0.075 A 
ATOM      2  C2  I4B d   1      -3.585   4.374  -5.336  0.00  0.00     0.003 A 
ATOM      3  C3  I4B d   1      -4.812   4.129  -5.999  0.00  0.00     0.002 A 
ATOM      4  C4  I4B d   1      -6.000   4.404  -5.353  0.00  0.00    -0.004 A 
ATOM      5  C5  I4B d   1      -5.989   4.986  -4.089  0.00  0.00     0.002 A 
ATOM      6  C6  I4B d   1      -4.770   5.261  -3.453  0.00  0.00     0.003 A 
ENDROOT
BRANCH   1   7
ATOM      7  C1' I4B d   1      -2.264   5.142  -3.396  0.00  0.00     0.060 C 
BRANCH   7   8
ATOM      8  C2' I4B d   1      -2.249   4.296  -2.139  0.00  0.00    -0.013 C 
ATOM      9  C4' I4B d   1      -2.296   2.828  -2.469  0.00  0.00     0.013 C 
ATOM     10  C3' I4B d   1      -1.010   4.638  -1.366  0.00  0.00     0.013 C 
ENDBRANCH   7   8
ENDBRANCH   1   7
TORSDOF 2
ENDMDL
