MODEL 1
REMARK minimizedAffinity 4.07394981
REMARK minimizedRMSD -1
REMARK  2 active torsions:
REMARK  status: ('A' for Active; 'I' for Inactive)
REMARK    1  A    between atoms: C2'_3  and  C1'_4 
REMARK    2  A    between atoms: C1'_4  and  C1_5 
ROOT
ATOM      1  C1  I4B d   1      -4.469   2.836  -4.651  0.00  0.00    -0.075 A 
ATOM      2  C2  I4B d   1      -5.465   2.890  -5.594  0.00  0.00     0.003 A 
ATOM      3  C3  I4B d   1      -5.999   4.138  -5.996  0.00  0.00     0.002 A 
ATOM      4  C4  I4B d   1      -5.545   5.296  -5.397  0.00  0.00    -0.004 A 
ATOM      5  C5  I4B d   1      -4.520   5.241  -4.458  0.00  0.00     0.002 A 
ATOM      6  C6  I4B d   1      -3.969   4.004  -4.091  0.00  0.00     0.003 A 
ENDROOT
BRANCH   1   7
ATOM      7  C1' I4B d   1      -3.952   1.499  -4.225  0.00  0.00     0.060 C 
BRANCH   7   8
ATOM      8  C2' I4B d   1      -3.673   1.558  -2.737  0.00  0.00    -0.013 C 
ATOM      9  C4' I4B d   1      -4.032   0.260  -2.063  0.00  0.00     0.013 C 
ATOM     10  C3' I4B d   1      -2.221   1.882  -2.550  0.00  0.00     0.013 C 
ENDBRANCH   7   8
ENDBRANCH   1   7
TORSDOF 2
ENDMDL
