MODEL 1
REMARK minimizedAffinity 15.8429193
REMARK minimizedRMSD -1
REMARK  2 active torsions:
REMARK  status: ('A' for Active; 'I' for Inactive)
REMARK    1  A    between atoms: C2'_3  and  C1'_4 
REMARK    2  A    between atoms: C1'_4  and  C1_5 
ROOT
ATOM      1  C1  I4B d   1      -0.001   3.406  -0.998  0.00  0.00    -0.075 A 
ATOM      2  C2  I4B d   1       0.697   2.769  -0.002  0.00  0.00     0.003 A 
ATOM      3  C3  I4B d   1       0.026   2.303   1.154  0.00  0.00     0.002 A 
ATOM      4  C4  I4B d   1      -1.327   2.538   1.295  0.00  0.00    -0.004 A 
ATOM      5  C5  I4B d   1      -2.038   3.163   0.275  0.00  0.00     0.002 A 
ATOM      6  C6  I4B d   1      -1.373   3.589  -0.885  0.00  0.00     0.003 A 
ENDROOT
BRANCH   1   7
ATOM      7  C1' I4B d   1       0.745   3.915  -2.190  0.00  0.00     0.060 C 
BRANCH   7   8
ATOM      8  C2' I4B d   1       0.646   5.427  -2.192  0.00  0.00    -0.013 C 
ATOM      9  C4' I4B d   1       1.084   6.000  -3.515  0.00  0.00     0.013 C 
ATOM     10  C3' I4B d   1      -0.774   5.798  -1.885  0.00  0.00     0.013 C 
ENDBRANCH   7   8
ENDBRANCH   1   7
TORSDOF 2
ENDMDL
