MODEL 1
REMARK minimizedAffinity 14.4188766
REMARK minimizedRMSD -1
REMARK  2 active torsions:
REMARK  status: ('A' for Active; 'I' for Inactive)
REMARK    1  A    between atoms: C2'_3  and  C1'_4 
REMARK    2  A    between atoms: C1'_4  and  C1_5 
ROOT
ATOM      1  C1  I4B d   1      -0.448   4.118  -0.128  0.00  0.00    -0.075 A 
ATOM      2  C2  I4B d   1      -1.124   4.775  -1.126  0.00  0.00     0.003 A 
ATOM      3  C3  I4B d   1      -0.418   5.573  -2.058  0.00  0.00     0.002 A 
ATOM      4  C4  I4B d   1       0.947   5.726  -1.927  0.00  0.00    -0.004 A 
ATOM      5  C5  I4B d   1       1.633   5.040  -0.928  0.00  0.00     0.002 A 
ATOM      6  C6  I4B d   1       0.934   4.222  -0.030  0.00  0.00     0.003 A 
ENDROOT
BRANCH   1   7
ATOM      7  C1' I4B d   1      -1.228   3.310   0.860  0.00  0.00     0.060 C 
BRANCH   7   8
ATOM      8  C2' I4B d   1      -2.631   3.880   0.926  0.00  0.00    -0.013 C 
ATOM      9  C4' I4B d   1      -3.638   2.812   1.261  0.00  0.00     0.013 C 
ATOM     10  C3' I4B d   1      -2.638   4.973   1.953  0.00  0.00     0.013 C 
ENDBRANCH   7   8
ENDBRANCH   1   7
TORSDOF 2
ENDMDL
