MODEL 1
REMARK minimizedAffinity 4.53434944
REMARK minimizedRMSD -1
REMARK  1 active torsions:
REMARK  status: ('A' for Active; 'I' for Inactive)
REMARK    1  A    between atoms: C1_2  and  C2_3 
ROOT
ATOM      1  C2  UNL d   1       2.536  -0.106   2.968  0.00  0.00    -0.077 A 
ATOM      2  C3  UNL d   1       2.579   1.108   3.667  0.00  0.00     0.002 A 
ATOM      3  C4  UNL d   1       2.763   2.311   2.982  0.00  0.00     0.002 A 
ATOM      4  C5  UNL d   1       2.901   2.312   1.596  0.00  0.00    -0.004 A 
ATOM      5  C6  UNL d   1       2.861   1.109   0.892  0.00  0.00     0.002 A 
ATOM      6  C7  UNL d   1       2.678  -0.095   1.575  0.00  0.00     0.002 A 
ENDROOT
BRANCH   1   7
ATOM      7  C1  UNL d   1       2.288  -1.400   3.700  0.00  0.00     0.055 C 
ATOM      8  C   UNL d   1       1.302  -2.281   2.947  0.00  0.00     0.019 C 
ENDBRANCH   1   7
TORSDOF 1
ENDMDL
