MODEL 1
REMARK minimizedAffinity 0.694752932
REMARK minimizedRMSD -1
REMARK  1 active torsions:
REMARK  status: ('A' for Active; 'I' for Inactive)
REMARK    1  A    between atoms: C1_2  and  C2_3 
ROOT
ATOM      1  C2  UNL d   1       3.308  -2.298   3.555  0.00  0.00    -0.077 A 
ATOM      2  C3  UNL d   1       3.683  -2.941   4.743  0.00  0.00     0.002 A 
ATOM      3  C4  UNL d   1       5.023  -3.243   4.990  0.00  0.00     0.002 A 
ATOM      4  C5  UNL d   1       6.000  -2.903   4.056  0.00  0.00    -0.004 A 
ATOM      5  C6  UNL d   1       5.637  -2.265   2.871  0.00  0.00     0.002 A 
ATOM      6  C7  UNL d   1       4.298  -1.963   2.621  0.00  0.00     0.002 A 
ENDROOT
BRANCH   1   7
ATOM      7  C1  UNL d   1       1.869  -1.927   3.308  0.00  0.00     0.055 C 
ATOM      8  C   UNL d   1       1.695  -1.252   1.955  0.00  0.00     0.019 C 
ENDBRANCH   1   7
TORSDOF 1
ENDMDL
