MODEL 1
REMARK minimizedAffinity -1.32362378
REMARK minimizedRMSD -1
REMARK  1 active torsions:
REMARK  status: ('A' for Active; 'I' for Inactive)
REMARK    1  A    between atoms: C1_2  and  C2_3 
ROOT
ATOM      1  C2  UNL d   1       1.837   0.981   1.092  0.00  0.00    -0.077 A 
ATOM      2  C3  UNL d   1       1.699  -0.217   1.806  0.00  0.00     0.002 A 
ATOM      3  C4  UNL d   1       2.188  -0.323   3.110  0.00  0.00     0.002 A 
ATOM      4  C5  UNL d   1       2.813   0.768   3.712  0.00  0.00    -0.004 A 
ATOM      5  C6  UNL d   1       2.956   1.963   3.009  0.00  0.00     0.002 A 
ATOM      6  C7  UNL d   1       2.470   2.070   1.705  0.00  0.00     0.002 A 
ENDROOT
BRANCH   1   7
ATOM      7  C1  UNL d   1       1.267   1.112  -0.297  0.00  0.00     0.055 C 
ATOM      8  C   UNL d   1       0.284   2.270  -0.384  0.00  0.00     0.019 C 
ENDBRANCH   1   7
TORSDOF 1
ENDMDL
