MODEL 1
REMARK minimizedAffinity 0.205829278
REMARK minimizedRMSD -1
REMARK  1 active torsions:
REMARK  status: ('A' for Active; 'I' for Inactive)
REMARK    1  A    between atoms: C1_2  and  C2_3 
ROOT
ATOM      1  C2  UNL d   1       0.311  -2.325   0.711  0.00  0.00    -0.077 A 
ATOM      2  C3  UNL d   1      -0.967  -1.865   0.363  0.00  0.00     0.002 A 
ATOM      3  C4  UNL d   1      -1.554  -2.255  -0.843  0.00  0.00     0.002 A 
ATOM      4  C5  UNL d   1      -0.873  -3.110  -1.706  0.00  0.00    -0.004 A 
ATOM      5  C6  UNL d   1       0.399  -3.572  -1.370  0.00  0.00     0.002 A 
ATOM      6  C7  UNL d   1       0.988  -3.182  -0.166  0.00  0.00     0.002 A 
ENDROOT
BRANCH   1   7
ATOM      7  C1  UNL d   1       0.925  -1.945   2.033  0.00  0.00     0.055 C 
ATOM      8  C   UNL d   1       1.463  -0.521   2.004  0.00  0.00     0.019 C 
ENDBRANCH   1   7
TORSDOF 1
ENDMDL
