MODEL 1
REMARK minimizedAffinity -0.744956434
REMARK minimizedRMSD -1
REMARK  1 active torsions:
REMARK  status: ('A' for Active; 'I' for Inactive)
REMARK    1  A    between atoms: C1_2  and  C2_3 
ROOT
ATOM      1  C2  UNL d   1       3.720  -3.572  -5.345  0.00  0.00    -0.077 A 
ATOM      2  C3  UNL d   1       4.396  -3.584  -4.117  0.00  0.00     0.002 A 
ATOM      3  C4  UNL d   1       4.818  -4.790  -3.554  0.00  0.00     0.002 A 
ATOM      4  C5  UNL d   1       4.572  -5.992  -4.215  0.00  0.00    -0.004 A 
ATOM      5  C6  UNL d   1       3.899  -5.991  -5.436  0.00  0.00     0.002 A 
ATOM      6  C7  UNL d   1       3.475  -4.786  -5.998  0.00  0.00     0.002 A 
ENDROOT
BRANCH   1   7
ATOM      7  C1  UNL d   1       3.307  -2.268  -5.976  0.00  0.00     0.055 C 
ATOM      8  C   UNL d   1       4.401  -1.218  -5.843  0.00  0.00     0.019 C 
ENDBRANCH   1   7
TORSDOF 1
ENDMDL
