MODEL 1
REMARK minimizedAffinity 4.21998167
REMARK minimizedRMSD -1
REMARK  1 active torsions:
REMARK  status: ('A' for Active; 'I' for Inactive)
REMARK    1  A    between atoms: C1_2  and  C2_3 
ROOT
ATOM      1  C2  UNL d   1      -1.141  -1.571  -0.014  0.00  0.00    -0.077 A 
ATOM      2  C3  UNL d   1       0.006  -2.133   0.565  0.00  0.00     0.002 A 
ATOM      3  C4  UNL d   1       0.557  -3.306   0.046  0.00  0.00     0.002 A 
ATOM      4  C5  UNL d   1      -0.029  -3.925  -1.056  0.00  0.00    -0.004 A 
ATOM      5  C6  UNL d   1      -1.171  -3.375  -1.638  0.00  0.00     0.002 A 
ATOM      6  C7  UNL d   1      -1.724  -2.204  -1.120  0.00  0.00     0.002 A 
ENDROOT
BRANCH   1   7
ATOM      7  C1  UNL d   1      -1.708  -0.280   0.514  0.00  0.00     0.055 C 
ATOM      8  C   UNL d   1      -1.070   0.923  -0.166  0.00  0.00     0.019 C 
ENDBRANCH   1   7
TORSDOF 1
ENDMDL
