MODEL 1
REMARK minimizedAffinity 8.17439651
REMARK minimizedRMSD -1
REMARK  0 active torsions:
REMARK  status: ('A' for Active; 'I' for Inactive)
ROOT
ATOM      1  C   UNL d   1       4.403   1.738   0.205  0.00  0.00     0.020 A 
ATOM      2  C1  UNL d   1       3.134   1.308  -0.183  0.00  0.00     0.020 A 
ATOM      3  C2  UNL d   1       2.657   0.067   0.244  0.00  0.00     0.034 A 
ATOM      4  C3  UNL d   1       3.448  -0.749   1.061  0.00  0.00     0.017 A 
ATOM      5  C4  UNL d   1       4.722  -0.317   1.449  0.00  0.00     0.017 A 
ATOM      6  C5  UNL d   1       5.195   0.927   1.019  0.00  0.00     0.034 A 
ATOM      7 Cl   UNL d   1       5.756  -1.268   2.456  0.00  0.00    -0.070 Cl
ATOM      8 Cl1  UNL d   1       2.794  -2.271   1.551  0.00  0.00    -0.070 Cl
ENDROOT
TORSDOF 0
ENDMDL
