MODEL 1
REMARK minimizedAffinity 7.90546799
REMARK minimizedRMSD -1
REMARK  0 active torsions:
REMARK  status: ('A' for Active; 'I' for Inactive)
ROOT
ATOM      1  C   UNL d   1      -5.966   2.020   5.443  0.00  0.00     0.020 A 
ATOM      2  C1  UNL d   1      -5.994   1.863   4.058  0.00  0.00     0.020 A 
ATOM      3  C2  UNL d   1      -5.998   2.986   3.228  0.00  0.00     0.034 A 
ATOM      4  C3  UNL d   1      -5.972   4.271   3.782  0.00  0.00     0.017 A 
ATOM      5  C4  UNL d   1      -5.943   4.428   5.173  0.00  0.00     0.017 A 
ATOM      6  C5  UNL d   1      -5.940   3.300   5.999  0.00  0.00     0.034 A 
ATOM      7 Cl   UNL d   1      -5.911   5.981   5.930  0.00  0.00    -0.070 Cl
ATOM      8 Cl1  UNL d   1      -5.977   5.614   2.696  0.00  0.00    -0.070 Cl
ENDROOT
TORSDOF 0
ENDMDL
