MODEL 1
REMARK minimizedAffinity 16.0703011
REMARK minimizedRMSD -1
REMARK  0 active torsions:
REMARK  status: ('A' for Active; 'I' for Inactive)
ROOT
ATOM      1  C   UNL d   1       1.882   0.637   0.663  0.00  0.00     0.020 A 
ATOM      2  C1  UNL d   1       2.305   0.687  -0.664  0.00  0.00     0.020 A 
ATOM      3  C2  UNL d   1       3.374   1.510  -1.026  0.00  0.00     0.034 A 
ATOM      4  C3  UNL d   1       4.023   2.286  -0.059  0.00  0.00     0.017 A 
ATOM      5  C4  UNL d   1       3.598   2.236   1.273  0.00  0.00     0.017 A 
ATOM      6  C5  UNL d   1       2.527   1.410   1.630  0.00  0.00     0.034 A 
ATOM      7 Cl   UNL d   1       4.349   3.165   2.522  0.00  0.00    -0.070 Cl
ATOM      8 Cl1  UNL d   1       5.338   3.280  -0.577  0.00  0.00    -0.070 Cl
ENDROOT
TORSDOF 0
ENDMDL
