MODEL 1
REMARK minimizedAffinity 5.60186815
REMARK minimizedRMSD -1
REMARK  0 active torsions:
REMARK  status: ('A' for Active; 'I' for Inactive)
ROOT
ATOM      1  C   UNL d   1       4.674   5.584   4.908  0.00  0.00     0.020 A 
ATOM      2  C1  UNL d   1       4.912   4.256   5.261  0.00  0.00     0.020 A 
ATOM      3  C2  UNL d   1       3.856   3.343   5.297  0.00  0.00     0.034 A 
ATOM      4  C3  UNL d   1       2.557   3.756   4.981  0.00  0.00     0.017 A 
ATOM      5  C4  UNL d   1       2.318   5.089   4.628  0.00  0.00     0.017 A 
ATOM      6  C5  UNL d   1       3.379   5.999   4.593  0.00  0.00     0.034 A 
ATOM      7 Cl   UNL d   1       0.743   5.674   4.225  0.00  0.00    -0.070 Cl
ATOM      8 Cl1  UNL d   1       1.299   2.574   5.047  0.00  0.00    -0.070 Cl
ENDROOT
TORSDOF 0
ENDMDL
