MODEL 1
REMARK minimizedAffinity 11.4655237
REMARK minimizedRMSD -1
REMARK  0 active torsions:
REMARK  status: ('A' for Active; 'I' for Inactive)
ROOT
ATOM      1  C   UNL d   1       4.184   3.106  -1.604  0.00  0.00     0.020 A 
ATOM      2  C1  UNL d   1       5.460   3.352  -1.098  0.00  0.00     0.020 A 
ATOM      3  C2  UNL d   1       5.996   2.514  -0.118  0.00  0.00     0.034 A 
ATOM      4  C3  UNL d   1       5.256   1.426   0.359  0.00  0.00     0.017 A 
ATOM      5  C4  UNL d   1       3.975   1.180  -0.150  0.00  0.00     0.017 A 
ATOM      6  C5  UNL d   1       3.443   2.022  -1.131  0.00  0.00     0.034 A 
ATOM      7 Cl   UNL d   1       3.002  -0.143   0.389  0.00  0.00    -0.070 Cl
ATOM      8 Cl1  UNL d   1       5.980   0.430   1.571  0.00  0.00    -0.070 Cl
ENDROOT
TORSDOF 0
ENDMDL
