MODEL 1
REMARK minimizedAffinity 5.00348711
REMARK minimizedRMSD -1
REMARK  0 active torsions:
REMARK  status: ('A' for Active; 'I' for Inactive)
ROOT
ATOM      1  C   UNL d   1      -5.251   5.009   0.593  0.00  0.00     0.020 A 
ATOM      2  C1  UNL d   1      -4.370   4.534  -0.377  0.00  0.00     0.020 A 
ATOM      3  C2  UNL d   1      -2.997   4.506  -0.120  0.00  0.00     0.034 A 
ATOM      4  C3  UNL d   1      -2.503   4.954   1.111  0.00  0.00     0.017 A 
ATOM      5  C4  UNL d   1      -3.389   5.430   2.084  0.00  0.00     0.017 A 
ATOM      6  C5  UNL d   1      -4.762   5.456   1.821  0.00  0.00     0.034 A 
ATOM      7 Cl   UNL d   1      -2.853   5.999   3.626  0.00  0.00    -0.070 Cl
ATOM      8 Cl1  UNL d   1      -0.794   4.891   1.361  0.00  0.00    -0.070 Cl
ENDROOT
TORSDOF 0
ENDMDL
