MODEL 1
REMARK minimizedAffinity 8.77800846
REMARK minimizedRMSD -1
REMARK  0 active torsions:
REMARK  status: ('A' for Active; 'I' for Inactive)
ROOT
ATOM      1  C   UNL d   1       2.372   2.399   4.340  0.00  0.00     0.020 A 
ATOM      2  C1  UNL d   1       3.605   2.980   4.636  0.00  0.00     0.020 A 
ATOM      3  C2  UNL d   1       4.514   3.248   3.611  0.00  0.00     0.034 A 
ATOM      4  C3  UNL d   1       4.193   2.934   2.285  0.00  0.00     0.017 A 
ATOM      5  C4  UNL d   1       2.956   2.351   1.989  0.00  0.00     0.017 A 
ATOM      6  C5  UNL d   1       2.049   2.085   3.020  0.00  0.00     0.034 A 
ATOM      7 Cl   UNL d   1       2.489   1.936   0.378  0.00  0.00    -0.070 Cl
ATOM      8 Cl1  UNL d   1       5.366   3.294   1.068  0.00  0.00    -0.070 Cl
ENDROOT
TORSDOF 0
ENDMDL
