MODEL 1
REMARK minimizedAffinity -5.27092791
REMARK minimizedRMSD -1
REMARK  0 active torsions:
REMARK  status: ('A' for Active; 'I' for Inactive)
ROOT
ATOM      1  C   UNL d   1       5.136   2.209  -0.195  0.00  0.00     0.020 A 
ATOM      2  C1  UNL d   1       3.752   2.161  -0.354  0.00  0.00     0.020 A 
ATOM      3  C2  UNL d   1       3.040   1.033   0.060  0.00  0.00     0.034 A 
ATOM      4  C3  UNL d   1       3.712  -0.051   0.636  0.00  0.00     0.017 A 
ATOM      5  C4  UNL d   1       5.101  -0.002   0.796  0.00  0.00     0.017 A 
ATOM      6  C5  UNL d   1       5.809   1.129   0.379  0.00  0.00     0.034 A 
ATOM      7 Cl   UNL d   1       6.000  -1.301   1.498  0.00  0.00    -0.070 Cl
ATOM      8 Cl1  UNL d   1       2.768  -1.413   1.126  0.00  0.00    -0.070 Cl
ENDROOT
TORSDOF 0
ENDMDL
