MODEL 1
REMARK minimizedAffinity 12.7269917
REMARK minimizedRMSD -1
REMARK  0 active torsions:
REMARK  status: ('A' for Active; 'I' for Inactive)
ROOT
ATOM      1  C   UNL d   1       2.751   1.396  -0.255  0.00  0.00     0.020 A 
ATOM      2  C1  UNL d   1       4.006   1.895   0.089  0.00  0.00     0.020 A 
ATOM      3  C2  UNL d   1       4.962   1.051   0.658  0.00  0.00     0.034 A 
ATOM      4  C3  UNL d   1       4.663  -0.298   0.886  0.00  0.00     0.017 A 
ATOM      5  C4  UNL d   1       3.402  -0.798   0.540  0.00  0.00     0.017 A 
ATOM      6  C5  UNL d   1       2.450   0.052  -0.030  0.00  0.00     0.034 A 
ATOM      7 Cl   UNL d   1       2.960  -2.450   0.790  0.00  0.00    -0.070 Cl
ATOM      8 Cl1  UNL d   1       5.892  -1.285   1.593  0.00  0.00    -0.070 Cl
ENDROOT
TORSDOF 0
ENDMDL
