MODEL 1
REMARK minimizedAffinity 1.10491359
REMARK minimizedRMSD -1
REMARK  0 active torsions:
REMARK  status: ('A' for Active; 'I' for Inactive)
ROOT
ATOM      1  C   UNL d   1       4.027   1.467  -1.210  0.00  0.00     0.020 A 
ATOM      2  C1  UNL d   1       2.762   0.945  -0.939  0.00  0.00     0.020 A 
ATOM      3  C2  UNL d   1       2.165   1.172   0.302  0.00  0.00     0.034 A 
ATOM      4  C3  UNL d   1       2.832   1.921   1.278  0.00  0.00     0.017 A 
ATOM      5  C4  UNL d   1       4.102   2.444   1.005  0.00  0.00     0.017 A 
ATOM      6  C5  UNL d   1       4.695   2.215  -0.240  0.00  0.00     0.034 A 
ATOM      7 Cl   UNL d   1       4.986   3.379   2.159  0.00  0.00    -0.070 Cl
ATOM      8 Cl1  UNL d   1       2.034   2.162   2.791  0.00  0.00    -0.070 Cl
ENDROOT
TORSDOF 0
ENDMDL
