MODEL 1
REMARK minimizedAffinity 2.74007607
REMARK minimizedRMSD -1
REMARK  0 active torsions:
REMARK  status: ('A' for Active; 'I' for Inactive)
ROOT
ATOM      1  C   UNL d   1       3.396   1.159  -1.297  0.00  0.00     0.020 A 
ATOM      2  C1  UNL d   1       3.396   0.652   0.002  0.00  0.00     0.020 A 
ATOM      3  C2  UNL d   1       4.205   1.235   0.979  0.00  0.00     0.034 A 
ATOM      4  C3  UNL d   1       5.019   2.328   0.659  0.00  0.00     0.017 A 
ATOM      5  C4  UNL d   1       5.019   2.836  -0.645  0.00  0.00     0.017 A 
ATOM      6  C5  UNL d   1       4.206   2.249  -1.619  0.00  0.00     0.034 A 
ATOM      7 Cl   UNL d   1       5.996   4.182  -1.115  0.00  0.00    -0.070 Cl
ATOM      8 Cl1  UNL d   1       5.995   2.999   1.918  0.00  0.00    -0.070 Cl
ENDROOT
TORSDOF 0
ENDMDL
