MODEL 1
REMARK minimizedAffinity 8.23434353
REMARK minimizedRMSD -1
REMARK  0 active torsions:
REMARK  status: ('A' for Active; 'I' for Inactive)
ROOT
ATOM      1  C   UNL d   1       2.547   0.430  -1.258  0.00  0.00     0.020 A 
ATOM      2  C1  UNL d   1       3.686   1.221  -1.407  0.00  0.00     0.020 A 
ATOM      3  C2  UNL d   1       4.251   1.849  -0.295  0.00  0.00     0.034 A 
ATOM      4  C3  UNL d   1       3.678   1.687   0.972  0.00  0.00     0.017 A 
ATOM      5  C4  UNL d   1       2.535   0.893   1.121  0.00  0.00     0.017 A 
ATOM      6  C5  UNL d   1       1.973   0.266   0.004  0.00  0.00     0.034 A 
ATOM      7 Cl   UNL d   1       1.771   0.646   2.651  0.00  0.00    -0.070 Cl
ATOM      8 Cl1  UNL d   1       4.429   2.492   2.303  0.00  0.00    -0.070 Cl
ENDROOT
TORSDOF 0
ENDMDL
