MODEL 1
REMARK minimizedAffinity -1.25112009
REMARK minimizedRMSD -1
REMARK  0 active torsions:
REMARK  status: ('A' for Active; 'I' for Inactive)
ROOT
ATOM      1  C   UNL d   1       3.475  -3.062  -3.094  0.00  0.00     0.077 C 
ATOM      2  C1  UNL d   1       2.602  -2.533  -1.996  0.00  0.00    -0.074 A 
ATOM      3  C2  UNL d   1       1.210  -2.652  -2.062  0.00  0.00    -0.005 A 
ATOM      4  C3  UNL d   1       0.412  -2.163  -1.028  0.00  0.00     0.006 A 
ATOM      5  C4  UNL d   1       0.997  -1.550   0.081  0.00  0.00    -0.005 A 
ATOM      6  C5  UNL d   1       2.387  -1.423   0.166  0.00  0.00    -0.074 A 
ATOM      7  C6  UNL d   1       3.031  -0.777   1.356  0.00  0.00     0.077 C 
ATOM      8  C7  UNL d   1       3.182  -1.923  -0.874  0.00  0.00    -0.001 A 
ENDROOT
TORSDOF 0
ENDMDL
