MODEL 1
REMARK minimizedAffinity 1.97972429
REMARK minimizedRMSD -1
REMARK  0 active torsions:
REMARK  status: ('A' for Active; 'I' for Inactive)
ROOT
ATOM      1  C   UNL d   1       0.342  -2.991  -1.041  0.00  0.00     0.077 C 
ATOM      2  C1  UNL d   1       1.278  -2.501   0.023  0.00  0.00    -0.074 A 
ATOM      3  C2  UNL d   1       2.493  -1.894  -0.312  0.00  0.00    -0.005 A 
ATOM      4  C3  UNL d   1       3.350  -1.435   0.688  0.00  0.00     0.006 A 
ATOM      5  C4  UNL d   1       3.001  -1.578   2.032  0.00  0.00    -0.005 A 
ATOM      6  C5  UNL d   1       1.790  -2.181   2.386  0.00  0.00    -0.074 A 
ATOM      7  C6  UNL d   1       1.396  -2.333   3.825  0.00  0.00     0.077 C 
ATOM      8  C7  UNL d   1       0.932  -2.634   1.375  0.00  0.00    -0.001 A 
ENDROOT
TORSDOF 0
ENDMDL
