MODEL 1
REMARK minimizedAffinity 8.87809849
REMARK minimizedRMSD -1
REMARK  0 active torsions:
REMARK  status: ('A' for Active; 'I' for Inactive)
ROOT
ATOM      1  C   UNL d   1       1.138   2.311  -0.012  0.00  0.00     0.077 C 
ATOM      2  C1  UNL d   1       1.720   0.976   0.348  0.00  0.00    -0.074 A 
ATOM      3  C2  UNL d   1       2.361   0.780   1.576  0.00  0.00    -0.005 A 
ATOM      4  C3  UNL d   1       2.889  -0.470   1.901  0.00  0.00     0.006 A 
ATOM      5  C4  UNL d   1       2.782  -1.533   1.004  0.00  0.00    -0.005 A 
ATOM      6  C5  UNL d   1       2.144  -1.356  -0.228  0.00  0.00    -0.074 A 
ATOM      7  C6  UNL d   1       2.011  -2.490  -1.199  0.00  0.00     0.077 C 
ATOM      8  C7  UNL d   1       1.609  -0.099  -0.544  0.00  0.00    -0.001 A 
ENDROOT
TORSDOF 0
ENDMDL
