MODEL 1
REMARK minimizedAffinity -0.532015562
REMARK minimizedRMSD -1
REMARK  0 active torsions:
REMARK  status: ('A' for Active; 'I' for Inactive)
ROOT
ATOM      1  C   UNL d   1       4.831   5.487   5.306  0.00  0.00     0.077 C 
ATOM      2  C1  UNL d   1       4.358   4.301   4.518  0.00  0.00    -0.074 A 
ATOM      3  C2  UNL d   1       5.215   3.639   3.632  0.00  0.00    -0.005 A 
ATOM      4  C3  UNL d   1       4.765   2.533   2.913  0.00  0.00     0.006 A 
ATOM      5  C4  UNL d   1       3.455   2.078   3.071  0.00  0.00    -0.005 A 
ATOM      6  C5  UNL d   1       2.584   2.726   3.952  0.00  0.00    -0.074 A 
ATOM      7  C6  UNL d   1       1.177   2.244   4.141  0.00  0.00     0.077 C 
ATOM      8  C7  UNL d   1       3.047   3.833   4.677  0.00  0.00    -0.001 A 
ENDROOT
TORSDOF 0
ENDMDL
