MODEL 1
REMARK minimizedAffinity 2.71573639
REMARK minimizedRMSD -1
REMARK  0 active torsions:
REMARK  status: ('A' for Active; 'I' for Inactive)
ROOT
ATOM      1  C   UNL d   1      -1.495   1.303   2.628  0.00  0.00     0.077 C 
ATOM      2  C1  UNL d   1      -0.392   1.748   1.714  0.00  0.00    -0.074 A 
ATOM      3  C2  UNL d   1      -0.053   3.100   1.600  0.00  0.00    -0.005 A 
ATOM      4  C3  UNL d   1       0.981   3.497   0.753  0.00  0.00     0.006 A 
ATOM      5  C4  UNL d   1       1.685   2.548   0.011  0.00  0.00    -0.005 A 
ATOM      6  C5  UNL d   1       1.361   1.191   0.112  0.00  0.00    -0.074 A 
ATOM      7  C6  UNL d   1       2.115   0.158  -0.670  0.00  0.00     0.077 C 
ATOM      8  C7  UNL d   1       0.325   0.799   0.971  0.00  0.00    -0.001 A 
ENDROOT
TORSDOF 0
ENDMDL
