MODEL 1
REMARK minimizedAffinity 3.12683558
REMARK minimizedRMSD -1
REMARK  0 active torsions:
REMARK  status: ('A' for Active; 'I' for Inactive)
ROOT
ATOM      1  C   UNL d   1      -0.530  -2.223  -1.073  0.00  0.00     0.077 C 
ATOM      2  C1  UNL d   1       0.687  -1.485  -0.599  0.00  0.00    -0.074 A 
ATOM      3  C2  UNL d   1       1.922  -2.131  -0.489  0.00  0.00    -0.005 A 
ATOM      4  C3  UNL d   1       3.047  -1.429  -0.056  0.00  0.00     0.006 A 
ATOM      5  C4  UNL d   1       2.948  -0.076   0.271  0.00  0.00    -0.005 A 
ATOM      6  C5  UNL d   1       1.721   0.587   0.167  0.00  0.00    -0.074 A 
ATOM      7  C6  UNL d   1       1.599   2.043   0.505  0.00  0.00     0.077 C 
ATOM      8  C7  UNL d   1       0.597  -0.123  -0.276  0.00  0.00    -0.001 A 
ENDROOT
TORSDOF 0
ENDMDL
