MODEL 1
REMARK minimizedAffinity -3.29932356
REMARK minimizedRMSD -1
REMARK  0 active torsions:
REMARK  status: ('A' for Active; 'I' for Inactive)
ROOT
ATOM      1  C   UNL d   1       1.152  -2.676  -0.646  0.00  0.00     0.077 C 
ATOM      2  C1  UNL d   1       2.201  -1.800  -1.263  0.00  0.00    -0.074 A 
ATOM      3  C2  UNL d   1       2.719  -2.083  -2.531  0.00  0.00    -0.005 A 
ATOM      4  C3  UNL d   1       3.688  -1.254  -3.096  0.00  0.00     0.006 A 
ATOM      5  C4  UNL d   1       4.148  -0.135  -2.401  0.00  0.00    -0.005 A 
ATOM      6  C5  UNL d   1       3.641   0.165  -1.132  0.00  0.00    -0.074 A 
ATOM      7  C6  UNL d   1       4.117   1.369  -0.375  0.00  0.00     0.077 C 
ATOM      8  C7  UNL d   1       2.662  -0.669  -0.574  0.00  0.00    -0.001 A 
ENDROOT
TORSDOF 0
ENDMDL
