MODEL 1
REMARK minimizedAffinity 10.8261442
REMARK minimizedRMSD -1
REMARK  0 active torsions:
REMARK  status: ('A' for Active; 'I' for Inactive)
ROOT
ATOM      1  C   UNL d   1       2.214  -2.172   0.164  0.00  0.00     0.077 C 
ATOM      2  C1  UNL d   1       1.010  -1.739  -0.619  0.00  0.00    -0.074 A 
ATOM      3  C2  UNL d   1       0.393  -0.510  -0.365  0.00  0.00    -0.005 A 
ATOM      4  C3  UNL d   1      -0.720  -0.116  -1.108  0.00  0.00     0.006 A 
ATOM      5  C4  UNL d   1      -1.227  -0.946  -2.109  0.00  0.00    -0.005 A 
ATOM      6  C5  UNL d   1      -0.622  -2.178  -2.377  0.00  0.00    -0.074 A 
ATOM      7  C6  UNL d   1      -1.147  -3.077  -3.457  0.00  0.00     0.077 C 
ATOM      8  C7  UNL d   1       0.501  -2.563  -1.632  0.00  0.00    -0.001 A 
ENDROOT
TORSDOF 0
ENDMDL
