MODEL 1
REMARK minimizedAffinity 13.7193899
REMARK minimizedRMSD -1
REMARK  0 active torsions:
REMARK  status: ('A' for Active; 'I' for Inactive)
ROOT
ATOM      1  C   UNL d   1       5.999   4.509  -3.741  0.00  0.00    -0.002 A 
ATOM      2  C1  UNL d   1       5.983   5.618  -2.906  0.00  0.00     0.010 A 
ATOM      3  C2  UNL d   1       4.807   6.000  -2.256  0.00  0.00     0.041 A 
ATOM      4  C3  UNL d   1       3.638   5.240  -2.460  0.00  0.00    -0.075 A 
ATOM      5  S   UNL d   1       2.084   5.519  -1.768  0.00  0.00     0.015 SA
ATOM      6  C4  UNL d   1       1.406   4.173  -2.563  0.00  0.00     0.022 A 
ATOM      7  C5  UNL d   1       2.329   3.515  -3.342  0.00  0.00     0.026 A 
ATOM      8  C6  UNL d   1       3.631   4.119  -3.295  0.00  0.00    -0.082 A 
ATOM      9  C7  UNL d   1       4.838   3.758  -3.940  0.00  0.00     0.045 A 
ENDROOT
TORSDOF 0
ENDMDL
