MODEL 1
REMARK minimizedAffinity 10.6439152
REMARK minimizedRMSD -1
REMARK  0 active torsions:
REMARK  status: ('A' for Active; 'I' for Inactive)
ROOT
ATOM      1  C   UNL d   1       5.525   3.761  -5.972  0.00  0.00    -0.002 A 
ATOM      2  C1  UNL d   1       4.758   2.776  -5.368  0.00  0.00     0.010 A 
ATOM      3  C2  UNL d   1       4.423   2.865  -4.015  0.00  0.00     0.041 A 
ATOM      4  C3  UNL d   1       4.876   3.974  -3.274  0.00  0.00    -0.075 A 
ATOM      5  S   UNL d   1       4.588   4.296  -1.604  0.00  0.00     0.015 SA
ATOM      6  C4  UNL d   1       5.476   5.750  -1.654  0.00  0.00     0.022 A 
ATOM      7  C5  UNL d   1       5.987   5.999  -2.906  0.00  0.00     0.026 A 
ATOM      8  C6  UNL d   1       5.649   4.980  -3.860  0.00  0.00    -0.082 A 
ATOM      9  C7  UNL d   1       5.972   4.860  -5.233  0.00  0.00     0.045 A 
ENDROOT
TORSDOF 0
ENDMDL
