MODEL 1
REMARK minimizedAffinity 7.50167131
REMARK minimizedRMSD -1
REMARK  0 active torsions:
REMARK  status: ('A' for Active; 'I' for Inactive)
ROOT
ATOM      1  C   UNL d   1       6.000   5.993  -3.584  0.00  0.00    -0.002 A 
ATOM      2  C1  UNL d   1       5.498   5.381  -4.724  0.00  0.00     0.010 A 
ATOM      3  C2  UNL d   1       4.328   4.622  -4.666  0.00  0.00     0.041 A 
ATOM      4  C3  UNL d   1       3.663   4.487  -3.431  0.00  0.00    -0.075 A 
ATOM      5  S   UNL d   1       2.214   3.606  -3.122  0.00  0.00     0.015 SA
ATOM      6  C4  UNL d   1       2.226   4.022  -1.469  0.00  0.00     0.022 A 
ATOM      7  C5  UNL d   1       3.302   4.813  -1.144  0.00  0.00     0.026 A 
ATOM      8  C6  UNL d   1       4.148   5.095  -2.270  0.00  0.00    -0.082 A 
ATOM      9  C7  UNL d   1       5.337   5.858  -2.361  0.00  0.00     0.045 A 
ENDROOT
TORSDOF 0
ENDMDL
