MODEL 1
REMARK minimizedAffinity 10.8216362
REMARK minimizedRMSD -1
REMARK  0 active torsions:
REMARK  status: ('A' for Active; 'I' for Inactive)
ROOT
ATOM      1  C   UNL d   1       4.098   3.611  -4.844  0.00  0.00    -0.002 A 
ATOM      2  C1  UNL d   1       5.415   4.039  -4.938  0.00  0.00     0.010 A 
ATOM      3  C2  UNL d   1       5.995   4.782  -3.908  0.00  0.00     0.041 A 
ATOM      4  C3  UNL d   1       5.222   5.090  -2.771  0.00  0.00    -0.075 A 
ATOM      5  S   UNL d   1       5.721   5.987  -1.386  0.00  0.00     0.015 SA
ATOM      6  C4  UNL d   1       4.199   5.822  -0.638  0.00  0.00     0.022 A 
ATOM      7  C5  UNL d   1       3.319   5.104  -1.411  0.00  0.00     0.026 A 
ATOM      8  C6  UNL d   1       3.894   4.669  -2.653  0.00  0.00    -0.082 A 
ATOM      9  C7  UNL d   1       3.335   3.917  -3.715  0.00  0.00     0.045 A 
ENDROOT
TORSDOF 0
ENDMDL
