MODEL 1
REMARK minimizedAffinity 8.36195183
REMARK minimizedRMSD -1
REMARK  0 active torsions:
REMARK  status: ('A' for Active; 'I' for Inactive)
ROOT
ATOM      1  C   UNL d   1       0.037  -3.009  -1.451  0.00  0.00    -0.002 A 
ATOM      2  C1  UNL d   1      -0.540  -1.849  -1.948  0.00  0.00     0.010 A 
ATOM      3  C2  UNL d   1      -0.796  -1.712  -3.314  0.00  0.00     0.041 A 
ATOM      4  C3  UNL d   1      -0.462  -2.772  -4.180  0.00  0.00    -0.075 A 
ATOM      5  S   UNL d   1      -0.685  -2.828  -5.888  0.00  0.00     0.015 SA
ATOM      6  C4  UNL d   1      -0.020  -4.393  -5.999  0.00  0.00     0.022 A 
ATOM      7  C5  UNL d   1       0.368  -4.876  -4.771  0.00  0.00     0.026 A 
ATOM      8  C6  UNL d   1       0.120  -3.950  -3.703  0.00  0.00    -0.082 A 
ATOM      9  C7  UNL d   1       0.368  -4.058  -2.313  0.00  0.00     0.045 A 
ENDROOT
TORSDOF 0
ENDMDL
