MODEL 1
REMARK minimizedAffinity 8.04908943
REMARK minimizedRMSD -1
REMARK  0 active torsions:
REMARK  status: ('A' for Active; 'I' for Inactive)
ROOT
ATOM      1  C   UNL d   1       4.112   3.744  -5.289  0.00  0.00    -0.002 A 
ATOM      2  C1  UNL d   1       5.309   3.127  -4.953  0.00  0.00     0.010 A 
ATOM      3  C2  UNL d   1       5.959   3.440  -3.758  0.00  0.00     0.041 A 
ATOM      4  C3  UNL d   1       5.378   4.390  -2.895  0.00  0.00    -0.075 A 
ATOM      5  S   UNL d   1       5.994   4.929  -1.377  0.00  0.00     0.015 SA
ATOM      6  C4  UNL d   1       4.682   5.991  -1.138  0.00  0.00     0.022 A 
ATOM      7  C5  UNL d   1       3.787   5.948  -2.180  0.00  0.00     0.026 A 
ATOM      8  C6  UNL d   1       4.173   5.024  -3.210  0.00  0.00    -0.082 A 
ATOM      9  C7  UNL d   1       3.540   4.687  -4.430  0.00  0.00     0.045 A 
ENDROOT
TORSDOF 0
ENDMDL
