MODEL 1
REMARK minimizedAffinity 9.11089039
REMARK minimizedRMSD -1
REMARK  0 active torsions:
REMARK  status: ('A' for Active; 'I' for Inactive)
ROOT
ATOM      1  C   UNL d   1       0.308  -2.294  -2.363  0.00  0.00    -0.002 A 
ATOM      2  C1  UNL d   1       0.427  -1.670  -3.597  0.00  0.00     0.010 A 
ATOM      3  C2  UNL d   1       0.099  -2.349  -4.771  0.00  0.00     0.041 A 
ATOM      4  C3  UNL d   1      -0.358  -3.679  -4.684  0.00  0.00    -0.075 A 
ATOM      5  S   UNL d   1      -0.819  -4.707  -5.989  0.00  0.00     0.015 SA
ATOM      6  C4  UNL d   1      -1.186  -5.999  -4.940  0.00  0.00     0.022 A 
ATOM      7  C5  UNL d   1      -0.968  -5.672  -3.622  0.00  0.00     0.026 A 
ATOM      8  C6  UNL d   1      -0.487  -4.329  -3.453  0.00  0.00    -0.082 A 
ATOM      9  C7  UNL d   1      -0.145  -3.613  -2.281  0.00  0.00     0.045 A 
ENDROOT
TORSDOF 0
ENDMDL
