MODEL 1
REMARK minimizedAffinity 8.73269367
REMARK minimizedRMSD -1
REMARK  0 active torsions:
REMARK  status: ('A' for Active; 'I' for Inactive)
ROOT
ATOM      1  C   UNL d   1       0.205  -1.538  -1.845  0.00  0.00    -0.002 A 
ATOM      2  C1  UNL d   1      -0.852  -2.193  -1.230  0.00  0.00     0.010 A 
ATOM      3  C2  UNL d   1      -1.251  -3.460  -1.662  0.00  0.00     0.041 A 
ATOM      4  C3  UNL d   1      -0.561  -4.063  -2.732  0.00  0.00    -0.075 A 
ATOM      5  S   UNL d   1      -0.872  -5.609  -3.430  0.00  0.00     0.015 SA
ATOM      6  C4  UNL d   1       0.391  -5.436  -4.560  0.00  0.00     0.022 A 
ATOM      7  C5  UNL d   1       1.045  -4.234  -4.423  0.00  0.00     0.026 A 
ATOM      8  C6  UNL d   1       0.508  -3.424  -3.367  0.00  0.00    -0.082 A 
ATOM      9  C7  UNL d   1       0.887  -2.140  -2.906  0.00  0.00     0.045 A 
ENDROOT
TORSDOF 0
ENDMDL
