MODEL 1
REMARK minimizedAffinity 4.96005297
REMARK minimizedRMSD -1
REMARK  0 active torsions:
REMARK  status: ('A' for Active; 'I' for Inactive)
ROOT
ATOM      1  C   UNL d   1      -1.926  -2.941  -0.410  0.00  0.00    -0.002 A 
ATOM      2  C1  UNL d   1      -1.037  -2.112  -1.079  0.00  0.00     0.010 A 
ATOM      3  C2  UNL d   1      -0.644  -0.895  -0.521  0.00  0.00     0.041 A 
ATOM      4  C3  UNL d   1      -1.162  -0.522   0.735  0.00  0.00    -0.075 A 
ATOM      5  S   UNL d   1      -0.820   0.922   1.613  0.00  0.00     0.015 SA
ATOM      6  C4  UNL d   1      -1.846   0.472   2.898  0.00  0.00     0.022 A 
ATOM      7  C5  UNL d   1      -2.442  -0.747   2.679  0.00  0.00     0.026 A 
ATOM      8  C6  UNL d   1      -2.058  -1.340   1.429  0.00  0.00    -0.082 A 
ATOM      9  C7  UNL d   1      -2.438  -2.568   0.836  0.00  0.00     0.045 A 
ENDROOT
TORSDOF 0
ENDMDL
