MODEL 1
REMARK minimizedAffinity 5.34336567
REMARK minimizedRMSD -1
REMARK  0 active torsions:
REMARK  status: ('A' for Active; 'I' for Inactive)
ROOT
ATOM      1  C   UNL d   1       1.832   5.946  -2.935  0.00  0.00    -0.002 A 
ATOM      2  C1  UNL d   1       2.333   5.329  -1.798  0.00  0.00     0.010 A 
ATOM      3  C2  UNL d   1       3.604   4.750  -1.806  0.00  0.00     0.041 A 
ATOM      4  C3  UNL d   1       4.370   4.804  -2.987  0.00  0.00    -0.075 A 
ATOM      5  S   UNL d   1       5.952   4.164  -3.230  0.00  0.00     0.015 SA
ATOM      6  C4  UNL d   1       6.000   4.696  -4.849  0.00  0.00     0.022 A 
ATOM      7  C5  UNL d   1       4.845   5.348  -5.211  0.00  0.00     0.026 A 
ATOM      8  C6  UNL d   1       3.887   5.421  -4.144  0.00  0.00    -0.082 A 
ATOM      9  C7  UNL d   1       2.595   5.998  -4.104  0.00  0.00     0.045 A 
ENDROOT
TORSDOF 0
ENDMDL
