MODEL 1
REMARK minimizedAffinity 11.5022917
REMARK minimizedRMSD -1
REMARK  0 active torsions:
REMARK  status: ('A' for Active; 'I' for Inactive)
ROOT
ATOM      1  C   UNL d   1      -0.705  -2.683  -2.645  0.00  0.00    -0.002 A 
ATOM      2  C1  UNL d   1      -0.678  -2.307  -1.310  0.00  0.00     0.010 A 
ATOM      3  C2  UNL d   1       0.509  -1.874  -0.717  0.00  0.00     0.041 A 
ATOM      4  C3  UNL d   1       1.681  -1.821  -1.497  0.00  0.00    -0.075 A 
ATOM      5  S   UNL d   1       3.249  -1.322  -0.984  0.00  0.00     0.015 SA
ATOM      6  C4  UNL d   1       3.922  -1.594  -2.527  0.00  0.00     0.022 A 
ATOM      7  C5  UNL d   1       2.986  -2.055  -3.423  0.00  0.00     0.026 A 
ATOM      8  C6  UNL d   1       1.679  -2.193  -2.844  0.00  0.00    -0.082 A 
ATOM      9  C7  UNL d   1       0.460  -2.629  -3.416  0.00  0.00     0.045 A 
ENDROOT
TORSDOF 0
ENDMDL
