MODEL 1
REMARK minimizedAffinity 11.1051798
REMARK minimizedRMSD -1
REMARK  0 active torsions:
REMARK  status: ('A' for Active; 'I' for Inactive)
ROOT
ATOM      1  C   UNL d   1      -3.786  -3.073   0.899  0.00  0.00    -0.002 A 
ATOM      2  C1  UNL d   1      -2.830  -3.164   1.901  0.00  0.00     0.010 A 
ATOM      3  C2  UNL d   1      -1.481  -2.942   1.618  0.00  0.00     0.041 A 
ATOM      4  C3  UNL d   1      -1.106  -2.621   0.299  0.00  0.00    -0.075 A 
ATOM      5  S   UNL d   1       0.487  -2.307  -0.282  0.00  0.00     0.015 SA
ATOM      6  C4  UNL d   1      -0.064  -2.043  -1.873  0.00  0.00     0.022 A 
ATOM      7  C5  UNL d   1      -1.427  -2.187  -1.977  0.00  0.00     0.026 A 
ATOM      8  C6  UNL d   1      -2.050  -2.522  -0.727  0.00  0.00    -0.082 A 
ATOM      9  C7  UNL d   1      -3.410  -2.754  -0.408  0.00  0.00     0.045 A 
ENDROOT
TORSDOF 0
ENDMDL
