MODEL 1
REMARK minimizedAffinity 1.22641265
REMARK minimizedRMSD -1
REMARK  2 active torsions:
REMARK  status: ('A' for Active; 'I' for Inactive)
REMARK    1  A    between atoms: C1_2  and  C2_3 
REMARK    2  A    between atoms: C2_3  and  C3_4 
ROOT
ATOM      1  C3  UNL d   1      -0.335   3.220   1.989  0.00  0.00    -0.075 A 
ATOM      2  C4  UNL d   1       0.988   3.343   1.538  0.00  0.00     0.002 A 
ATOM      3  C5  UNL d   1       2.039   3.452   2.448  0.00  0.00     0.002 A 
ATOM      4  C6  UNL d   1       1.783   3.450   3.817  0.00  0.00    -0.004 A 
ATOM      5  C7  UNL d   1       0.472   3.345   4.276  0.00  0.00     0.002 A 
ATOM      6  C8  UNL d   1      -0.582   3.232   3.368  0.00  0.00     0.002 A 
ENDROOT
BRANCH   1   7
ATOM      7  C2  UNL d   1      -1.475   3.072   1.010  0.00  0.00     0.056 C 
BRANCH   7   8
ATOM      8  C1  UNL d   1      -1.415   1.790   0.172  0.00  0.00     0.007 C 
ATOM      9  C   UNL d   1      -2.078   0.599   0.850  0.00  0.00     0.009 C 
ENDBRANCH   7   8
ENDBRANCH   1   7
TORSDOF 2
ENDMDL
