MODEL 1
REMARK minimizedAffinity 7.58034134
REMARK minimizedRMSD -1
REMARK  2 active torsions:
REMARK  status: ('A' for Active; 'I' for Inactive)
REMARK    1  A    between atoms: C1_2  and  C2_3 
REMARK    2  A    between atoms: C2_3  and  C3_4 
ROOT
ATOM      1  C3  UNL d   1       0.390   1.767   1.060  0.00  0.00    -0.075 A 
ATOM      2  C4  UNL d   1       1.664   1.383   0.617  0.00  0.00     0.002 A 
ATOM      3  C5  UNL d   1       1.858   0.143   0.007  0.00  0.00     0.002 A 
ATOM      4  C6  UNL d   1       0.786  -0.730  -0.160  0.00  0.00    -0.004 A 
ATOM      5  C7  UNL d   1      -0.481  -0.366   0.291  0.00  0.00     0.002 A 
ATOM      6  C8  UNL d   1      -0.679   0.876   0.899  0.00  0.00     0.002 A 
ENDROOT
BRANCH   1   7
ATOM      7  C2  UNL d   1       0.168   3.119   1.695  0.00  0.00     0.056 C 
BRANCH   7   8
ATOM      8  C1  UNL d   1      -0.003   3.072   3.217  0.00  0.00     0.007 C 
ATOM      9  C   UNL d   1      -1.436   3.323   3.668  0.00  0.00     0.009 C 
ENDBRANCH   7   8
ENDBRANCH   1   7
TORSDOF 2
ENDMDL
