MODEL 1
REMARK minimizedAffinity 8.29784775
REMARK minimizedRMSD -1
REMARK  2 active torsions:
REMARK  status: ('A' for Active; 'I' for Inactive)
REMARK    1  A    between atoms: C1_2  and  C2_3 
REMARK    2  A    between atoms: C2_3  and  C3_4 
ROOT
ATOM      1  C3  UNL d   1      -1.377   1.794   0.641  0.00  0.00    -0.075 A 
ATOM      2  C4  UNL d   1      -2.772   1.930   0.701  0.00  0.00     0.002 A 
ATOM      3  C5  UNL d   1      -3.590   0.802   0.785  0.00  0.00     0.002 A 
ATOM      4  C6  UNL d   1      -3.027  -0.471   0.801  0.00  0.00    -0.004 A 
ATOM      5  C7  UNL d   1      -1.643  -0.618   0.725  0.00  0.00     0.002 A 
ATOM      6  C8  UNL d   1      -0.822   0.508   0.645  0.00  0.00     0.002 A 
ENDROOT
BRANCH   1   7
ATOM      7  C2  UNL d   1      -0.485   3.011   0.579  0.00  0.00     0.056 C 
BRANCH   7   8
ATOM      8  C1  UNL d   1       0.224   3.332   1.899  0.00  0.00     0.007 C 
ATOM      9  C   UNL d   1       1.742   3.325   1.782  0.00  0.00     0.009 C 
ENDBRANCH   7   8
ENDBRANCH   1   7
TORSDOF 2
ENDMDL
