MODEL 1
REMARK minimizedAffinity 1.88286197
REMARK minimizedRMSD -1
REMARK  2 active torsions:
REMARK  status: ('A' for Active; 'I' for Inactive)
REMARK    1  A    between atoms: C1_2  and  C2_3 
REMARK    2  A    between atoms: C2_3  and  C3_4 
ROOT
ATOM      1  C3  UNL d   1      -1.194   1.699   0.656  0.00  0.00    -0.075 A 
ATOM      2  C4  UNL d   1      -2.573   1.457   0.583  0.00  0.00     0.002 A 
ATOM      3  C5  UNL d   1      -3.065   0.151   0.604  0.00  0.00     0.002 A 
ATOM      4  C6  UNL d   1      -2.186  -0.926   0.687  0.00  0.00    -0.004 A 
ATOM      5  C7  UNL d   1      -0.813  -0.698   0.744  0.00  0.00     0.002 A 
ATOM      6  C8  UNL d   1      -0.318   0.607   0.728  0.00  0.00     0.002 A 
ENDROOT
BRANCH   1   7
ATOM      7  C2  UNL d   1      -0.657   3.110   0.663  0.00  0.00     0.056 C 
BRANCH   7   8
ATOM      8  C1  UNL d   1      -0.126   3.569   2.026  0.00  0.00     0.007 C 
ATOM      9  C   UNL d   1      -1.157   3.453   3.141  0.00  0.00     0.009 C 
ENDBRANCH   7   8
ENDBRANCH   1   7
TORSDOF 2
ENDMDL
