MODEL 1
REMARK minimizedAffinity -0.970507979
REMARK minimizedRMSD -1
REMARK  2 active torsions:
REMARK  status: ('A' for Active; 'I' for Inactive)
REMARK    1  A    between atoms: C1_2  and  C2_3 
REMARK    2  A    between atoms: C2_3  and  C3_4 
ROOT
ATOM      1  C3  UNL d   1       0.975   1.609   1.211  0.00  0.00    -0.075 A 
ATOM      2  C4  UNL d   1       0.063   2.671   1.295  0.00  0.00     0.002 A 
ATOM      3  C5  UNL d   1      -1.288   2.469   1.008  0.00  0.00     0.002 A 
ATOM      4  C6  UNL d   1      -1.740   1.209   0.624  0.00  0.00    -0.004 A 
ATOM      5  C7  UNL d   1      -0.840   0.151   0.521  0.00  0.00     0.002 A 
ATOM      6  C8  UNL d   1       0.511   0.349   0.812  0.00  0.00     0.002 A 
ENDROOT
BRANCH   1   7
ATOM      7  C2  UNL d   1       2.433   1.815   1.548  0.00  0.00     0.056 C 
BRANCH   7   8
ATOM      8  C1  UNL d   1       2.710   3.075   2.375  0.00  0.00     0.007 C 
ATOM      9  C   UNL d   1       3.642   2.827   3.553  0.00  0.00     0.009 C 
ENDBRANCH   7   8
ENDBRANCH   1   7
TORSDOF 2
ENDMDL
