MODEL 1
REMARK minimizedAffinity 3.22453117
REMARK minimizedRMSD -1
REMARK  2 active torsions:
REMARK  status: ('A' for Active; 'I' for Inactive)
REMARK    1  A    between atoms: C1_2  and  C2_3 
REMARK    2  A    between atoms: C2_3  and  C3_4 
ROOT
ATOM      1  C3  UNL d   1       0.618  -0.151   0.315  0.00  0.00    -0.075 A 
ATOM      2  C4  UNL d   1      -0.103  -1.282   0.723  0.00  0.00     0.002 A 
ATOM      3  C5  UNL d   1      -1.432  -1.166   1.132  0.00  0.00     0.002 A 
ATOM      4  C6  UNL d   1      -2.052   0.082   1.148  0.00  0.00    -0.004 A 
ATOM      5  C7  UNL d   1      -1.340   1.215   0.761  0.00  0.00     0.002 A 
ATOM      6  C8  UNL d   1      -0.011   1.100   0.347  0.00  0.00     0.002 A 
ENDROOT
BRANCH   1   7
ATOM      7  C2  UNL d   1       2.047  -0.275  -0.156  0.00  0.00     0.056 C 
BRANCH   7   8
ATOM      8  C1  UNL d   1       2.275  -1.403  -1.168  0.00  0.00     0.007 C 
ATOM      9  C   UNL d   1       2.927  -0.929  -2.459  0.00  0.00     0.009 C 
ENDBRANCH   7   8
ENDBRANCH   1   7
TORSDOF 2
ENDMDL
