MODEL 1
REMARK minimizedAffinity 3.82003951
REMARK minimizedRMSD -1
REMARK  2 active torsions:
REMARK  status: ('A' for Active; 'I' for Inactive)
REMARK    1  A    between atoms: C1_2  and  C2_3 
REMARK    2  A    between atoms: C2_3  and  C3_4 
ROOT
ATOM      1  C3  UNL d   1       0.055   1.827   0.997  0.00  0.00    -0.075 A 
ATOM      2  C4  UNL d   1       1.351   1.371   0.712  0.00  0.00     0.002 A 
ATOM      3  C5  UNL d   1       2.455   1.926   1.359  0.00  0.00     0.002 A 
ATOM      4  C6  UNL d   1       2.281   2.949   2.288  0.00  0.00    -0.004 A 
ATOM      5  C7  UNL d   1       1.000   3.422   2.566  0.00  0.00     0.002 A 
ATOM      6  C8  UNL d   1      -0.107   2.865   1.924  0.00  0.00     0.002 A 
ENDROOT
BRANCH   1   7
ATOM      7  C2  UNL d   1      -1.146   1.211   0.322  0.00  0.00     0.056 C 
BRANCH   7   8
ATOM      8  C1  UNL d   1      -1.735   0.011   1.072  0.00  0.00     0.007 C 
ATOM      9  C   UNL d   1      -1.071  -1.310   0.706  0.00  0.00     0.009 C 
ENDBRANCH   7   8
ENDBRANCH   1   7
TORSDOF 2
ENDMDL
