MODEL 1
REMARK minimizedAffinity -2.32908916
REMARK minimizedRMSD -1
REMARK  2 active torsions:
REMARK  status: ('A' for Active; 'I' for Inactive)
REMARK    1  A    between atoms: C1_2  and  C2_3 
REMARK    2  A    between atoms: C2_3  and  C3_4 
ROOT
ATOM      1  C3  UNL d   1       0.546   2.290   1.391  0.00  0.00    -0.075 A 
ATOM      2  C4  UNL d   1       0.896   0.960   1.117  0.00  0.00     0.002 A 
ATOM      3  C5  UNL d   1      -0.078   0.033   0.745  0.00  0.00     0.002 A 
ATOM      4  C6  UNL d   1      -1.413   0.421   0.651  0.00  0.00    -0.004 A 
ATOM      5  C7  UNL d   1      -1.775   1.736   0.937  0.00  0.00     0.002 A 
ATOM      6  C8  UNL d   1      -0.801   2.666   1.306  0.00  0.00     0.002 A 
ENDROOT
BRANCH   1   7
ATOM      7  C2  UNL d   1       1.599   3.305   1.766  0.00  0.00     0.056 C 
BRANCH   7   8
ATOM      8  C1  UNL d   1       2.546   2.840   2.878  0.00  0.00     0.007 C 
ATOM      9  C   UNL d   1       4.007   3.166   2.598  0.00  0.00     0.009 C 
ENDBRANCH   7   8
ENDBRANCH   1   7
TORSDOF 2
ENDMDL
