MODEL 1
REMARK minimizedAffinity 6.50578308
REMARK minimizedRMSD -1
REMARK  2 active torsions:
REMARK  status: ('A' for Active; 'I' for Inactive)
REMARK    1  A    between atoms: C1_2  and  C2_3 
REMARK    2  A    between atoms: C2_3  and  C3_4 
ROOT
ATOM      1  C3  UNL d   1       0.383   0.555   0.636  0.00  0.00    -0.075 A 
ATOM      2  C4  UNL d   1      -0.934   0.144   0.386  0.00  0.00     0.002 A 
ATOM      3  C5  UNL d   1      -2.011   0.937   0.784  0.00  0.00     0.002 A 
ATOM      4  C6  UNL d   1      -1.786   2.143   1.444  0.00  0.00    -0.004 A 
ATOM      5  C7  UNL d   1      -0.482   2.553   1.712  0.00  0.00     0.002 A 
ATOM      6  C8  UNL d   1       0.598   1.764   1.311  0.00  0.00     0.002 A 
ENDROOT
BRANCH   1   7
ATOM      7  C2  UNL d   1       1.553  -0.284   0.181  0.00  0.00     0.056 C 
BRANCH   7   8
ATOM      8  C1  UNL d   1       2.001  -0.003  -1.257  0.00  0.00     0.007 C 
ATOM      9  C   UNL d   1       2.277  -1.268  -2.058  0.00  0.00     0.009 C 
ENDBRANCH   7   8
ENDBRANCH   1   7
TORSDOF 2
ENDMDL
