MODEL 1
REMARK minimizedAffinity 2.6043961
REMARK minimizedRMSD -1
REMARK  2 active torsions:
REMARK  status: ('A' for Active; 'I' for Inactive)
REMARK    1  A    between atoms: C1_2  and  C2_3 
REMARK    2  A    between atoms: C2_3  and  C3_4 
ROOT
ATOM      1  C3  UNL d   1      -2.546  -3.312  -0.449  0.00  0.00    -0.075 A 
ATOM      2  C4  UNL d   1      -3.882  -3.491  -0.061  0.00  0.00     0.002 A 
ATOM      3  C5  UNL d   1      -4.400  -4.772   0.129  0.00  0.00     0.002 A 
ATOM      4  C6  UNL d   1      -3.594  -5.890  -0.077  0.00  0.00    -0.004 A 
ATOM      5  C7  UNL d   1      -2.270  -5.725  -0.479  0.00  0.00     0.002 A 
ATOM      6  C8  UNL d   1      -1.748  -4.444  -0.666  0.00  0.00     0.002 A 
ENDROOT
BRANCH   1   7
ATOM      7  C2  UNL d   1      -1.972  -1.927  -0.628  0.00  0.00     0.056 C 
BRANCH   7   8
ATOM      8  C1  UNL d   1      -1.356  -1.339   0.646  0.00  0.00     0.007 C 
ATOM      9  C   UNL d   1      -1.577   0.162   0.781  0.00  0.00     0.009 C 
ENDBRANCH   7   8
ENDBRANCH   1   7
TORSDOF 2
ENDMDL
