MODEL 1
REMARK minimizedAffinity 5.3418808
REMARK minimizedRMSD -1
REMARK  2 active torsions:
REMARK  status: ('A' for Active; 'I' for Inactive)
REMARK    1  A    between atoms: C1_2  and  C2_3 
REMARK    2  A    between atoms: C2_3  and  C3_4 
ROOT
ATOM      1  C3  UNL d   1       0.466   0.581   0.531  0.00  0.00    -0.075 A 
ATOM      2  C4  UNL d   1      -0.424  -0.503   0.561  0.00  0.00     0.002 A 
ATOM      3  C5  UNL d   1      -1.795  -0.289   0.710  0.00  0.00     0.002 A 
ATOM      4  C6  UNL d   1      -2.291   1.006   0.840  0.00  0.00    -0.004 A 
ATOM      5  C7  UNL d   1      -1.415   2.089   0.828  0.00  0.00     0.002 A 
ATOM      6  C8  UNL d   1      -0.043   1.878   0.675  0.00  0.00     0.002 A 
ENDROOT
BRANCH   1   7
ATOM      7  C2  UNL d   1       1.947   0.358   0.341  0.00  0.00     0.056 C 
BRANCH   7   8
ATOM      8  C1  UNL d   1       2.451   0.684  -1.069  0.00  0.00     0.007 C 
ATOM      9  C   UNL d   1       2.300  -0.477  -2.044  0.00  0.00     0.009 C 
ENDBRANCH   7   8
ENDBRANCH   1   7
TORSDOF 2
ENDMDL
