MODEL 1
REMARK minimizedAffinity 1.60096562
REMARK minimizedRMSD -1
REMARK  2 active torsions:
REMARK  status: ('A' for Active; 'I' for Inactive)
REMARK    1  A    between atoms: C1_2  and  C2_3 
REMARK    2  A    between atoms: C2_3  and  C3_4 
ROOT
ATOM      1  C3  UNL d   1       3.256   1.949   0.761  0.00  0.00    -0.075 A 
ATOM      2  C4  UNL d   1       4.644   2.152   0.783  0.00  0.00     0.002 A 
ATOM      3  C5  UNL d   1       5.223   2.988   1.738  0.00  0.00     0.002 A 
ATOM      4  C6  UNL d   1       4.423   3.639   2.675  0.00  0.00    -0.004 A 
ATOM      5  C7  UNL d   1       3.042   3.457   2.652  0.00  0.00     0.002 A 
ATOM      6  C8  UNL d   1       2.460   2.618   1.700  0.00  0.00     0.002 A 
ENDROOT
BRANCH   1   7
ATOM      7  C2  UNL d   1       2.627   1.023  -0.252  0.00  0.00     0.056 C 
BRANCH   7   8
ATOM      8  C1  UNL d   1       3.371   0.963  -1.590  0.00  0.00     0.007 C 
ATOM      9  C   UNL d   1       3.010  -0.259  -2.424  0.00  0.00     0.009 C 
ENDBRANCH   7   8
ENDBRANCH   1   7
TORSDOF 2
ENDMDL
