MODEL 1
REMARK minimizedAffinity 4.74680233
REMARK minimizedRMSD -1
REMARK  2 active torsions:
REMARK  status: ('A' for Active; 'I' for Inactive)
REMARK    1  A    between atoms: C1_2  and  C2_3 
REMARK    2  A    between atoms: C2_3  and  C3_4 
ROOT
ATOM      1  C3  UNL d   1       0.470   0.439  -0.002  0.00  0.00    -0.075 A 
ATOM      2  C4  UNL d   1      -0.372  -0.669   0.175  0.00  0.00     0.002 A 
ATOM      3  C5  UNL d   1      -1.706  -0.494   0.543  0.00  0.00     0.002 A 
ATOM      4  C6  UNL d   1      -2.213   0.787   0.747  0.00  0.00    -0.004 A 
ATOM      5  C7  UNL d   1      -1.382   1.895   0.591  0.00  0.00     0.002 A 
ATOM      6  C8  UNL d   1      -0.047   1.722   0.219  0.00  0.00     0.002 A 
ENDROOT
BRANCH   1   7
ATOM      7  C2  UNL d   1       1.907   0.257  -0.428  0.00  0.00     0.056 C 
BRANCH   7   8
ATOM      8  C1  UNL d   1       2.209   0.776  -1.838  0.00  0.00     0.007 C 
ATOM      9  C   UNL d   1       2.711  -0.309  -2.782  0.00  0.00     0.009 C 
ENDBRANCH   7   8
ENDBRANCH   1   7
TORSDOF 2
ENDMDL
