MODEL 1
REMARK minimizedAffinity -0.142346755
REMARK minimizedRMSD -1
REMARK  2 active torsions:
REMARK  status: ('A' for Active; 'I' for Inactive)
REMARK    1  A    between atoms: C1_2  and  C2_3 
REMARK    2  A    between atoms: C2_3  and  C3_4 
ROOT
ATOM      1  C3  UNL d   1       0.405   1.457   1.009  0.00  0.00    -0.075 A 
ATOM      2  C4  UNL d   1      -0.545   2.489   1.042  0.00  0.00     0.002 A 
ATOM      3  C5  UNL d   1      -1.909   2.197   0.999  0.00  0.00     0.002 A 
ATOM      4  C6  UNL d   1      -2.339   0.875   0.914  0.00  0.00    -0.004 A 
ATOM      5  C7  UNL d   1      -1.404  -0.156   0.864  0.00  0.00     0.002 A 
ATOM      6  C8  UNL d   1      -0.039   0.132   0.911  0.00  0.00     0.002 A 
ENDROOT
BRANCH   1   7
ATOM      7  C2  UNL d   1       1.881   1.764   1.085  0.00  0.00     0.056 C 
BRANCH   7   8
ATOM      8  C1  UNL d   1       2.224   2.967   1.971  0.00  0.00     0.007 C 
ATOM      9  C   UNL d   1       3.504   2.775   2.773  0.00  0.00     0.009 C 
ENDBRANCH   7   8
ENDBRANCH   1   7
TORSDOF 2
ENDMDL
