MODEL 1
REMARK minimizedAffinity 1.81208527
REMARK minimizedRMSD -1
REMARK  1 active torsions:
REMARK  status: ('A' for Active; 'I' for Inactive)
REMARK    1  A    between atoms: C1_2  and  C2_3 
ROOT
ATOM      1  C2  UNL d   1       5.976   0.537   3.669  0.00  0.00    -0.077 A 
ATOM      2  C3  UNL d   1       5.984  -0.813   3.293  0.00  0.00     0.002 A 
ATOM      3  C4  UNL d   1       5.992  -1.817   4.263  0.00  0.00     0.002 A 
ATOM      4  C5  UNL d   1       5.988  -1.481   5.615  0.00  0.00    -0.004 A 
ATOM      5  C6  UNL d   1       5.982  -0.141   6.000  0.00  0.00     0.002 A 
ATOM      6  C7  UNL d   1       5.975   0.864   5.031  0.00  0.00     0.002 A 
ENDROOT
BRANCH   1   7
ATOM      7  C1  UNL d   1       5.918   1.621   2.624  0.00  0.00     0.055 C 
ATOM      8  C   UNL d   1       5.981   3.004   3.257  0.00  0.00     0.019 C 
ENDBRANCH   1   7
TORSDOF 1
ENDMDL
