MODEL 1
REMARK minimizedAffinity -3.66739535
REMARK minimizedRMSD -1
REMARK  1 active torsions:
REMARK  status: ('A' for Active; 'I' for Inactive)
REMARK    1  A    between atoms: C1_2  and  C2_3 
ROOT
ATOM      1  C2  UNL d   1       5.132   2.273   4.543  0.00  0.00    -0.077 A 
ATOM      2  C3  UNL d   1       5.174   1.704   5.824  0.00  0.00     0.002 A 
ATOM      3  C4  UNL d   1       5.604   0.388   5.999  0.00  0.00     0.002 A 
ATOM      4  C5  UNL d   1       6.000  -0.370   4.898  0.00  0.00    -0.004 A 
ATOM      5  C6  UNL d   1       5.960   0.186   3.620  0.00  0.00     0.002 A 
ATOM      6  C7  UNL d   1       5.529   1.502   3.443  0.00  0.00     0.002 A 
ENDROOT
BRANCH   1   7
ATOM      7  C1  UNL d   1       4.715   3.709   4.358  0.00  0.00     0.055 C 
ATOM      8  C   UNL d   1       5.903   4.587   3.994  0.00  0.00     0.019 C 
ENDBRANCH   1   7
TORSDOF 1
ENDMDL
