MODEL 1
REMARK minimizedAffinity 2.04134059
REMARK minimizedRMSD -1
REMARK  1 active torsions:
REMARK  status: ('A' for Active; 'I' for Inactive)
REMARK    1  A    between atoms: C1_2  and  C2_3 
ROOT
ATOM      1  C2  UNL d   1       5.992   3.463   4.206  0.00  0.00    -0.077 A 
ATOM      2  C3  UNL d   1       5.966   4.628   4.986  0.00  0.00     0.002 A 
ATOM      3  C4  UNL d   1       5.944   5.884   4.377  0.00  0.00     0.002 A 
ATOM      4  C5  UNL d   1       5.943   5.987   2.987  0.00  0.00    -0.004 A 
ATOM      5  C6  UNL d   1       5.970   4.834   2.204  0.00  0.00     0.002 A 
ATOM      6  C7  UNL d   1       5.994   3.578   2.810  0.00  0.00     0.002 A 
ENDROOT
BRANCH   1   7
ATOM      7  C1  UNL d   1       5.966   2.106   4.861  0.00  0.00     0.055 C 
ATOM      8  C   UNL d   1       5.999   0.992   3.825  0.00  0.00     0.019 C 
ENDBRANCH   1   7
TORSDOF 1
ENDMDL
