MODEL 1
REMARK minimizedAffinity -2.87602139
REMARK minimizedRMSD -1
REMARK  1 active torsions:
REMARK  status: ('A' for Active; 'I' for Inactive)
REMARK    1  A    between atoms: C1_2  and  C2_3 
ROOT
ATOM      1  C2  UNL d   1       5.868   0.398   5.256  0.00  0.00    -0.077 A 
ATOM      2  C3  UNL d   1       5.881   1.615   5.953  0.00  0.00     0.002 A 
ATOM      3  C4  UNL d   1       5.949   2.825   5.260  0.00  0.00     0.002 A 
ATOM      4  C5  UNL d   1       5.999   2.831   3.868  0.00  0.00    -0.004 A 
ATOM      5  C6  UNL d   1       5.989   1.627   3.166  0.00  0.00     0.002 A 
ATOM      6  C7  UNL d   1       5.922   0.416   3.856  0.00  0.00     0.002 A 
ENDROOT
BRANCH   1   7
ATOM      7  C1  UNL d   1       5.745  -0.906   5.999  0.00  0.00     0.055 C 
ATOM      8  C   UNL d   1       5.978  -2.093   5.075  0.00  0.00     0.019 C 
ENDBRANCH   1   7
TORSDOF 1
ENDMDL
