MODEL 1
REMARK minimizedAffinity -0.974529743
REMARK minimizedRMSD -1
REMARK  1 active torsions:
REMARK  status: ('A' for Active; 'I' for Inactive)
REMARK    1  A    between atoms: C1_2  and  C2_3 
ROOT
ATOM      1  C2  UNL d   1       5.979  -0.956   4.132  0.00  0.00    -0.077 A 
ATOM      2  C3  UNL d   1       5.998  -0.591   5.486  0.00  0.00     0.002 A 
ATOM      3  C4  UNL d   1       5.982   0.756   5.855  0.00  0.00     0.002 A 
ATOM      4  C5  UNL d   1       5.943   1.747   4.877  0.00  0.00    -0.004 A 
ATOM      5  C6  UNL d   1       5.926   1.395   3.528  0.00  0.00     0.002 A 
ATOM      6  C7  UNL d   1       5.943   0.049   3.157  0.00  0.00     0.002 A 
ENDROOT
BRANCH   1   7
ATOM      7  C1  UNL d   1       5.946  -2.408   3.734  0.00  0.00     0.055 C 
ATOM      8  C   UNL d   1       6.000  -3.318   4.952  0.00  0.00     0.019 C 
ENDBRANCH   1   7
TORSDOF 1
ENDMDL
