MODEL 1
REMARK minimizedAffinity -2.78008986
REMARK minimizedRMSD -1
REMARK  1 active torsions:
REMARK  status: ('A' for Active; 'I' for Inactive)
REMARK    1  A    between atoms: C1_2  and  C2_3 
ROOT
ATOM      1  C2  UNL d   1       5.784   1.956   4.398  0.00  0.00    -0.077 A 
ATOM      2  C3  UNL d   1       5.560   1.510   5.708  0.00  0.00     0.002 A 
ATOM      3  C4  UNL d   1       5.552   0.144   5.997  0.00  0.00     0.002 A 
ATOM      4  C5  UNL d   1       5.771  -0.786   4.983  0.00  0.00    -0.004 A 
ATOM      5  C6  UNL d   1       5.992  -0.352   3.676  0.00  0.00     0.002 A 
ATOM      6  C7  UNL d   1       5.999   1.012   3.385  0.00  0.00     0.002 A 
ENDROOT
BRANCH   1   7
ATOM      7  C1  UNL d   1       5.842   3.430   4.093  0.00  0.00     0.055 C 
ATOM      8  C   UNL d   1       5.978   3.681   2.598  0.00  0.00     0.019 C 
ENDBRANCH   1   7
TORSDOF 1
ENDMDL
