MODEL 1
REMARK minimizedAffinity -0.161556676
REMARK minimizedRMSD -1
REMARK  1 active torsions:
REMARK  status: ('A' for Active; 'I' for Inactive)
REMARK    1  A    between atoms: C1_2  and  C2_3 
ROOT
ATOM      1  C2  UNL d   1       1.364  -1.385  -2.550  0.00  0.00    -0.077 A 
ATOM      2  C3  UNL d   1       0.908  -2.019  -1.386  0.00  0.00     0.002 A 
ATOM      3  C4  UNL d   1       0.335  -1.273  -0.354  0.00  0.00     0.002 A 
ATOM      4  C5  UNL d   1       0.209   0.109  -0.478  0.00  0.00    -0.004 A 
ATOM      5  C6  UNL d   1       0.661   0.749  -1.631  0.00  0.00     0.002 A 
ATOM      6  C7  UNL d   1       1.235   0.005  -2.663  0.00  0.00     0.002 A 
ENDROOT
BRANCH   1   7
ATOM      7  C1  UNL d   1       1.938  -2.193  -3.685  0.00  0.00     0.055 C 
ATOM      8  C   UNL d   1       1.245  -3.542  -3.810  0.00  0.00     0.019 C 
ENDBRANCH   1   7
TORSDOF 1
ENDMDL
