MODEL 1
REMARK minimizedAffinity 1.10782111
REMARK minimizedRMSD -1
REMARK  0 active torsions:
REMARK  status: ('A' for Active; 'I' for Inactive)
ROOT
ATOM      1  C   UNL d   1       0.217   0.197  -1.320  0.00  0.00     0.172 C 
ATOM      2  N   UNL d   1       0.499   0.259   0.095  0.00  0.00    -0.070 N 
ATOM      3  C1  UNL d   1       0.475  -0.801   0.961  0.00  0.00    -0.004 A 
ATOM      4  C2  UNL d   1       0.800  -0.329   2.215  0.00  0.00    -0.047 A 
ATOM      5  C3  UNL d   1       1.025   1.063   2.098  0.00  0.00    -0.047 A 
ATOM      6  C4  UNL d   1       0.832   1.401   0.775  0.00  0.00    -0.004 A 
ENDROOT
TORSDOF 0
ENDMDL
