MODEL 1
REMARK minimizedAffinity 1.38521576
REMARK minimizedRMSD -1
REMARK  0 active torsions:
REMARK  status: ('A' for Active; 'I' for Inactive)
ROOT
ATOM      1  C   UNL d   1       3.239  -0.890   2.494  0.00  0.00     0.172 C 
ATOM      2  N   UNL d   1       1.942  -0.748   1.876  0.00  0.00    -0.070 N 
ATOM      3  C1  UNL d   1       0.750  -0.625   2.540  0.00  0.00    -0.004 A 
ATOM      4  C2  UNL d   1      -0.249  -0.513   1.597  0.00  0.00    -0.047 A 
ATOM      5  C3  UNL d   1       0.363  -0.571   0.322  0.00  0.00    -0.047 A 
ATOM      6  C4  UNL d   1       1.720  -0.717   0.524  0.00  0.00    -0.004 A 
ENDROOT
TORSDOF 0
ENDMDL
