MODEL 1
REMARK minimizedAffinity -2.63881302
REMARK minimizedRMSD -1
REMARK  0 active torsions:
REMARK  status: ('A' for Active; 'I' for Inactive)
ROOT
ATOM      1  C   UNL d   1      -0.032   0.055  -0.712  0.00  0.00     0.172 C 
ATOM      2  N   UNL d   1      -0.264  -1.364  -0.842  0.00  0.00    -0.070 N 
ATOM      3  C1  UNL d   1       0.519  -2.353  -0.309  0.00  0.00    -0.004 A 
ATOM      4  C2  UNL d   1      -0.036  -3.565  -0.657  0.00  0.00    -0.047 A 
ATOM      5  C3  UNL d   1      -1.193  -3.296  -1.427  0.00  0.00    -0.047 A 
ATOM      6  C4  UNL d   1      -1.310  -1.925  -1.526  0.00  0.00    -0.004 A 
ENDROOT
TORSDOF 0
ENDMDL
