MODEL 1
REMARK minimizedAffinity 3.39426327
REMARK minimizedRMSD -1
REMARK  0 active torsions:
REMARK  status: ('A' for Active; 'I' for Inactive)
ROOT
ATOM      1  C   UNL d   1       0.476   1.246   3.270  0.00  0.00     0.172 C 
ATOM      2  N   UNL d   1       1.037   2.509   2.852  0.00  0.00    -0.070 N 
ATOM      3  C1  UNL d   1       2.059   3.174   3.476  0.00  0.00    -0.004 A 
ATOM      4  C2  UNL d   1       2.299   4.334   2.771  0.00  0.00    -0.047 A 
ATOM      5  C3  UNL d   1       1.391   4.367   1.687  0.00  0.00    -0.047 A 
ATOM      6  C4  UNL d   1       0.621   3.225   1.761  0.00  0.00    -0.004 A 
ENDROOT
TORSDOF 0
ENDMDL
