MODEL 1
REMARK minimizedAffinity 0.572988212
REMARK minimizedRMSD -1
REMARK  0 active torsions:
REMARK  status: ('A' for Active; 'I' for Inactive)
ROOT
ATOM      1  C   UNL d   1      -5.978  -3.509   5.943  0.00  0.00     0.172 C 
ATOM      2  N   UNL d   1      -5.986  -2.948   4.613  0.00  0.00    -0.070 N 
ATOM      3  C1  UNL d   1      -5.987  -1.613   4.309  0.00  0.00    -0.004 A 
ATOM      4  C2  UNL d   1      -5.995  -1.492   2.936  0.00  0.00    -0.047 A 
ATOM      5  C3  UNL d   1      -6.000  -2.800   2.396  0.00  0.00    -0.047 A 
ATOM      6  C4  UNL d   1      -5.994  -3.682   3.456  0.00  0.00    -0.004 A 
ENDROOT
TORSDOF 0
ENDMDL
