MODEL 1
REMARK minimizedAffinity 2.23674917
REMARK minimizedRMSD -1
REMARK  0 active torsions:
REMARK  status: ('A' for Active; 'I' for Inactive)
ROOT
ATOM      1  C   UNL d   1      -5.876  -2.766   2.421  0.00  0.00     0.172 C 
ATOM      2  N   UNL d   1      -5.908  -2.718   3.864  0.00  0.00    -0.070 N 
ATOM      3  C1  UNL d   1      -5.926  -1.579   4.624  0.00  0.00    -0.004 A 
ATOM      4  C2  UNL d   1      -5.955  -1.957   5.949  0.00  0.00    -0.047 A 
ATOM      5  C3  UNL d   1      -5.953  -3.372   5.986  0.00  0.00    -0.047 A 
ATOM      6  C4  UNL d   1      -5.924  -3.817   4.682  0.00  0.00    -0.004 A 
ENDROOT
TORSDOF 0
ENDMDL
