MODEL 1
REMARK minimizedAffinity -1.91801679
REMARK minimizedRMSD -1
REMARK  0 active torsions:
REMARK  status: ('A' for Active; 'I' for Inactive)
ROOT
ATOM      1  C   UNL d   1      -2.301   0.277  -2.181  0.00  0.00     0.172 C 
ATOM      2  N   UNL d   1      -1.091   0.109  -1.411  0.00  0.00    -0.070 N 
ATOM      3  C1  UNL d   1       0.176   0.401  -1.840  0.00  0.00    -0.004 A 
ATOM      4  C2  UNL d   1       1.048   0.102  -0.816  0.00  0.00    -0.047 A 
ATOM      5  C3  UNL d   1       0.279  -0.388   0.266  0.00  0.00    -0.047 A 
ATOM      6  C4  UNL d   1      -1.042  -0.374  -0.129  0.00  0.00    -0.004 A 
ENDROOT
TORSDOF 0
ENDMDL
