MODEL 1
REMARK minimizedAffinity -2.19957232
REMARK minimizedRMSD -1
REMARK  0 active torsions:
REMARK  status: ('A' for Active; 'I' for Inactive)
ROOT
ATOM      1  C   UNL d   1       0.008   0.319   0.097  0.00  0.00     0.172 C 
ATOM      2  N   UNL d   1      -1.144   0.247  -0.771  0.00  0.00    -0.070 N 
ATOM      3  C1  UNL d   1      -1.715   1.303  -1.429  0.00  0.00    -0.004 A 
ATOM      4  C2  UNL d   1      -2.787   0.821  -2.150  0.00  0.00    -0.047 A 
ATOM      5  C3  UNL d   1      -2.863  -0.573  -1.915  0.00  0.00    -0.047 A 
ATOM      6  C4  UNL d   1      -1.834  -0.901  -1.058  0.00  0.00    -0.004 A 
ENDROOT
TORSDOF 0
ENDMDL
