MODEL 1
REMARK minimizedAffinity 12.0512104
REMARK minimizedRMSD -1
REMARK  1 active torsions:
REMARK  status: ('A' for Active; 'I' for Inactive)
REMARK    1  A    between atoms: C1_2  and  C2_3 
ROOT
ATOM      1  C2  UNL d   1       4.322  -2.054   3.748  0.00  0.00    -0.073 A 
ATOM      2  C3  UNL d   1       3.149  -2.298   4.472  0.00  0.00    -0.002 A 
ATOM      3  C4  UNL d   1       1.946  -1.708   4.083  0.00  0.00     0.004 A 
ATOM      4  C5  UNL d   1       1.901  -0.875   2.965  0.00  0.00    -0.004 A 
ATOM      5  C6  UNL d   1       3.060  -0.628   2.222  0.00  0.00    -0.075 A 
ATOM      6  C7  UNL d   1       3.030   0.267   1.019  0.00  0.00     0.076 C 
ATOM      7  C8  UNL d   1       4.265  -1.223   2.620  0.00  0.00     0.001 A 
ENDROOT
BRANCH   1   8
ATOM      8  C1  UNL d   1       5.623  -2.694   4.160  0.00  0.00     0.053 C 
ATOM      9  C   UNL d   1       5.999  -2.349   5.592  0.00  0.00     0.018 C 
ENDBRANCH   1   8
TORSDOF 1
ENDMDL
