MODEL 1
REMARK minimizedAffinity 2.64397216
REMARK minimizedRMSD -1
REMARK  1 active torsions:
REMARK  status: ('A' for Active; 'I' for Inactive)
REMARK    1  A    between atoms: C1_2  and  C2_3 
ROOT
ATOM      1  C2  UNL d   1       4.165  -2.450   4.421  0.00  0.00    -0.073 A 
ATOM      2  C3  UNL d   1       3.276  -2.686   5.476  0.00  0.00    -0.002 A 
ATOM      3  C4  UNL d   1       1.929  -2.344   5.353  0.00  0.00     0.004 A 
ATOM      4  C5  UNL d   1       1.456  -1.769   4.174  0.00  0.00    -0.004 A 
ATOM      5  C6  UNL d   1       2.326  -1.536   3.104  0.00  0.00    -0.075 A 
ATOM      6  C7  UNL d   1       1.833  -0.916   1.829  0.00  0.00     0.076 C 
ATOM      7  C8  UNL d   1       3.678  -1.880   3.236  0.00  0.00     0.001 A 
ENDROOT
BRANCH   1   8
ATOM      8  C1  UNL d   1       5.619  -2.824   4.547  0.00  0.00     0.053 C 
ATOM      9  C   UNL d   1       6.000  -3.158   5.981  0.00  0.00     0.018 C 
ENDBRANCH   1   8
TORSDOF 1
ENDMDL
