MODEL 1
REMARK minimizedAffinity 17.0950012
REMARK minimizedRMSD -1
REMARK  1 active torsions:
REMARK  status: ('A' for Active; 'I' for Inactive)
REMARK    1  A    between atoms: C1_2  and  C2_3 
ROOT
ATOM      1  C2  UNL d   1       0.792  -3.881   4.896  0.00  0.00    -0.073 A 
ATOM      2  C3  UNL d   1       1.663  -4.696   4.165  0.00  0.00    -0.002 A 
ATOM      3  C4  UNL d   1       2.523  -4.138   3.218  0.00  0.00     0.004 A 
ATOM      4  C5  UNL d   1       2.525  -2.761   2.997  0.00  0.00    -0.004 A 
ATOM      5  C6  UNL d   1       1.670  -1.928   3.726  0.00  0.00    -0.075 A 
ATOM      6  C7  UNL d   1       1.658  -0.445   3.498  0.00  0.00     0.076 C 
ATOM      7  C8  UNL d   1       0.808  -2.496   4.673  0.00  0.00     0.001 A 
ENDROOT
BRANCH   1   8
ATOM      8  C1  UNL d   1      -0.134  -4.478   5.925  0.00  0.00     0.053 C 
ATOM      9  C   UNL d   1      -0.003  -5.991   5.999  0.00  0.00     0.018 C 
ENDBRANCH   1   8
TORSDOF 1
ENDMDL
