MODEL 1
REMARK minimizedAffinity 0.406365395
REMARK minimizedRMSD -1
REMARK  1 active torsions:
REMARK  status: ('A' for Active; 'I' for Inactive)
REMARK    1  A    between atoms: C1_2  and  C2_3 
ROOT
ATOM      1  C2  UNL d   1       4.573  -2.061   3.938  0.00  0.00    -0.073 A 
ATOM      2  C3  UNL d   1       3.574  -3.000   4.216  0.00  0.00    -0.002 A 
ATOM      3  C4  UNL d   1       2.286  -2.830   3.706  0.00  0.00     0.004 A 
ATOM      4  C5  UNL d   1       1.986  -1.724   2.909  0.00  0.00    -0.004 A 
ATOM      5  C6  UNL d   1       2.975  -0.781   2.611  0.00  0.00    -0.075 A 
ATOM      6  C7  UNL d   1       2.669   0.414   1.758  0.00  0.00     0.076 C 
ATOM      7  C8  UNL d   1       4.265  -0.958   3.129  0.00  0.00     0.001 A 
ENDROOT
BRANCH   1   8
ATOM      8  C1  UNL d   1       5.967  -2.244   4.481  0.00  0.00     0.053 C 
ATOM      9  C   UNL d   1       5.999  -2.189   6.000  0.00  0.00     0.018 C 
ENDBRANCH   1   8
TORSDOF 1
ENDMDL
