MODEL 1
REMARK minimizedAffinity 14.7500429
REMARK minimizedRMSD -1
REMARK  1 active torsions:
REMARK  status: ('A' for Active; 'I' for Inactive)
REMARK    1  A    between atoms: C1_2  and  C2_3 
ROOT
ATOM      1  C2  UNL d   1       1.248  -0.212   1.071  0.00  0.00    -0.073 A 
ATOM      2  C3  UNL d   1       1.205  -1.055  -0.046  0.00  0.00    -0.002 A 
ATOM      3  C4  UNL d   1       0.131  -0.992  -0.935  0.00  0.00     0.004 A 
ATOM      4  C5  UNL d   1      -0.905  -0.083  -0.721  0.00  0.00    -0.004 A 
ATOM      5  C6  UNL d   1      -0.874   0.775   0.382  0.00  0.00    -0.075 A 
ATOM      6  C7  UNL d   1      -1.981   1.757   0.628  0.00  0.00     0.076 C 
ATOM      7  C8  UNL d   1       0.207   0.704   1.272  0.00  0.00     0.001 A 
ENDROOT
BRANCH   1   8
ATOM      8  C1  UNL d   1       2.409  -0.272   2.030  0.00  0.00     0.053 C 
ATOM      9  C   UNL d   1       2.142  -1.219   3.189  0.00  0.00     0.018 C 
ENDBRANCH   1   8
TORSDOF 1
ENDMDL
