MODEL 1
REMARK minimizedAffinity 1.84303987
REMARK minimizedRMSD -1
REMARK  1 active torsions:
REMARK  status: ('A' for Active; 'I' for Inactive)
REMARK    1  A    between atoms: C1_2  and  C2_3 
ROOT
ATOM      1  C2  UNL d   1       2.430  -1.712   3.767  0.00  0.00    -0.073 A 
ATOM      2  C3  UNL d   1       1.706  -2.142   4.884  0.00  0.00    -0.002 A 
ATOM      3  C4  UNL d   1       2.368  -2.670   5.993  0.00  0.00     0.004 A 
ATOM      4  C5  UNL d   1       3.759  -2.766   6.000  0.00  0.00    -0.004 A 
ATOM      5  C6  UNL d   1       4.502  -2.332   4.897  0.00  0.00    -0.075 A 
ATOM      6  C7  UNL d   1       5.999  -2.431   4.888  0.00  0.00     0.076 C 
ATOM      7  C8  UNL d   1       3.829  -1.805   3.786  0.00  0.00     0.001 A 
ENDROOT
BRANCH   1   8
ATOM      8  C1  UNL d   1       1.720  -1.136   2.569  0.00  0.00     0.053 C 
ATOM      9  C   UNL d   1       2.469   0.047   1.977  0.00  0.00     0.018 C 
ENDBRANCH   1   8
TORSDOF 1
ENDMDL
