MODEL 1
REMARK minimizedAffinity 9.41394138
REMARK minimizedRMSD -1
REMARK  1 active torsions:
REMARK  status: ('A' for Active; 'I' for Inactive)
REMARK    1  A    between atoms: C1_2  and  C2_3 
ROOT
ATOM      1  C2  UNL d   1       3.549  -1.774   3.343  0.00  0.00    -0.073 A 
ATOM      2  C3  UNL d   1       2.395  -1.159   3.841  0.00  0.00    -0.002 A 
ATOM      3  C4  UNL d   1       1.737  -0.182   3.092  0.00  0.00     0.004 A 
ATOM      4  C5  UNL d   1       2.221   0.184   1.836  0.00  0.00    -0.004 A 
ATOM      5  C6  UNL d   1       3.366  -0.428   1.316  0.00  0.00    -0.075 A 
ATOM      6  C7  UNL d   1       3.900  -0.044  -0.033  0.00  0.00     0.076 C 
ATOM      7  C8  UNL d   1       4.022  -1.406   2.075  0.00  0.00     0.001 A 
ENDROOT
BRANCH   1   8
ATOM      8  C1  UNL d   1       4.259  -2.833   4.145  0.00  0.00     0.053 C 
ATOM      9  C   UNL d   1       4.384  -2.450   5.611  0.00  0.00     0.018 C 
ENDBRANCH   1   8
TORSDOF 1
ENDMDL
