MODEL 1
REMARK minimizedAffinity 4.08948565
REMARK minimizedRMSD -1
REMARK  1 active torsions:
REMARK  status: ('A' for Active; 'I' for Inactive)
REMARK    1  A    between atoms: C1_2  and  C2_3 
ROOT
ATOM      1  C2  UNL d   1       2.417  -1.884   2.847  0.00  0.00    -0.073 A 
ATOM      2  C3  UNL d   1       2.151  -2.307   4.154  0.00  0.00    -0.002 A 
ATOM      3  C4  UNL d   1       2.259  -3.656   4.495  0.00  0.00     0.004 A 
ATOM      4  C5  UNL d   1       2.640  -4.594   3.535  0.00  0.00    -0.004 A 
ATOM      5  C6  UNL d   1       2.921  -4.189   2.226  0.00  0.00    -0.075 A 
ATOM      6  C7  UNL d   1       3.330  -5.186   1.182  0.00  0.00     0.076 C 
ATOM      7  C8  UNL d   1       2.808  -2.833   1.892  0.00  0.00     0.001 A 
ENDROOT
BRANCH   1   8
ATOM      8  C1  UNL d   1       2.308  -0.428   2.476  0.00  0.00     0.053 C 
ATOM      9  C   UNL d   1       1.094  -0.151   1.603  0.00  0.00     0.018 C 
ENDBRANCH   1   8
TORSDOF 1
ENDMDL
