MODEL 1
REMARK minimizedAffinity 1.2957958
REMARK minimizedRMSD -1
REMARK  0 active torsions:
REMARK  status: ('A' for Active; 'I' for Inactive)
ROOT
ATOM      1  N1  IND d   1       3.100   5.999   5.657  0.00  0.00    -0.196 N 
ATOM      2  C2  IND d   1       4.153   5.138   5.522  0.00  0.00     0.054 A 
ATOM      3  C3  IND d   1       3.802   4.083   4.752  0.00  0.00    -0.031 A 
ATOM      4  C4  IND d   1       1.585   3.618   3.528  0.00  0.00     0.051 A 
ATOM      5  C5  IND d   1       0.315   4.099   3.380  0.00  0.00    -0.031 A 
ATOM      6  C6  IND d   1      -0.100   5.263   3.994  0.00  0.00     0.015 A 
ATOM      7  C7  IND d   1       0.748   5.999   4.772  0.00  0.00    -0.016 A 
ATOM      8  C8  IND d   1       2.037   5.510   4.931  0.00  0.00    -0.047 A 
ATOM      9  C9  IND d   1       2.451   4.306   4.345  0.00  0.00    -0.096 A 
ATOM     10  HN1 IND d   1       3.101   6.725   6.119  0.00  0.00     0.298 HD
ENDROOT
TORSDOF 0
ENDMDL
