MODEL 1
REMARK minimizedAffinity -3.42657781
REMARK minimizedRMSD -1
REMARK  0 active torsions:
REMARK  status: ('A' for Active; 'I' for Inactive)
ROOT
ATOM      1  N1  IND d   1       5.854   4.672  -5.968  0.00  0.00    -0.196 N 
ATOM      2  C2  IND d   1       5.407   5.963  -5.971  0.00  0.00     0.054 A 
ATOM      3  C3  IND d   1       4.056   5.993  -5.998  0.00  0.00    -0.031 A 
ATOM      4  C4  IND d   1       2.376   4.043  -5.940  0.00  0.00     0.051 A 
ATOM      5  C5  IND d   1       2.308   2.678  -5.971  0.00  0.00    -0.031 A 
ATOM      6  C6  IND d   1       3.442   1.892  -6.000  0.00  0.00     0.015 A 
ATOM      7  C7  IND d   1       4.691   2.444  -5.988  0.00  0.00    -0.016 A 
ATOM      8  C8  IND d   1       4.764   3.830  -5.964  0.00  0.00    -0.047 A 
ATOM      9  C9  IND d   1       3.617   4.633  -5.978  0.00  0.00    -0.096 A 
ATOM     10  HN1 IND d   1       6.679   4.426  -5.969  0.00  0.00     0.298 HD
ENDROOT
TORSDOF 0
ENDMDL
