MODEL 1
REMARK minimizedAffinity 3.24794579
REMARK minimizedRMSD -1
REMARK  0 active torsions:
REMARK  status: ('A' for Active; 'I' for Inactive)
ROOT
ATOM      1  N1  IND d   1       4.524   2.584  -5.991  0.00  0.00    -0.196 N 
ATOM      2  C2  IND d   1       4.136   1.273  -5.962  0.00  0.00     0.054 A 
ATOM      3  C3  IND d   1       2.788   1.182  -5.923  0.00  0.00    -0.031 A 
ATOM      4  C4  IND d   1       1.019   3.051  -6.000  0.00  0.00     0.051 A 
ATOM      5  C5  IND d   1       0.889   4.412  -5.992  0.00  0.00    -0.031 A 
ATOM      6  C6  IND d   1       1.985   5.249  -5.986  0.00  0.00     0.015 A 
ATOM      7  C7  IND d   1       3.259   4.755  -5.999  0.00  0.00    -0.016 A 
ATOM      8  C8  IND d   1       3.395   3.375  -6.000  0.00  0.00    -0.047 A 
ATOM      9  C9  IND d   1       2.287   2.519  -5.963  0.00  0.00    -0.096 A 
ATOM     10  HN1 IND d   1       5.336   2.867  -6.001  0.00  0.00     0.298 HD
ENDROOT
TORSDOF 0
ENDMDL
