MODEL 1
REMARK minimizedAffinity 3.32362938
REMARK minimizedRMSD -1
REMARK  0 active torsions:
REMARK  status: ('A' for Active; 'I' for Inactive)
ROOT
ATOM      1  N1  IND d   1       0.024   5.216   3.765  0.00  0.00    -0.196 N 
ATOM      2  C2  IND d   1      -0.592   5.660   4.902  0.00  0.00     0.054 A 
ATOM      3  C3  IND d   1       0.327   5.999   5.833  0.00  0.00    -0.031 A 
ATOM      4  C4  IND d   1       2.897   5.999   5.672  0.00  0.00     0.051 A 
ATOM      5  C5  IND d   1       3.924   5.641   4.844  0.00  0.00    -0.031 A 
ATOM      6  C6  IND d   1       3.699   5.115   3.589  0.00  0.00     0.015 A 
ATOM      7  C7  IND d   1       2.433   4.937   3.107  0.00  0.00    -0.016 A 
ATOM      8  C8  IND d   1       1.388   5.293   3.947  0.00  0.00    -0.047 A 
ATOM      9  C9  IND d   1       1.609   5.788   5.239  0.00  0.00    -0.096 A 
ATOM     10  HN1 IND d   1      -0.373   4.935   3.056  0.00  0.00     0.298 HD
ENDROOT
TORSDOF 0
ENDMDL
