MODEL 1
REMARK minimizedAffinity 3.01830363
REMARK minimizedRMSD -1
REMARK  0 active torsions:
REMARK  status: ('A' for Active; 'I' for Inactive)
ROOT
ATOM      1  N1  IND d   1       1.883   4.134   2.551  0.00  0.00    -0.196 N 
ATOM      2  C2  IND d   1       3.148   3.752   2.904  0.00  0.00     0.054 A 
ATOM      3  C3  IND d   1       3.433   4.169   4.158  0.00  0.00    -0.031 A 
ATOM      4  C4  IND d   1       1.938   5.405   5.850  0.00  0.00     0.051 A 
ATOM      5  C5  IND d   1       0.713   5.999   5.973  0.00  0.00    -0.031 A 
ATOM      6  C6  IND d   1      -0.204   5.999   4.941  0.00  0.00     0.015 A 
ATOM      7  C7  IND d   1       0.067   5.393   3.747  0.00  0.00    -0.016 A 
ATOM      8  C8  IND d   1       1.312   4.795   3.617  0.00  0.00    -0.047 A 
ATOM      9  C9  IND d   1       2.263   4.828   4.645  0.00  0.00    -0.096 A 
ATOM     10  HN1 IND d   1       1.508   3.986   1.792  0.00  0.00     0.298 HD
ENDROOT
TORSDOF 0
ENDMDL
