MODEL 1
REMARK minimizedAffinity 11.6570339
REMARK minimizedRMSD -1
REMARK  0 active torsions:
REMARK  status: ('A' for Active; 'I' for Inactive)
ROOT
ATOM      1  N1  IND d   1       0.525   5.193   3.733  0.00  0.00    -0.196 N 
ATOM      2  C2  IND d   1      -0.223   5.654   4.781  0.00  0.00     0.054 A 
ATOM      3  C3  IND d   1       0.576   5.987   5.819  0.00  0.00    -0.031 A 
ATOM      4  C4  IND d   1       3.145   5.952   5.982  0.00  0.00     0.051 A 
ATOM      5  C5  IND d   1       4.263   5.575   5.293  0.00  0.00    -0.031 A 
ATOM      6  C6  IND d   1       4.191   5.043   4.022  0.00  0.00     0.015 A 
ATOM      7  C7  IND d   1       2.993   4.878   3.386  0.00  0.00    -0.016 A 
ATOM      8  C8  IND d   1       1.855   5.254   4.085  0.00  0.00    -0.047 A 
ATOM      9  C9  IND d   1       1.919   5.755   5.392  0.00  0.00    -0.096 A 
ATOM     10  HN1 IND d   1       0.216   4.913   2.982  0.00  0.00     0.298 HD
ENDROOT
TORSDOF 0
ENDMDL
