MODEL 1
REMARK minimizedAffinity 7.40241289
REMARK minimizedRMSD -1
REMARK  0 active torsions:
REMARK  status: ('A' for Active; 'I' for Inactive)
ROOT
ATOM      1  N1  IND d   1       4.348   4.631   5.514  0.00  0.00    -0.196 N 
ATOM      2  C2  IND d   1       3.844   5.813   5.982  0.00  0.00     0.054 A 
ATOM      3  C3  IND d   1       2.582   5.997   5.534  0.00  0.00    -0.031 A 
ATOM      4  C4  IND d   1       1.111   4.442   4.104  0.00  0.00     0.051 A 
ATOM      5  C5  IND d   1       1.146   3.268   3.405  0.00  0.00    -0.031 A 
ATOM      6  C6  IND d   1       2.272   2.471   3.376  0.00  0.00     0.015 A 
ATOM      7  C7  IND d   1       3.406   2.814   4.056  0.00  0.00    -0.016 A 
ATOM      8  C8  IND d   1       3.377   4.009   4.760  0.00  0.00    -0.047 A 
ATOM      9  C9  IND d   1       2.251   4.844   4.759  0.00  0.00    -0.096 A 
ATOM     10  HN1 IND d   1       5.138   4.328   5.664  0.00  0.00     0.298 HD
ENDROOT
TORSDOF 0
ENDMDL
