MODEL 1
REMARK minimizedAffinity 14.6201839
REMARK minimizedRMSD -1
REMARK  0 active torsions:
REMARK  status: ('A' for Active; 'I' for Inactive)
ROOT
ATOM      1  N1  IND d   1       4.020   3.837   4.425  0.00  0.00    -0.196 N 
ATOM      2  C2  IND d   1       2.790   4.235   4.870  0.00  0.00     0.054 A 
ATOM      3  C3  IND d   1       1.853   4.013   3.921  0.00  0.00    -0.031 A 
ATOM      4  C4  IND d   1       2.097   2.916   1.605  0.00  0.00     0.051 A 
ATOM      5  C5  IND d   1       3.033   2.423   0.740  0.00  0.00    -0.031 A 
ATOM      6  C6  IND d   1       4.373   2.373   1.067  0.00  0.00     0.015 A 
ATOM      7  C7  IND d   1       4.827   2.805   2.281  0.00  0.00    -0.016 A 
ATOM      8  C8  IND d   1       3.880   3.313   3.159  0.00  0.00    -0.047 A 
ATOM      9  C9  IND d   1       2.525   3.405   2.817  0.00  0.00    -0.096 A 
ATOM     10  HN1 IND d   1       4.757   3.903   4.863  0.00  0.00     0.298 HD
ENDROOT
TORSDOF 0
ENDMDL
