MODEL 1
REMARK minimizedAffinity -0.356861919
REMARK minimizedRMSD -1
REMARK  0 active torsions:
REMARK  status: ('A' for Active; 'I' for Inactive)
ROOT
ATOM      1  N1  IND d   1       5.627   4.119  -5.992  0.00  0.00    -0.196 N 
ATOM      2  C2  IND d   1       5.646   5.486  -5.987  0.00  0.00     0.054 A 
ATOM      3  C3  IND d   1       4.386   5.974  -5.998  0.00  0.00    -0.031 A 
ATOM      4  C4  IND d   1       2.142   4.714  -5.922  0.00  0.00     0.051 A 
ATOM      5  C5  IND d   1       1.613   3.454  -5.953  0.00  0.00    -0.031 A 
ATOM      6  C6  IND d   1       2.411   2.329  -5.997  0.00  0.00     0.015 A 
ATOM      7  C7  IND d   1       3.774   2.422  -6.000  0.00  0.00    -0.016 A 
ATOM      8  C8  IND d   1       4.315   3.699  -5.975  0.00  0.00    -0.047 A 
ATOM      9  C9  IND d   1       3.510   4.846  -5.973  0.00  0.00    -0.096 A 
ATOM     10  HN1 IND d   1       6.318   3.607  -6.003  0.00  0.00     0.298 HD
ENDROOT
TORSDOF 0
ENDMDL
