MODEL 1
REMARK minimizedAffinity 15.3758526
REMARK minimizedRMSD -1
REMARK  0 active torsions:
REMARK  status: ('A' for Active; 'I' for Inactive)
ROOT
ATOM      1  C   UNL d   1       0.708   1.644   3.463  0.00  0.00     0.124 A 
ATOM      2  C1  UNL d   1      -0.511   2.307   3.491  0.00  0.00     0.062 A 
ATOM      3  C2  UNL d   1      -1.534   1.930   2.626  0.00  0.00     0.162 A 
ATOM      4  C3  UNL d   1      -1.342   0.882   1.725  0.00  0.00    -0.034 A 
ATOM      5  C4  UNL d   1      -0.113   0.220   1.701  0.00  0.00     0.162 A 
ATOM      6  C5  UNL d   1       0.905   0.602   2.569  0.00  0.00     0.062 A 
ATOM      7  F   UNL d   1       2.082  -0.040   2.540  0.00  0.00    -0.097 F 
ATOM      8  F1  UNL d   1       0.105  -0.791   0.848  0.00  0.00    -0.096 F 
ATOM      9  I   UNL d   1      -2.869   0.315   0.429  0.00  0.00    -0.060 I 
ATOM     10  F2  UNL d   1      -2.701   2.588   2.675  0.00  0.00    -0.096 F 
ATOM     11  F3  UNL d   1      -0.705   3.315   4.354  0.00  0.00    -0.097 F 
ATOM     12  F4  UNL d   1       1.690   2.010   4.296  0.00  0.00    -0.092 F 
ENDROOT
TORSDOF 0
ENDMDL
