MODEL 1
REMARK minimizedAffinity 15.6356611
REMARK minimizedRMSD -1
REMARK  0 active torsions:
REMARK  status: ('A' for Active; 'I' for Inactive)
ROOT
ATOM      1  C   UNL d   1       0.566   1.784   3.116  0.00  0.00     0.124 A 
ATOM      2  C1  UNL d   1       0.984   0.777   2.257  0.00  0.00     0.062 A 
ATOM      3  C2  UNL d   1       0.103   0.244   1.321  0.00  0.00     0.162 A 
ATOM      4  C3  UNL d   1      -1.206   0.719   1.238  0.00  0.00    -0.034 A 
ATOM      5  C4  UNL d   1      -1.620   1.731   2.105  0.00  0.00     0.162 A 
ATOM      6  C5  UNL d   1      -0.735   2.260   3.039  0.00  0.00     0.062 A 
ATOM      7  F   UNL d   1      -1.141   3.233   3.868  0.00  0.00    -0.097 F 
ATOM      8  F1  UNL d   1      -2.872   2.210   2.052  0.00  0.00    -0.096 F 
ATOM      9  I   UNL d   1      -2.527  -0.075  -0.161  0.00  0.00    -0.060 I 
ATOM     10  F2  UNL d   1       0.534  -0.728   0.504  0.00  0.00    -0.096 F 
ATOM     11  F3  UNL d   1       2.241   0.315   2.330  0.00  0.00    -0.097 F 
ATOM     12  F4  UNL d   1       1.416   2.295   4.016  0.00  0.00    -0.092 F 
ENDROOT
TORSDOF 0
ENDMDL
