MODEL 1
REMARK minimizedAffinity 11.7137556
REMARK minimizedRMSD -1
REMARK  0 active torsions:
REMARK  status: ('A' for Active; 'I' for Inactive)
ROOT
ATOM      1  C   UNL d   1      -1.115   2.349   3.370  0.00  0.00     0.124 A 
ATOM      2  C1  UNL d   1      -0.945   0.973   3.441  0.00  0.00     0.062 A 
ATOM      3  C2  UNL d   1      -1.824   0.197   4.191  0.00  0.00     0.162 A 
ATOM      4  C3  UNL d   1      -2.882   0.795   4.876  0.00  0.00    -0.034 A 
ATOM      5  C4  UNL d   1      -3.047   2.179   4.800  0.00  0.00     0.162 A 
ATOM      6  C5  UNL d   1      -2.165   2.950   4.049  0.00  0.00     0.062 A 
ATOM      7  F   UNL d   1      -2.331   4.279   3.981  0.00  0.00    -0.097 F 
ATOM      8  F1  UNL d   1      -4.053   2.786   5.445  0.00  0.00    -0.096 F 
ATOM      9  I   UNL d   1      -4.199  -0.362   5.998  0.00  0.00    -0.060 I 
ATOM     10  F2  UNL d   1      -1.635  -1.130   4.242  0.00  0.00    -0.096 F 
ATOM     11  F3  UNL d   1       0.070   0.390   2.787  0.00  0.00    -0.097 F 
ATOM     12  F4  UNL d   1      -0.267   3.093   2.649  0.00  0.00    -0.092 F 
ENDROOT
TORSDOF 0
ENDMDL
