MODEL 1
REMARK minimizedAffinity 13.023509
REMARK minimizedRMSD -1
REMARK  0 active torsions:
REMARK  status: ('A' for Active; 'I' for Inactive)
ROOT
ATOM      1  C   UNL d   1      -1.613   0.427   1.060  0.00  0.00     0.124 A 
ATOM      2  C1  UNL d   1      -2.199   1.624   1.448  0.00  0.00     0.062 A 
ATOM      3  C2  UNL d   1      -1.523   2.489   2.304  0.00  0.00     0.162 A 
ATOM      4  C3  UNL d   1      -0.253   2.161   2.777  0.00  0.00    -0.034 A 
ATOM      5  C4  UNL d   1       0.330   0.955   2.383  0.00  0.00     0.162 A 
ATOM      6  C5  UNL d   1      -0.350   0.094   1.527  0.00  0.00     0.062 A 
ATOM      7  F   UNL d   1       0.218  -1.062   1.153  0.00  0.00    -0.097 F 
ATOM      8  F1  UNL d   1       1.550   0.608   2.819  0.00  0.00    -0.096 F 
ATOM      9  I   UNL d   1       0.761   3.451   4.057  0.00  0.00    -0.060 I 
ATOM     10  F2  UNL d   1      -2.113   3.639   2.663  0.00  0.00    -0.096 F 
ATOM     11  F3  UNL d   1      -3.420   1.948   0.999  0.00  0.00    -0.097 F 
ATOM     12  F4  UNL d   1      -2.266  -0.403   0.237  0.00  0.00    -0.092 F 
ENDROOT
TORSDOF 0
ENDMDL
