MODEL 1
REMARK minimizedAffinity 10.9494934
REMARK minimizedRMSD -1
REMARK  0 active torsions:
REMARK  status: ('A' for Active; 'I' for Inactive)
ROOT
ATOM      1  C   UNL d   1       3.081  -0.401   1.911  0.00  0.00     0.124 A 
ATOM      2  C1  UNL d   1       2.855   0.859   1.375  0.00  0.00     0.062 A 
ATOM      3  C2  UNL d   1       1.571   1.397   1.368  0.00  0.00     0.162 A 
ATOM      4  C3  UNL d   1       0.503   0.674   1.898  0.00  0.00    -0.034 A 
ATOM      5  C4  UNL d   1       0.737  -0.593   2.434  0.00  0.00     0.162 A 
ATOM      6  C5  UNL d   1       2.022  -1.126   2.439  0.00  0.00     0.062 A 
ATOM      7  F   UNL d   1       2.238  -2.344   2.957  0.00  0.00    -0.097 F 
ATOM      8  F1  UNL d   1      -0.267  -1.315   2.952  0.00  0.00    -0.096 F 
ATOM      9  I   UNL d   1      -1.419   1.474   1.889  0.00  0.00    -0.060 I 
ATOM     10  F2  UNL d   1       1.382   2.617   0.844  0.00  0.00    -0.096 F 
ATOM     11  F3  UNL d   1       3.876   1.561   0.863  0.00  0.00    -0.097 F 
ATOM     12  F4  UNL d   1       4.317  -0.916   1.916  0.00  0.00    -0.092 F 
ENDROOT
TORSDOF 0
ENDMDL
