MODEL 1
REMARK minimizedAffinity 14.8612833
REMARK minimizedRMSD -1
REMARK  0 active torsions:
REMARK  status: ('A' for Active; 'I' for Inactive)
ROOT
ATOM      1  C   UNL d   1       1.256   1.164   2.653  0.00  0.00     0.124 A 
ATOM      2  C1  UNL d   1       0.643  -0.033   2.306  0.00  0.00     0.062 A 
ATOM      3  C2  UNL d   1      -0.744  -0.139   2.321  0.00  0.00     0.162 A 
ATOM      4  C3  UNL d   1      -1.530   0.955   2.684  0.00  0.00    -0.034 A 
ATOM      5  C4  UNL d   1      -0.907   2.154   3.033  0.00  0.00     0.162 A 
ATOM      6  C5  UNL d   1       0.480   2.256   3.016  0.00  0.00     0.062 A 
ATOM      7  F   UNL d   1       1.070   3.412   3.352  0.00  0.00    -0.097 F 
ATOM      8  F1  UNL d   1      -1.632   3.226   3.387  0.00  0.00    -0.096 F 
ATOM      9  I   UNL d   1      -3.605   0.800   2.709  0.00  0.00    -0.060 I 
ATOM     10  F2  UNL d   1      -1.309  -1.307   1.981  0.00  0.00    -0.096 F 
ATOM     11  F3  UNL d   1       1.390  -1.090   1.956  0.00  0.00    -0.097 F 
ATOM     12  F4  UNL d   1       2.591   1.263   2.638  0.00  0.00    -0.092 F 
ENDROOT
TORSDOF 0
ENDMDL
