MODEL 1
REMARK minimizedAffinity 15.4180975
REMARK minimizedRMSD -1
REMARK  0 active torsions:
REMARK  status: ('A' for Active; 'I' for Inactive)
ROOT
ATOM      1  C   UNL d   1       0.869   1.974   2.992  0.00  0.00     0.124 A 
ATOM      2  C1  UNL d   1       0.621   0.850   2.216  0.00  0.00     0.062 A 
ATOM      3  C2  UNL d   1      -0.676   0.553   1.809  0.00  0.00     0.162 A 
ATOM      4  C3  UNL d   1      -1.736   1.382   2.175  0.00  0.00    -0.034 A 
ATOM      5  C4  UNL d   1      -1.479   2.511   2.956  0.00  0.00     0.162 A 
ATOM      6  C5  UNL d   1      -0.181   2.803   3.361  0.00  0.00     0.062 A 
ATOM      7  F   UNL d   1       0.057   3.890   4.110  0.00  0.00    -0.097 F 
ATOM      8  F1  UNL d   1      -2.475   3.329   3.327  0.00  0.00    -0.096 F 
ATOM      9  I   UNL d   1      -3.677   0.941   1.568  0.00  0.00    -0.060 I 
ATOM     10  F2  UNL d   1      -0.886  -0.540   1.060  0.00  0.00    -0.096 F 
ATOM     11  F3  UNL d   1       1.634   0.047   1.859  0.00  0.00    -0.097 F 
ATOM     12  F4  UNL d   1       2.118   2.257   3.383  0.00  0.00    -0.092 F 
ENDROOT
TORSDOF 0
ENDMDL
