MODEL 1
REMARK minimizedAffinity 16.6437683
REMARK minimizedRMSD -1
REMARK  0 active torsions:
REMARK  status: ('A' for Active; 'I' for Inactive)
ROOT
ATOM      1  C   UNL d   1      -2.161   1.795   3.515  0.00  0.00     0.124 A 
ATOM      2  C1  UNL d   1      -0.874   2.071   3.956  0.00  0.00     0.062 A 
ATOM      3  C2  UNL d   1       0.223   1.726   3.172  0.00  0.00     0.162 A 
ATOM      4  C3  UNL d   1       0.039   1.102   1.938  0.00  0.00    -0.034 A 
ATOM      5  C4  UNL d   1      -1.259   0.826   1.502  0.00  0.00     0.162 A 
ATOM      6  C5  UNL d   1      -2.352   1.173   2.289  0.00  0.00     0.062 A 
ATOM      7  F   UNL d   1      -3.595   0.906   1.862  0.00  0.00    -0.097 F 
ATOM      8  F1  UNL d   1      -1.472   0.227   0.321  0.00  0.00    -0.096 F 
ATOM      9  I   UNL d   1       1.677   0.584   0.764  0.00  0.00    -0.060 I 
ATOM     10  F2  UNL d   1       1.455   2.005   3.623  0.00  0.00    -0.096 F 
ATOM     11  F3  UNL d   1      -0.687   2.671   5.140  0.00  0.00    -0.097 F 
ATOM     12  F4  UNL d   1      -3.215   2.127   4.271  0.00  0.00    -0.092 F 
ENDROOT
TORSDOF 0
ENDMDL
