MODEL 1
REMARK minimizedAffinity 10.748806
REMARK minimizedRMSD -1
REMARK  0 active torsions:
REMARK  status: ('A' for Active; 'I' for Inactive)
ROOT
ATOM      1  C   UNL d   1       3.383  -0.047   2.120  0.00  0.00     0.124 A 
ATOM      2  C1  UNL d   1       2.342  -0.648   2.814  0.00  0.00     0.062 A 
ATOM      3  C2  UNL d   1       1.036  -0.194   2.648  0.00  0.00     0.162 A 
ATOM      4  C3  UNL d   1       0.764   0.866   1.784  0.00  0.00    -0.034 A 
ATOM      5  C4  UNL d   1       1.817   1.467   1.091  0.00  0.00     0.162 A 
ATOM      6  C5  UNL d   1       3.120   1.010   1.260  0.00  0.00     0.062 A 
ATOM      7  F   UNL d   1       4.124   1.592   0.589  0.00  0.00    -0.097 F 
ATOM      8  F1  UNL d   1       1.590   2.489   0.252  0.00  0.00    -0.096 F 
ATOM      9  I   UNL d   1      -1.187   1.547   1.534  0.00  0.00    -0.060 I 
ATOM     10  F2  UNL d   1       0.050  -0.794   3.331  0.00  0.00    -0.096 F 
ATOM     11  F3  UNL d   1       2.594  -1.668   3.647  0.00  0.00    -0.097 F 
ATOM     12  F4  UNL d   1       4.638  -0.484   2.282  0.00  0.00    -0.092 F 
ENDROOT
TORSDOF 0
ENDMDL
