MODEL 1
REMARK minimizedAffinity 13.1815596
REMARK minimizedRMSD -1
REMARK  0 active torsions:
REMARK  status: ('A' for Active; 'I' for Inactive)
ROOT
ATOM      1  C   UNL d   1      -1.290   1.108   2.125  0.00  0.00     0.124 A 
ATOM      2  C1  UNL d   1      -0.688  -0.031   2.642  0.00  0.00     0.062 A 
ATOM      3  C2  UNL d   1      -1.237  -0.673   3.748  0.00  0.00     0.162 A 
ATOM      4  C3  UNL d   1      -2.397  -0.177   4.345  0.00  0.00    -0.034 A 
ATOM      5  C4  UNL d   1      -2.996   0.969   3.820  0.00  0.00     0.162 A 
ATOM      6  C5  UNL d   1      -2.443   1.607   2.715  0.00  0.00     0.062 A 
ATOM      7  F   UNL d   1      -3.026   2.707   2.217  0.00  0.00    -0.097 F 
ATOM      8  F1  UNL d   1      -4.111   1.472   4.370  0.00  0.00    -0.096 F 
ATOM      9  I   UNL d   1      -3.221  -1.134   6.000  0.00  0.00    -0.060 I 
ATOM     10  F2  UNL d   1      -0.635  -1.772   4.226  0.00  0.00    -0.096 F 
ATOM     11  F3  UNL d   1       0.426  -0.515   2.074  0.00  0.00    -0.097 F 
ATOM     12  F4  UNL d   1      -0.759   1.723   1.061  0.00  0.00    -0.092 F 
ENDROOT
TORSDOF 0
ENDMDL
