MODEL 1
REMARK minimizedAffinity 20.5580883
REMARK minimizedRMSD -1
REMARK  0 active torsions:
REMARK  status: ('A' for Active; 'I' for Inactive)
ROOT
ATOM      1  C   UNL d   1       2.279   3.328  -5.492  0.00  0.00     0.124 A 
ATOM      2  C1  UNL d   1       1.220   2.474  -5.216  0.00  0.00     0.062 A 
ATOM      3  C2  UNL d   1       1.461   1.209  -4.689  0.00  0.00     0.162 A 
ATOM      4  C3  UNL d   1       2.767   0.789  -4.434  0.00  0.00    -0.034 A 
ATOM      5  C4  UNL d   1       3.826   1.654  -4.715  0.00  0.00     0.162 A 
ATOM      6  C5  UNL d   1       3.581   2.918  -5.242  0.00  0.00     0.062 A 
ATOM      7  F   UNL d   1       4.605   3.741  -5.508  0.00  0.00    -0.097 F 
ATOM      8  F1  UNL d   1       5.094   1.283  -4.482  0.00  0.00    -0.096 F 
ATOM      9  I   UNL d   1       3.131  -1.102  -3.646  0.00  0.00    -0.060 I 
ATOM     10  F2  UNL d   1       0.419   0.404  -4.432  0.00  0.00    -0.096 F 
ATOM     11  F3  UNL d   1      -0.038   2.868  -5.458  0.00  0.00    -0.097 F 
ATOM     12  F4  UNL d   1       2.044   4.545  -6.000  0.00  0.00    -0.092 F 
ENDROOT
TORSDOF 0
ENDMDL
