MODEL 1
REMARK minimizedAffinity 27.1469078
REMARK minimizedRMSD -1
REMARK  0 active torsions:
REMARK  status: ('A' for Active; 'I' for Inactive)
ROOT
ATOM      1  C   UNL d   1       0.333   1.624   2.601  0.00  0.00     0.124 A 
ATOM      2  C1  UNL d   1       0.756   0.357   2.224  0.00  0.00     0.062 A 
ATOM      3  C2  UNL d   1      -0.082  -0.469   1.480  0.00  0.00     0.162 A 
ATOM      4  C3  UNL d   1      -1.352  -0.029   1.106  0.00  0.00    -0.034 A 
ATOM      5  C4  UNL d   1      -1.771   1.246   1.490  0.00  0.00     0.162 A 
ATOM      6  C5  UNL d   1      -0.930   2.067   2.233  0.00  0.00     0.062 A 
ATOM      7  F   UNL d   1      -1.340   3.291   2.596  0.00  0.00    -0.097 F 
ATOM      8  F1  UNL d   1      -2.986   1.701   1.147  0.00  0.00    -0.096 F 
ATOM      9  I   UNL d   1      -2.608  -1.260  -0.006  0.00  0.00    -0.060 I 
ATOM     10  F2  UNL d   1       0.353  -1.688   1.130  0.00  0.00    -0.096 F 
ATOM     11  F3  UNL d   1       1.975  -0.075   2.579  0.00  0.00    -0.097 F 
ATOM     12  F4  UNL d   1       1.141   2.416   3.318  0.00  0.00    -0.092 F 
ENDROOT
TORSDOF 0
ENDMDL
