MODEL 1
REMARK minimizedAffinity 15.1393404
REMARK minimizedRMSD -1
REMARK  0 active torsions:
REMARK  status: ('A' for Active; 'I' for Inactive)
ROOT
ATOM      1  C   UNL d   1      -4.866  -0.702   1.244  0.00  0.00     0.124 A 
ATOM      2  C1  UNL d   1      -3.718  -1.052   0.546  0.00  0.00     0.062 A 
ATOM      3  C2  UNL d   1      -2.582  -0.252   0.621  0.00  0.00     0.162 A 
ATOM      4  C3  UNL d   1      -2.587   0.907   1.398  0.00  0.00    -0.034 A 
ATOM      5  C4  UNL d   1      -3.745   1.252   2.097  0.00  0.00     0.162 A 
ATOM      6  C5  UNL d   1      -4.878   0.449   2.018  0.00  0.00     0.062 A 
ATOM      7  F   UNL d   1      -5.986   0.788   2.693  0.00  0.00    -0.097 F 
ATOM      8  F1  UNL d   1      -3.785   2.359   2.853  0.00  0.00    -0.096 F 
ATOM      9  I   UNL d   1      -0.890   2.106   1.513  0.00  0.00    -0.060 I 
ATOM     10  F2  UNL d   1      -1.487  -0.614  -0.064  0.00  0.00    -0.096 F 
ATOM     11  F3  UNL d   1      -3.703  -2.164  -0.204  0.00  0.00    -0.097 F 
ATOM     12  F4  UNL d   1      -5.958  -1.474   1.169  0.00  0.00    -0.092 F 
ENDROOT
TORSDOF 0
ENDMDL
