MODEL 1
REMARK minimizedAffinity 21.4750423
REMARK minimizedRMSD -1
REMARK  0 active torsions:
REMARK  status: ('A' for Active; 'I' for Inactive)
ROOT
ATOM      1  C   UNL d   1      -0.043   2.007   2.750  0.00  0.00     0.124 A 
ATOM      2  C1  UNL d   1      -1.334   2.331   2.359  0.00  0.00     0.062 A 
ATOM      3  C2  UNL d   1      -2.073   1.445   1.580  0.00  0.00     0.162 A 
ATOM      4  C3  UNL d   1      -1.522   0.225   1.188  0.00  0.00    -0.034 A 
ATOM      5  C4  UNL d   1      -0.222  -0.093   1.584  0.00  0.00     0.162 A 
ATOM      6  C5  UNL d   1       0.512   0.796   2.362  0.00  0.00     0.062 A 
ATOM      7  F   UNL d   1       1.760   0.481   2.738  0.00  0.00    -0.097 F 
ATOM      8  F1  UNL d   1       0.338  -1.257   1.224  0.00  0.00    -0.096 F 
ATOM      9  I   UNL d   1      -2.624  -1.102   0.023  0.00  0.00    -0.060 I 
ATOM     10  F2  UNL d   1      -3.319   1.785   1.217  0.00  0.00    -0.096 F 
ATOM     11  F3  UNL d   1      -1.872   3.502   2.732  0.00  0.00    -0.097 F 
ATOM     12  F4  UNL d   1       0.666   2.862   3.498  0.00  0.00    -0.092 F 
ENDROOT
TORSDOF 0
ENDMDL
