MODEL 1
REMARK minimizedAffinity 12.6492548
REMARK minimizedRMSD -1
REMARK  0 active torsions:
REMARK  status: ('A' for Active; 'I' for Inactive)
ROOT
ATOM      1  C   UNL d   1      -3.171   1.605   2.538  0.00  0.00     0.124 A 
ATOM      2  C1  UNL d   1      -2.921   0.564   1.654  0.00  0.00     0.062 A 
ATOM      3  C2  UNL d   1      -1.639   0.366   1.151  0.00  0.00     0.162 A 
ATOM      4  C3  UNL d   1      -0.595   1.210   1.530  0.00  0.00    -0.034 A 
ATOM      5  C4  UNL d   1      -0.854   2.255   2.418  0.00  0.00     0.162 A 
ATOM      6  C5  UNL d   1      -2.137   2.450   2.919  0.00  0.00     0.062 A 
ATOM      7  F   UNL d   1      -2.376   3.456   3.772  0.00  0.00    -0.097 F 
ATOM      8  F1  UNL d   1       0.126   3.085   2.804  0.00  0.00    -0.096 F 
ATOM      9  I   UNL d   1       1.323   0.916   0.779  0.00  0.00    -0.060 I 
ATOM     10  F2  UNL d   1      -1.427  -0.648   0.299  0.00  0.00    -0.096 F 
ATOM     11  F3  UNL d   1      -3.918  -0.252   1.284  0.00  0.00    -0.097 F 
ATOM     12  F4  UNL d   1      -4.405   1.795   3.020  0.00  0.00    -0.092 F 
ENDROOT
TORSDOF 0
ENDMDL
