MODEL 1
REMARK minimizedAffinity 10.3519554
REMARK minimizedRMSD -1
REMARK  0 active torsions:
REMARK  status: ('A' for Active; 'I' for Inactive)
ROOT
ATOM      1  C   UNL d   1      -2.824   1.491   1.708  0.00  0.00     0.124 A 
ATOM      2  C1  UNL d   1      -2.377   0.496   0.849  0.00  0.00     0.062 A 
ATOM      3  C2  UNL d   1      -1.020   0.199   0.769  0.00  0.00     0.162 A 
ATOM      4  C3  UNL d   1      -0.099   0.897   1.550  0.00  0.00    -0.034 A 
ATOM      5  C4  UNL d   1      -0.556   1.897   2.411  0.00  0.00     0.162 A 
ATOM      6  C5  UNL d   1      -1.913   2.190   2.488  0.00  0.00     0.062 A 
ATOM      7  F   UNL d   1      -2.343   3.151   3.318  0.00  0.00    -0.097 F 
ATOM      8  F1  UNL d   1       0.303   2.587   3.176  0.00  0.00    -0.096 F 
ATOM      9  I   UNL d   1       1.932   0.455   1.433  0.00  0.00    -0.060 I 
ATOM     10  F2  UNL d   1      -0.616  -0.767  -0.070  0.00  0.00    -0.096 F 
ATOM     11  F3  UNL d   1      -3.255  -0.180   0.094  0.00  0.00    -0.097 F 
ATOM     12  F4  UNL d   1      -4.130   1.776   1.783  0.00  0.00    -0.092 F 
ENDROOT
TORSDOF 0
ENDMDL
