MODEL 1
REMARK minimizedAffinity 16.5200253
REMARK minimizedRMSD -1
REMARK  0 active torsions:
REMARK  status: ('A' for Active; 'I' for Inactive)
ROOT
ATOM      1  C   UNL d   1      -1.725  -0.161   0.970  0.00  0.00     0.124 A 
ATOM      2  C1  UNL d   1      -0.392  -0.498   1.156  0.00  0.00     0.062 A 
ATOM      3  C2  UNL d   1       0.424   0.293   1.959  0.00  0.00     0.162 A 
ATOM      4  C3  UNL d   1      -0.091   1.429   2.584  0.00  0.00    -0.034 A 
ATOM      5  C4  UNL d   1      -1.432   1.762   2.391  0.00  0.00     0.162 A 
ATOM      6  C5  UNL d   1      -2.244   0.969   1.587  0.00  0.00     0.062 A 
ATOM      7  F   UNL d   1      -3.532   1.296   1.408  0.00  0.00    -0.097 F 
ATOM      8  F1  UNL d   1      -1.960   2.848   2.976  0.00  0.00    -0.096 F 
ATOM      9  I   UNL d   1       1.127   2.614   3.786  0.00  0.00    -0.060 I 
ATOM     10  F2  UNL d   1       1.709  -0.057   2.122  0.00  0.00    -0.096 F 
ATOM     11  F3  UNL d   1       0.112  -1.588   0.560  0.00  0.00    -0.097 F 
ATOM     12  F4  UNL d   1      -2.508  -0.923   0.195  0.00  0.00    -0.092 F 
ENDROOT
TORSDOF 0
ENDMDL
