MODEL 1
REMARK minimizedAffinity 25.9185886
REMARK minimizedRMSD -1
REMARK  0 active torsions:
REMARK  status: ('A' for Active; 'I' for Inactive)
ROOT
ATOM      1  C   UNL d   1      -5.101  -0.290   2.283  0.00  0.00     0.124 A 
ATOM      2  C1  UNL d   1      -5.546  -0.678   3.539  0.00  0.00     0.062 A 
ATOM      3  C2  UNL d   1      -5.526   0.224   4.598  0.00  0.00     0.162 A 
ATOM      4  C3  UNL d   1      -5.059   1.525   4.407  0.00  0.00    -0.034 A 
ATOM      5  C4  UNL d   1      -4.611   1.908   3.141  0.00  0.00     0.162 A 
ATOM      6  C5  UNL d   1      -4.634   1.002   2.085  0.00  0.00     0.062 A 
ATOM      7  F   UNL d   1      -4.203   1.379   0.872  0.00  0.00    -0.097 F 
ATOM      8  F1  UNL d   1      -4.156   3.150   2.922  0.00  0.00    -0.096 F 
ATOM      9  I   UNL d   1      -5.027   2.876   5.989  0.00  0.00    -0.060 I 
ATOM     10  F2  UNL d   1      -5.962  -0.178   5.801  0.00  0.00    -0.096 F 
ATOM     11  F3  UNL d   1      -5.997  -1.926   3.732  0.00  0.00    -0.097 F 
ATOM     12  F4  UNL d   1      -5.121  -1.160   1.265  0.00  0.00    -0.092 F 
ENDROOT
TORSDOF 0
ENDMDL
