MODEL 1
REMARK minimizedAffinity -1.23296642
REMARK minimizedRMSD -1
REMARK  1 active torsions:
REMARK  status: ('A' for Active; 'I' for Inactive)
REMARK    1  A    between atoms: C1_2  and  C2_3 
ROOT
ATOM      1  C2  UNL d   1      -0.136   0.869   0.303  0.00  0.00    -0.073 A 
ATOM      2  C3  UNL d   1      -0.746  -0.017   1.198  0.00  0.00    -0.002 A 
ATOM      3  C4  UNL d   1      -1.051  -1.321   0.803  0.00  0.00     0.004 A 
ATOM      4  C5  UNL d   1      -0.742  -1.753  -0.487  0.00  0.00    -0.004 A 
ATOM      5  C6  UNL d   1      -0.121  -0.887  -1.392  0.00  0.00    -0.075 A 
ATOM      6  C7  UNL d   1       0.216  -1.336  -2.783  0.00  0.00     0.076 C 
ATOM      7  C8  UNL d   1       0.179   0.422  -0.988  0.00  0.00     0.001 A 
ENDROOT
BRANCH   1   8
ATOM      8  C1  UNL d   1       0.200   2.275   0.727  0.00  0.00     0.053 C 
ATOM      9  C   UNL d   1       1.497   2.765   0.101  0.00  0.00     0.018 C 
ENDBRANCH   1   8
TORSDOF 1
ENDMDL
