MODEL 1
REMARK minimizedAffinity -4.56873989
REMARK minimizedRMSD -1
REMARK  1 active torsions:
REMARK  status: ('A' for Active; 'I' for Inactive)
REMARK    1  A    between atoms: C1_2  and  C2_3 
ROOT
ATOM      1  C2  UNL d   1      -0.104   0.340   0.140  0.00  0.00    -0.073 A 
ATOM      2  C3  UNL d   1       0.010  -0.875  -0.544  0.00  0.00    -0.002 A 
ATOM      3  C4  UNL d   1      -0.381  -2.068   0.066  0.00  0.00     0.004 A 
ATOM      4  C5  UNL d   1      -0.897  -2.057   1.362  0.00  0.00    -0.004 A 
ATOM      5  C6  UNL d   1      -1.030  -0.851   2.058  0.00  0.00    -0.075 A 
ATOM      6  C7  UNL d   1      -1.581  -0.823   3.453  0.00  0.00     0.076 C 
ATOM      7  C8  UNL d   1      -0.632   0.342   1.439  0.00  0.00     0.001 A 
ENDROOT
BRANCH   1   8
ATOM      8  C1  UNL d   1       0.311   1.631  -0.517  0.00  0.00     0.053 C 
ATOM      9  C   UNL d   1       0.989   2.576   0.462  0.00  0.00     0.018 C 
ENDBRANCH   1   8
TORSDOF 1
ENDMDL
