MODEL 1
REMARK minimizedAffinity -3.41491485
REMARK minimizedRMSD -1
REMARK  1 active torsions:
REMARK  status: ('A' for Active; 'I' for Inactive)
REMARK    1  A    between atoms: C1_2  and  C2_3 
ROOT
ATOM      1  C2  UNL d   1       0.274   1.175   0.302  0.00  0.00    -0.073 A 
ATOM      2  C3  UNL d   1       0.534  -0.087  -0.242  0.00  0.00    -0.002 A 
ATOM      3  C4  UNL d   1      -0.100  -1.220   0.270  0.00  0.00     0.004 A 
ATOM      4  C5  UNL d   1      -1.004  -1.102   1.325  0.00  0.00    -0.004 A 
ATOM      5  C6  UNL d   1      -1.286   0.152   1.875  0.00  0.00    -0.075 A 
ATOM      6  C7  UNL d   1      -2.255   0.296   3.012  0.00  0.00     0.076 C 
ATOM      7  C8  UNL d   1      -0.644   1.285   1.357  0.00  0.00     0.001 A 
ENDROOT
BRANCH   1   8
ATOM      8  C1  UNL d   1       0.951   2.402  -0.252  0.00  0.00     0.053 C 
ATOM      9  C   UNL d   1       2.249   2.714   0.476  0.00  0.00     0.018 C 
ENDBRANCH   1   8
TORSDOF 1
ENDMDL
