MODEL 1
REMARK minimizedAffinity 0.726110876
REMARK minimizedRMSD -1
REMARK  1 active torsions:
REMARK  status: ('A' for Active; 'I' for Inactive)
REMARK    1  A    between atoms: C1_2  and  C2_3 
ROOT
ATOM      1  C2  UNL d   1      -0.823  -1.591  -0.145  0.00  0.00    -0.073 A 
ATOM      2  C3  UNL d   1      -1.051  -0.392   0.540  0.00  0.00    -0.002 A 
ATOM      3  C4  UNL d   1      -0.601   0.818   0.011  0.00  0.00     0.004 A 
ATOM      4  C5  UNL d   1       0.075   0.843  -1.209  0.00  0.00    -0.004 A 
ATOM      5  C6  UNL d   1       0.302  -0.343  -1.914  0.00  0.00    -0.075 A 
ATOM      6  C7  UNL d   1       1.029  -0.333  -3.226  0.00  0.00     0.076 C 
ATOM      7  C8  UNL d   1      -0.151  -1.555  -1.375  0.00  0.00     0.001 A 
ENDROOT
BRANCH   1   8
ATOM      8  C1  UNL d   1      -1.313  -2.900   0.419  0.00  0.00     0.053 C 
ATOM      9  C   UNL d   1      -0.239  -3.976   0.379  0.00  0.00     0.018 C 
ENDBRANCH   1   8
TORSDOF 1
ENDMDL
