MODEL 1
REMARK minimizedAffinity -2.81387663
REMARK minimizedRMSD -1
REMARK  1 active torsions:
REMARK  status: ('A' for Active; 'I' for Inactive)
REMARK    1  A    between atoms: C1_2  and  C2_3 
ROOT
ATOM      1  C2  UNL d   1      -0.677  -1.361   0.056  0.00  0.00    -0.073 A 
ATOM      2  C3  UNL d   1      -0.680  -0.115   0.692  0.00  0.00    -0.002 A 
ATOM      3  C4  UNL d   1      -0.192   1.014   0.033  0.00  0.00     0.004 A 
ATOM      4  C5  UNL d   1       0.298   0.910  -1.269  0.00  0.00    -0.004 A 
ATOM      5  C6  UNL d   1       0.299  -0.325  -1.926  0.00  0.00    -0.075 A 
ATOM      6  C7  UNL d   1       0.824  -0.454  -3.325  0.00  0.00     0.076 C 
ATOM      7  C8  UNL d   1      -0.191  -1.454  -1.256  0.00  0.00     0.001 A 
ENDROOT
BRANCH   1   8
ATOM      8  C1  UNL d   1      -1.209  -2.582   0.761  0.00  0.00     0.053 C 
ATOM      9  C   UNL d   1      -0.312  -3.793   0.561  0.00  0.00     0.018 C 
ENDBRANCH   1   8
TORSDOF 1
ENDMDL
