MODEL 1
REMARK minimizedAffinity -1.07711041
REMARK minimizedRMSD -1
REMARK  1 active torsions:
REMARK  status: ('A' for Active; 'I' for Inactive)
REMARK    1  A    between atoms: C1_2  and  C2_3 
ROOT
ATOM      1  C2  UNL d   1       0.028   1.109  -0.247  0.00  0.00    -0.073 A 
ATOM      2  C3  UNL d   1       0.336   0.586  -1.508  0.00  0.00    -0.002 A 
ATOM      3  C4  UNL d   1       0.142  -0.770  -1.775  0.00  0.00     0.004 A 
ATOM      4  C5  UNL d   1      -0.367  -1.614  -0.788  0.00  0.00    -0.004 A 
ATOM      5  C6  UNL d   1      -0.692  -1.107   0.475  0.00  0.00    -0.075 A 
ATOM      6  C7  UNL d   1      -1.239  -2.002   1.548  0.00  0.00     0.076 C 
ATOM      7  C8  UNL d   1      -0.492   0.255   0.736  0.00  0.00     0.001 A 
ENDROOT
BRANCH   1   8
ATOM      8  C1  UNL d   1       0.230   2.574   0.044  0.00  0.00     0.053 C 
ATOM      9  C   UNL d   1       1.703   2.940   0.134  0.00  0.00     0.018 C 
ENDBRANCH   1   8
TORSDOF 1
ENDMDL
