MODEL 1
REMARK minimizedAffinity -2.69261003
REMARK minimizedRMSD -1
REMARK  1 active torsions:
REMARK  status: ('A' for Active; 'I' for Inactive)
REMARK    1  A    between atoms: C1_2  and  C2_3 
ROOT
ATOM      1  C2  UNL d   1      -0.431  -1.103  -0.167  0.00  0.00    -0.073 A 
ATOM      2  C3  UNL d   1      -0.027  -1.379  -1.479  0.00  0.00    -0.002 A 
ATOM      3  C4  UNL d   1       0.406  -0.349  -2.315  0.00  0.00     0.004 A 
ATOM      4  C5  UNL d   1       0.447   0.964  -1.847  0.00  0.00    -0.004 A 
ATOM      5  C6  UNL d   1       0.059   1.259  -0.536  0.00  0.00    -0.075 A 
ATOM      6  C7  UNL d   1       0.095   2.667  -0.019  0.00  0.00     0.076 C 
ATOM      7  C8  UNL d   1      -0.378   0.219   0.296  0.00  0.00     0.001 A 
ENDROOT
BRANCH   1   8
ATOM      8  C1  UNL d   1      -0.893  -2.213   0.741  0.00  0.00     0.053 C 
ATOM      9  C   UNL d   1      -1.151  -3.503  -0.021  0.00  0.00     0.018 C 
ENDBRANCH   1   8
TORSDOF 1
ENDMDL
