MODEL 1
REMARK minimizedAffinity 2.24550247
REMARK minimizedRMSD -1
REMARK  1 active torsions:
REMARK  status: ('A' for Active; 'I' for Inactive)
REMARK    1  A    between atoms: C1_2  and  C2_3 
ROOT
ATOM      1  C2  UNL d   1      -0.136   1.055  -0.386  0.00  0.00    -0.073 A 
ATOM      2  C3  UNL d   1       0.228   1.241  -1.725  0.00  0.00    -0.002 A 
ATOM      3  C4  UNL d   1       0.467   0.141  -2.550  0.00  0.00     0.004 A 
ATOM      4  C5  UNL d   1       0.338  -1.154  -2.048  0.00  0.00    -0.004 A 
ATOM      5  C6  UNL d   1      -0.036  -1.361  -0.716  0.00  0.00    -0.075 A 
ATOM      6  C7  UNL d   1      -0.177  -2.747  -0.160  0.00  0.00     0.076 C 
ATOM      7  C8  UNL d   1      -0.272  -0.251   0.107  0.00  0.00     0.001 A 
ENDROOT
BRANCH   1   8
ATOM      8  C1  UNL d   1      -0.401   2.239   0.507  0.00  0.00     0.053 C 
ATOM      9  C   UNL d   1       0.513   3.411   0.186  0.00  0.00     0.018 C 
ENDBRANCH   1   8
TORSDOF 1
ENDMDL
