MODEL 1
REMARK minimizedAffinity 3.47401571
REMARK minimizedRMSD -1
REMARK  1 active torsions:
REMARK  status: ('A' for Active; 'I' for Inactive)
REMARK    1  A    between atoms: C1_2  and  C2_3 
ROOT
ATOM      1  C2  UNL d   1      -1.303   0.354   2.145  0.00  0.00    -0.077 A 
ATOM      2  C3  UNL d   1      -2.130   1.485   2.096  0.00  0.00     0.002 A 
ATOM      3  C4  UNL d   1      -1.638   2.699   1.613  0.00  0.00     0.002 A 
ATOM      4  C5  UNL d   1      -0.320   2.792   1.171  0.00  0.00    -0.004 A 
ATOM      5  C6  UNL d   1       0.511   1.673   1.217  0.00  0.00     0.002 A 
ATOM      6  C7  UNL d   1       0.021   0.459   1.701  0.00  0.00     0.002 A 
ENDROOT
BRANCH   1   7
ATOM      7  C1  UNL d   1      -1.846  -0.969   2.620  0.00  0.00     0.055 C 
ATOM      8  C   UNL d   1      -0.765  -2.039   2.632  0.00  0.00     0.019 C 
ENDBRANCH   1   7
TORSDOF 1
ENDMDL
