MODEL 1
REMARK minimizedAffinity -0.138352022
REMARK minimizedRMSD -1
REMARK  1 active torsions:
REMARK  status: ('A' for Active; 'I' for Inactive)
REMARK    1  A    between atoms: C1_2  and  C2_3 
ROOT
ATOM      1  C2  UNL d   1      -1.038   0.030   1.917  0.00  0.00    -0.077 A 
ATOM      2  C3  UNL d   1      -1.933   1.080   2.166  0.00  0.00     0.002 A 
ATOM      3  C4  UNL d   1      -1.534   2.406   1.984  0.00  0.00     0.002 A 
ATOM      4  C5  UNL d   1      -0.242   2.694   1.550  0.00  0.00    -0.004 A 
ATOM      5  C6  UNL d   1       0.657   1.656   1.303  0.00  0.00     0.002 A 
ATOM      6  C7  UNL d   1       0.260   0.331   1.485  0.00  0.00     0.002 A 
ENDROOT
BRANCH   1   7
ATOM      7  C1  UNL d   1      -1.481  -1.402   2.065  0.00  0.00     0.055 C 
ATOM      8  C   UNL d   1      -1.412  -1.856   3.516  0.00  0.00     0.019 C 
ENDBRANCH   1   7
TORSDOF 1
ENDMDL
