MODEL 1
REMARK minimizedAffinity 6.09949303
REMARK minimizedRMSD -1
REMARK  1 active torsions:
REMARK  status: ('A' for Active; 'I' for Inactive)
REMARK    1  A    between atoms: C1_2  and  C2_3 
ROOT
ATOM      1  C2  UNL d   1      -0.706   0.021   2.164  0.00  0.00    -0.077 A 
ATOM      2  C3  UNL d   1      -1.150   1.350   2.220  0.00  0.00     0.002 A 
ATOM      3  C4  UNL d   1      -0.399   2.371   1.634  0.00  0.00     0.002 A 
ATOM      4  C5  UNL d   1       0.798   2.074   0.985  0.00  0.00    -0.004 A 
ATOM      5  C6  UNL d   1       1.249   0.756   0.926  0.00  0.00     0.002 A 
ATOM      6  C7  UNL d   1       0.500  -0.266   1.511  0.00  0.00     0.002 A 
ENDROOT
BRANCH   1   7
ATOM      7  C1  UNL d   1      -1.538  -1.088   2.752  0.00  0.00     0.055 C 
ATOM      8  C   UNL d   1      -0.828  -2.429   2.647  0.00  0.00     0.019 C 
ENDBRANCH   1   7
TORSDOF 1
ENDMDL
