MODEL 1
REMARK minimizedAffinity -0.734328151
REMARK minimizedRMSD -1
REMARK  1 active torsions:
REMARK  status: ('A' for Active; 'I' for Inactive)
REMARK    1  A    between atoms: C1_2  and  C2_3 
ROOT
ATOM      1  C2  UNL d   1       0.875   1.306   0.745  0.00  0.00    -0.077 A 
ATOM      2  C3  UNL d   1       1.003   0.022   1.293  0.00  0.00     0.002 A 
ATOM      3  C4  UNL d   1      -0.132  -0.725   1.615  0.00  0.00     0.002 A 
ATOM      4  C5  UNL d   1      -1.402  -0.197   1.391  0.00  0.00    -0.004 A 
ATOM      5  C6  UNL d   1      -1.540   1.080   0.849  0.00  0.00     0.002 A 
ATOM      6  C7  UNL d   1      -0.406   1.828   0.527  0.00  0.00     0.002 A 
ENDROOT
BRANCH   1   7
ATOM      7  C1  UNL d   1       2.097   2.093   0.351  0.00  0.00     0.055 C 
ATOM      8  C   UNL d   1       1.920   3.575   0.645  0.00  0.00     0.019 C 
ENDBRANCH   1   7
TORSDOF 1
ENDMDL
