MODEL 1
REMARK minimizedAffinity 5.75906849
REMARK minimizedRMSD -1
REMARK  1 active torsions:
REMARK  status: ('A' for Active; 'I' for Inactive)
REMARK    1  A    between atoms: C1_2  and  C2_3 
ROOT
ATOM      1  C2  UNL d   1      -0.228   1.828   0.788  0.00  0.00    -0.077 A 
ATOM      2  C3  UNL d   1      -0.817   3.030   0.369  0.00  0.00     0.002 A 
ATOM      3  C4  UNL d   1      -2.115   3.357   0.768  0.00  0.00     0.002 A 
ATOM      4  C5  UNL d   1      -2.832   2.491   1.590  0.00  0.00    -0.004 A 
ATOM      5  C6  UNL d   1      -2.255   1.293   2.011  0.00  0.00     0.002 A 
ATOM      6  C7  UNL d   1      -0.959   0.964   1.612  0.00  0.00     0.002 A 
ENDROOT
BRANCH   1   7
ATOM      7  C1  UNL d   1       1.189   1.497   0.399  0.00  0.00     0.055 C 
ATOM      8  C   UNL d   1       1.795   0.467   1.341  0.00  0.00     0.019 C 
ENDBRANCH   1   7
TORSDOF 1
ENDMDL
