MODEL 1
REMARK minimizedAffinity 4.37003326
REMARK minimizedRMSD -1
REMARK  1 active torsions:
REMARK  status: ('A' for Active; 'I' for Inactive)
REMARK    1  A    between atoms: C1_2  and  C2_3 
ROOT
ATOM      1  C2  UNL d   1      -1.428   0.227   2.134  0.00  0.00    -0.077 A 
ATOM      2  C3  UNL d   1      -2.360   1.274   2.161  0.00  0.00     0.002 A 
ATOM      3  C4  UNL d   1      -1.972   2.573   1.824  0.00  0.00     0.002 A 
ATOM      4  C5  UNL d   1      -0.654   2.835   1.455  0.00  0.00    -0.004 A 
ATOM      5  C6  UNL d   1       0.280   1.800   1.427  0.00  0.00     0.002 A 
ATOM      6  C7  UNL d   1      -0.106   0.502   1.764  0.00  0.00     0.002 A 
ENDROOT
BRANCH   1   7
ATOM      7  C1  UNL d   1      -1.856  -1.183   2.449  0.00  0.00     0.055 C 
ATOM      8  C   UNL d   1      -0.799  -1.913   3.264  0.00  0.00     0.019 C 
ENDBRANCH   1   7
TORSDOF 1
ENDMDL
