MODEL 1
REMARK minimizedAffinity 5.81799412
REMARK minimizedRMSD -1
REMARK  1 active torsions:
REMARK  status: ('A' for Active; 'I' for Inactive)
REMARK    1  A    between atoms: C1_2  and  C2_3 
ROOT
ATOM      1  C2  UNL d   1       0.593   0.784   1.754  0.00  0.00    -0.077 A 
ATOM      2  C3  UNL d   1      -0.729   0.858   2.215  0.00  0.00     0.002 A 
ATOM      3  C4  UNL d   1      -1.469   2.030   2.054  0.00  0.00     0.002 A 
ATOM      4  C5  UNL d   1      -0.898   3.136   1.428  0.00  0.00    -0.004 A 
ATOM      5  C6  UNL d   1       0.417   3.074   0.968  0.00  0.00     0.002 A 
ATOM      6  C7  UNL d   1       1.158   1.903   1.129  0.00  0.00     0.002 A 
ENDROOT
BRANCH   1   7
ATOM      7  C1  UNL d   1       1.376  -0.496   1.883  0.00  0.00     0.055 C 
ATOM      8  C   UNL d   1       2.529  -0.542   0.891  0.00  0.00     0.019 C 
ENDBRANCH   1   7
TORSDOF 1
ENDMDL
