MODEL 1
REMARK minimizedAffinity 6.97325611
REMARK minimizedRMSD -1
REMARK  1 active torsions:
REMARK  status: ('A' for Active; 'I' for Inactive)
REMARK    1  A    between atoms: C1_2  and  C2_3 
ROOT
ATOM      1  C2  UNL d   1      -2.379  -2.557  -0.151  0.00  0.00    -0.077 A 
ATOM      2  C3  UNL d   1      -1.490  -3.630  -0.302  0.00  0.00     0.002 A 
ATOM      3  C4  UNL d   1      -0.589  -3.949   0.715  0.00  0.00     0.002 A 
ATOM      4  C5  UNL d   1      -0.571  -3.203   1.892  0.00  0.00    -0.004 A 
ATOM      5  C6  UNL d   1      -1.449  -2.132   2.050  0.00  0.00     0.002 A 
ATOM      6  C7  UNL d   1      -2.350  -1.811   1.034  0.00  0.00     0.002 A 
ENDROOT
BRANCH   1   7
ATOM      7  C1  UNL d   1      -3.385  -2.242  -1.227  0.00  0.00     0.055 C 
ATOM      8  C   UNL d   1      -2.797  -1.315  -2.281  0.00  0.00     0.019 C 
ENDBRANCH   1   7
TORSDOF 1
ENDMDL
