MODEL 1
REMARK minimizedAffinity -1.57609904
REMARK minimizedRMSD -1
REMARK  1 active torsions:
REMARK  status: ('A' for Active; 'I' for Inactive)
REMARK    1  A    between atoms: C1_2  and  C2_3 
ROOT
ATOM      1  C2  UNL d   1       0.469  -0.201   2.646  0.00  0.00    -0.077 A 
ATOM      2  C3  UNL d   1      -0.812  -0.555   2.202  0.00  0.00     0.002 A 
ATOM      3  C4  UNL d   1      -1.708  -1.191   3.063  0.00  0.00     0.002 A 
ATOM      4  C5  UNL d   1      -1.334  -1.474   4.375  0.00  0.00    -0.004 A 
ATOM      5  C6  UNL d   1      -0.061  -1.128   4.826  0.00  0.00     0.002 A 
ATOM      6  C7  UNL d   1       0.836  -0.493   3.966  0.00  0.00     0.002 A 
ENDROOT
BRANCH   1   7
ATOM      7  C1  UNL d   1       1.420   0.529   1.733  0.00  0.00     0.055 C 
ATOM      8  C   UNL d   1       0.786   1.793   1.171  0.00  0.00     0.019 C 
ENDBRANCH   1   7
TORSDOF 1
ENDMDL
