MODEL 1
REMARK minimizedAffinity -3.83936048
REMARK minimizedRMSD -1
REMARK  1 active torsions:
REMARK  status: ('A' for Active; 'I' for Inactive)
REMARK    1  A    between atoms: C1_2  and  C2_3 
ROOT
ATOM      1  C2  UNL d   1      -5.409   3.978   4.652  0.00  0.00    -0.081 A 
ATOM      2  C3  UNL d   1      -4.716   3.356   3.606  0.00  0.00     0.006 A 
ATOM      3  C4  UNL d   1      -4.560   4.001   2.377  0.00  0.00     0.002 A 
ATOM      4  C5  UNL d   1      -5.086   5.282   2.176  0.00  0.00    -0.080 A 
ATOM      5  C6  UNL d   1      -4.899   5.998   0.871  0.00  0.00     0.076 C 
ATOM      6  C7  UNL d   1      -5.793   5.896   3.215  0.00  0.00     0.002 A 
ATOM      7  C8  UNL d   1      -5.950   5.251   4.443  0.00  0.00     0.006 A 
ENDROOT
BRANCH   1   8
ATOM      8  C1  UNL d   1      -5.523   3.312   5.999  0.00  0.00     0.054 C 
ATOM      9  C   UNL d   1      -5.998   1.872   5.865  0.00  0.00     0.018 C 
ENDBRANCH   1   8
TORSDOF 1
ENDMDL
