MODEL 1
REMARK minimizedAffinity -3.22508335
REMARK minimizedRMSD -1
REMARK  1 active torsions:
REMARK  status: ('A' for Active; 'I' for Inactive)
REMARK    1  A    between atoms: C1_2  and  C2_3 
ROOT
ATOM      1  C2  UNL d   1      -5.023   4.153   4.624  0.00  0.00    -0.081 A 
ATOM      2  C3  UNL d   1      -5.977   5.134   4.327  0.00  0.00     0.006 A 
ATOM      3  C4  UNL d   1      -6.000   5.742   3.069  0.00  0.00     0.002 A 
ATOM      4  C5  UNL d   1      -5.075   5.374   2.086  0.00  0.00    -0.080 A 
ATOM      5  C6  UNL d   1      -5.108   5.998   0.722  0.00  0.00     0.076 C 
ATOM      6  C7  UNL d   1      -4.111   4.407   2.388  0.00  0.00     0.002 A 
ATOM      7  C8  UNL d   1      -4.087   3.799   3.646  0.00  0.00     0.006 A 
ENDROOT
BRANCH   1   8
ATOM      8  C1  UNL d   1      -5.037   3.449   5.956  0.00  0.00     0.054 C 
ATOM      9  C   UNL d   1      -5.949   2.231   5.929  0.00  0.00     0.018 C 
ENDBRANCH   1   8
TORSDOF 1
ENDMDL
