MODEL 1
REMARK minimizedAffinity -3.16609693
REMARK minimizedRMSD -1
REMARK  1 active torsions:
REMARK  status: ('A' for Active; 'I' for Inactive)
REMARK    1  A    between atoms: C1_2  and  C2_3 
ROOT
ATOM      1  C2  UNL d   1      -5.475   4.934   2.888  0.00  0.00    -0.081 A 
ATOM      2  C3  UNL d   1      -5.903   5.269   4.178  0.00  0.00     0.006 A 
ATOM      3  C4  UNL d   1      -6.000   4.289   5.169  0.00  0.00     0.002 A 
ATOM      4  C5  UNL d   1      -5.665   2.960   4.888  0.00  0.00    -0.080 A 
ATOM      5  C6  UNL d   1      -5.736   1.904   5.950  0.00  0.00     0.076 C 
ATOM      6  C7  UNL d   1      -5.254   2.622   3.594  0.00  0.00     0.002 A 
ATOM      7  C8  UNL d   1      -5.158   3.602   2.603  0.00  0.00     0.006 A 
ENDROOT
BRANCH   1   8
ATOM      8  C1  UNL d   1      -5.307   6.000   1.835  0.00  0.00     0.054 C 
ATOM      9  C   UNL d   1      -5.976   5.597   0.528  0.00  0.00     0.018 C 
ENDBRANCH   1   8
TORSDOF 1
ENDMDL
