MODEL 1
REMARK minimizedAffinity -1.48213673
REMARK minimizedRMSD -1
REMARK  1 active torsions:
REMARK  status: ('A' for Active; 'I' for Inactive)
REMARK    1  A    between atoms: C1_2  and  C2_3 
ROOT
ATOM      1  C2  UNL d   1      -4.385   3.040   3.304  0.00  0.00    -0.081 A 
ATOM      2  C3  UNL d   1      -4.442   4.386   2.923  0.00  0.00     0.006 A 
ATOM      3  C4  UNL d   1      -4.975   5.345   3.788  0.00  0.00     0.002 A 
ATOM      4  C5  UNL d   1      -5.451   4.976   5.050  0.00  0.00    -0.080 A 
ATOM      5  C6  UNL d   1      -5.998   6.000   6.000  0.00  0.00     0.076 C 
ATOM      6  C7  UNL d   1      -5.410   3.628   5.424  0.00  0.00     0.002 A 
ATOM      7  C8  UNL d   1      -4.878   2.669   4.560  0.00  0.00     0.006 A 
ENDROOT
BRANCH   1   8
ATOM      8  C1  UNL d   1      -3.751   2.014   2.400  0.00  0.00     0.054 C 
ATOM      9  C   UNL d   1      -2.971   0.979   3.198  0.00  0.00     0.018 C 
ENDBRANCH   1   8
TORSDOF 1
ENDMDL
