MODEL 1
REMARK minimizedAffinity -3.02130795
REMARK minimizedRMSD -1
REMARK  1 active torsions:
REMARK  status: ('A' for Active; 'I' for Inactive)
REMARK    1  A    between atoms: C1_2  and  C2_3 
ROOT
ATOM      1  C2  UNL d   1      -5.192   4.981   4.238  0.00  0.00    -0.081 A 
ATOM      2  C3  UNL d   1      -5.990   5.826   3.457  0.00  0.00     0.006 A 
ATOM      3  C4  UNL d   1      -5.761   5.947   2.084  0.00  0.00     0.002 A 
ATOM      4  C5  UNL d   1      -4.736   5.220   1.469  0.00  0.00    -0.080 A 
ATOM      5  C6  UNL d   1      -4.499   5.318  -0.009  0.00  0.00     0.076 C 
ATOM      6  C7  UNL d   1      -3.927   4.389   2.252  0.00  0.00     0.002 A 
ATOM      7  C8  UNL d   1      -4.156   4.268   3.624  0.00  0.00     0.006 A 
ENDROOT
BRANCH   1   8
ATOM      8  C1  UNL d   1      -5.477   4.799   5.706  0.00  0.00     0.054 C 
ATOM      9  C   UNL d   1      -5.995   3.398   6.000  0.00  0.00     0.018 C 
ENDBRANCH   1   8
TORSDOF 1
ENDMDL
