MODEL 1
REMARK minimizedAffinity -2.97684932
REMARK minimizedRMSD -1
REMARK  1 active torsions:
REMARK  status: ('A' for Active; 'I' for Inactive)
REMARK    1  A    between atoms: C1_2  and  C2_3 
ROOT
ATOM      1  C2  UNL d   1      -4.935   5.161   2.365  0.00  0.00    -0.081 A 
ATOM      2  C3  UNL d   1      -5.594   5.656   3.497  0.00  0.00     0.006 A 
ATOM      3  C4  UNL d   1      -5.648   4.902   4.671  0.00  0.00     0.002 A 
ATOM      4  C5  UNL d   1      -5.039   3.644   4.736  0.00  0.00    -0.080 A 
ATOM      5  C6  UNL d   1      -5.064   2.837   6.000  0.00  0.00     0.076 C 
ATOM      6  C7  UNL d   1      -4.395   3.142   3.600  0.00  0.00     0.002 A 
ATOM      7  C8  UNL d   1      -4.341   3.896   2.425  0.00  0.00     0.006 A 
ENDROOT
BRANCH   1   8
ATOM      8  C1  UNL d   1      -4.819   6.000   1.118  0.00  0.00     0.054 C 
ATOM      9  C   UNL d   1      -5.996   5.766   0.182  0.00  0.00     0.018 C 
ENDBRANCH   1   8
TORSDOF 1
ENDMDL
