MODEL 1
REMARK minimizedAffinity -2.84523058
REMARK minimizedRMSD -1
REMARK  1 active torsions:
REMARK  status: ('A' for Active; 'I' for Inactive)
REMARK    1  A    between atoms: C1_2  and  C2_3 
ROOT
ATOM      1  C2  UNL d   1      -5.579   5.402   2.212  0.00  0.00    -0.081 A 
ATOM      2  C3  UNL d   1      -4.839   4.214   2.253  0.00  0.00     0.006 A 
ATOM      3  C4  UNL d   1      -4.506   3.629   3.478  0.00  0.00     0.002 A 
ATOM      4  C5  UNL d   1      -4.912   4.218   4.680  0.00  0.00    -0.080 A 
ATOM      5  C6  UNL d   1      -4.587   3.585   6.000  0.00  0.00     0.076 C 
ATOM      6  C7  UNL d   1      -5.636   5.415   4.639  0.00  0.00     0.002 A 
ATOM      7  C8  UNL d   1      -5.970   6.000   3.415  0.00  0.00     0.006 A 
ENDROOT
BRANCH   1   8
ATOM      8  C1  UNL d   1      -5.995   6.000   0.893  0.00  0.00     0.054 C 
ATOM      9  C   UNL d   1      -5.093   5.528  -0.238  0.00  0.00     0.018 C 
ENDBRANCH   1   8
TORSDOF 1
ENDMDL
