MODEL 1
REMARK minimizedAffinity -2.88426161
REMARK minimizedRMSD -1
REMARK  1 active torsions:
REMARK  status: ('A' for Active; 'I' for Inactive)
REMARK    1  A    between atoms: C1_2  and  C2_3 
ROOT
ATOM      1  C2  UNL d   1      -5.231   4.272   4.598  0.00  0.00    -0.081 A 
ATOM      2  C3  UNL d   1      -4.325   5.314   4.364  0.00  0.00     0.006 A 
ATOM      3  C4  UNL d   1      -4.191   5.864   3.087  0.00  0.00     0.002 A 
ATOM      4  C5  UNL d   1      -4.966   5.387   2.025  0.00  0.00    -0.080 A 
ATOM      5  C6  UNL d   1      -4.854   5.989   0.656  0.00  0.00     0.076 C 
ATOM      6  C7  UNL d   1      -5.859   4.335   2.254  0.00  0.00     0.002 A 
ATOM      7  C8  UNL d   1      -5.993   3.784   3.530  0.00  0.00     0.006 A 
ENDROOT
BRANCH   1   8
ATOM      8  C1  UNL d   1      -5.425   3.721   5.987  0.00  0.00     0.054 C 
ATOM      9  C   UNL d   1      -5.994   2.310   5.948  0.00  0.00     0.018 C 
ENDBRANCH   1   8
TORSDOF 1
ENDMDL
