MODEL 1
REMARK minimizedAffinity -4.28952789
REMARK minimizedRMSD -1
REMARK  1 active torsions:
REMARK  status: ('A' for Active; 'I' for Inactive)
REMARK    1  A    between atoms: C1_2  and  C2_3 
ROOT
ATOM      1  C2  UNL d   1      -5.479   3.622   4.482  0.00  0.00    -0.081 A 
ATOM      2  C3  UNL d   1      -5.999   4.920   4.406  0.00  0.00     0.006 A 
ATOM      3  C4  UNL d   1      -5.800   5.697   3.262  0.00  0.00     0.002 A 
ATOM      4  C5  UNL d   1      -5.085   5.187   2.173  0.00  0.00    -0.080 A 
ATOM      5  C6  UNL d   1      -4.889   6.000   0.928  0.00  0.00     0.076 C 
ATOM      6  C7  UNL d   1      -4.551   3.897   2.256  0.00  0.00     0.002 A 
ATOM      7  C8  UNL d   1      -4.749   3.120   3.399  0.00  0.00     0.006 A 
ENDROOT
BRANCH   1   8
ATOM      8  C1  UNL d   1      -5.748   2.759   5.688  0.00  0.00     0.054 C 
ATOM      9  C   UNL d   1      -4.560   1.860   6.000  0.00  0.00     0.018 C 
ENDBRANCH   1   8
TORSDOF 1
ENDMDL
