MODEL 1
REMARK minimizedAffinity -2.99546051
REMARK minimizedRMSD -1
REMARK  1 active torsions:
REMARK  status: ('A' for Active; 'I' for Inactive)
REMARK    1  A    between atoms: C1_2  and  C2_3 
ROOT
ATOM      1  C2  UNL d   1      -5.371   3.117   4.749  0.00  0.00    -0.081 A 
ATOM      2  C3  UNL d   1      -4.792   2.669   3.555  0.00  0.00     0.006 A 
ATOM      3  C4  UNL d   1      -4.813   3.472   2.412  0.00  0.00     0.002 A 
ATOM      4  C5  UNL d   1      -5.406   4.739   2.446  0.00  0.00    -0.080 A 
ATOM      5  C6  UNL d   1      -5.409   5.624   1.235  0.00  0.00     0.076 C 
ATOM      6  C7  UNL d   1      -6.000   5.180   3.634  0.00  0.00     0.002 A 
ATOM      7  C8  UNL d   1      -5.980   4.377   4.776  0.00  0.00     0.006 A 
ENDROOT
BRANCH   1   8
ATOM      8  C1  UNL d   1      -5.293   2.280   6.000  0.00  0.00     0.054 C 
ATOM      9  C   UNL d   1      -5.999   0.945   5.817  0.00  0.00     0.018 C 
ENDBRANCH   1   8
TORSDOF 1
ENDMDL
