MODEL 1
REMARK minimizedAffinity -1.94043005
REMARK minimizedRMSD -1
REMARK  1 active torsions:
REMARK  status: ('A' for Active; 'I' for Inactive)
REMARK    1  A    between atoms: C1_2  and  C2_3 
ROOT
ATOM      1  C2  UNL d   1      -5.106   3.810   4.717  0.00  0.00    -0.081 A 
ATOM      2  C3  UNL d   1      -5.999   3.477   3.691  0.00  0.00     0.006 A 
ATOM      3  C4  UNL d   1      -5.977   4.173   2.480  0.00  0.00     0.002 A 
ATOM      4  C5  UNL d   1      -5.057   5.206   2.271  0.00  0.00    -0.080 A 
ATOM      5  C6  UNL d   1      -5.003   5.941   0.965  0.00  0.00     0.076 C 
ATOM      6  C7  UNL d   1      -4.177   5.550   3.302  0.00  0.00     0.002 A 
ATOM      7  C8  UNL d   1      -4.198   4.856   4.514  0.00  0.00     0.006 A 
ENDROOT
BRANCH   1   8
ATOM      8  C1  UNL d   1      -5.083   3.019   6.000  0.00  0.00     0.054 C 
ATOM      9  C   UNL d   1      -5.999   1.806   5.919  0.00  0.00     0.018 C 
ENDBRANCH   1   8
TORSDOF 1
ENDMDL
