MODEL 1
REMARK minimizedAffinity -3.20010066
REMARK minimizedRMSD -1
REMARK  1 active torsions:
REMARK  status: ('A' for Active; 'I' for Inactive)
REMARK    1  A    between atoms: C1_2  and  C2_3 
ROOT
ATOM      1  C2  UNL d   1      -4.975   3.672   4.764  0.00  0.00    -0.081 A 
ATOM      2  C3  UNL d   1      -5.884   4.734   4.682  0.00  0.00     0.006 A 
ATOM      3  C4  UNL d   1      -5.984   5.492   3.514  0.00  0.00     0.002 A 
ATOM      4  C5  UNL d   1      -5.184   5.197   2.405  0.00  0.00    -0.080 A 
ATOM      5  C6  UNL d   1      -5.303   5.984   1.134  0.00  0.00     0.076 C 
ATOM      6  C7  UNL d   1      -4.263   4.146   2.492  0.00  0.00     0.002 A 
ATOM      7  C8  UNL d   1      -4.162   3.388   3.661  0.00  0.00     0.006 A 
ENDROOT
BRANCH   1   8
ATOM      8  C1  UNL d   1      -4.911   2.811   6.000  0.00  0.00     0.054 C 
ATOM      9  C   UNL d   1      -5.983   1.731   5.979  0.00  0.00     0.018 C 
ENDBRANCH   1   8
TORSDOF 1
ENDMDL
