MODEL 1
REMARK minimizedAffinity -3.21904016
REMARK minimizedRMSD -1
REMARK  1 active torsions:
REMARK  status: ('A' for Active; 'I' for Inactive)
REMARK    1  A    between atoms: C1_2  and  C2_3 
ROOT
ATOM      1  C2  UNL d   1      -4.773   4.584   3.427  0.00  0.00    -0.081 A 
ATOM      2  C3  UNL d   1      -4.371   4.556   4.768  0.00  0.00     0.006 A 
ATOM      3  C4  UNL d   1      -4.777   3.515   5.607  0.00  0.00     0.002 A 
ATOM      4  C5  UNL d   1      -5.582   2.481   5.118  0.00  0.00    -0.080 A 
ATOM      5  C6  UNL d   1      -5.999   1.342   6.000  0.00  0.00     0.076 C 
ATOM      6  C7  UNL d   1      -5.997   2.518   3.782  0.00  0.00     0.002 A 
ATOM      7  C8  UNL d   1      -5.593   3.559   2.943  0.00  0.00     0.006 A 
ENDROOT
BRANCH   1   8
ATOM      8  C1  UNL d   1      -4.285   5.670   2.504  0.00  0.00     0.054 C 
ATOM      9  C   UNL d   1      -4.872   5.515   1.108  0.00  0.00     0.018 C 
ENDBRANCH   1   8
TORSDOF 1
ENDMDL
