MODEL 1
REMARK minimizedAffinity -2.96491528
REMARK minimizedRMSD -1
REMARK  1 active torsions:
REMARK  status: ('A' for Active; 'I' for Inactive)
REMARK    1  A    between atoms: C1_2  and  C2_3 
ROOT
ATOM      1  C2  UNL d   1      -5.360   3.938   4.681  0.00  0.00    -0.081 A 
ATOM      2  C3  UNL d   1      -4.708   5.177   4.633  0.00  0.00     0.006 A 
ATOM      3  C4  UNL d   1      -4.538   5.841   3.416  0.00  0.00     0.002 A 
ATOM      4  C5  UNL d   1      -5.022   5.282   2.229  0.00  0.00    -0.080 A 
ATOM      5  C6  UNL d   1      -4.872   5.999   0.920  0.00  0.00     0.076 C 
ATOM      6  C7  UNL d   1      -5.657   4.037   2.274  0.00  0.00     0.002 A 
ATOM      7  C8  UNL d   1      -5.828   3.372   3.490  0.00  0.00     0.006 A 
ENDROOT
BRANCH   1   8
ATOM      8  C1  UNL d   1      -5.603   3.250   6.000  0.00  0.00     0.054 C 
ATOM      9  C   UNL d   1      -5.999   1.794   5.800  0.00  0.00     0.018 C 
ENDBRANCH   1   8
TORSDOF 1
ENDMDL
