MODEL 1
REMARK minimizedAffinity 4.48269606
REMARK minimizedRMSD -1
REMARK  1 active torsions:
REMARK  status: ('A' for Active; 'I' for Inactive)
REMARK    1  A    between atoms: C1_2  and  C2_3 
ROOT
ATOM      1  C2  UNL d   1      -3.876  -0.476  -4.013  0.00  0.00    -0.076 A 
ATOM      2  C3  UNL d   1      -4.805   0.580  -4.043  0.00  0.00     0.004 A 
ATOM      3  C4  UNL d   1      -4.740   1.564  -5.028  0.00  0.00    -0.003 A 
ATOM      4  C5  UNL d   1      -3.747   1.508  -6.000  0.00  0.00     0.000 A 
ATOM      5  C6  UNL d   1      -2.828   0.459  -5.995  0.00  0.00     0.000 A 
ATOM      6  C7  UNL d   1      -2.889  -0.550  -5.019  0.00  0.00    -0.073 A 
ATOM      7  C8  UNL d   1      -1.869  -1.655  -5.058  0.00  0.00     0.078 C 
ENDROOT
BRANCH   1   8
ATOM      8  C1  UNL d   1      -3.979  -1.499  -2.905  0.00  0.00     0.053 C 
ATOM      9  C   UNL d   1      -3.381  -1.003  -1.597  0.00  0.00     0.018 C 
ENDBRANCH   1   8
TORSDOF 1
ENDMDL
