MODEL 1
REMARK minimizedAffinity 5.2387166
REMARK minimizedRMSD -1
REMARK  1 active torsions:
REMARK  status: ('A' for Active; 'I' for Inactive)
REMARK    1  A    between atoms: C1_2  and  C2_3 
ROOT
ATOM      1  C2  UNL d   1      -3.372   0.709  -3.863  0.00  0.00    -0.076 A 
ATOM      2  C3  UNL d   1      -2.850   1.584  -2.895  0.00  0.00     0.004 A 
ATOM      3  C4  UNL d   1      -3.038   2.962  -2.998  0.00  0.00    -0.003 A 
ATOM      4  C5  UNL d   1      -3.752   3.486  -4.070  0.00  0.00     0.000 A 
ATOM      5  C6  UNL d   1      -4.291   2.630  -5.030  0.00  0.00     0.000 A 
ATOM      6  C7  UNL d   1      -4.125   1.238  -4.933  0.00  0.00    -0.073 A 
ATOM      7  C8  UNL d   1      -4.723   0.363  -6.000  0.00  0.00     0.078 C 
ENDROOT
BRANCH   1   8
ATOM      8  C1  UNL d   1      -3.113  -0.774  -3.713  0.00  0.00     0.053 C 
ATOM      9  C   UNL d   1      -2.245  -1.329  -4.832  0.00  0.00     0.018 C 
ENDBRANCH   1   8
TORSDOF 1
ENDMDL
