MODEL 1
REMARK minimizedAffinity 14.9842529
REMARK minimizedRMSD -1
REMARK  1 active torsions:
REMARK  status: ('A' for Active; 'I' for Inactive)
REMARK    1  A    between atoms: C1_2  and  C2_3 
ROOT
ATOM      1  C2  UNL d   1       2.001  -1.071   0.296  0.00  0.00    -0.076 A 
ATOM      2  C3  UNL d   1       3.109  -1.622  -0.372  0.00  0.00     0.004 A 
ATOM      3  C4  UNL d   1       3.638  -2.853   0.012  0.00  0.00    -0.003 A 
ATOM      4  C5  UNL d   1       3.068  -3.553   1.069  0.00  0.00     0.000 A 
ATOM      5  C6  UNL d   1       1.959  -3.030   1.732  0.00  0.00     0.000 A 
ATOM      6  C7  UNL d   1       1.402  -1.798   1.347  0.00  0.00    -0.073 A 
ATOM      7  C8  UNL d   1       0.209  -1.278   2.100  0.00  0.00     0.078 C 
ENDROOT
BRANCH   1   8
ATOM      8  C1  UNL d   1       1.488   0.281  -0.147  0.00  0.00     0.053 C 
ATOM      9  C   UNL d   1       2.594   1.318  -0.254  0.00  0.00     0.018 C 
ENDBRANCH   1   8
TORSDOF 1
ENDMDL
