MODEL 1
REMARK minimizedAffinity 2.09559393
REMARK minimizedRMSD -1
REMARK  1 active torsions:
REMARK  status: ('A' for Active; 'I' for Inactive)
REMARK    1  A    between atoms: C1_2  and  C2_3 
ROOT
ATOM      1  C2  UNL d   1      -4.116  -0.157  -3.387  0.00  0.00    -0.076 A 
ATOM      2  C3  UNL d   1      -4.438  -1.522  -3.486  0.00  0.00     0.004 A 
ATOM      3  C4  UNL d   1      -4.485  -2.160  -4.724  0.00  0.00    -0.003 A 
ATOM      4  C5  UNL d   1      -4.210  -1.444  -5.884  0.00  0.00     0.000 A 
ATOM      5  C6  UNL d   1      -3.872  -0.094  -5.803  0.00  0.00     0.000 A 
ATOM      6  C7  UNL d   1      -3.804   0.561  -4.561  0.00  0.00    -0.073 A 
ATOM      7  C8  UNL d   1      -3.440   2.020  -4.533  0.00  0.00     0.078 C 
ENDROOT
BRANCH   1   8
ATOM      8  C1  UNL d   1      -4.107   0.487  -2.019  0.00  0.00     0.053 C 
ATOM      9  C   UNL d   1      -2.975  -0.024  -1.141  0.00  0.00     0.018 C 
ENDBRANCH   1   8
TORSDOF 1
ENDMDL
