MODEL 1
REMARK minimizedAffinity 1.04824281
REMARK minimizedRMSD -1
REMARK  1 active torsions:
REMARK  status: ('A' for Active; 'I' for Inactive)
REMARK    1  A    between atoms: C1_2  and  C2_3 
ROOT
ATOM      1  C2  UNL d   1      -2.538   3.941  -5.596  0.00  0.00    -0.076 A 
ATOM      2  C3  UNL d   1      -2.952   5.224  -5.993  0.00  0.00     0.004 A 
ATOM      3  C4  UNL d   1      -4.223   5.699  -5.674  0.00  0.00    -0.003 A 
ATOM      4  C5  UNL d   1      -5.101   4.898  -4.953  0.00  0.00     0.000 A 
ATOM      5  C6  UNL d   1      -4.701   3.628  -4.536  0.00  0.00     0.000 A 
ATOM      6  C7  UNL d   1      -3.417   3.141  -4.835  0.00  0.00    -0.073 A 
ATOM      7  C8  UNL d   1      -3.041   1.762  -4.366  0.00  0.00     0.078 C 
ENDROOT
BRANCH   1   8
ATOM      8  C1  UNL d   1      -1.158   3.469  -5.995  0.00  0.00     0.053 C 
ATOM      9  C   UNL d   1      -0.136   4.596  -6.000  0.00  0.00     0.018 C 
ENDBRANCH   1   8
TORSDOF 1
ENDMDL
