MODEL 1
REMARK minimizedAffinity 1.25649202
REMARK minimizedRMSD -1
REMARK  1 active torsions:
REMARK  status: ('A' for Active; 'I' for Inactive)
REMARK    1  A    between atoms: C1_2  and  C2_3 
ROOT
ATOM      1  C2  UNL d   1      -4.693  -0.840  -4.048  0.00  0.00    -0.076 A 
ATOM      2  C3  UNL d   1      -5.828  -0.011  -4.020  0.00  0.00     0.004 A 
ATOM      3  C4  UNL d   1      -6.000   1.003  -4.961  0.00  0.00    -0.003 A 
ATOM      4  C5  UNL d   1      -5.039   1.204  -5.946  0.00  0.00     0.000 A 
ATOM      5  C6  UNL d   1      -3.916   0.380  -6.000  0.00  0.00     0.000 A 
ATOM      6  C7  UNL d   1      -3.736  -0.657  -5.069  0.00  0.00    -0.073 A 
ATOM      7  C8  UNL d   1      -2.502  -1.512  -5.169  0.00  0.00     0.078 C 
ENDROOT
BRANCH   1   8
ATOM      8  C1  UNL d   1      -4.548  -1.905  -2.985  0.00  0.00     0.053 C 
ATOM      9  C   UNL d   1      -3.782  -1.412  -1.767  0.00  0.00     0.018 C 
ENDBRANCH   1   8
TORSDOF 1
ENDMDL
