MODEL 1
REMARK minimizedAffinity -6.27048111
REMARK minimizedRMSD -1
REMARK  0 active torsions:
REMARK  status: ('A' for Active; 'I' for Inactive)
ROOT
ATOM      1  C   UNL d   1       2.212   2.937   1.329  0.00  0.00     0.020 A 
ATOM      2  C1  UNL d   1       2.909   2.303   0.301  0.00  0.00     0.020 A 
ATOM      3  C2  UNL d   1       2.437   1.097  -0.222  0.00  0.00     0.034 A 
ATOM      4  C3  UNL d   1       1.265   0.522   0.282  0.00  0.00     0.017 A 
ATOM      5  C4  UNL d   1       0.566   1.159   1.313  0.00  0.00     0.017 A 
ATOM      6  C5  UNL d   1       1.043   2.366   1.834  0.00  0.00     0.034 A 
ATOM      7 Cl   UNL d   1      -0.888   0.511   1.986  0.00  0.00    -0.070 Cl
ATOM      8 Cl1  UNL d   1       0.739  -0.971  -0.413  0.00  0.00    -0.070 Cl
ENDROOT
TORSDOF 0
ENDMDL
