MODEL 1
REMARK minimizedAffinity -2.38499236
REMARK minimizedRMSD -1
REMARK  0 active torsions:
REMARK  status: ('A' for Active; 'I' for Inactive)
ROOT
ATOM      1  C   UNL d   1       3.530   1.260   0.308  0.00  0.00     0.020 A 
ATOM      2  C1  UNL d   1       3.179   2.158   1.315  0.00  0.00     0.020 A 
ATOM      3  C2  UNL d   1       1.864   2.203   1.783  0.00  0.00     0.034 A 
ATOM      4  C3  UNL d   1       0.896   1.348   1.244  0.00  0.00     0.017 A 
ATOM      5  C4  UNL d   1       1.250   0.446   0.234  0.00  0.00     0.017 A 
ATOM      6  C5  UNL d   1       2.568   0.406  -0.231  0.00  0.00     0.034 A 
ATOM      7 Cl   UNL d   1       0.110  -0.640  -0.480  0.00  0.00    -0.070 Cl
ATOM      8 Cl1  UNL d   1      -0.711   1.457   1.871  0.00  0.00    -0.070 Cl
ENDROOT
TORSDOF 0
ENDMDL
