MODEL 1
REMARK minimizedAffinity -1.59896886
REMARK minimizedRMSD -1
REMARK  0 active torsions:
REMARK  status: ('A' for Active; 'I' for Inactive)
ROOT
ATOM      1  C   UNL d   1      -1.150  -1.033  -3.127  0.00  0.00     0.020 A 
ATOM      2  C1  UNL d   1      -2.100  -1.533  -2.237  0.00  0.00     0.020 A 
ATOM      3  C2  UNL d   1      -2.019  -1.218  -0.879  0.00  0.00     0.034 A 
ATOM      4  C3  UNL d   1      -0.985  -0.400  -0.407  0.00  0.00     0.017 A 
ATOM      5  C4  UNL d   1      -0.032   0.101  -1.301  0.00  0.00     0.017 A 
ATOM      6  C5  UNL d   1      -0.119  -0.218  -2.660  0.00  0.00     0.034 A 
ATOM      7 Cl   UNL d   1       1.271   1.116  -0.793  0.00  0.00    -0.070 Cl
ATOM      8 Cl1  UNL d   1      -0.946  -0.051   1.285  0.00  0.00    -0.070 Cl
ENDROOT
TORSDOF 0
ENDMDL
