MODEL 1
REMARK minimizedAffinity -4.99447107
REMARK minimizedRMSD -1
REMARK  0 active torsions:
REMARK  status: ('A' for Active; 'I' for Inactive)
ROOT
ATOM      1  C   UNL d   1       2.987   2.312   1.075  0.00  0.00     0.020 A 
ATOM      2  C1  UNL d   1       1.832   2.785   1.697  0.00  0.00     0.020 A 
ATOM      3  C2  UNL d   1       0.648   2.049   1.621  0.00  0.00     0.034 A 
ATOM      4  C3  UNL d   1       0.616   0.837   0.923  0.00  0.00     0.017 A 
ATOM      5  C4  UNL d   1       1.776   0.363   0.300  0.00  0.00     0.017 A 
ATOM      6  C5  UNL d   1       2.959   1.104   0.379  0.00  0.00     0.034 A 
ATOM      7 Cl   UNL d   1       1.814  -1.125  -0.579  0.00  0.00    -0.070 Cl
ATOM      8 Cl1  UNL d   1      -0.883  -0.021   0.871  0.00  0.00    -0.070 Cl
ENDROOT
TORSDOF 0
ENDMDL
