MODEL 1
REMARK minimizedAffinity -1.08968961
REMARK minimizedRMSD -1
REMARK  0 active torsions:
REMARK  status: ('A' for Active; 'I' for Inactive)
ROOT
ATOM      1  C   UNL d   1      -0.971  -0.194   0.584  0.00  0.00     0.020 A 
ATOM      2  C1  UNL d   1      -0.415  -0.942  -0.453  0.00  0.00     0.020 A 
ATOM      3  C2  UNL d   1       0.797  -0.551  -1.025  0.00  0.00     0.034 A 
ATOM      4  C3  UNL d   1       1.458   0.592  -0.561  0.00  0.00     0.017 A 
ATOM      5  C4  UNL d   1       0.900   1.343   0.480  0.00  0.00     0.017 A 
ATOM      6  C5  UNL d   1      -0.314   0.946   1.049  0.00  0.00     0.034 A 
ATOM      7 Cl   UNL d   1       1.656   2.765   1.106  0.00  0.00    -0.070 Cl
ATOM      8 Cl1  UNL d   1       2.953   1.017  -1.315  0.00  0.00    -0.070 Cl
ENDROOT
TORSDOF 0
ENDMDL
