MODEL 1
REMARK minimizedAffinity -4.2900219
REMARK minimizedRMSD -1
REMARK  0 active torsions:
REMARK  status: ('A' for Active; 'I' for Inactive)
ROOT
ATOM      1  C   UNL d   1       1.896   1.923   3.697  0.00  0.00     0.020 A 
ATOM      2  C1  UNL d   1       3.094   1.222   3.561  0.00  0.00     0.020 A 
ATOM      3  C2  UNL d   1       3.507   0.785   2.301  0.00  0.00     0.034 A 
ATOM      4  C3  UNL d   1       2.722   1.048   1.172  0.00  0.00     0.017 A 
ATOM      5  C4  UNL d   1       1.520   1.752   1.310  0.00  0.00     0.017 A 
ATOM      6  C5  UNL d   1       1.111   2.187   2.574  0.00  0.00     0.034 A 
ATOM      7 Cl   UNL d   1       0.499   2.114  -0.036  0.00  0.00    -0.070 Cl
ATOM      8 Cl1  UNL d   1       3.295   0.478  -0.355  0.00  0.00    -0.070 Cl
ENDROOT
TORSDOF 0
ENDMDL
