MODEL 1
REMARK minimizedAffinity -5.90936756
REMARK minimizedRMSD -1
REMARK  0 active torsions:
REMARK  status: ('A' for Active; 'I' for Inactive)
ROOT
ATOM      1  C   UNL d   1       1.787   2.945   1.633  0.00  0.00     0.020 A 
ATOM      2  C1  UNL d   1       0.434   2.716   1.882  0.00  0.00     0.020 A 
ATOM      3  C2  UNL d   1      -0.207   1.620   1.301  0.00  0.00     0.034 A 
ATOM      4  C3  UNL d   1       0.504   0.749   0.467  0.00  0.00     0.017 A 
ATOM      5  C4  UNL d   1       1.861   0.980   0.217  0.00  0.00     0.017 A 
ATOM      6  C5  UNL d   1       2.499   2.079   0.802  0.00  0.00     0.034 A 
ATOM      7 Cl   UNL d   1       2.804  -0.050  -0.800  0.00  0.00    -0.070 Cl
ATOM      8 Cl1  UNL d   1      -0.353  -0.586  -0.217  0.00  0.00    -0.070 Cl
ENDROOT
TORSDOF 0
ENDMDL
