MODEL 1
REMARK minimizedAffinity -5.43926382
REMARK minimizedRMSD -1
REMARK  0 active torsions:
REMARK  status: ('A' for Active; 'I' for Inactive)
ROOT
ATOM      1  C   UNL d   1       0.134   2.406   1.761  0.00  0.00     0.020 A 
ATOM      2  C1  UNL d   1       1.468   2.806   1.692  0.00  0.00     0.020 A 
ATOM      3  C2  UNL d   1       2.367   2.104   0.885  0.00  0.00     0.034 A 
ATOM      4  C3  UNL d   1       1.932   1.000   0.143  0.00  0.00     0.017 A 
ATOM      5  C4  UNL d   1       0.593   0.600   0.213  0.00  0.00     0.017 A 
ATOM      6  C5  UNL d   1      -0.302   1.306   1.022  0.00  0.00     0.034 A 
ATOM      7 Cl   UNL d   1      -0.018  -0.753  -0.674  0.00  0.00    -0.070 Cl
ATOM      8 Cl1  UNL d   1       3.097   0.179  -0.834  0.00  0.00    -0.070 Cl
ENDROOT
TORSDOF 0
ENDMDL
