MODEL 1
REMARK minimizedAffinity -0.748822391
REMARK minimizedRMSD -1
REMARK  0 active torsions:
REMARK  status: ('A' for Active; 'I' for Inactive)
ROOT
ATOM      1  C   UNL d   1       0.003  -1.203  -0.543  0.00  0.00     0.020 A 
ATOM      2  C1  UNL d   1      -0.755  -0.434   0.339  0.00  0.00     0.020 A 
ATOM      3  C2  UNL d   1      -0.283   0.809   0.764  0.00  0.00     0.034 A 
ATOM      4  C3  UNL d   1       0.951   1.287   0.307  0.00  0.00     0.017 A 
ATOM      5  C4  UNL d   1       1.711   0.515  -0.578  0.00  0.00     0.017 A 
ATOM      6  C5  UNL d   1       1.233  -0.730  -1.001  0.00  0.00     0.034 A 
ATOM      7 Cl   UNL d   1       3.243   1.038  -1.185  0.00  0.00    -0.070 Cl
ATOM      8 Cl1  UNL d   1       1.473   2.834   0.874  0.00  0.00    -0.070 Cl
ENDROOT
TORSDOF 0
ENDMDL
