MODEL 1
REMARK minimizedAffinity -4.66996431
REMARK minimizedRMSD -1
REMARK  0 active torsions:
REMARK  status: ('A' for Active; 'I' for Inactive)
ROOT
ATOM      1  C   UNL d   1       1.629   2.202   1.345  0.00  0.00     0.020 A 
ATOM      2  C1  UNL d   1       2.208   1.607   0.225  0.00  0.00     0.020 A 
ATOM      3  C2  UNL d   1       1.522   0.607  -0.468  0.00  0.00     0.034 A 
ATOM      4  C3  UNL d   1       0.253   0.200  -0.042  0.00  0.00     0.017 A 
ATOM      5  C4  UNL d   1      -0.328   0.798   1.082  0.00  0.00     0.017 A 
ATOM      6  C5  UNL d   1       0.363   1.798   1.772  0.00  0.00     0.034 A 
ATOM      7 Cl   UNL d   1      -1.891   0.348   1.667  0.00  0.00    -0.070 Cl
ATOM      8 Cl1  UNL d   1      -0.539  -1.041  -0.948  0.00  0.00    -0.070 Cl
ENDROOT
TORSDOF 0
ENDMDL
