MODEL 1
REMARK minimizedAffinity -4.55517197
REMARK minimizedRMSD -1
REMARK  0 active torsions:
REMARK  status: ('A' for Active; 'I' for Inactive)
ROOT
ATOM      1  C   UNL d   1       0.969   2.601   1.788  0.00  0.00     0.020 A 
ATOM      2  C1  UNL d   1      -0.310   2.049   1.741  0.00  0.00     0.020 A 
ATOM      3  C2  UNL d   1      -0.539   0.879   1.013  0.00  0.00     0.034 A 
ATOM      4  C3  UNL d   1       0.513   0.258   0.330  0.00  0.00     0.017 A 
ATOM      5  C4  UNL d   1       1.797   0.813   0.378  0.00  0.00     0.017 A 
ATOM      6  C5  UNL d   1       2.020   1.984   1.109  0.00  0.00     0.034 A 
ATOM      7 Cl   UNL d   1       3.145   0.104  -0.438  0.00  0.00    -0.070 Cl
ATOM      8 Cl1  UNL d   1       0.158  -1.186  -0.550  0.00  0.00    -0.070 Cl
ENDROOT
TORSDOF 0
ENDMDL
