MODEL 1
REMARK minimizedAffinity -5.33499908
REMARK minimizedRMSD -1
REMARK  0 active torsions:
REMARK  status: ('A' for Active; 'I' for Inactive)
ROOT
ATOM      1  C   UNL d   1       2.358   2.184   0.411  0.00  0.00     0.020 A 
ATOM      2  C1  UNL d   1       1.618   3.141   1.105  0.00  0.00     0.020 A 
ATOM      3  C2  UNL d   1       0.300   2.869   1.477  0.00  0.00     0.034 A 
ATOM      4  C3  UNL d   1      -0.283   1.638   1.154  0.00  0.00     0.017 A 
ATOM      5  C4  UNL d   1       0.460   0.679   0.457  0.00  0.00     0.017 A 
ATOM      6  C5  UNL d   1       1.780   0.956   0.088  0.00  0.00     0.034 A 
ATOM      7 Cl   UNL d   1      -0.191  -0.862   0.023  0.00  0.00    -0.070 Cl
ATOM      8 Cl1  UNL d   1      -1.918   1.370   1.645  0.00  0.00    -0.070 Cl
ENDROOT
TORSDOF 0
ENDMDL
