MODEL 1
REMARK minimizedAffinity -5.87132215
REMARK minimizedRMSD -1
REMARK  0 active torsions:
REMARK  status: ('A' for Active; 'I' for Inactive)
ROOT
ATOM      1  C   UNL d   1       2.473   2.494   1.432  0.00  0.00     0.020 A 
ATOM      2  C1  UNL d   1       3.000   1.762   0.368  0.00  0.00     0.020 A 
ATOM      3  C2  UNL d   1       2.267   0.710  -0.185  0.00  0.00     0.034 A 
ATOM      4  C3  UNL d   1       1.005   0.386   0.325  0.00  0.00     0.017 A 
ATOM      5  C4  UNL d   1       0.477   1.121   1.393  0.00  0.00     0.017 A 
ATOM      6  C5  UNL d   1       1.215   2.174   1.943  0.00  0.00     0.034 A 
ATOM      7 Cl   UNL d   1      -1.074   0.781   2.076  0.00  0.00    -0.070 Cl
ATOM      8 Cl1  UNL d   1       0.155  -0.928  -0.408  0.00  0.00    -0.070 Cl
ENDROOT
TORSDOF 0
ENDMDL
