MODEL 1
REMARK minimizedAffinity -1.69269216
REMARK minimizedRMSD -1
REMARK  0 active torsions:
REMARK  status: ('A' for Active; 'I' for Inactive)
ROOT
ATOM      1  C   UNL d   1       2.056   1.858   0.615  0.00  0.00     0.020 A 
ATOM      2  C1  UNL d   1       1.441   2.583   1.635  0.00  0.00     0.020 A 
ATOM      3  C2  UNL d   1       0.145   2.258   2.041  0.00  0.00     0.034 A 
ATOM      4  C3  UNL d   1      -0.541   1.204   1.426  0.00  0.00     0.017 A 
ATOM      5  C4  UNL d   1       0.076   0.477   0.401  0.00  0.00     0.017 A 
ATOM      6  C5  UNL d   1       1.374   0.807  -0.001  0.00  0.00     0.034 A 
ATOM      7 Cl   UNL d   1      -0.707  -0.836  -0.405  0.00  0.00    -0.070 Cl
ATOM      8 Cl1  UNL d   1      -2.141   0.856   1.978  0.00  0.00    -0.070 Cl
ENDROOT
TORSDOF 0
ENDMDL
