MODEL 1
REMARK minimizedAffinity -5.62779903
REMARK minimizedRMSD -1
REMARK  0 active torsions:
REMARK  status: ('A' for Active; 'I' for Inactive)
ROOT
ATOM      1  C   UNL d   1       2.142   2.523   1.187  0.00  0.00     0.020 A 
ATOM      2  C1  UNL d   1       2.932   1.754   0.334  0.00  0.00     0.020 A 
ATOM      3  C2  UNL d   1       2.471   0.517  -0.120  0.00  0.00     0.034 A 
ATOM      4  C3  UNL d   1       1.216   0.044   0.280  0.00  0.00     0.017 A 
ATOM      5  C4  UNL d   1       0.423   0.816   1.137  0.00  0.00     0.017 A 
ATOM      6  C5  UNL d   1       0.890   2.054   1.588  0.00  0.00     0.034 A 
ATOM      7 Cl   UNL d   1      -1.136   0.299   1.674  0.00  0.00    -0.070 Cl
ATOM      8 Cl1  UNL d   1       0.709  -1.496  -0.319  0.00  0.00    -0.070 Cl
ENDROOT
TORSDOF 0
ENDMDL
