MODEL 1
REMARK minimizedAffinity -3.97617984
REMARK minimizedRMSD -1
REMARK  0 active torsions:
REMARK  status: ('A' for Active; 'I' for Inactive)
ROOT
ATOM      1  C   UNL d   1      -0.380   0.832   1.081  0.00  0.00     0.078 C 
ATOM      2  C1  UNL d   1       0.029   2.108   1.753  0.00  0.00    -0.077 A 
ATOM      3  C2  UNL d   1      -0.760   2.679   2.759  0.00  0.00    -0.001 A 
ATOM      4  C3  UNL d   1      -0.372   3.872   3.370  0.00  0.00     0.003 A 
ATOM      5  C4  UNL d   1       0.807   4.506   2.981  0.00  0.00    -0.005 A 
ATOM      6  C5  UNL d   1       1.598   3.946   1.980  0.00  0.00     0.003 A 
ATOM      7  C6  UNL d   1       1.211   2.753   1.368  0.00  0.00    -0.001 A 
ENDROOT
TORSDOF 0
ENDMDL
