MODEL 1
REMARK minimizedAffinity 4.72410107
REMARK minimizedRMSD -1
REMARK  0 active torsions:
REMARK  status: ('A' for Active; 'I' for Inactive)
ROOT
ATOM      1  C   UNL d   1      -0.033   1.274   0.653  0.00  0.00     0.078 C 
ATOM      2  C1  UNL d   1       0.650   2.140   1.669  0.00  0.00    -0.077 A 
ATOM      3  C2  UNL d   1       2.041   2.305   1.657  0.00  0.00    -0.001 A 
ATOM      4  C3  UNL d   1       2.665   3.106   2.615  0.00  0.00     0.003 A 
ATOM      5  C4  UNL d   1       1.906   3.748   3.592  0.00  0.00    -0.005 A 
ATOM      6  C5  UNL d   1       0.522   3.588   3.613  0.00  0.00     0.003 A 
ATOM      7  C6  UNL d   1      -0.103   2.787   2.656  0.00  0.00    -0.001 A 
ENDROOT
TORSDOF 0
ENDMDL
