MODEL 1
REMARK minimizedAffinity -2.59980941
REMARK minimizedRMSD -1
REMARK  0 active torsions:
REMARK  status: ('A' for Active; 'I' for Inactive)
ROOT
ATOM      1  C   UNL d   1      -1.829   3.473   4.774  0.00  0.00     0.078 C 
ATOM      2  C1  UNL d   1      -1.039   2.985   3.597  0.00  0.00    -0.077 A 
ATOM      3  C2  UNL d   1       0.332   3.248   3.490  0.00  0.00    -0.001 A 
ATOM      4  C3  UNL d   1       1.054   2.796   2.384  0.00  0.00     0.003 A 
ATOM      5  C4  UNL d   1       0.412   2.079   1.376  0.00  0.00    -0.005 A 
ATOM      6  C5  UNL d   1      -0.952   1.814   1.472  0.00  0.00     0.003 A 
ATOM      7  C6  UNL d   1      -1.675   2.266   2.578  0.00  0.00    -0.001 A 
ENDROOT
TORSDOF 0
ENDMDL
