MODEL 1
REMARK minimizedAffinity 4.4564743
REMARK minimizedRMSD -1
REMARK  0 active torsions:
REMARK  status: ('A' for Active; 'I' for Inactive)
ROOT
ATOM      1  C   UNL d   1      -0.004   0.710   1.191  0.00  0.00     0.078 C 
ATOM      2  C1  UNL d   1       0.559   1.706   2.160  0.00  0.00    -0.077 A 
ATOM      3  C2  UNL d   1       1.937   1.947   2.227  0.00  0.00    -0.001 A 
ATOM      4  C3  UNL d   1       2.449   2.870   3.141  0.00  0.00     0.003 A 
ATOM      5  C4  UNL d   1       1.589   3.558   3.995  0.00  0.00    -0.005 A 
ATOM      6  C5  UNL d   1       0.217   3.323   3.937  0.00  0.00     0.003 A 
ATOM      7  C6  UNL d   1      -0.296   2.401   3.024  0.00  0.00    -0.001 A 
ENDROOT
TORSDOF 0
ENDMDL
