MODEL 1
REMARK minimizedAffinity -1.2650671
REMARK minimizedRMSD -1
REMARK  0 active torsions:
REMARK  status: ('A' for Active; 'I' for Inactive)
ROOT
ATOM      1  C   UNL d   1      -5.680  -1.580   3.486  0.00  0.00     0.078 C 
ATOM      2  C1  UNL d   1      -4.346  -1.347   2.843  0.00  0.00    -0.077 A 
ATOM      3  C2  UNL d   1      -4.094  -0.184   2.105  0.00  0.00    -0.001 A 
ATOM      4  C3  UNL d   1      -2.851   0.016   1.503  0.00  0.00     0.003 A 
ATOM      5  C4  UNL d   1      -1.849  -0.944   1.633  0.00  0.00    -0.005 A 
ATOM      6  C5  UNL d   1      -2.090  -2.106   2.363  0.00  0.00     0.003 A 
ATOM      7  C6  UNL d   1      -3.334  -2.307   2.965  0.00  0.00    -0.001 A 
ENDROOT
TORSDOF 0
ENDMDL
