MODEL 1
REMARK minimizedAffinity 4.11002159
REMARK minimizedRMSD -1
REMARK  0 active torsions:
REMARK  status: ('A' for Active; 'I' for Inactive)
ROOT
ATOM      1  C   UNL d   1       3.861   5.384  -5.627  0.00  0.00     0.078 C 
ATOM      2  C1  UNL d   1       4.294   3.948  -5.621  0.00  0.00    -0.077 A 
ATOM      3  C2  UNL d   1       5.592   3.585  -6.000  0.00  0.00    -0.001 A 
ATOM      4  C3  UNL d   1       5.978   2.244  -5.998  0.00  0.00     0.003 A 
ATOM      5  C4  UNL d   1       5.073   1.255  -5.619  0.00  0.00    -0.005 A 
ATOM      6  C5  UNL d   1       3.778   1.607  -5.242  0.00  0.00     0.003 A 
ATOM      7  C6  UNL d   1       3.390   2.948  -5.243  0.00  0.00    -0.001 A 
ENDROOT
TORSDOF 0
ENDMDL
