MODEL 1
REMARK minimizedAffinity 1.39332175
REMARK minimizedRMSD -1
REMARK  0 active torsions:
REMARK  status: ('A' for Active; 'I' for Inactive)
ROOT
ATOM      1  C   UNL d   1       0.366   1.974   1.707  0.00  0.00     0.078 C 
ATOM      2  C1  UNL d   1      -0.038   2.918   2.799  0.00  0.00    -0.077 A 
ATOM      3  C2  UNL d   1      -1.098   2.614   3.661  0.00  0.00    -0.001 A 
ATOM      4  C3  UNL d   1      -1.470   3.507   4.667  0.00  0.00     0.003 A 
ATOM      5  C4  UNL d   1      -0.787   4.712   4.820  0.00  0.00    -0.005 A 
ATOM      6  C5  UNL d   1       0.269   5.025   3.966  0.00  0.00     0.003 A 
ATOM      7  C6  UNL d   1       0.642   4.133   2.959  0.00  0.00    -0.001 A 
ENDROOT
TORSDOF 0
ENDMDL
