MODEL 1
REMARK minimizedAffinity -3.84520578
REMARK minimizedRMSD -1
REMARK  0 active torsions:
REMARK  status: ('A' for Active; 'I' for Inactive)
ROOT
ATOM      1  C   UNL d   1      -1.588   3.721   4.510  0.00  0.00     0.078 C 
ATOM      2  C1  UNL d   1      -0.786   3.111   3.400  0.00  0.00    -0.077 A 
ATOM      3  C2  UNL d   1       0.408   3.700   2.965  0.00  0.00    -0.001 A 
ATOM      4  C3  UNL d   1       1.140   3.127   1.924  0.00  0.00     0.003 A 
ATOM      5  C4  UNL d   1       0.685   1.963   1.307  0.00  0.00    -0.005 A 
ATOM      6  C5  UNL d   1      -0.502   1.371   1.732  0.00  0.00     0.003 A 
ATOM      7  C6  UNL d   1      -1.235   1.942   2.773  0.00  0.00    -0.001 A 
ENDROOT
TORSDOF 0
ENDMDL
