MODEL 1
REMARK minimizedAffinity -0.671214581
REMARK minimizedRMSD -1
REMARK  0 active torsions:
REMARK  status: ('A' for Active; 'I' for Inactive)
ROOT
ATOM      1  C   UNL d   1      -0.991   2.244   3.338  0.00  0.00     0.078 C 
ATOM      2  C1  UNL d   1      -0.536   2.158   1.912  0.00  0.00    -0.077 A 
ATOM      3  C2  UNL d   1       0.770   2.510   1.549  0.00  0.00    -0.001 A 
ATOM      4  C3  UNL d   1       1.177   2.434   0.216  0.00  0.00     0.003 A 
ATOM      5  C4  UNL d   1       0.284   2.008  -0.765  0.00  0.00    -0.005 A 
ATOM      6  C5  UNL d   1      -1.018   1.658  -0.413  0.00  0.00     0.003 A 
ATOM      7  C6  UNL d   1      -1.427   1.733   0.919  0.00  0.00    -0.001 A 
ENDROOT
TORSDOF 0
ENDMDL
