MODEL 1
REMARK minimizedAffinity -1.34269106
REMARK minimizedRMSD -1
REMARK  0 active torsions:
REMARK  status: ('A' for Active; 'I' for Inactive)
ROOT
ATOM      1  C   UNL d   1      -1.168   3.937   4.334  0.00  0.00     0.078 C 
ATOM      2  C1  UNL d   1      -0.487   3.315   3.152  0.00  0.00    -0.077 A 
ATOM      3  C2  UNL d   1      -1.132   2.345   2.376  0.00  0.00    -0.001 A 
ATOM      4  C3  UNL d   1      -0.483   1.768   1.284  0.00  0.00     0.003 A 
ATOM      5  C4  UNL d   1       0.816   2.153   0.958  0.00  0.00    -0.005 A 
ATOM      6  C5  UNL d   1       1.467   3.117   1.726  0.00  0.00     0.003 A 
ATOM      7  C6  UNL d   1       0.819   3.695   2.818  0.00  0.00    -0.001 A 
ENDROOT
TORSDOF 0
ENDMDL
