MODEL 1
REMARK minimizedAffinity 1.56346393
REMARK minimizedRMSD -1
REMARK  0 active torsions:
REMARK  status: ('A' for Active; 'I' for Inactive)
ROOT
ATOM      1  C   UNL d   1      -0.358   0.470   0.929  0.00  0.00     0.078 C 
ATOM      2  C1  UNL d   1       0.150   1.419   1.974  0.00  0.00    -0.077 A 
ATOM      3  C2  UNL d   1       1.483   1.847   1.973  0.00  0.00    -0.001 A 
ATOM      4  C3  UNL d   1       1.944   2.723   2.957  0.00  0.00     0.003 A 
ATOM      5  C4  UNL d   1       1.079   3.176   3.951  0.00  0.00    -0.005 A 
ATOM      6  C5  UNL d   1      -0.249   2.754   3.961  0.00  0.00     0.003 A 
ATOM      7  C6  UNL d   1      -0.712   1.878   2.978  0.00  0.00    -0.001 A 
ENDROOT
TORSDOF 0
ENDMDL
