MODEL 1
REMARK minimizedAffinity 4.89213419
REMARK minimizedRMSD -1
REMARK  0 active torsions:
REMARK  status: ('A' for Active; 'I' for Inactive)
ROOT
ATOM      1  C   UNL d   1      -1.094   0.627   1.402  0.00  0.00     0.078 C 
ATOM      2  C1  UNL d   1      -0.865   1.650   2.474  0.00  0.00    -0.077 A 
ATOM      3  C2  UNL d   1       0.351   2.340   2.566  0.00  0.00    -0.001 A 
ATOM      4  C3  UNL d   1       0.553   3.282   3.575  0.00  0.00     0.003 A 
ATOM      5  C4  UNL d   1      -0.455   3.544   4.501  0.00  0.00    -0.005 A 
ATOM      6  C5  UNL d   1      -1.667   2.861   4.419  0.00  0.00     0.003 A 
ATOM      7  C6  UNL d   1      -1.871   1.918   3.411  0.00  0.00    -0.001 A 
ENDROOT
TORSDOF 0
ENDMDL
