MODEL 1
REMARK minimizedAffinity -2.8134973
REMARK minimizedRMSD -1
REMARK  0 active torsions:
REMARK  status: ('A' for Active; 'I' for Inactive)
ROOT
ATOM      1  C   UNL d   1      -0.970   0.382   0.281  0.00  0.00     0.078 C 
ATOM      2  C1  UNL d   1      -0.250   1.436   1.066  0.00  0.00    -0.077 A 
ATOM      3  C2  UNL d   1       0.820   2.147   0.508  0.00  0.00    -0.001 A 
ATOM      4  C3  UNL d   1       1.489   3.119   1.255  0.00  0.00     0.003 A 
ATOM      5  C4  UNL d   1       1.095   3.388   2.564  0.00  0.00    -0.005 A 
ATOM      6  C5  UNL d   1       0.033   2.685   3.129  0.00  0.00     0.003 A 
ATOM      7  C6  UNL d   1      -0.636   1.713   2.384  0.00  0.00    -0.001 A 
ENDROOT
TORSDOF 0
ENDMDL
