MODEL 1
REMARK minimizedAffinity 6.27215528
REMARK minimizedRMSD -1
REMARK  0 active torsions:
REMARK  status: ('A' for Active; 'I' for Inactive)
ROOT
ATOM      1  C   UNL d   1      -1.186   0.438   1.545  0.00  0.00     0.078 C 
ATOM      2  C1  UNL d   1      -0.475   1.621   2.129  0.00  0.00    -0.077 A 
ATOM      3  C2  UNL d   1       0.475   2.332   1.384  0.00  0.00    -0.001 A 
ATOM      4  C3  UNL d   1       1.136   3.426   1.944  0.00  0.00     0.003 A 
ATOM      5  C4  UNL d   1       0.857   3.819   3.251  0.00  0.00    -0.005 A 
ATOM      6  C5  UNL d   1      -0.085   3.117   4.001  0.00  0.00     0.003 A 
ATOM      7  C6  UNL d   1      -0.748   2.023   3.443  0.00  0.00    -0.001 A 
ENDROOT
TORSDOF 0
ENDMDL
