MODEL 1
REMARK minimizedAffinity 3.79953575
REMARK minimizedRMSD -1
REMARK  0 active torsions:
REMARK  status: ('A' for Active; 'I' for Inactive)
ROOT
ATOM      1  C   UNL d   1       5.998   3.025   5.622  0.00  0.00     0.078 C 
ATOM      2  C1  UNL d   1       4.785   3.878   5.398  0.00  0.00    -0.077 A 
ATOM      3  C2  UNL d   1       4.670   5.139   5.996  0.00  0.00    -0.001 A 
ATOM      4  C3  UNL d   1       3.530   5.918   5.787  0.00  0.00     0.003 A 
ATOM      5  C4  UNL d   1       2.497   5.444   4.981  0.00  0.00    -0.005 A 
ATOM      6  C5  UNL d   1       2.602   4.190   4.384  0.00  0.00     0.003 A 
ATOM      7  C6  UNL d   1       3.740   3.409   4.592  0.00  0.00    -0.001 A 
ENDROOT
TORSDOF 0
ENDMDL
