MODEL 1
REMARK minimizedAffinity 8.62286663
REMARK minimizedRMSD -1
REMARK  0 active torsions:
REMARK  status: ('A' for Active; 'I' for Inactive)
ROOT
ATOM      1  C   UNL d   1      -0.906   3.366   4.854  0.00  0.00     0.078 C 
ATOM      2  C1  UNL d   1      -0.728   2.842   3.460  0.00  0.00    -0.077 A 
ATOM      3  C2  UNL d   1      -1.535   1.807   2.971  0.00  0.00    -0.001 A 
ATOM      4  C3  UNL d   1      -1.352   1.321   1.675  0.00  0.00     0.003 A 
ATOM      5  C4  UNL d   1      -0.363   1.864   0.858  0.00  0.00    -0.005 A 
ATOM      6  C5  UNL d   1       0.446   2.893   1.337  0.00  0.00     0.003 A 
ATOM      7  C6  UNL d   1       0.265   3.380   2.632  0.00  0.00    -0.001 A 
ENDROOT
TORSDOF 0
ENDMDL
