MODEL 1
REMARK minimizedAffinity 0.164505243
REMARK minimizedRMSD -1
REMARK  1 active torsions:
REMARK  status: ('A' for Active; 'I' for Inactive)
REMARK    1  A    between atoms: C3_4  and  O_7 
ROOT
ATOM      1  C   UNL d   1       3.644  -0.313  -0.613  0.00  0.00    -0.033 A 
ATOM      2  C1  UNL d   1       2.413  -0.964  -0.506  0.00  0.00     0.039 A 
ATOM      3  C2  UNL d   1       1.866  -1.615  -1.613  0.00  0.00    -0.080 A 
ATOM      4  C3  UNL d   1       2.559  -1.608  -2.821  0.00  0.00     0.150 A 
ATOM      5  C4  UNL d   1       3.788  -0.965  -2.934  0.00  0.00    -0.007 A 
ATOM      6  C5  UNL d   1       4.332  -0.315  -1.827  0.00  0.00     0.039 A 
ENDROOT
BRANCH   4   7
ATOM      7  O   UNL d   1       2.063  -2.225  -3.930  0.00  0.00    -0.526 OA
ATOM      8  H5  UNL d   1       1.195  -2.602  -3.711  0.00  0.00     0.418 HD
ENDBRANCH   4   7
TORSDOF 1
ENDMDL
