MODEL 1
REMARK minimizedAffinity 2.44891024
REMARK minimizedRMSD -1
REMARK  1 active torsions:
REMARK  status: ('A' for Active; 'I' for Inactive)
REMARK    1  A    between atoms: C3_4  and  O_7 
ROOT
ATOM      1  C   UNL d   1       1.100   0.090  -1.149  0.00  0.00    -0.033 A 
ATOM      2  C1  UNL d   1       2.076   0.490  -2.065  0.00  0.00     0.039 A 
ATOM      3  C2  UNL d   1       1.896   1.654  -2.815  0.00  0.00    -0.080 A 
ATOM      4  C3  UNL d   1       0.739   2.408  -2.640  0.00  0.00     0.150 A 
ATOM      5  C4  UNL d   1      -0.235   2.017  -1.727  0.00  0.00    -0.007 A 
ATOM      6  C5  UNL d   1      -0.054   0.855  -0.979  0.00  0.00     0.039 A 
ENDROOT
BRANCH   4   7
ATOM      7  O   UNL d   1       0.517   3.549  -3.353  0.00  0.00    -0.526 OA
ATOM      8  H5  UNL d   1       1.260   3.678  -3.965  0.00  0.00     0.418 HD
ENDBRANCH   4   7
TORSDOF 1
ENDMDL
