MODEL 1
REMARK minimizedAffinity 2.32594347
REMARK minimizedRMSD -1
REMARK  1 active torsions:
REMARK  status: ('A' for Active; 'I' for Inactive)
REMARK    1  A    between atoms: C3_4  and  O_7 
ROOT
ATOM      1  C   UNL d   1       1.424   2.586  -2.714  0.00  0.00    -0.033 A 
ATOM      2  C1  UNL d   1       2.507   1.966  -3.342  0.00  0.00     0.039 A 
ATOM      3  C2  UNL d   1       3.049   0.796  -2.808  0.00  0.00    -0.080 A 
ATOM      4  C3  UNL d   1       2.499   0.255  -1.649  0.00  0.00     0.150 A 
ATOM      5  C4  UNL d   1       1.418   0.865  -1.021  0.00  0.00    -0.007 A 
ATOM      6  C5  UNL d   1       0.879   2.035  -1.555  0.00  0.00     0.039 A 
ENDROOT
BRANCH   4   7
ATOM      7  O   UNL d   1       2.997  -0.883  -1.088  0.00  0.00    -0.526 OA
ATOM      8  H5  UNL d   1       3.760  -1.177  -1.613  0.00  0.00     0.418 HD
ENDBRANCH   4   7
TORSDOF 1
ENDMDL
