MODEL 1
REMARK minimizedAffinity 4.76701832
REMARK minimizedRMSD -1
REMARK  1 active torsions:
REMARK  status: ('A' for Active; 'I' for Inactive)
REMARK    1  A    between atoms: C3_4  and  O_7 
ROOT
ATOM      1  C   UNL d   1      -2.082  -1.174  -0.816  0.00  0.00    -0.033 A 
ATOM      2  C1  UNL d   1      -1.753  -2.514  -0.605  0.00  0.00     0.039 A 
ATOM      3  C2  UNL d   1      -2.704  -3.512  -0.826  0.00  0.00    -0.080 A 
ATOM      4  C3  UNL d   1      -3.979  -3.157  -1.257  0.00  0.00     0.150 A 
ATOM      5  C4  UNL d   1      -4.313  -1.824  -1.473  0.00  0.00    -0.007 A 
ATOM      6  C5  UNL d   1      -3.362  -0.829  -1.252  0.00  0.00     0.039 A 
ENDROOT
BRANCH   4   7
ATOM      7  O   UNL d   1      -4.942  -4.095  -1.482  0.00  0.00    -0.526 OA
ATOM      8  H5  UNL d   1      -4.578  -4.969  -1.263  0.00  0.00     0.418 HD
ENDBRANCH   4   7
TORSDOF 1
ENDMDL
