MODEL 1
REMARK minimizedAffinity 0.2919572
REMARK minimizedRMSD -1
REMARK  1 active torsions:
REMARK  status: ('A' for Active; 'I' for Inactive)
REMARK    1  A    between atoms: C3_4  and  O_7 
ROOT
ATOM      1  C   UNL d   1       1.624  -0.188  -0.586  0.00  0.00    -0.033 A 
ATOM      2  C1  UNL d   1       2.588  -0.199  -1.597  0.00  0.00     0.039 A 
ATOM      3  C2  UNL d   1       2.578   0.789  -2.583  0.00  0.00    -0.080 A 
ATOM      4  C3  UNL d   1       1.601   1.780  -2.548  0.00  0.00     0.150 A 
ATOM      5  C4  UNL d   1       0.640   1.799  -1.543  0.00  0.00    -0.007 A 
ATOM      6  C5  UNL d   1       0.651   0.811  -0.559  0.00  0.00     0.039 A 
ENDROOT
BRANCH   4   7
ATOM      7  O   UNL d   1       1.548   2.762  -3.492  0.00  0.00    -0.526 OA
ATOM      8  H5  UNL d   1       2.256   2.605  -4.140  0.00  0.00     0.418 HD
ENDBRANCH   4   7
TORSDOF 1
ENDMDL
