MODEL 1
REMARK minimizedAffinity 3.31768966
REMARK minimizedRMSD -1
REMARK  1 active torsions:
REMARK  status: ('A' for Active; 'I' for Inactive)
REMARK    1  A    between atoms: C3_4  and  O_7 
ROOT
ATOM      1  C   UNL d   1      -5.919  -5.993  -0.527  0.00  0.00    -0.033 A 
ATOM      2  C1  UNL d   1      -4.859  -6.000   0.382  0.00  0.00     0.039 A 
ATOM      3  C2  UNL d   1      -3.876  -5.011   0.318  0.00  0.00    -0.080 A 
ATOM      4  C3  UNL d   1      -3.965  -4.021  -0.656  0.00  0.00     0.150 A 
ATOM      5  C4  UNL d   1      -5.020  -4.005  -1.563  0.00  0.00    -0.007 A 
ATOM      6  C5  UNL d   1      -6.000  -4.994  -1.498  0.00  0.00     0.039 A 
ENDROOT
BRANCH   4   7
ATOM      7  O   UNL d   1      -3.026  -3.037  -0.760  0.00  0.00    -0.526 OA
ATOM      8  H5  UNL d   1      -2.342  -3.192  -0.087  0.00  0.00     0.418 HD
ENDBRANCH   4   7
TORSDOF 1
ENDMDL
