MODEL 1
REMARK minimizedAffinity 1.56473219
REMARK minimizedRMSD -1
REMARK  1 active torsions:
REMARK  status: ('A' for Active; 'I' for Inactive)
REMARK    1  A    between atoms: C3_4  and  O_7 
ROOT
ATOM      1  C   UNL d   1       1.410   2.682  -3.037  0.00  0.00    -0.033 A 
ATOM      2  C1  UNL d   1       2.530   2.089  -3.624  0.00  0.00     0.039 A 
ATOM      3  C2  UNL d   1       3.016   0.875  -3.135  0.00  0.00    -0.080 A 
ATOM      4  C3  UNL d   1       2.373   0.264  -2.063  0.00  0.00     0.150 A 
ATOM      5  C4  UNL d   1       1.254   0.846  -1.476  0.00  0.00    -0.007 A 
ATOM      6  C5  UNL d   1       0.772   2.060  -1.964  0.00  0.00     0.039 A 
ENDROOT
BRANCH   4   7
ATOM      7  O   UNL d   1       2.813  -0.920  -1.548  0.00  0.00    -0.526 OA
ATOM      8  H5  UNL d   1       3.610  -1.189  -2.035  0.00  0.00     0.418 HD
ENDBRANCH   4   7
TORSDOF 1
ENDMDL
