MODEL 1
REMARK minimizedAffinity -0.673419058
REMARK minimizedRMSD -1
REMARK  1 active torsions:
REMARK  status: ('A' for Active; 'I' for Inactive)
REMARK    1  A    between atoms: C3_4  and  O_7 
ROOT
ATOM      1  C   UNL d   1       2.599  -2.455  -2.012  0.00  0.00    -0.033 A 
ATOM      2  C1  UNL d   1       1.889  -3.397  -2.759  0.00  0.00     0.039 A 
ATOM      3  C2  UNL d   1       0.533  -3.613  -2.507  0.00  0.00    -0.080 A 
ATOM      4  C3  UNL d   1      -0.101  -2.881  -1.507  0.00  0.00     0.150 A 
ATOM      5  C4  UNL d   1       0.598  -1.938  -0.761  0.00  0.00    -0.007 A 
ATOM      6  C5  UNL d   1       1.953  -1.724  -1.014  0.00  0.00     0.039 A 
ENDROOT
BRANCH   4   7
ATOM      7  O   UNL d   1      -1.422  -3.061  -1.221  0.00  0.00    -0.526 OA
ATOM      8  H5  UNL d   1      -1.768  -3.764  -1.796  0.00  0.00     0.418 HD
ENDBRANCH   4   7
TORSDOF 1
ENDMDL
