MODEL 1
REMARK minimizedAffinity 1.62683642
REMARK minimizedRMSD -1
REMARK  1 active torsions:
REMARK  status: ('A' for Active; 'I' for Inactive)
REMARK    1  A    between atoms: C3_4  and  O_7 
ROOT
ATOM      1  C   UNL d   1       0.587   1.246  -1.450  0.00  0.00    -0.033 A 
ATOM      2  C1  UNL d   1      -0.312   1.482  -0.408  0.00  0.00     0.039 A 
ATOM      3  C2  UNL d   1       0.147   1.567   0.907  0.00  0.00    -0.080 A 
ATOM      4  C3  UNL d   1       1.507   1.416   1.167  0.00  0.00     0.150 A 
ATOM      5  C4  UNL d   1       2.409   1.185   0.134  0.00  0.00    -0.007 A 
ATOM      6  C5  UNL d   1       1.948   1.099  -1.179  0.00  0.00     0.039 A 
ENDROOT
BRANCH   4   7
ATOM      7  O   UNL d   1       2.002   1.487   2.435  0.00  0.00    -0.526 OA
ATOM      8  H5  UNL d   1       1.260   1.622   3.048  0.00  0.00     0.418 HD
ENDBRANCH   4   7
TORSDOF 1
ENDMDL
