MODEL 1
REMARK minimizedAffinity 8.3023653
REMARK minimizedRMSD -1
REMARK  1 active torsions:
REMARK  status: ('A' for Active; 'I' for Inactive)
REMARK    1  A    between atoms: C3_4  and  O_7 
ROOT
ATOM      1  C   UNL d   1      -3.627   4.146   2.551  0.00  0.00    -0.033 A 
ATOM      2  C1  UNL d   1      -4.486   4.283   3.643  0.00  0.00     0.039 A 
ATOM      3  C2  UNL d   1      -4.041   4.907   4.810  0.00  0.00    -0.080 A 
ATOM      4  C3  UNL d   1      -2.736   5.388   4.873  0.00  0.00     0.150 A 
ATOM      5  C4  UNL d   1      -1.876   5.258   3.788  0.00  0.00    -0.007 A 
ATOM      6  C5  UNL d   1      -2.322   4.635   2.623  0.00  0.00     0.039 A 
ENDROOT
BRANCH   4   7
ATOM      7  O   UNL d   1      -2.255   6.000   5.992  0.00  0.00    -0.526 OA
ATOM      8  H5  UNL d   1      -2.952   5.993   6.670  0.00  0.00     0.418 HD
ENDBRANCH   4   7
TORSDOF 1
ENDMDL
