MODEL 1
REMARK minimizedAffinity 6.84724522
REMARK minimizedRMSD -1
REMARK  1 active torsions:
REMARK  status: ('A' for Active; 'I' for Inactive)
REMARK    1  A    between atoms: C3_4  and  O_7 
ROOT
ATOM      1  C   UNL d   1      -0.124   1.228  -1.107  0.00  0.00    -0.033 A 
ATOM      2  C1  UNL d   1       1.268   1.267  -1.004  0.00  0.00     0.039 A 
ATOM      3  C2  UNL d   1       1.872   1.539   0.226  0.00  0.00    -0.080 A 
ATOM      4  C3  UNL d   1       1.073   1.770   1.343  0.00  0.00     0.150 A 
ATOM      5  C4  UNL d   1      -0.314   1.728   1.248  0.00  0.00    -0.007 A 
ATOM      6  C5  UNL d   1      -0.915   1.457   0.019  0.00  0.00     0.039 A 
ENDROOT
BRANCH   4   7
ATOM      7  O   UNL d   1       1.616   2.044   2.562  0.00  0.00    -0.526 OA
ATOM      8  H5  UNL d   1       2.584   2.068   2.470  0.00  0.00     0.418 HD
ENDBRANCH   4   7
TORSDOF 1
ENDMDL
