MODEL 1
REMARK minimizedAffinity -4.5529952
REMARK minimizedRMSD -1
REMARK  1 active torsions:
REMARK  status: ('A' for Active; 'I' for Inactive)
REMARK    1  A    between atoms: C3_4  and  O_7 
ROOT
ATOM      1  C   UNL d   1       0.323  -0.337   0.194  0.00  0.00    -0.033 A 
ATOM      2  C1  UNL d   1       1.321   0.600  -0.078  0.00  0.00     0.039 A 
ATOM      3  C2  UNL d   1       1.006   1.784  -0.748  0.00  0.00    -0.080 A 
ATOM      4  C3  UNL d   1      -0.309   2.018  -1.140  0.00  0.00     0.150 A 
ATOM      5  C4  UNL d   1      -1.309   1.091  -0.869  0.00  0.00    -0.007 A 
ATOM      6  C5  UNL d   1      -0.993  -0.091  -0.201  0.00  0.00     0.039 A 
ENDROOT
BRANCH   4   7
ATOM      7  O   UNL d   1      -0.664   3.157  -1.801  0.00  0.00    -0.526 OA
ATOM      8  H5  UNL d   1       0.135   3.691  -1.944  0.00  0.00     0.418 HD
ENDBRANCH   4   7
TORSDOF 1
ENDMDL
