MODEL 1
REMARK minimizedAffinity 0.377687275
REMARK minimizedRMSD -1
REMARK  1 active torsions:
REMARK  status: ('A' for Active; 'I' for Inactive)
REMARK    1  A    between atoms: C3_4  and  O_7 
ROOT
ATOM      1  C   UNL d   1       4.980  -5.996   4.341  0.00  0.00    -0.033 A 
ATOM      2  C1  UNL d   1       3.594  -5.998   4.176  0.00  0.00     0.039 A 
ATOM      3  C2  UNL d   1       3.041  -5.999   2.894  0.00  0.00    -0.080 A 
ATOM      4  C3  UNL d   1       3.884  -5.998   1.787  0.00  0.00     0.150 A 
ATOM      5  C4  UNL d   1       5.267  -6.000   1.943  0.00  0.00    -0.007 A 
ATOM      6  C5  UNL d   1       5.817  -5.998   3.224  0.00  0.00     0.039 A 
ENDROOT
BRANCH   4   7
ATOM      7  O   UNL d   1       3.391  -5.994   0.516  0.00  0.00    -0.526 OA
ATOM      8  H5  UNL d   1       2.421  -5.964   0.562  0.00  0.00     0.418 HD
ENDBRANCH   4   7
TORSDOF 1
ENDMDL
