MODEL 1
REMARK minimizedAffinity 0.12617898
REMARK minimizedRMSD -1
REMARK  1 active torsions:
REMARK  status: ('A' for Active; 'I' for Inactive)
REMARK    1  A    between atoms: C3_4  and  O_7 
ROOT
ATOM      1  C   UNL d   1       1.142   2.477  -2.700  0.00  0.00    -0.033 A 
ATOM      2  C1  UNL d   1       2.247   1.939  -3.363  0.00  0.00     0.039 A 
ATOM      3  C2  UNL d   1       2.796   0.727  -2.939  0.00  0.00    -0.080 A 
ATOM      4  C3  UNL d   1       2.232   0.064  -1.852  0.00  0.00     0.150 A 
ATOM      5  C4  UNL d   1       1.129   0.593  -1.189  0.00  0.00    -0.007 A 
ATOM      6  C5  UNL d   1       0.583   1.803  -1.614  0.00  0.00     0.039 A 
ENDROOT
BRANCH   4   7
ATOM      7  O   UNL d   1       2.736  -1.118  -1.399  0.00  0.00    -0.526 OA
ATOM      8  H5  UNL d   1       3.514  -1.347  -1.935  0.00  0.00     0.418 HD
ENDBRANCH   4   7
TORSDOF 1
ENDMDL
