MODEL 1
REMARK minimizedAffinity 8.73215389
REMARK minimizedRMSD -1
REMARK  0 active torsions:
REMARK  status: ('A' for Active; 'I' for Inactive)
ROOT
ATOM      1  O1  BZF d   1      -2.566  -2.298   5.999  0.00  0.00    -0.204 OA
ATOM      2  C2  BZF d   1      -1.531  -2.803   5.236  0.00  0.00     0.174 A 
ATOM      3  C3  BZF d   1      -1.992  -3.692   4.333  0.00  0.00    -0.012 A 
ATOM      4  C3A BZF d   1      -3.415  -3.678   4.483  0.00  0.00    -0.107 A 
ATOM      5  C4  BZF d   1      -4.432  -4.338   3.855  0.00  0.00     0.055 A 
ATOM      6  C5  BZF d   1      -5.707  -4.153   4.288  0.00  0.00    -0.016 A 
ATOM      7  C6  BZF d   1      -5.999  -3.321   5.349  0.00  0.00     0.022 A 
ATOM      8  C7  BZF d   1      -5.025  -2.641   6.000  0.00  0.00     0.029 A 
ATOM      9  C7A BZF d   1      -3.739  -2.800   5.543  0.00  0.00     0.058 A 
ENDROOT
TORSDOF 0
ENDMDL
