MODEL 1
REMARK minimizedAffinity 18.2926521
REMARK minimizedRMSD -1
REMARK  0 active torsions:
REMARK  status: ('A' for Active; 'I' for Inactive)
ROOT
ATOM      1  O1  BZF d   1       0.061   3.647  -3.308  0.00  0.00    -0.204 OA
ATOM      2  C2  BZF d   1      -1.148   3.427  -3.938  0.00  0.00     0.174 A 
ATOM      3  C3  BZF d   1      -2.005   2.786  -3.118  0.00  0.00    -0.012 A 
ATOM      4  C3A BZF d   1      -1.319   2.676  -1.867  0.00  0.00    -0.107 A 
ATOM      5  C4  BZF d   1      -1.657   2.149  -0.654  0.00  0.00     0.055 A 
ATOM      6  C5  BZF d   1      -0.731   2.135   0.341  0.00  0.00    -0.016 A 
ATOM      7  C6  BZF d   1       0.541   2.635   0.156  0.00  0.00     0.022 A 
ATOM      8  C7  BZF d   1       0.921   3.172  -1.028  0.00  0.00     0.029 A 
ATOM      9  C7A BZF d   1      -0.022   3.217  -2.026  0.00  0.00     0.058 A 
ENDROOT
TORSDOF 0
ENDMDL
