MODEL 1
REMARK minimizedAffinity 18.2034931
REMARK minimizedRMSD -1
REMARK  0 active torsions:
REMARK  status: ('A' for Active; 'I' for Inactive)
ROOT
ATOM      1  O1  BZF d   1       0.005   5.202  -5.231  0.00  0.00    -0.204 OA
ATOM      2  C2  BZF d   1       1.123   6.000  -5.377  0.00  0.00     0.174 A 
ATOM      3  C3  BZF d   1       1.878   5.975  -4.260  0.00  0.00    -0.012 A 
ATOM      4  C3A BZF d   1       1.236   5.035  -3.393  0.00  0.00    -0.107 A 
ATOM      5  C4  BZF d   1       1.519   4.566  -2.142  0.00  0.00     0.055 A 
ATOM      6  C5  BZF d   1       0.651   3.708  -1.546  0.00  0.00    -0.016 A 
ATOM      7  C6  BZF d   1      -0.511   3.301  -2.169  0.00  0.00     0.022 A 
ATOM      8  C7  BZF d   1      -0.832   3.735  -3.412  0.00  0.00     0.029 A 
ATOM      9  C7A BZF d   1       0.060   4.577  -4.030  0.00  0.00     0.058 A 
ENDROOT
TORSDOF 0
ENDMDL
