MODEL 1
REMARK minimizedAffinity 20.0025158
REMARK minimizedRMSD -1
REMARK  0 active torsions:
REMARK  status: ('A' for Active; 'I' for Inactive)
ROOT
ATOM      1  O1  BZF d   1      -6.000   5.997   0.013  0.00  0.00    -0.204 OA
ATOM      2  C2  BZF d   1      -5.431   6.000   1.272  0.00  0.00     0.174 A 
ATOM      3  C3  BZF d   1      -4.190   5.474   1.237  0.00  0.00    -0.012 A 
ATOM      4  C3A BZF d   1      -3.934   5.205  -0.144  0.00  0.00    -0.107 A 
ATOM      5  C4  BZF d   1      -2.862   4.692  -0.818  0.00  0.00     0.055 A 
ATOM      6  C5  BZF d   1      -2.959   4.490  -2.158  0.00  0.00    -0.016 A 
ATOM      7  C6  BZF d   1      -4.113   4.785  -2.855  0.00  0.00     0.022 A 
ATOM      8  C7  BZF d   1      -5.200   5.300  -2.231  0.00  0.00     0.029 A 
ATOM      9  C7A BZF d   1      -5.094   5.536  -0.882  0.00  0.00     0.058 A 
ENDROOT
TORSDOF 0
ENDMDL
