MODEL 1
REMARK minimizedAffinity 24.2675934
REMARK minimizedRMSD -1
REMARK  0 active torsions:
REMARK  status: ('A' for Active; 'I' for Inactive)
ROOT
ATOM      1  O1  BZF d   1       2.143  -3.019  -2.241  0.00  0.00    -0.204 OA
ATOM      2  C2  BZF d   1       1.614  -4.269  -2.497  0.00  0.00     0.174 A 
ATOM      3  C3  BZF d   1       1.184  -4.849  -1.358  0.00  0.00    -0.012 A 
ATOM      4  C3A BZF d   1       1.377  -3.865  -0.338  0.00  0.00    -0.107 A 
ATOM      5  C4  BZF d   1       1.127  -3.842   1.004  0.00  0.00     0.055 A 
ATOM      6  C5  BZF d   1       1.501  -2.754   1.727  0.00  0.00    -0.016 A 
ATOM      7  C6  BZF d   1       2.131  -1.675   1.142  0.00  0.00     0.022 A 
ATOM      8  C7  BZF d   1       2.396  -1.650  -0.186  0.00  0.00     0.029 A 
ATOM      9  C7A BZF d   1       1.990  -2.734  -0.926  0.00  0.00     0.058 A 
ENDROOT
TORSDOF 0
ENDMDL
