MODEL 1
REMARK minimizedAffinity 24.2831249
REMARK minimizedRMSD -1
REMARK  0 active torsions:
REMARK  status: ('A' for Active; 'I' for Inactive)
ROOT
ATOM      1  O1  BZF d   1      -0.988   3.679  -4.623  0.00  0.00    -0.204 OA
ATOM      2  C2  BZF d   1      -0.828   3.140  -3.360  0.00  0.00     0.174 A 
ATOM      3  C3  BZF d   1       0.326   3.561  -2.803  0.00  0.00    -0.012 A 
ATOM      4  C3A BZF d   1       0.879   4.490  -3.741  0.00  0.00    -0.107 A 
ATOM      5  C4  BZF d   1       2.010   5.255  -3.748  0.00  0.00     0.055 A 
ATOM      6  C5  BZF d   1       2.297   6.000  -4.848  0.00  0.00    -0.016 A 
ATOM      7  C6  BZF d   1       1.480   5.998  -5.959  0.00  0.00     0.022 A 
ATOM      8  C7  BZF d   1       0.345   5.259  -5.997  0.00  0.00     0.029 A 
ATOM      9  C7A BZF d   1       0.035   4.531  -4.874  0.00  0.00     0.058 A 
ENDROOT
TORSDOF 0
ENDMDL
