MODEL 1
REMARK minimizedAffinity 22.5469131
REMARK minimizedRMSD -1
REMARK  0 active torsions:
REMARK  status: ('A' for Active; 'I' for Inactive)
ROOT
ATOM      1  O1  BZF d   1       1.489  -5.849  -2.408  0.00  0.00    -0.204 OA
ATOM      2  C2  BZF d   1       1.873  -4.843  -1.542  0.00  0.00     0.174 A 
ATOM      3  C3  BZF d   1       2.227  -3.734  -2.223  0.00  0.00    -0.012 A 
ATOM      4  C3A BZF d   1       1.967  -4.038  -3.597  0.00  0.00    -0.107 A 
ATOM      5  C4  BZF d   1       2.101  -3.329  -4.757  0.00  0.00     0.055 A 
ATOM      6  C5  BZF d   1       1.828  -3.940  -5.940  0.00  0.00    -0.016 A 
ATOM      7  C6  BZF d   1       1.423  -5.258  -6.000  0.00  0.00     0.022 A 
ATOM      8  C7  BZF d   1       1.271  -5.999  -4.876  0.00  0.00     0.029 A 
ATOM      9  C7A BZF d   1       1.514  -5.375  -3.677  0.00  0.00     0.058 A 
ENDROOT
TORSDOF 0
ENDMDL
