MODEL 1
REMARK minimizedAffinity 15.9316912
REMARK minimizedRMSD -1
REMARK  0 active torsions:
REMARK  status: ('A' for Active; 'I' for Inactive)
ROOT
ATOM      1  O1  BZF d   1       0.770   2.787   0.034  0.00  0.00    -0.204 OA
ATOM      2  C2  BZF d   1      -0.234   2.083   0.671  0.00  0.00     0.174 A 
ATOM      3  C3  BZF d   1      -1.361   2.082  -0.069  0.00  0.00    -0.012 A 
ATOM      4  C3A BZF d   1      -1.015   2.753  -1.284  0.00  0.00    -0.107 A 
ATOM      5  C4  BZF d   1      -1.708   3.053  -2.422  0.00  0.00     0.055 A 
ATOM      6  C5  BZF d   1      -1.100   3.782  -3.393  0.00  0.00    -0.016 A 
ATOM      7  C6  BZF d   1       0.197   4.232  -3.258  0.00  0.00     0.022 A 
ATOM      8  C7  BZF d   1       0.927   3.956  -2.150  0.00  0.00     0.029 A 
ATOM      9  C7A BZF d   1       0.326   3.191  -1.181  0.00  0.00     0.058 A 
ENDROOT
TORSDOF 0
ENDMDL
