MODEL 1
REMARK minimizedAffinity 16.4192314
REMARK minimizedRMSD -1
REMARK  0 active torsions:
REMARK  status: ('A' for Active; 'I' for Inactive)
ROOT
ATOM      1  O1  BZF d   1      -5.936   3.001  -3.752  0.00  0.00    -0.204 OA
ATOM      2  C2  BZF d   1      -6.000   1.674  -4.130  0.00  0.00     0.174 A 
ATOM      3  C3  BZF d   1      -4.765   1.137  -4.201  0.00  0.00    -0.012 A 
ATOM      4  C3A BZF d   1      -3.879   2.168  -3.755  0.00  0.00    -0.107 A 
ATOM      5  C4  BZF d   1      -2.526   2.236  -3.587  0.00  0.00     0.055 A 
ATOM      6  C5  BZF d   1      -1.966   3.414  -3.205  0.00  0.00    -0.016 A 
ATOM      7  C6  BZF d   1      -2.728   4.544  -2.989  0.00  0.00     0.022 A 
ATOM      8  C7  BZF d   1      -4.075   4.524  -3.138  0.00  0.00     0.029 A 
ATOM      9  C7A BZF d   1      -4.647   3.327  -3.491  0.00  0.00     0.058 A 
ENDROOT
TORSDOF 0
ENDMDL
