MODEL 1
REMARK minimizedAffinity 18.9410267
REMARK minimizedRMSD -1
REMARK  0 active torsions:
REMARK  status: ('A' for Active; 'I' for Inactive)
ROOT
ATOM      1  O1  BZF d   1      -5.118   4.634   1.890  0.00  0.00    -0.204 OA
ATOM      2  C2  BZF d   1      -4.896   5.932   1.476  0.00  0.00     0.174 A 
ATOM      3  C3  BZF d   1      -3.821   5.998   0.664  0.00  0.00    -0.012 A 
ATOM      4  C3A BZF d   1      -3.396   4.643   0.491  0.00  0.00    -0.107 A 
ATOM      5  C4  BZF d   1      -2.387   4.059  -0.220  0.00  0.00     0.055 A 
ATOM      6  C5  BZF d   1      -2.198   2.717  -0.118  0.00  0.00    -0.016 A 
ATOM      7  C6  BZF d   1      -2.995   1.931   0.689  0.00  0.00     0.022 A 
ATOM      8  C7  BZF d   1      -4.011   2.464   1.409  0.00  0.00     0.029 A 
ATOM      9  C7A BZF d   1      -4.226   3.815   1.282  0.00  0.00     0.058 A 
ENDROOT
TORSDOF 0
ENDMDL
