MODEL 1
REMARK minimizedAffinity 7.87595701
REMARK minimizedRMSD -1
REMARK  0 active torsions:
REMARK  status: ('A' for Active; 'I' for Inactive)
ROOT
ATOM      1  O1  BZF d   1       1.000  -3.780  -3.052  0.00  0.00    -0.204 OA
ATOM      2  C2  BZF d   1       1.858  -4.404  -2.166  0.00  0.00     0.174 A 
ATOM      3  C3  BZF d   1       3.134  -4.314  -2.592  0.00  0.00    -0.012 A 
ATOM      4  C3A BZF d   1       3.081  -3.510  -3.774  0.00  0.00    -0.107 A 
ATOM      5  C4  BZF d   1       4.030  -3.054  -4.643  0.00  0.00     0.055 A 
ATOM      6  C5  BZF d   1       3.639  -2.352  -5.739  0.00  0.00    -0.016 A 
ATOM      7  C6  BZF d   1       2.310  -2.093  -6.000  0.00  0.00     0.022 A 
ATOM      8  C7  BZF d   1       1.332  -2.520  -5.164  0.00  0.00     0.029 A 
ATOM      9  C7A BZF d   1       1.726  -3.201  -4.038  0.00  0.00     0.058 A 
ENDROOT
TORSDOF 0
ENDMDL
