MODEL 1
REMARK minimizedAffinity 20.4142418
REMARK minimizedRMSD -1
REMARK  0 active torsions:
REMARK  status: ('A' for Active; 'I' for Inactive)
ROOT
ATOM      1  O1  BZF d   1      -2.824   5.704   0.712  0.00  0.00    -0.204 OA
ATOM      2  C2  BZF d   1      -3.590   5.591  -0.432  0.00  0.00     0.174 A 
ATOM      3  C3  BZF d   1      -4.903   5.548  -0.127  0.00  0.00    -0.012 A 
ATOM      4  C3A BZF d   1      -4.966   5.731   1.291  0.00  0.00    -0.107 A 
ATOM      5  C4  BZF d   1      -5.997   5.798   2.184  0.00  0.00     0.055 A 
ATOM      6  C5  BZF d   1      -5.716   5.911   3.509  0.00  0.00    -0.016 A 
ATOM      7  C6  BZF d   1      -4.419   5.954   3.975  0.00  0.00     0.022 A 
ATOM      8  C7  BZF d   1      -3.363   5.896   3.127  0.00  0.00     0.029 A 
ATOM      9  C7A BZF d   1      -3.644   5.815   1.785  0.00  0.00     0.058 A 
ENDROOT
TORSDOF 0
ENDMDL
