MODEL 1
REMARK minimizedAffinity 16.6437244
REMARK minimizedRMSD -1
REMARK  0 active torsions:
REMARK  status: ('A' for Active; 'I' for Inactive)
ROOT
ATOM      1  O1  BZF d   1      -5.994   5.815   2.281  0.00  0.00    -0.204 OA
ATOM      2  C2  BZF d   1      -4.998   5.997   3.221  0.00  0.00     0.174 A 
ATOM      3  C3  BZF d   1      -3.783   5.999   2.636  0.00  0.00    -0.012 A 
ATOM      4  C3A BZF d   1      -4.041   5.898   1.232  0.00  0.00    -0.107 A 
ATOM      5  C4  BZF d   1      -3.236   5.868   0.130  0.00  0.00     0.055 A 
ATOM      6  C5  BZF d   1      -3.799   5.688  -1.094  0.00  0.00    -0.016 A 
ATOM      7  C6  BZF d   1      -5.160   5.532  -1.251  0.00  0.00     0.022 A 
ATOM      8  C7  BZF d   1      -6.000   5.560  -0.188  0.00  0.00     0.029 A 
ATOM      9  C7A BZF d   1      -5.437   5.774   1.047  0.00  0.00     0.058 A 
ENDROOT
TORSDOF 0
ENDMDL
