MODEL 1
REMARK minimizedAffinity 17.0605488
REMARK minimizedRMSD -1
REMARK  0 active torsions:
REMARK  status: ('A' for Active; 'I' for Inactive)
ROOT
ATOM      1  O1  BZF d   1       1.254   2.594   0.368  0.00  0.00    -0.204 OA
ATOM      2  C2  BZF d   1       0.485   1.943   1.313  0.00  0.00     0.174 A 
ATOM      3  C3  BZF d   1      -0.784   1.798   0.880  0.00  0.00    -0.012 A 
ATOM      4  C3A BZF d   1      -0.787   2.313  -0.455  0.00  0.00    -0.107 A 
ATOM      5  C4  BZF d   1      -1.751   2.429  -1.415  0.00  0.00     0.055 A 
ATOM      6  C5  BZF d   1      -1.446   3.045  -2.587  0.00  0.00    -0.016 A 
ATOM      7  C6  BZF d   1      -0.190   3.560  -2.831  0.00  0.00     0.022 A 
ATOM      8  C7  BZF d   1       0.801   3.464  -1.912  0.00  0.00     0.029 A 
ATOM      9  C7A BZF d   1       0.505   2.813  -0.739  0.00  0.00     0.058 A 
ENDROOT
TORSDOF 0
ENDMDL
