MODEL 1
REMARK minimizedAffinity 14.5847788
REMARK minimizedRMSD -1
REMARK  0 active torsions:
REMARK  status: ('A' for Active; 'I' for Inactive)
ROOT
ATOM      1  O1  BZF d   1       1.078  -5.161  -3.426  0.00  0.00    -0.204 OA
ATOM      2  C2  BZF d   1       1.806  -5.051  -2.257  0.00  0.00     0.174 A 
ATOM      3  C3  BZF d   1       2.578  -3.945  -2.277  0.00  0.00    -0.012 A 
ATOM      4  C3A BZF d   1       2.247  -3.277  -3.498  0.00  0.00    -0.107 A 
ATOM      5  C4  BZF d   1       2.670  -2.114  -4.077  0.00  0.00     0.055 A 
ATOM      6  C5  BZF d   1       2.203  -1.782  -5.309  0.00  0.00    -0.016 A 
ATOM      7  C6  BZF d   1       1.319  -2.590  -5.992  0.00  0.00     0.022 A 
ATOM      8  C7  BZF d   1       0.867  -3.750  -5.457  0.00  0.00     0.029 A 
ATOM      9  C7A BZF d   1       1.311  -4.072  -4.198  0.00  0.00     0.058 A 
ENDROOT
TORSDOF 0
ENDMDL
