MODEL 1
REMARK minimizedAffinity 14.9147968
REMARK minimizedRMSD -1
REMARK  0 active torsions:
REMARK  status: ('A' for Active; 'I' for Inactive)
ROOT
ATOM      1  O1  BZF d   1      -5.972   5.999   2.084  0.00  0.00    -0.204 OA
ATOM      2  C2  BZF d   1      -4.968   6.000   3.033  0.00  0.00     0.174 A 
ATOM      3  C3  BZF d   1      -3.759   5.863   2.451  0.00  0.00    -0.012 A 
ATOM      4  C3A BZF d   1      -4.017   5.863   1.044  0.00  0.00    -0.107 A 
ATOM      5  C4  BZF d   1      -3.215   5.773  -0.058  0.00  0.00     0.055 A 
ATOM      6  C5  BZF d   1      -3.787   5.729  -1.290  0.00  0.00    -0.016 A 
ATOM      7  C6  BZF d   1      -5.156   5.768  -1.456  0.00  0.00     0.022 A 
ATOM      8  C7  BZF d   1      -5.992   5.862  -0.394  0.00  0.00     0.029 A 
ATOM      9  C7A BZF d   1      -5.416   5.940   0.850  0.00  0.00     0.058 A 
ENDROOT
TORSDOF 0
ENDMDL
