MODEL 1
REMARK minimizedAffinity 7.17737579
REMARK minimizedRMSD -1
REMARK  0 active torsions:
REMARK  status: ('A' for Active; 'I' for Inactive)
ROOT
ATOM      1  O1  BZF d   1       0.584   3.168   0.879  0.00  0.00    -0.204 OA
ATOM      2  C2  BZF d   1       0.002   1.929   1.065  0.00  0.00     0.174 A 
ATOM      3  C3  BZF d   1      -0.869   1.655   0.073  0.00  0.00    -0.012 A 
ATOM      4  C3A BZF d   1      -0.761   2.755  -0.836  0.00  0.00    -0.107 A 
ATOM      5  C4  BZF d   1      -1.364   3.053  -2.025  0.00  0.00     0.055 A 
ATOM      6  C5  BZF d   1      -1.091   4.242  -2.624  0.00  0.00    -0.016 A 
ATOM      7  C6  BZF d   1      -0.226   5.157  -2.060  0.00  0.00     0.022 A 
ATOM      8  C7  BZF d   1       0.399   4.904  -0.885  0.00  0.00     0.029 A 
ATOM      9  C7A BZF d   1       0.151   3.689  -0.294  0.00  0.00     0.058 A 
ENDROOT
TORSDOF 0
ENDMDL
