MODEL 1
REMARK minimizedAffinity 8.96619606
REMARK minimizedRMSD -1
REMARK  0 active torsions:
REMARK  status: ('A' for Active; 'I' for Inactive)
ROOT
ATOM      1  O1  BZF d   1      -1.606   4.847  -3.141  0.00  0.00    -0.204 OA
ATOM      2  C2  BZF d   1      -1.904   3.580  -3.606  0.00  0.00     0.174 A 
ATOM      3  C3  BZF d   1      -1.372   2.638  -2.801  0.00  0.00    -0.012 A 
ATOM      4  C3A BZF d   1      -0.779   3.360  -1.717  0.00  0.00    -0.107 A 
ATOM      5  C4  BZF d   1      -0.109   2.978  -0.590  0.00  0.00     0.055 A 
ATOM      6  C5  BZF d   1       0.406   3.934   0.228  0.00  0.00    -0.016 A 
ATOM      7  C6  BZF d   1       0.274   5.278  -0.054  0.00  0.00     0.022 A 
ATOM      8  C7  BZF d   1      -0.386   5.705  -1.157  0.00  0.00     0.029 A 
ATOM      9  C7A BZF d   1      -0.936   4.743  -1.968  0.00  0.00     0.058 A 
ENDROOT
TORSDOF 0
ENDMDL
