MODEL 1
REMARK minimizedAffinity 11.382638
REMARK minimizedRMSD -1
REMARK  0 active torsions:
REMARK  status: ('A' for Active; 'I' for Inactive)
ROOT
ATOM      1  O1  BZF d   1      -4.935   0.425   1.092  0.00  0.00    -0.204 OA
ATOM      2  C2  BZF d   1      -4.718  -0.054  -0.186  0.00  0.00     0.174 A 
ATOM      3  C3  BZF d   1      -3.398  -0.125  -0.452  0.00  0.00    -0.012 A 
ATOM      4  C3A BZF d   1      -2.747   0.251   0.765  0.00  0.00    -0.107 A 
ATOM      5  C4  BZF d   1      -1.437   0.359   1.135  0.00  0.00     0.055 A 
ATOM      6  C5  BZF d   1      -1.137   0.823   2.377  0.00  0.00    -0.016 A 
ATOM      7  C6  BZF d   1      -2.121   1.193   3.270  0.00  0.00     0.022 A 
ATOM      8  C7  BZF d   1      -3.434   1.100   2.950  0.00  0.00     0.029 A 
ATOM      9  C7A BZF d   1      -3.741   0.600   1.708  0.00  0.00     0.058 A 
ENDROOT
TORSDOF 0
ENDMDL
