MODEL 1
REMARK minimizedAffinity -2.59916592
REMARK minimizedRMSD -1
REMARK  0 active torsions:
REMARK  status: ('A' for Active; 'I' for Inactive)
ROOT
ATOM      1  C4' PXY d   1       3.626  -3.950   0.066  0.00  0.00     0.077 C 
ATOM      2  C1' PXY d   1      -1.781  -1.908   0.009  0.00  0.00     0.077 C 
ATOM      3  C1  PXY d   1      -0.359  -2.433   0.031  0.00  0.00    -0.082 A 
ATOM      4  C2  PXY d   1       0.054  -3.242  -0.931  0.00  0.00     0.003 A 
ATOM      5  C3  PXY d   1       1.327  -3.752  -0.909  0.00  0.00     0.003 A 
ATOM      6  C4  PXY d   1       2.202  -3.387   0.079  0.00  0.00    -0.082 A 
ATOM      7  C5  PXY d   1       1.791  -2.554   1.058  0.00  0.00     0.003 A 
ATOM      8  C6  PXY d   1       0.482  -2.080   1.040  0.00  0.00     0.003 A 
ENDROOT
TORSDOF 0
ENDMDL
