MODEL 1
REMARK minimizedAffinity -3.79132032
REMARK minimizedRMSD -1
REMARK  0 active torsions:
REMARK  status: ('A' for Active; 'I' for Inactive)
ROOT
ATOM      1  C4' PXY d   1      -0.196   0.039   1.300  0.00  0.00     0.077 C 
ATOM      2  C1' PXY d   1       3.275  -3.952  -1.033  0.00  0.00     0.077 C 
ATOM      3  C1  PXY d   1       2.374  -2.897  -0.421  0.00  0.00    -0.082 A 
ATOM      4  C2  PXY d   1       1.318  -3.267   0.284  0.00  0.00     0.003 A 
ATOM      5  C3  PXY d   1       0.475  -2.326   0.817  0.00  0.00     0.003 A 
ATOM      6  C4  PXY d   1       0.746  -0.992   0.672  0.00  0.00    -0.082 A 
ATOM      7  C5  PXY d   1       1.828  -0.606  -0.036  0.00  0.00     0.003 A 
ATOM      8  C6  PXY d   1       2.649  -1.577  -0.604  0.00  0.00     0.003 A 
ENDROOT
TORSDOF 0
ENDMDL
