MODEL 1
REMARK minimizedAffinity -3.08159304
REMARK minimizedRMSD -1
REMARK  0 active torsions:
REMARK  status: ('A' for Active; 'I' for Inactive)
ROOT
ATOM      1  C4' PXY d   1      -1.341  -1.370   0.744  0.00  0.00     0.077 C 
ATOM      2  C1' PXY d   1       4.405  -1.292   0.117  0.00  0.00     0.077 C 
ATOM      3  C1  PXY d   1       2.897  -1.323   0.274  0.00  0.00    -0.082 A 
ATOM      4  C2  PXY d   1       2.247  -0.209   0.569  0.00  0.00     0.003 A 
ATOM      5  C3  PXY d   1       0.887  -0.226   0.746  0.00  0.00     0.003 A 
ATOM      6  C4  PXY d   1       0.180  -1.384   0.567  0.00  0.00    -0.082 A 
ATOM      7  C5  PXY d   1       0.834  -2.522   0.255  0.00  0.00     0.003 A 
ATOM      8  C6  PXY d   1       2.219  -2.493   0.120  0.00  0.00     0.003 A 
ENDROOT
TORSDOF 0
ENDMDL
