MODEL 1
REMARK minimizedAffinity -4.2384963
REMARK minimizedRMSD -1
REMARK  0 active torsions:
REMARK  status: ('A' for Active; 'I' for Inactive)
ROOT
ATOM      1  C4' PXY d   1       3.294  -4.357  -0.317  0.00  0.00     0.077 C 
ATOM      2  C1' PXY d   1      -0.668  -0.269   0.687  0.00  0.00     0.077 C 
ATOM      3  C1  PXY d   1       0.364  -1.349   0.431  0.00  0.00    -0.082 A 
ATOM      4  C2  PXY d   1       1.606  -1.009   0.127  0.00  0.00     0.003 A 
ATOM      5  C3  PXY d   1       2.544  -1.973  -0.138  0.00  0.00     0.003 A 
ATOM      6  C4  PXY d   1       2.221  -3.300  -0.041  0.00  0.00    -0.082 A 
ATOM      7  C5  PXY d   1       0.958  -3.655   0.279  0.00  0.00     0.003 A 
ATOM      8  C6  PXY d   1       0.011  -2.661   0.504  0.00  0.00     0.003 A 
ENDROOT
TORSDOF 0
ENDMDL
