MODEL 1
REMARK minimizedAffinity -2.01334953
REMARK minimizedRMSD -1
REMARK  0 active torsions:
REMARK  status: ('A' for Active; 'I' for Inactive)
ROOT
ATOM      1  C4' PXY d   1       1.365  -2.535   0.400  0.00  0.00     0.077 C 
ATOM      2  C1' PXY d   1       5.991  -5.998   0.254  0.00  0.00     0.077 C 
ATOM      3  C1  PXY d   1       4.785  -5.080   0.289  0.00  0.00    -0.082 A 
ATOM      4  C2  PXY d   1       3.747  -5.392   1.048  0.00  0.00     0.003 A 
ATOM      5  C3  PXY d   1       2.636  -4.589   1.066  0.00  0.00     0.003 A 
ATOM      6  C4  PXY d   1       2.607  -3.428   0.341  0.00  0.00    -0.082 A 
ATOM      7  C5  PXY d   1       3.667  -3.098  -0.427  0.00  0.00     0.003 A 
ATOM      8  C6  PXY d   1       4.769  -3.947  -0.464  0.00  0.00     0.003 A 
ENDROOT
TORSDOF 0
ENDMDL
