MODEL 1
REMARK minimizedAffinity -4.58089304
REMARK minimizedRMSD -1
REMARK  0 active torsions:
REMARK  status: ('A' for Active; 'I' for Inactive)
ROOT
ATOM      1  C4' PXY d   1       3.877  -3.520  -0.712  0.00  0.00     0.077 C 
ATOM      2  C1' PXY d   1      -0.853  -0.677   1.008  0.00  0.00     0.077 C 
ATOM      3  C1  PXY d   1       0.382  -1.434   0.562  0.00  0.00    -0.082 A 
ATOM      4  C2  PXY d   1       1.509  -0.775   0.342  0.00  0.00     0.003 A 
ATOM      5  C3  PXY d   1       2.627  -1.439  -0.093  0.00  0.00     0.003 A 
ATOM      6  C4  PXY d   1       2.607  -2.799  -0.252  0.00  0.00    -0.082 A 
ATOM      7  C5  PXY d   1       1.465  -3.480  -0.018  0.00  0.00     0.003 A 
ATOM      8  C6  PXY d   1       0.329  -2.782   0.382  0.00  0.00     0.003 A 
ENDROOT
TORSDOF 0
ENDMDL
