MODEL 1
REMARK minimizedAffinity -1.75072134
REMARK minimizedRMSD -1
REMARK  0 active torsions:
REMARK  status: ('A' for Active; 'I' for Inactive)
ROOT
ATOM      1  C4' PXY d   1       3.721  -3.593  -0.264  0.00  0.00     0.077 C 
ATOM      2  C1' PXY d   1      -1.055  -0.649   1.125  0.00  0.00     0.077 C 
ATOM      3  C1  PXY d   1       0.203  -1.410   0.758  0.00  0.00    -0.082 A 
ATOM      4  C2  PXY d   1       0.120  -2.686   0.417  0.00  0.00     0.003 A 
ATOM      5  C3  PXY d   1       1.252  -3.397   0.113  0.00  0.00     0.003 A 
ATOM      6  C4  PXY d   1       2.476  -2.783   0.105  0.00  0.00    -0.082 A 
ATOM      7  C5  PXY d   1       2.567  -1.479   0.442  0.00  0.00     0.003 A 
ATOM      8  C6  PXY d   1       1.411  -0.785   0.787  0.00  0.00     0.003 A 
ENDROOT
TORSDOF 0
ENDMDL
