MODEL 1
REMARK minimizedAffinity -0.313064188
REMARK minimizedRMSD -1
REMARK  0 active torsions:
REMARK  status: ('A' for Active; 'I' for Inactive)
ROOT
ATOM      1  C4' PXY d   1       0.739  -3.461  -2.248  0.00  0.00     0.077 C 
ATOM      2  C1' PXY d   1       0.590   0.094   2.308  0.00  0.00     0.077 C 
ATOM      3  C1  PXY d   1       0.638  -0.831   1.108  0.00  0.00    -0.082 A 
ATOM      4  C2  PXY d   1      -0.417  -1.570   0.809  0.00  0.00     0.003 A 
ATOM      5  C3  PXY d   1      -0.380  -2.436  -0.254  0.00  0.00     0.003 A 
ATOM      6  C4  PXY d   1       0.732  -2.506  -1.051  0.00  0.00    -0.082 A 
ATOM      7  C5  PXY d   1       1.809  -1.747  -0.759  0.00  0.00     0.003 A 
ATOM      8  C6  PXY d   1       1.765  -0.905   0.349  0.00  0.00     0.003 A 
ENDROOT
TORSDOF 0
ENDMDL
