MODEL 1
REMARK minimizedAffinity 4.91593361
REMARK minimizedRMSD -1
REMARK  0 active torsions:
REMARK  status: ('A' for Active; 'I' for Inactive)
ROOT
ATOM      1  C4' PXY d   1       0.555  -0.501   3.447  0.00  0.00     0.077 C 
ATOM      2  C1' PXY d   1       0.538  -3.522  -1.481  0.00  0.00     0.077 C 
ATOM      3  C1  PXY d   1       0.556  -2.730  -0.189  0.00  0.00    -0.082 A 
ATOM      4  C2  PXY d   1      -0.500  -2.757   0.609  0.00  0.00     0.003 A 
ATOM      5  C3  PXY d   1      -0.513  -2.021   1.766  0.00  0.00     0.003 A 
ATOM      6  C4  PXY d   1       0.585  -1.293   2.137  0.00  0.00    -0.082 A 
ATOM      7  C5  PXY d   1       1.670  -1.269   1.333  0.00  0.00     0.003 A 
ATOM      8  C6  PXY d   1       1.648  -1.990   0.143  0.00  0.00     0.003 A 
ENDROOT
TORSDOF 0
ENDMDL
