MODEL 1
REMARK minimizedAffinity 12.4710674
REMARK minimizedRMSD -1
REMARK  0 active torsions:
REMARK  status: ('A' for Active; 'I' for Inactive)
ROOT
ATOM      1  C4' PXY d   1       6.000  -0.761  -1.740  0.00  0.00     0.077 C 
ATOM      2  C1' PXY d   1       1.242   1.562  -4.060  0.00  0.00     0.077 C 
ATOM      3  C1  PXY d   1       2.492   0.947  -3.463  0.00  0.00    -0.082 A 
ATOM      4  C2  PXY d   1       2.582   0.790  -2.152  0.00  0.00     0.003 A 
ATOM      5  C3  PXY d   1       3.719   0.265  -1.593  0.00  0.00     0.003 A 
ATOM      6  C4  PXY d   1       4.753  -0.153  -2.387  0.00  0.00    -0.082 A 
ATOM      7  C5  PXY d   1       4.664  -0.007  -3.726  0.00  0.00     0.003 A 
ATOM      8  C6  PXY d   1       3.519   0.566  -4.271  0.00  0.00     0.003 A 
ENDROOT
TORSDOF 0
ENDMDL
