MODEL 1
REMARK minimizedAffinity 1.34313333
REMARK minimizedRMSD -1
REMARK  0 active torsions:
REMARK  status: ('A' for Active; 'I' for Inactive)
ROOT
ATOM      1  C4' PXY d   1      -1.771  -1.988  -0.095  0.00  0.00     0.077 C 
ATOM      2  C1' PXY d   1       3.546  -4.255  -0.081  0.00  0.00     0.077 C 
ATOM      3  C1  PXY d   1       2.150  -3.664  -0.097  0.00  0.00    -0.082 A 
ATOM      4  C2  PXY d   1       1.843  -2.688   0.741  0.00  0.00     0.003 A 
ATOM      5  C3  PXY d   1       0.576  -2.164   0.762  0.00  0.00     0.003 A 
ATOM      6  C4  PXY d   1      -0.371  -2.608  -0.121  0.00  0.00    -0.082 A 
ATOM      7  C5  PXY d   1      -0.063  -3.596  -0.987  0.00  0.00     0.003 A 
ATOM      8  C6  PXY d   1       1.217  -4.143  -0.964  0.00  0.00     0.003 A 
ENDROOT
TORSDOF 0
ENDMDL
