MODEL 1
REMARK minimizedAffinity 3.42657399
REMARK minimizedRMSD -1
REMARK  0 active torsions:
REMARK  status: ('A' for Active; 'I' for Inactive)
ROOT
ATOM      1  C4' PXY d   1       3.517  -4.125  -0.224  0.00  0.00     0.077 C 
ATOM      2  C1' PXY d   1      -1.438  -1.235   0.491  0.00  0.00     0.077 C 
ATOM      3  C1  PXY d   1      -0.132  -1.982   0.303  0.00  0.00    -0.082 A 
ATOM      4  C2  PXY d   1      -0.140  -3.186  -0.245  0.00  0.00     0.003 A 
ATOM      5  C3  PXY d   1       1.028  -3.888  -0.392  0.00  0.00     0.003 A 
ATOM      6  C4  PXY d   1       2.223  -3.331  -0.024  0.00  0.00    -0.082 A 
ATOM      7  C5  PXY d   1       2.241  -2.098   0.526  0.00  0.00     0.003 A 
ATOM      8  C6  PXY d   1       1.039  -1.418   0.705  0.00  0.00     0.003 A 
ENDROOT
TORSDOF 0
ENDMDL
