MODEL 1
REMARK minimizedAffinity -5.25521898
REMARK minimizedRMSD -1
REMARK  0 active torsions:
REMARK  status: ('A' for Active; 'I' for Inactive)
ROOT
ATOM      1  C4' PXY d   1      -0.132  -0.506   0.688  0.00  0.00     0.077 C 
ATOM      2  C1' PXY d   1       3.891  -4.559  -0.207  0.00  0.00     0.077 C 
ATOM      3  C1  PXY d   1       2.827  -3.504   0.022  0.00  0.00    -0.082 A 
ATOM      4  C2  PXY d   1       3.176  -2.231   0.110  0.00  0.00     0.003 A 
ATOM      5  C3  PXY d   1       2.231  -1.267   0.349  0.00  0.00     0.003 A 
ATOM      6  C4  PXY d   1       0.907  -1.604   0.447  0.00  0.00    -0.082 A 
ATOM      7  C5  PXY d   1       0.542  -2.900   0.348  0.00  0.00     0.003 A 
ATOM      8  C6  PXY d   1       1.522  -3.867   0.146  0.00  0.00     0.003 A 
ENDROOT
TORSDOF 0
ENDMDL
