MODEL 1
REMARK minimizedAffinity -1.22871506
REMARK minimizedRMSD -1
REMARK  0 active torsions:
REMARK  status: ('A' for Active; 'I' for Inactive)
ROOT
ATOM      1  C4' PXY d   1       2.660  -3.999  -0.045  0.00  0.00     0.077 C 
ATOM      2  C1' PXY d   1      -1.395  -0.157   1.441  0.00  0.00     0.077 C 
ATOM      3  C1  PXY d   1      -0.339  -1.174   1.056  0.00  0.00    -0.082 A 
ATOM      4  C2  PXY d   1       0.918  -0.787   0.904  0.00  0.00     0.003 A 
ATOM      5  C3  PXY d   1       1.880  -1.688   0.525  0.00  0.00     0.003 A 
ATOM      6  C4  PXY d   1       1.562  -3.008   0.352  0.00  0.00    -0.082 A 
ATOM      7  C5  PXY d   1       0.285  -3.413   0.515  0.00  0.00     0.003 A 
ATOM      8  C6  PXY d   1      -0.684  -2.475   0.860  0.00  0.00     0.003 A 
ENDROOT
TORSDOF 0
ENDMDL
