MODEL 1
REMARK minimizedAffinity -0.82397455
REMARK minimizedRMSD -1
REMARK  0 active torsions:
REMARK  status: ('A' for Active; 'I' for Inactive)
ROOT
ATOM      1  C4' PXY d   1       3.786  -3.853  -0.350  0.00  0.00     0.077 C 
ATOM      2  C1' PXY d   1      -0.865  -0.774   1.167  0.00  0.00     0.077 C 
ATOM      3  C1  PXY d   1       0.360  -1.571   0.765  0.00  0.00    -0.082 A 
ATOM      4  C2  PXY d   1       0.242  -2.859   0.489  0.00  0.00     0.003 A 
ATOM      5  C3  PXY d   1       1.345  -3.602   0.155  0.00  0.00     0.003 A 
ATOM      6  C4  PXY d   1       2.574  -3.008   0.051  0.00  0.00    -0.082 A 
ATOM      7  C5  PXY d   1       2.702  -1.691   0.321  0.00  0.00     0.003 A 
ATOM      8  C6  PXY d   1       1.576  -0.964   0.698  0.00  0.00     0.003 A 
ENDROOT
TORSDOF 0
ENDMDL
