MODEL 1
REMARK minimizedAffinity 3.64851499
REMARK minimizedRMSD -1
REMARK  0 active torsions:
REMARK  status: ('A' for Active; 'I' for Inactive)
ROOT
ATOM      1  C4' PXY d   1       0.666  -2.887   0.221  0.00  0.00     0.077 C 
ATOM      2  C1' PXY d   1       5.519  -5.999   0.651  0.00  0.00     0.077 C 
ATOM      3  C1  PXY d   1       4.253  -5.172   0.540  0.00  0.00    -0.082 A 
ATOM      4  C2  PXY d   1       3.086  -5.719   0.836  0.00  0.00     0.003 A 
ATOM      5  C3  PXY d   1       1.928  -4.995   0.710  0.00  0.00     0.003 A 
ATOM      6  C4  PXY d   1       1.971  -3.681   0.328  0.00  0.00    -0.082 A 
ATOM      7  C5  PXY d   1       3.159  -3.112   0.034  0.00  0.00     0.003 A 
ATOM      8  C6  PXY d   1       4.318  -3.876   0.128  0.00  0.00     0.003 A 
ENDROOT
TORSDOF 0
ENDMDL
