MODEL 1
REMARK minimizedAffinity 1.03546107
REMARK minimizedRMSD -1
REMARK  0 active torsions:
REMARK  status: ('A' for Active; 'I' for Inactive)
ROOT
ATOM      1  C4' PXY d   1       4.873  -4.290  -0.068  0.00  0.00     0.077 C 
ATOM      2  C1' PXY d   1      -0.489  -2.357   0.893  0.00  0.00     0.077 C 
ATOM      3  C1  PXY d   1       0.921  -2.851   0.638  0.00  0.00    -0.082 A 
ATOM      4  C2  PXY d   1       1.122  -4.121   0.326  0.00  0.00     0.003 A 
ATOM      5  C3  PXY d   1       2.394  -4.593   0.123  0.00  0.00     0.003 A 
ATOM      6  C4  PXY d   1       3.466  -3.744   0.189  0.00  0.00    -0.082 A 
ATOM      7  C5  PXY d   1       3.268  -2.444   0.496  0.00  0.00     0.003 A 
ATOM      8  C6  PXY d   1       1.973  -1.995   0.739  0.00  0.00     0.003 A 
ENDROOT
TORSDOF 0
ENDMDL
