MODEL 1
REMARK minimizedAffinity 2.5957222
REMARK minimizedRMSD -1
REMARK  1 active torsions:
REMARK  status: ('A' for Active; 'I' for Inactive)
REMARK    1  A    between atoms: C3_4  and  O_7 
ROOT
ATOM      1  C   UNL d   1      -5.747   4.890  -5.996  0.00  0.00    -0.033 A 
ATOM      2  C1  UNL d   1      -5.963   5.578  -4.800  0.00  0.00     0.039 A 
ATOM      3  C2  UNL d   1      -5.983   4.885  -3.588  0.00  0.00    -0.080 A 
ATOM      4  C3  UNL d   1      -5.784   3.507  -3.585  0.00  0.00     0.150 A 
ATOM      5  C4  UNL d   1      -5.564   2.816  -4.772  0.00  0.00    -0.007 A 
ATOM      6  C5  UNL d   1      -5.546   3.509  -5.981  0.00  0.00     0.039 A 
ENDROOT
BRANCH   4   7
ATOM      7  O   UNL d   1      -5.799   2.788  -2.427  0.00  0.00    -0.526 OA
ATOM      8  H5  UNL d   1      -5.991   3.393  -1.691  0.00  0.00     0.418 HD
ENDBRANCH   4   7
TORSDOF 1
ENDMDL
