MODEL 1
REMARK minimizedAffinity 11.0117598
REMARK minimizedRMSD -1
REMARK  1 active torsions:
REMARK  status: ('A' for Active; 'I' for Inactive)
REMARK    1  A    between atoms: C3_4  and  O_7 
ROOT
ATOM      1  C   UNL d   1      -0.143   2.241  -5.660  0.00  0.00    -0.033 A 
ATOM      2  C1  UNL d   1       1.168   2.634  -5.934  0.00  0.00     0.039 A 
ATOM      3  C2  UNL d   1       2.214   2.197  -5.119  0.00  0.00    -0.080 A 
ATOM      4  C3  UNL d   1       1.936   1.368  -4.036  0.00  0.00     0.150 A 
ATOM      5  C4  UNL d   1       0.632   0.969  -3.760  0.00  0.00    -0.007 A 
ATOM      6  C5  UNL d   1      -0.411   1.408  -4.574  0.00  0.00     0.039 A 
ENDROOT
BRANCH   4   7
ATOM      7  O   UNL d   1       2.923   0.920  -3.209  0.00  0.00    -0.526 OA
ATOM      8  H5  UNL d   1       3.768   1.299  -3.505  0.00  0.00     0.418 HD
ENDBRANCH   4   7
TORSDOF 1
ENDMDL
