MODEL 1
REMARK minimizedAffinity -1.21824861
REMARK minimizedRMSD -1
REMARK  1 active torsions:
REMARK  status: ('A' for Active; 'I' for Inactive)
REMARK    1  A    between atoms: C3_4  and  O_7 
ROOT
ATOM      1  C   UNL d   1       3.006   5.999   2.983  0.00  0.00    -0.033 A 
ATOM      2  C1  UNL d   1       3.516   5.834   1.693  0.00  0.00     0.039 A 
ATOM      3  C2  UNL d   1       3.490   4.577   1.086  0.00  0.00    -0.080 A 
ATOM      4  C3  UNL d   1       2.952   3.495   1.777  0.00  0.00     0.150 A 
ATOM      5  C4  UNL d   1       2.439   3.653   3.060  0.00  0.00    -0.007 A 
ATOM      6  C5  UNL d   1       2.466   4.908   3.666  0.00  0.00     0.039 A 
ENDROOT
BRANCH   4   7
ATOM      7  O   UNL d   1       2.909   2.248   1.227  0.00  0.00    -0.526 OA
ATOM      8  H5  UNL d   1       3.324   2.284   0.350  0.00  0.00     0.418 HD
ENDBRANCH   4   7
TORSDOF 1
ENDMDL
