MODEL 1
REMARK minimizedAffinity 9.8781004
REMARK minimizedRMSD -1
REMARK  1 active torsions:
REMARK  status: ('A' for Active; 'I' for Inactive)
REMARK    1  A    between atoms: C3_4  and  O_7 
ROOT
ATOM      1  C   UNL d   1       0.107   1.544  -5.999  0.00  0.00    -0.033 A 
ATOM      2  C1  UNL d   1      -0.299   0.494  -5.174  0.00  0.00     0.039 A 
ATOM      3  C2  UNL d   1       0.431   0.185  -4.025  0.00  0.00    -0.080 A 
ATOM      4  C3  UNL d   1       1.562   0.933  -3.712  0.00  0.00     0.150 A 
ATOM      5  C4  UNL d   1       1.970   1.984  -4.527  0.00  0.00    -0.007 A 
ATOM      6  C5  UNL d   1       1.240   2.290  -5.675  0.00  0.00     0.039 A 
ENDROOT
BRANCH   4   7
ATOM      7  O   UNL d   1       2.309   0.666  -2.603  0.00  0.00    -0.526 OA
ATOM      8  H5  UNL d   1       1.924  -0.104  -2.151  0.00  0.00     0.418 HD
ENDBRANCH   4   7
TORSDOF 1
ENDMDL
