MODEL 1
REMARK minimizedAffinity -1.7585851
REMARK minimizedRMSD -1
REMARK  1 active torsions:
REMARK  status: ('A' for Active; 'I' for Inactive)
REMARK    1  A    between atoms: C3_4  and  O_7 
ROOT
ATOM      1  C   UNL d   1      -5.673   4.091  -5.999  0.00  0.00    -0.033 A 
ATOM      2  C1  UNL d   1      -5.648   2.695  -5.994  0.00  0.00     0.039 A 
ATOM      3  C2  UNL d   1      -4.428   2.016  -5.993  0.00  0.00    -0.080 A 
ATOM      4  C3  UNL d   1      -3.241   2.745  -5.996  0.00  0.00     0.150 A 
ATOM      5  C4  UNL d   1      -3.259   4.136  -5.998  0.00  0.00    -0.007 A 
ATOM      6  C5  UNL d   1      -4.478   4.811  -6.000  0.00  0.00     0.039 A 
ENDROOT
BRANCH   4   7
ATOM      7  O   UNL d   1      -2.026   2.127  -6.000  0.00  0.00    -0.526 OA
ATOM      8  H5  UNL d   1      -2.169   1.166  -6.027  0.00  0.00     0.418 HD
ENDBRANCH   4   7
TORSDOF 1
ENDMDL
