MODEL 1
REMARK minimizedAffinity 8.65014839
REMARK minimizedRMSD -1
REMARK  1 active torsions:
REMARK  status: ('A' for Active; 'I' for Inactive)
REMARK    1  A    between atoms: C3_4  and  O_7 
ROOT
ATOM      1  C   UNL d   1       3.941  -2.012  -1.906  0.00  0.00    -0.033 A 
ATOM      2  C1  UNL d   1       5.291  -1.978  -1.552  0.00  0.00     0.039 A 
ATOM      3  C2  UNL d   1       5.999  -0.776  -1.607  0.00  0.00    -0.080 A 
ATOM      4  C3  UNL d   1       5.347   0.383  -2.017  0.00  0.00     0.150 A 
ATOM      5  C4  UNL d   1       4.001   0.357  -2.368  0.00  0.00    -0.007 A 
ATOM      6  C5  UNL d   1       3.295  -0.844  -2.312  0.00  0.00     0.039 A 
ENDROOT
BRANCH   4   7
ATOM      7  O   UNL d   1       5.997   1.578  -2.092  0.00  0.00    -0.526 OA
ATOM      8  H5  UNL d   1       6.927   1.438  -1.848  0.00  0.00     0.418 HD
ENDBRANCH   4   7
TORSDOF 1
ENDMDL
