MODEL 1
REMARK minimizedAffinity 1.1951735
REMARK minimizedRMSD -1
REMARK  1 active torsions:
REMARK  status: ('A' for Active; 'I' for Inactive)
REMARK    1  A    between atoms: C3_4  and  O_7 
ROOT
ATOM      1  C   UNL d   1      -0.936  -1.341   1.296  0.00  0.00    -0.033 A 
ATOM      2  C1  UNL d   1       0.446  -1.440   1.129  0.00  0.00     0.039 A 
ATOM      3  C2  UNL d   1       1.207  -0.292   0.898  0.00  0.00    -0.080 A 
ATOM      4  C3  UNL d   1       0.574   0.946   0.837  0.00  0.00     0.150 A 
ATOM      5  C4  UNL d   1      -0.802   1.053   1.006  0.00  0.00    -0.007 A 
ATOM      6  C5  UNL d   1      -1.560  -0.095   1.236  0.00  0.00     0.039 A 
ENDROOT
BRANCH   4   7
ATOM      7  O   UNL d   1       1.274   2.094   0.609  0.00  0.00    -0.526 OA
ATOM      8  H5  UNL d   1       2.210   1.863   0.482  0.00  0.00     0.418 HD
ENDBRANCH   4   7
TORSDOF 1
ENDMDL
