MODEL 1
REMARK minimizedAffinity -3.33717537
REMARK minimizedRMSD -1
REMARK  1 active torsions:
REMARK  status: ('A' for Active; 'I' for Inactive)
REMARK    1  A    between atoms: C3_4  and  O_7 
ROOT
ATOM      1  C   UNL d   1       0.241   3.898  -5.846  0.00  0.00    -0.033 A 
ATOM      2  C1  UNL d   1      -0.949   4.611  -6.000  0.00  0.00     0.039 A 
ATOM      3  C2  UNL d   1      -2.175   3.943  -5.970  0.00  0.00    -0.080 A 
ATOM      4  C3  UNL d   1      -2.197   2.564  -5.784  0.00  0.00     0.150 A 
ATOM      5  C4  UNL d   1      -1.015   1.847  -5.626  0.00  0.00    -0.007 A 
ATOM      6  C5  UNL d   1       0.208   2.516  -5.657  0.00  0.00     0.039 A 
ENDROOT
BRANCH   4   7
ATOM      7  O   UNL d   1      -3.368   1.867  -5.752  0.00  0.00    -0.526 OA
ATOM      8  H5  UNL d   1      -4.100   2.489  -5.903  0.00  0.00     0.418 HD
ENDBRANCH   4   7
TORSDOF 1
ENDMDL
