MODEL 1
REMARK minimizedAffinity -1.9637084
REMARK minimizedRMSD -1
REMARK  1 active torsions:
REMARK  status: ('A' for Active; 'I' for Inactive)
REMARK    1  A    between atoms: C3_4  and  O_7 
ROOT
ATOM      1  C   UNL d   1       0.608   2.788  -1.097  0.00  0.00    -0.033 A 
ATOM      2  C1  UNL d   1       0.637   2.298   0.210  0.00  0.00     0.039 A 
ATOM      3  C2  UNL d   1       1.587   1.344   0.579  0.00  0.00    -0.080 A 
ATOM      4  C3  UNL d   1       2.503   0.890  -0.366  0.00  0.00     0.150 A 
ATOM      5  C4  UNL d   1       2.483   1.377  -1.669  0.00  0.00    -0.007 A 
ATOM      6  C5  UNL d   1       1.532   2.329  -2.036  0.00  0.00     0.039 A 
ENDROOT
BRANCH   4   7
ATOM      7  O   UNL d   1       3.446  -0.043  -0.054  0.00  0.00    -0.526 OA
ATOM      8  H5  UNL d   1       3.321  -0.309   0.872  0.00  0.00     0.418 HD
ENDBRANCH   4   7
TORSDOF 1
ENDMDL
