MODEL 1
REMARK minimizedAffinity 3.01263237
REMARK minimizedRMSD -1
REMARK  1 active torsions:
REMARK  status: ('A' for Active; 'I' for Inactive)
REMARK    1  A    between atoms: C3_4  and  O_7 
ROOT
ATOM      1  C   UNL d   1       0.108   3.944  -5.969  0.00  0.00    -0.033 A 
ATOM      2  C1  UNL d   1      -1.156   4.537  -5.989  0.00  0.00     0.039 A 
ATOM      3  C2  UNL d   1      -2.303   3.741  -5.998  0.00  0.00    -0.080 A 
ATOM      4  C3  UNL d   1      -2.172   2.355  -5.986  0.00  0.00     0.150 A 
ATOM      5  C4  UNL d   1      -0.917   1.757  -5.962  0.00  0.00    -0.007 A 
ATOM      6  C5  UNL d   1       0.227   2.554  -5.954  0.00  0.00     0.039 A 
ENDROOT
BRANCH   4   7
ATOM      7  O   UNL d   1      -3.263   1.537  -5.998  0.00  0.00    -0.526 OA
ATOM      8  H5  UNL d   1      -4.061   2.089  -6.044  0.00  0.00     0.418 HD
ENDBRANCH   4   7
TORSDOF 1
ENDMDL
