MODEL 1
REMARK minimizedAffinity -0.199170619
REMARK minimizedRMSD -1
REMARK  1 active torsions:
REMARK  status: ('A' for Active; 'I' for Inactive)
REMARK    1  A    between atoms: C3_4  and  O_7 
ROOT
ATOM      1  C   UNL d   1       0.253   5.180  -5.999  0.00  0.00    -0.033 A 
ATOM      2  C1  UNL d   1      -1.016   5.763  -6.000  0.00  0.00     0.039 A 
ATOM      3  C2  UNL d   1      -2.157   4.959  -5.999  0.00  0.00    -0.080 A 
ATOM      4  C3  UNL d   1      -2.016   3.574  -5.996  0.00  0.00     0.150 A 
ATOM      5  C4  UNL d   1      -0.755   2.985  -5.991  0.00  0.00    -0.007 A 
ATOM      6  C5  UNL d   1       0.383   3.791  -5.993  0.00  0.00     0.039 A 
ENDROOT
BRANCH   4   7
ATOM      7  O   UNL d   1      -3.100   2.747  -6.000  0.00  0.00    -0.526 OA
ATOM      8  H5  UNL d   1      -3.903   3.293  -6.032  0.00  0.00     0.418 HD
ENDBRANCH   4   7
TORSDOF 1
ENDMDL
