MODEL 1
REMARK minimizedAffinity -2.70676255
REMARK minimizedRMSD -1
REMARK  1 active torsions:
REMARK  status: ('A' for Active; 'I' for Inactive)
REMARK    1  A    between atoms: C3_4  and  O_7 
ROOT
ATOM      1  C   UNL d   1      -0.642   4.636  -5.847  0.00  0.00    -0.033 A 
ATOM      2  C1  UNL d   1      -0.173   3.329  -5.702  0.00  0.00     0.039 A 
ATOM      3  C2  UNL d   1      -1.071   2.260  -5.703  0.00  0.00    -0.080 A 
ATOM      4  C3  UNL d   1      -2.432   2.510  -5.851  0.00  0.00     0.150 A 
ATOM      5  C4  UNL d   1      -2.906   3.810  -6.000  0.00  0.00    -0.007 A 
ATOM      6  C5  UNL d   1      -2.008   4.876  -5.998  0.00  0.00     0.039 A 
ENDROOT
BRANCH   4   7
ATOM      7  O   UNL d   1      -3.347   1.499  -5.853  0.00  0.00    -0.526 OA
ATOM      8  H5  UNL d   1      -2.878   0.660  -5.712  0.00  0.00     0.418 HD
ENDBRANCH   4   7
TORSDOF 1
ENDMDL
