MODEL 1
REMARK minimizedAffinity -1.70714951
REMARK minimizedRMSD -1
REMARK  1 active torsions:
REMARK  status: ('A' for Active; 'I' for Inactive)
REMARK    1  A    between atoms: C1_2  and  C2_3 
ROOT
ATOM      1  C2  UNL d   1       0.886  -0.099  -0.518  0.00  0.00    -0.076 A 
ATOM      2  C3  UNL d   1       0.023  -1.193  -0.701  0.00  0.00     0.004 A 
ATOM      3  C4  UNL d   1       0.523  -2.490  -0.807  0.00  0.00    -0.003 A 
ATOM      4  C5  UNL d   1       1.893  -2.714  -0.731  0.00  0.00     0.000 A 
ATOM      5  C6  UNL d   1       2.762  -1.641  -0.532  0.00  0.00     0.000 A 
ATOM      6  C7  UNL d   1       2.274  -0.330  -0.406  0.00  0.00    -0.073 A 
ATOM      7  C8  UNL d   1       3.257   0.790  -0.199  0.00  0.00     0.078 C 
ENDROOT
BRANCH   1   8
ATOM      8  C1  UNL d   1       0.289   1.288  -0.437  0.00  0.00     0.053 C 
ATOM      9  C   UNL d   1      -1.231   1.266  -0.377  0.00  0.00     0.018 C 
ENDBRANCH   1   8
TORSDOF 1
ENDMDL
