MODEL 1
REMARK minimizedAffinity -6.11328411
REMARK minimizedRMSD -1
REMARK  1 active torsions:
REMARK  status: ('A' for Active; 'I' for Inactive)
REMARK    1  A    between atoms: C1_2  and  C2_3 
ROOT
ATOM      1  C2  UNL d   1       0.859   0.182   0.166  0.00  0.00    -0.076 A 
ATOM      2  C3  UNL d   1       0.861  -1.209   0.371  0.00  0.00     0.004 A 
ATOM      3  C4  UNL d   1       1.997  -1.864   0.843  0.00  0.00    -0.003 A 
ATOM      4  C5  UNL d   1       3.151  -1.138   1.118  0.00  0.00     0.000 A 
ATOM      5  C6  UNL d   1       3.162   0.245   0.936  0.00  0.00     0.000 A 
ATOM      6  C7  UNL d   1       2.020   0.922   0.477  0.00  0.00    -0.073 A 
ATOM      7  C8  UNL d   1       2.090   2.414   0.294  0.00  0.00     0.078 C 
ENDROOT
BRANCH   1   8
ATOM      8  C1  UNL d   1      -0.394   0.833  -0.374  0.00  0.00     0.053 C 
ATOM      9  C   UNL d   1      -1.661   0.253   0.236  0.00  0.00     0.018 C 
ENDBRANCH   1   8
TORSDOF 1
ENDMDL
