MODEL 1
REMARK minimizedAffinity -3.6410141
REMARK minimizedRMSD -1
REMARK  1 active torsions:
REMARK  status: ('A' for Active; 'I' for Inactive)
REMARK    1  A    between atoms: C1_2  and  C2_3 
ROOT
ATOM      1  C2  UNL d   1      -0.543   0.366  -0.556  0.00  0.00    -0.076 A 
ATOM      2  C3  UNL d   1      -1.035  -0.922  -0.829  0.00  0.00     0.004 A 
ATOM      3  C4  UNL d   1      -0.239  -2.050  -0.637  0.00  0.00    -0.003 A 
ATOM      4  C5  UNL d   1       1.063  -1.908  -0.168  0.00  0.00     0.000 A 
ATOM      5  C6  UNL d   1       1.561  -0.639   0.125  0.00  0.00     0.000 A 
ATOM      6  C7  UNL d   1       0.766   0.507  -0.047  0.00  0.00    -0.073 A 
ATOM      7  C8  UNL d   1       1.357   1.851   0.279  0.00  0.00     0.078 C 
ENDROOT
BRANCH   1   8
ATOM      8  C1  UNL d   1      -1.443   1.554  -0.809  0.00  0.00     0.053 C 
ATOM      9  C   UNL d   1      -2.822   1.383  -0.191  0.00  0.00     0.018 C 
ENDBRANCH   1   8
TORSDOF 1
ENDMDL
