MODEL 1
REMARK minimizedAffinity -4.80692291
REMARK minimizedRMSD -1
REMARK  1 active torsions:
REMARK  status: ('A' for Active; 'I' for Inactive)
REMARK    1  A    between atoms: C1_2  and  C2_3 
ROOT
ATOM      1  C2  UNL d   1       0.768  -1.156  -0.162  0.00  0.00    -0.076 A 
ATOM      2  C3  UNL d   1       0.846   0.020   0.604  0.00  0.00     0.004 A 
ATOM      3  C4  UNL d   1      -0.212   0.928   0.634  0.00  0.00    -0.003 A 
ATOM      4  C5  UNL d   1      -1.364   0.674  -0.101  0.00  0.00     0.000 A 
ATOM      5  C6  UNL d   1      -1.466  -0.497  -0.852  0.00  0.00     0.000 A 
ATOM      6  C7  UNL d   1      -0.415  -1.430  -0.881  0.00  0.00    -0.073 A 
ATOM      7  C8  UNL d   1      -0.576  -2.673  -1.713  0.00  0.00     0.078 C 
ENDROOT
BRANCH   1   8
ATOM      8  C1  UNL d   1       1.957  -2.090  -0.177  0.00  0.00     0.053 C 
ATOM      9  C   UNL d   1       2.865  -1.898   1.027  0.00  0.00     0.018 C 
ENDBRANCH   1   8
TORSDOF 1
ENDMDL
