MODEL 1
REMARK minimizedAffinity -3.96245956
REMARK minimizedRMSD -1
REMARK  1 active torsions:
REMARK  status: ('A' for Active; 'I' for Inactive)
REMARK    1  A    between atoms: C1_2  and  C2_3 
ROOT
ATOM      1  C2  UNL d   1      -0.734   1.013  -0.264  0.00  0.00    -0.076 A 
ATOM      2  C3  UNL d   1       0.282   1.966  -0.074  0.00  0.00     0.004 A 
ATOM      3  C4  UNL d   1       1.559   1.582   0.331  0.00  0.00    -0.003 A 
ATOM      4  C5  UNL d   1       1.841   0.239   0.553  0.00  0.00     0.000 A 
ATOM      5  C6  UNL d   1       0.850  -0.722   0.353  0.00  0.00     0.000 A 
ATOM      6  C7  UNL d   1      -0.438  -0.353  -0.071  0.00  0.00    -0.073 A 
ATOM      7  C8  UNL d   1      -1.470  -1.430  -0.265  0.00  0.00     0.078 C 
ENDROOT
BRANCH   1   8
ATOM      8  C1  UNL d   1      -2.107   1.492  -0.678  0.00  0.00     0.053 C 
ATOM      9  C   UNL d   1      -2.979   1.861   0.512  0.00  0.00     0.018 C 
ENDBRANCH   1   8
TORSDOF 1
ENDMDL
