MODEL 1
REMARK minimizedAffinity 18.9937553
REMARK minimizedRMSD -1
REMARK  0 active torsions:
REMARK  status: ('A' for Active; 'I' for Inactive)
ROOT
ATOM      1  C   UNL d   1      -2.243  -4.926  -3.519  0.00  0.00     0.124 A 
ATOM      2  C1  UNL d   1      -1.470  -4.812  -2.371  0.00  0.00     0.062 A 
ATOM      3  C2  UNL d   1      -0.102  -5.064  -2.421  0.00  0.00     0.162 A 
ATOM      4  C3  UNL d   1       0.503  -5.431  -3.624  0.00  0.00    -0.034 A 
ATOM      5  C4  UNL d   1      -0.282  -5.545  -4.773  0.00  0.00     0.162 A 
ATOM      6  C5  UNL d   1      -1.649  -5.292  -4.718  0.00  0.00     0.062 A 
ATOM      7  F   UNL d   1      -2.394  -5.403  -5.827  0.00  0.00    -0.097 F 
ATOM      8  F1  UNL d   1       0.267  -5.896  -5.945  0.00  0.00    -0.096 F 
ATOM      9  I   UNL d   1       2.548  -5.808  -3.703  0.00  0.00    -0.060 I 
ATOM     10  F2  UNL d   1       0.621  -4.946  -1.298  0.00  0.00    -0.096 F 
ATOM     11  F3  UNL d   1      -2.042  -4.460  -1.211  0.00  0.00    -0.097 F 
ATOM     12  F4  UNL d   1      -3.559  -4.685  -3.467  0.00  0.00    -0.092 F 
ENDROOT
TORSDOF 0
ENDMDL
