MODEL 1
REMARK minimizedAffinity 22.4147205
REMARK minimizedRMSD -1
REMARK  0 active torsions:
REMARK  status: ('A' for Active; 'I' for Inactive)
ROOT
ATOM      1  C   UNL d   1       2.589   0.001   0.877  0.00  0.00     0.124 A 
ATOM      2  C1  UNL d   1       3.282   0.249   2.053  0.00  0.00     0.062 A 
ATOM      3  C2  UNL d   1       4.083   1.381   2.168  0.00  0.00     0.162 A 
ATOM      4  C3  UNL d   1       4.194   2.276   1.104  0.00  0.00    -0.034 A 
ATOM      5  C4  UNL d   1       3.495   2.020  -0.077  0.00  0.00     0.162 A 
ATOM      6  C5  UNL d   1       2.695   0.886  -0.187  0.00  0.00     0.062 A 
ATOM      7  F   UNL d   1       2.026   0.649  -1.324  0.00  0.00    -0.097 F 
ATOM      8  F1  UNL d   1       3.579   2.859  -1.120  0.00  0.00    -0.096 F 
ATOM      9  I   UNL d   1       5.391   3.971   1.272  0.00  0.00    -0.060 I 
ATOM     10  F2  UNL d   1       4.742   1.596   3.317  0.00  0.00    -0.096 F 
ATOM     11  F3  UNL d   1       3.182  -0.605   3.081  0.00  0.00    -0.097 F 
ATOM     12  F4  UNL d   1       1.820  -1.090   0.768  0.00  0.00    -0.092 F 
ENDROOT
TORSDOF 0
ENDMDL
