MODEL 1
REMARK minimizedAffinity 26.9353657
REMARK minimizedRMSD -1
REMARK  0 active torsions:
REMARK  status: ('A' for Active; 'I' for Inactive)
ROOT
ATOM      1  C   UNL d   1      -4.107   0.101  -1.398  0.00  0.00     0.124 A 
ATOM      2  C1  UNL d   1      -3.382  -1.063  -1.609  0.00  0.00     0.062 A 
ATOM      3  C2  UNL d   1      -2.362  -1.422  -0.732  0.00  0.00     0.162 A 
ATOM      4  C3  UNL d   1      -2.062  -0.615   0.366  0.00  0.00    -0.034 A 
ATOM      5  C4  UNL d   1      -2.796   0.555   0.572  0.00  0.00     0.162 A 
ATOM      6  C5  UNL d   1      -3.813   0.909  -0.308  0.00  0.00     0.062 A 
ATOM      7  F   UNL d   1      -4.513   2.034  -0.102  0.00  0.00    -0.097 F 
ATOM      8  F1  UNL d   1      -2.534   1.353   1.617  0.00  0.00    -0.096 F 
ATOM      9  I   UNL d   1      -0.539  -1.148   1.680  0.00  0.00    -0.060 I 
ATOM     10  F2  UNL d   1      -1.678  -2.552  -0.960  0.00  0.00    -0.096 F 
ATOM     11  F3  UNL d   1      -3.663  -1.844  -2.662  0.00  0.00    -0.097 F 
ATOM     12  F4  UNL d   1      -5.086   0.445  -2.244  0.00  0.00    -0.092 F 
ENDROOT
TORSDOF 0
ENDMDL
