MODEL 1
REMARK minimizedAffinity 19.8384571
REMARK minimizedRMSD -1
REMARK  0 active torsions:
REMARK  status: ('A' for Active; 'I' for Inactive)
ROOT
ATOM      1  C   UNL d   1       2.462   1.955  -1.547  0.00  0.00     0.124 A 
ATOM      2  C1  UNL d   1       3.374   2.786  -2.182  0.00  0.00     0.062 A 
ATOM      3  C2  UNL d   1       4.385   3.404  -1.452  0.00  0.00     0.162 A 
ATOM      4  C3  UNL d   1       4.490   3.193  -0.077  0.00  0.00    -0.034 A 
ATOM      5  C4  UNL d   1       3.569   2.356   0.555  0.00  0.00     0.162 A 
ATOM      6  C5  UNL d   1       2.560   1.741  -0.179  0.00  0.00     0.062 A 
ATOM      7  F   UNL d   1       1.680   0.938   0.436  0.00  0.00    -0.097 F 
ATOM      8  F1  UNL d   1       3.641   2.131   1.876  0.00  0.00    -0.096 F 
ATOM      9  I   UNL d   1       6.000   4.115   1.019  0.00  0.00    -0.060 I 
ATOM     10  F2  UNL d   1       5.252   4.203  -2.092  0.00  0.00    -0.096 F 
ATOM     11  F3  UNL d   1       3.281   2.996  -3.503  0.00  0.00    -0.097 F 
ATOM     12  F4  UNL d   1       1.490   1.362  -2.252  0.00  0.00    -0.092 F 
ENDROOT
TORSDOF 0
ENDMDL
