MODEL 1
REMARK minimizedAffinity 21.256752
REMARK minimizedRMSD -1
REMARK  0 active torsions:
REMARK  status: ('A' for Active; 'I' for Inactive)
ROOT
ATOM      1  C   UNL d   1       4.149   1.934   1.284  0.00  0.00     0.124 A 
ATOM      2  C1  UNL d   1       3.204   1.511   0.360  0.00  0.00     0.062 A 
ATOM      3  C2  UNL d   1       3.194   2.045  -0.925  0.00  0.00     0.162 A 
ATOM      4  C3  UNL d   1       4.133   3.009  -1.295  0.00  0.00    -0.034 A 
ATOM      5  C4  UNL d   1       5.080   3.430  -0.359  0.00  0.00     0.162 A 
ATOM      6  C5  UNL d   1       5.086   2.893   0.924  0.00  0.00     0.062 A 
ATOM      7  F   UNL d   1       6.000   3.303   1.815  0.00  0.00    -0.097 F 
ATOM      8  F1  UNL d   1       5.997   4.354  -0.681  0.00  0.00    -0.096 F 
ATOM      9  I   UNL d   1       4.120   3.810  -3.215  0.00  0.00    -0.060 I 
ATOM     10  F2  UNL d   1       2.269   1.618  -1.797  0.00  0.00    -0.096 F 
ATOM     11  F3  UNL d   1       2.297   0.586   0.706  0.00  0.00    -0.097 F 
ATOM     12  F4  UNL d   1       4.156   1.420   2.521  0.00  0.00    -0.092 F 
ENDROOT
TORSDOF 0
ENDMDL
