MODEL 1
REMARK minimizedAffinity 22.9736958
REMARK minimizedRMSD -1
REMARK  0 active torsions:
REMARK  status: ('A' for Active; 'I' for Inactive)
ROOT
ATOM      1  C   UNL d   1      -2.295  -0.673   1.378  0.00  0.00     0.124 A 
ATOM      2  C1  UNL d   1      -3.468   0.048   1.200  0.00  0.00     0.062 A 
ATOM      3  C2  UNL d   1      -3.912   0.918   2.192  0.00  0.00     0.162 A 
ATOM      4  C3  UNL d   1      -3.182   1.072   3.371  0.00  0.00    -0.034 A 
ATOM      5  C4  UNL d   1      -2.004   0.342   3.543  0.00  0.00     0.162 A 
ATOM      6  C5  UNL d   1      -1.565  -0.526   2.548  0.00  0.00     0.062 A 
ATOM      7  F   UNL d   1      -0.432  -1.222   2.722  0.00  0.00    -0.097 F 
ATOM      8  F1  UNL d   1      -1.279   0.466   4.664  0.00  0.00    -0.096 F 
ATOM      9  I   UNL d   1      -3.843   2.371   4.856  0.00  0.00    -0.060 I 
ATOM     10  F2  UNL d   1      -5.048   1.602   1.993  0.00  0.00    -0.096 F 
ATOM     11  F3  UNL d   1      -4.175  -0.094   0.070  0.00  0.00    -0.097 F 
ATOM     12  F4  UNL d   1      -1.871  -1.510   0.422  0.00  0.00    -0.092 F 
ENDROOT
TORSDOF 0
ENDMDL
