MODEL 1
REMARK minimizedAffinity 20.4336224
REMARK minimizedRMSD -1
REMARK  0 active torsions:
REMARK  status: ('A' for Active; 'I' for Inactive)
ROOT
ATOM      1  C   UNL d   1       2.379   5.227  -2.440  0.00  0.00     0.124 A 
ATOM      2  C1  UNL d   1       2.092   4.595  -3.642  0.00  0.00     0.062 A 
ATOM      3  C2  UNL d   1       3.124   4.124  -4.448  0.00  0.00     0.162 A 
ATOM      4  C3  UNL d   1       4.453   4.282  -4.055  0.00  0.00    -0.034 A 
ATOM      5  C4  UNL d   1       4.733   4.920  -2.845  0.00  0.00     0.162 A 
ATOM      6  C5  UNL d   1       3.698   5.389  -2.043  0.00  0.00     0.062 A 
ATOM      7  F   UNL d   1       3.977   6.000  -0.882  0.00  0.00    -0.097 F 
ATOM      8  F1  UNL d   1       6.000   5.089  -2.437  0.00  0.00    -0.096 F 
ATOM      9  I   UNL d   1       5.998   3.579  -5.258  0.00  0.00    -0.060 I 
ATOM     10  F2  UNL d   1       2.817   3.516  -5.604  0.00  0.00    -0.096 F 
ATOM     11  F3  UNL d   1       0.818   4.438  -4.028  0.00  0.00    -0.097 F 
ATOM     12  F4  UNL d   1       1.384   5.681  -1.666  0.00  0.00    -0.092 F 
ENDROOT
TORSDOF 0
ENDMDL
