MODEL 1
REMARK minimizedAffinity 20.7564163
REMARK minimizedRMSD -1
REMARK  0 active torsions:
REMARK  status: ('A' for Active; 'I' for Inactive)
ROOT
ATOM      1  C   UNL d   1       0.682   3.724  -2.677  0.00  0.00     0.124 A 
ATOM      2  C1  UNL d   1       1.413   2.565  -2.897  0.00  0.00     0.062 A 
ATOM      3  C2  UNL d   1       2.789   2.556  -2.691  0.00  0.00     0.162 A 
ATOM      4  C3  UNL d   1       3.445   3.710  -2.262  0.00  0.00    -0.034 A 
ATOM      5  C4  UNL d   1       2.703   4.873  -2.044  0.00  0.00     0.162 A 
ATOM      6  C5  UNL d   1       1.327   4.877  -2.251  0.00  0.00     0.062 A 
ATOM      7  F   UNL d   1       0.623   5.998  -2.038  0.00  0.00    -0.097 F 
ATOM      8  F1  UNL d   1       3.301   6.000  -1.631  0.00  0.00    -0.096 F 
ATOM      9  I   UNL d   1       5.503   3.701  -1.953  0.00  0.00    -0.060 I 
ATOM     10  F2  UNL d   1       3.470   1.422  -2.911  0.00  0.00    -0.096 F 
ATOM     11  F3  UNL d   1       0.792   1.451  -3.309  0.00  0.00    -0.097 F 
ATOM     12  F4  UNL d   1      -0.642   3.730  -2.876  0.00  0.00    -0.092 F 
ENDROOT
TORSDOF 0
ENDMDL
