MODEL 1
REMARK minimizedAffinity 23.239109
REMARK minimizedRMSD -1
REMARK  0 active torsions:
REMARK  status: ('A' for Active; 'I' for Inactive)
ROOT
ATOM      1  C   UNL d   1       4.015   1.888   0.981  0.00  0.00     0.124 A 
ATOM      2  C1  UNL d   1       4.988   2.692   0.404  0.00  0.00     0.062 A 
ATOM      3  C2  UNL d   1       4.923   3.008  -0.950  0.00  0.00     0.162 A 
ATOM      4  C3  UNL d   1       3.879   2.520  -1.737  0.00  0.00    -0.034 A 
ATOM      5  C4  UNL d   1       2.905   1.711  -1.150  0.00  0.00     0.162 A 
ATOM      6  C5  UNL d   1       2.975   1.399   0.204  0.00  0.00     0.062 A 
ATOM      7  F   UNL d   1       2.033   0.622   0.760  0.00  0.00    -0.097 F 
ATOM      8  F1  UNL d   1       1.888   1.225  -1.877  0.00  0.00    -0.096 F 
ATOM      9  I   UNL d   1       3.778   2.989  -3.762  0.00  0.00    -0.060 I 
ATOM     10  F2  UNL d   1       5.877   3.787  -1.481  0.00  0.00    -0.096 F 
ATOM     11  F3  UNL d   1       5.995   3.166   1.152  0.00  0.00    -0.097 F 
ATOM     12  F4  UNL d   1       4.081   1.586   2.284  0.00  0.00    -0.092 F 
ENDROOT
TORSDOF 0
ENDMDL
