MODEL 1
REMARK minimizedAffinity 15.2834711
REMARK minimizedRMSD -1
REMARK  0 active torsions:
REMARK  status: ('A' for Active; 'I' for Inactive)
ROOT
ATOM      1  C   UNL d   1      -2.447  -0.356   1.748  0.00  0.00     0.124 A 
ATOM      2  C1  UNL d   1      -3.671   0.291   1.650  0.00  0.00     0.062 A 
ATOM      3  C2  UNL d   1      -4.195   0.967   2.748  0.00  0.00     0.162 A 
ATOM      4  C3  UNL d   1      -3.495   1.000   3.954  0.00  0.00    -0.034 A 
ATOM      5  C4  UNL d   1      -2.265   0.346   4.046  0.00  0.00     0.162 A 
ATOM      6  C5  UNL d   1      -1.745  -0.328   2.945  0.00  0.00     0.062 A 
ATOM      7  F   UNL d   1      -0.563  -0.953   3.042  0.00  0.00    -0.097 F 
ATOM      8  F1  UNL d   1      -1.565   0.358   5.190  0.00  0.00    -0.096 F 
ATOM      9  I   UNL d   1      -4.275   2.010   5.599  0.00  0.00    -0.060 I 
ATOM     10  F2  UNL d   1      -5.380   1.584   2.625  0.00  0.00    -0.096 F 
ATOM     11  F3  UNL d   1      -4.351   0.265   0.495  0.00  0.00    -0.097 F 
ATOM     12  F4  UNL d   1      -1.945  -1.007   0.691  0.00  0.00    -0.092 F 
ENDROOT
TORSDOF 0
ENDMDL
