MODEL 1
REMARK minimizedAffinity 25.8330231
REMARK minimizedRMSD -1
REMARK  0 active torsions:
REMARK  status: ('A' for Active; 'I' for Inactive)
ROOT
ATOM      1  C   UNL d   1       2.179   2.054  -2.287  0.00  0.00     0.124 A 
ATOM      2  C1  UNL d   1       2.398   1.627  -0.985  0.00  0.00     0.062 A 
ATOM      3  C2  UNL d   1       3.489   2.106  -0.265  0.00  0.00     0.162 A 
ATOM      4  C3  UNL d   1       4.369   3.020  -0.845  0.00  0.00    -0.034 A 
ATOM      5  C4  UNL d   1       4.142   3.445  -2.155  0.00  0.00     0.162 A 
ATOM      6  C5  UNL d   1       3.051   2.963  -2.871  0.00  0.00     0.062 A 
ATOM      7  F   UNL d   1       2.841   3.377  -4.129  0.00  0.00    -0.097 F 
ATOM      8  F1  UNL d   1       4.969   4.322  -2.744  0.00  0.00    -0.096 F 
ATOM      9  I   UNL d   1       6.000   3.739   0.229  0.00  0.00    -0.060 I 
ATOM     10  F2  UNL d   1       3.676   1.676   0.992  0.00  0.00    -0.096 F 
ATOM     11  F3  UNL d   1       1.558   0.749  -0.419  0.00  0.00    -0.097 F 
ATOM     12  F4  UNL d   1       1.130   1.591  -2.978  0.00  0.00    -0.092 F 
ENDROOT
TORSDOF 0
ENDMDL
