MODEL 1
REMARK minimizedAffinity 28.689579
REMARK minimizedRMSD -1
REMARK  0 active torsions:
REMARK  status: ('A' for Active; 'I' for Inactive)
ROOT
ATOM      1  C   UNL d   1       0.149  -1.483   3.633  0.00  0.00     0.124 A 
ATOM      2  C1  UNL d   1      -0.628  -0.416   4.059  0.00  0.00     0.062 A 
ATOM      3  C2  UNL d   1      -1.717   0.004   3.299  0.00  0.00     0.162 A 
ATOM      4  C3  UNL d   1      -2.034  -0.644   2.106  0.00  0.00    -0.034 A 
ATOM      5  C4  UNL d   1      -1.247  -1.717   1.684  0.00  0.00     0.162 A 
ATOM      6  C5  UNL d   1      -0.160  -2.133   2.446  0.00  0.00     0.062 A 
ATOM      7  F   UNL d   1       0.590  -3.165   2.033  0.00  0.00    -0.097 F 
ATOM      8  F1  UNL d   1      -1.524  -2.363   0.542  0.00  0.00    -0.096 F 
ATOM      9  I   UNL d   1      -3.661  -0.020   0.967  0.00  0.00    -0.060 I 
ATOM     10  F2  UNL d   1      -2.451   1.039   3.735  0.00  0.00    -0.096 F 
ATOM     11  F3  UNL d   1      -0.331   0.214   5.204  0.00  0.00    -0.097 F 
ATOM     12  F4  UNL d   1       1.197  -1.885   4.365  0.00  0.00    -0.092 F 
ENDROOT
TORSDOF 0
ENDMDL
