MODEL 1
REMARK minimizedAffinity 24.1757317
REMARK minimizedRMSD -1
REMARK  0 active torsions:
REMARK  status: ('A' for Active; 'I' for Inactive)
ROOT
ATOM      1  C   UNL d   1      -0.034  -1.224   3.754  0.00  0.00     0.124 A 
ATOM      2  C1  UNL d   1      -0.291  -1.767   2.502  0.00  0.00     0.062 A 
ATOM      3  C2  UNL d   1      -1.368  -1.310   1.749  0.00  0.00     0.162 A 
ATOM      4  C3  UNL d   1      -2.197  -0.303   2.245  0.00  0.00    -0.034 A 
ATOM      5  C4  UNL d   1      -1.933   0.237   3.504  0.00  0.00     0.162 A 
ATOM      6  C5  UNL d   1      -0.855  -0.223   4.253  0.00  0.00     0.062 A 
ATOM      7  F   UNL d   1      -0.608   0.302   5.462  0.00  0.00    -0.097 F 
ATOM      8  F1  UNL d   1      -2.709   1.206   4.011  0.00  0.00    -0.096 F 
ATOM      9  I   UNL d   1      -3.809   0.383   1.121  0.00  0.00    -0.060 I 
ATOM     10  F2  UNL d   1      -1.593  -1.852   0.543  0.00  0.00    -0.096 F 
ATOM     11  F3  UNL d   1       0.500  -2.735   2.017  0.00  0.00    -0.097 F 
ATOM     12  F4  UNL d   1       1.003  -1.666   4.477  0.00  0.00    -0.092 F 
ENDROOT
TORSDOF 0
ENDMDL
