MODEL 1
REMARK minimizedAffinity 29.3937969
REMARK minimizedRMSD -1
REMARK  0 active torsions:
REMARK  status: ('A' for Active; 'I' for Inactive)
ROOT
ATOM      1  C   UNL d   1       1.289   4.265  -2.558  0.00  0.00     0.124 A 
ATOM      2  C1  UNL d   1       1.748   3.381  -3.525  0.00  0.00     0.062 A 
ATOM      3  C2  UNL d   1       3.093   3.374  -3.885  0.00  0.00     0.162 A 
ATOM      4  C3  UNL d   1       3.989   4.254  -3.277  0.00  0.00    -0.034 A 
ATOM      5  C4  UNL d   1       3.519   5.140  -2.306  0.00  0.00     0.162 A 
ATOM      6  C5  UNL d   1       2.175   5.143  -1.949  0.00  0.00     0.062 A 
ATOM      7  F   UNL d   1       1.733   5.997  -1.015  0.00  0.00    -0.097 F 
ATOM      8  F1  UNL d   1       4.354   5.999  -1.701  0.00  0.00    -0.096 F 
ATOM      9  I   UNL d   1       6.000   4.247  -3.813  0.00  0.00    -0.060 I 
ATOM     10  F2  UNL d   1       3.509   2.510  -4.823  0.00  0.00    -0.096 F 
ATOM     11  F3  UNL d   1       0.895   2.532  -4.115  0.00  0.00    -0.097 F 
ATOM     12  F4  UNL d   1      -0.005   4.270  -2.214  0.00  0.00    -0.092 F 
ENDROOT
TORSDOF 0
ENDMDL
