MODEL 1
REMARK minimizedAffinity 6.86901093
REMARK minimizedRMSD -1
REMARK  0 active torsions:
REMARK  status: ('A' for Active; 'I' for Inactive)
ROOT
ATOM      1  C   UNL d   1      -2.673  -0.759   1.468  0.00  0.00     0.124 A 
ATOM      2  C1  UNL d   1      -1.954  -0.522   2.631  0.00  0.00     0.062 A 
ATOM      3  C2  UNL d   1      -2.471   0.316   3.615  0.00  0.00     0.162 A 
ATOM      4  C3  UNL d   1      -3.715   0.923   3.440  0.00  0.00    -0.034 A 
ATOM      5  C4  UNL d   1      -4.432   0.680   2.268  0.00  0.00     0.162 A 
ATOM      6  C5  UNL d   1      -3.911  -0.158   1.287  0.00  0.00     0.062 A 
ATOM      7  F   UNL d   1      -4.608  -0.386   0.164  0.00  0.00    -0.097 F 
ATOM      8  F1  UNL d   1      -5.631   1.247   2.068  0.00  0.00    -0.096 F 
ATOM      9  I   UNL d   1      -4.491   2.176   4.909  0.00  0.00    -0.060 I 
ATOM     10  F2  UNL d   1      -1.754   0.527   4.728  0.00  0.00    -0.096 F 
ATOM     11  F3  UNL d   1      -0.758  -1.101   2.807  0.00  0.00    -0.097 F 
ATOM     12  F4  UNL d   1      -2.174  -1.565   0.522  0.00  0.00    -0.092 F 
ENDROOT
TORSDOF 0
ENDMDL
