MODEL 1
REMARK minimizedAffinity 31.6130409
REMARK minimizedRMSD -1
REMARK  0 active torsions:
REMARK  status: ('A' for Active; 'I' for Inactive)
ROOT
ATOM      1  C   UNL d   1       1.850   1.895  -1.661  0.00  0.00     0.124 A 
ATOM      2  C1  UNL d   1       2.666   2.722  -2.421  0.00  0.00     0.062 A 
ATOM      3  C2  UNL d   1       3.844   3.230  -1.881  0.00  0.00     0.162 A 
ATOM      4  C3  UNL d   1       4.214   2.912  -0.574  0.00  0.00    -0.034 A 
ATOM      5  C4  UNL d   1       3.388   2.081   0.184  0.00  0.00     0.162 A 
ATOM      6  C5  UNL d   1       2.212   1.575  -0.360  0.00  0.00     0.062 A 
ATOM      7  F   UNL d   1       1.425   0.776   0.375  0.00  0.00    -0.097 F 
ATOM      8  F1  UNL d   1       3.714   1.755   1.443  0.00  0.00    -0.096 F 
ATOM      9  I   UNL d   1       5.975   3.671   0.236  0.00  0.00    -0.060 I 
ATOM     10  F2  UNL d   1       4.613   4.027  -2.638  0.00  0.00    -0.096 F 
ATOM     11  F3  UNL d   1       2.319   3.033  -3.678  0.00  0.00    -0.097 F 
ATOM     12  F4  UNL d   1       0.717   1.408  -2.183  0.00  0.00    -0.092 F 
ENDROOT
TORSDOF 0
ENDMDL
