MODEL 1
REMARK minimizedAffinity -0.00922962651
REMARK minimizedRMSD -1
REMARK  0 active torsions:
REMARK  status: ('A' for Active; 'I' for Inactive)
ROOT
ATOM      1  N1  IND d   1       1.878   3.797  -4.124  0.00  0.00    -0.196 N 
ATOM      2  C2  IND d   1       1.676   3.333  -2.854  0.00  0.00     0.054 A 
ATOM      3  C3  IND d   1       0.391   3.531  -2.480  0.00  0.00    -0.031 A 
ATOM      4  C4  IND d   1      -1.573   4.505  -3.829  0.00  0.00     0.051 A 
ATOM      5  C5  IND d   1      -1.870   5.100  -5.023  0.00  0.00    -0.031 A 
ATOM      6  C6  IND d   1      -0.914   5.292  -6.000  0.00  0.00     0.015 A 
ATOM      7  C7  IND d   1       0.378   4.884  -5.822  0.00  0.00    -0.016 A 
ATOM      8  C8  IND d   1       0.685   4.287  -4.607  0.00  0.00    -0.047 A 
ATOM      9  C9  IND d   1      -0.272   4.127  -3.596  0.00  0.00    -0.096 A 
ATOM     10  HN1 IND d   1       2.625   3.785  -4.549  0.00  0.00     0.298 HD
ENDROOT
TORSDOF 0
ENDMDL
