MODEL 1
REMARK minimizedAffinity 1.41132641
REMARK minimizedRMSD -1
REMARK  0 active torsions:
REMARK  status: ('A' for Active; 'I' for Inactive)
ROOT
ATOM      1  N1  IND d   1      -5.999   3.800  -4.400  0.00  0.00    -0.196 N 
ATOM      2  C2  IND d   1      -5.994   3.900  -3.037  0.00  0.00     0.054 A 
ATOM      3  C3  IND d   1      -5.999   2.670  -2.475  0.00  0.00    -0.031 A 
ATOM      4  C4  IND d   1      -5.913   0.357  -3.601  0.00  0.00     0.051 A 
ATOM      5  C5  IND d   1      -5.943  -0.246  -4.828  0.00  0.00    -0.031 A 
ATOM      6  C6  IND d   1      -5.991   0.484  -5.998  0.00  0.00     0.015 A 
ATOM      7  C7  IND d   1      -6.000   1.850  -5.985  0.00  0.00    -0.016 A 
ATOM      8  C8  IND d   1      -5.977   2.466  -4.742  0.00  0.00    -0.047 A 
ATOM      9  C9  IND d   1      -5.971   1.730  -3.550  0.00  0.00    -0.096 A 
ATOM     10  HN1 IND d   1      -6.014   4.460  -4.951  0.00  0.00     0.298 HD
ENDROOT
TORSDOF 0
ENDMDL
