MODEL 1
REMARK minimizedAffinity 6.22492695
REMARK minimizedRMSD -1
REMARK  0 active torsions:
REMARK  status: ('A' for Active; 'I' for Inactive)
ROOT
ATOM      1  N1  IND d   1       1.720   3.581  -4.352  0.00  0.00    -0.196 N 
ATOM      2  C2  IND d   1       1.696   3.413  -2.996  0.00  0.00     0.054 A 
ATOM      3  C3  IND d   1       0.657   4.090  -2.457  0.00  0.00    -0.031 A 
ATOM      4  C4  IND d   1      -1.188   5.455  -3.625  0.00  0.00     0.051 A 
ATOM      5  C5  IND d   1      -1.567   5.924  -4.851  0.00  0.00    -0.031 A 
ATOM      6  C6  IND d   1      -0.858   5.628  -5.997  0.00  0.00     0.015 A 
ATOM      7  C7  IND d   1       0.256   4.839  -5.961  0.00  0.00    -0.016 A 
ATOM      8  C8  IND d   1       0.649   4.366  -4.717  0.00  0.00    -0.047 A 
ATOM      9  C9  IND d   1      -0.042   4.698  -3.545  0.00  0.00    -0.096 A 
ATOM     10  HN1 IND d   1       2.307   3.251  -4.888  0.00  0.00     0.298 HD
ENDROOT
TORSDOF 0
ENDMDL
