MODEL 1
REMARK minimizedAffinity 5.38389635
REMARK minimizedRMSD -1
REMARK  0 active torsions:
REMARK  status: ('A' for Active; 'I' for Inactive)
ROOT
ATOM      1  N1  IND d   1       2.389   4.508  -3.390  0.00  0.00    -0.196 N 
ATOM      2  C2  IND d   1       1.955   3.466  -2.619  0.00  0.00     0.054 A 
ATOM      3  C3  IND d   1       0.698   3.113  -2.971  0.00  0.00    -0.031 A 
ATOM      4  C4  IND d   1      -0.796   4.041  -4.850  0.00  0.00     0.051 A 
ATOM      5  C5  IND d   1      -0.849   5.023  -5.799  0.00  0.00    -0.031 A 
ATOM      6  C6  IND d   1       0.198   5.900  -5.999  0.00  0.00     0.015 A 
ATOM      7  C7  IND d   1       1.346   5.819  -5.262  0.00  0.00    -0.016 A 
ATOM      8  C8  IND d   1       1.399   4.828  -4.293  0.00  0.00    -0.047 A 
ATOM      9  C9  IND d   1       0.324   3.962  -4.057  0.00  0.00    -0.096 A 
ATOM     10  HN1 IND d   1       3.153   4.898  -3.322  0.00  0.00     0.298 HD
ENDROOT
TORSDOF 0
ENDMDL
