MODEL 1
REMARK minimizedAffinity 4.55811644
REMARK minimizedRMSD -1
REMARK  0 active torsions:
REMARK  status: ('A' for Active; 'I' for Inactive)
ROOT
ATOM      1  N1  IND d   1      -3.545   4.698   0.634  0.00  0.00    -0.196 N 
ATOM      2  C2  IND d   1      -2.954   5.789   0.060  0.00  0.00     0.054 A 
ATOM      3  C3  IND d   1      -3.398   5.954  -1.206  0.00  0.00    -0.031 A 
ATOM      4  C4  IND d   1      -5.171   4.613  -2.504  0.00  0.00     0.051 A 
ATOM      5  C5  IND d   1      -5.964   3.504  -2.411  0.00  0.00    -0.031 A 
ATOM      6  C6  IND d   1      -5.994   2.722  -1.275  0.00  0.00     0.015 A 
ATOM      7  C7  IND d   1      -5.237   3.028  -0.179  0.00  0.00    -0.016 A 
ATOM      8  C8  IND d   1      -4.425   4.150  -0.273  0.00  0.00    -0.047 A 
ATOM      9  C9  IND d   1      -4.359   4.923  -1.439  0.00  0.00    -0.096 A 
ATOM     10  HN1 IND d   1      -3.393   4.404   1.427  0.00  0.00     0.298 HD
ENDROOT
TORSDOF 0
ENDMDL
