MODEL 1
REMARK minimizedAffinity 9.67521381
REMARK minimizedRMSD -1
REMARK  0 active torsions:
REMARK  status: ('A' for Active; 'I' for Inactive)
ROOT
ATOM      1  N1  IND d   1       1.146  -3.250   2.303  0.00  0.00    -0.196 N 
ATOM      2  C2  IND d   1       1.916  -2.602   3.229  0.00  0.00     0.054 A 
ATOM      3  C3  IND d   1       1.241  -1.553   3.750  0.00  0.00    -0.031 A 
ATOM      4  C4  IND d   1      -1.172  -0.775   3.302  0.00  0.00     0.051 A 
ATOM      5  C5  IND d   1      -2.256  -1.029   2.510  0.00  0.00    -0.031 A 
ATOM      6  C6  IND d   1      -2.263  -2.059   1.591  0.00  0.00     0.015 A 
ATOM      7  C7  IND d   1      -1.184  -2.883   1.438  0.00  0.00    -0.016 A 
ATOM      8  C8  IND d   1      -0.079  -2.624   2.236  0.00  0.00    -0.047 A 
ATOM      9  C9  IND d   1      -0.051  -1.555   3.140  0.00  0.00    -0.096 A 
ATOM     10  HN1 IND d   1       1.388  -3.933   1.840  0.00  0.00     0.298 HD
ENDROOT
TORSDOF 0
ENDMDL
