MODEL 1
REMARK minimizedAffinity 15.3871546
REMARK minimizedRMSD -1
REMARK  0 active torsions:
REMARK  status: ('A' for Active; 'I' for Inactive)
ROOT
ATOM      1  N1  IND d   1       4.145   2.453  -3.160  0.00  0.00    -0.196 N 
ATOM      2  C2  IND d   1       5.339   1.861  -2.855  0.00  0.00     0.054 A 
ATOM      3  C3  IND d   1       5.229   1.139  -1.717  0.00  0.00    -0.031 A 
ATOM      4  C4  IND d   1       3.160   0.706  -0.248  0.00  0.00     0.051 A 
ATOM      5  C5  IND d   1       1.849   1.063  -0.102  0.00  0.00    -0.031 A 
ATOM      6  C6  IND d   1       1.223   1.916  -0.988  0.00  0.00     0.015 A 
ATOM      7  C7  IND d   1       1.884   2.438  -2.063  0.00  0.00    -0.016 A 
ATOM      8  C8  IND d   1       3.218   2.084  -2.210  0.00  0.00    -0.047 A 
ATOM      9  C9  IND d   1       3.870   1.252  -1.291  0.00  0.00    -0.096 A 
ATOM     10  HN1 IND d   1       3.998   2.969  -3.831  0.00  0.00     0.298 HD
ENDROOT
TORSDOF 0
ENDMDL
