MODEL 1
REMARK minimizedAffinity 9.56161118
REMARK minimizedRMSD -1
REMARK  0 active torsions:
REMARK  status: ('A' for Active; 'I' for Inactive)
ROOT
ATOM      1  N1  IND d   1      -0.351  -5.239  -2.819  0.00  0.00    -0.196 N 
ATOM      2  C2  IND d   1      -1.692  -5.149  -3.068  0.00  0.00     0.054 A 
ATOM      3  C3  IND d   1      -2.357  -4.799  -1.944  0.00  0.00    -0.031 A 
ATOM      4  C4  IND d   1      -1.434  -4.226   0.390  0.00  0.00     0.051 A 
ATOM      5  C5  IND d   1      -0.275  -4.202   1.115  0.00  0.00    -0.031 A 
ATOM      6  C6  IND d   1       0.942  -4.527   0.553  0.00  0.00     0.015 A 
ATOM      7  C7  IND d   1       1.049  -4.878  -0.764  0.00  0.00    -0.016 A 
ATOM      8  C8  IND d   1      -0.127  -4.910  -1.500  0.00  0.00    -0.047 A 
ATOM      9  C9  IND d   1      -1.371  -4.623  -0.924  0.00  0.00    -0.096 A 
ATOM     10  HN1 IND d   1       0.251  -5.463  -3.390  0.00  0.00     0.298 HD
ENDROOT
TORSDOF 0
ENDMDL
