MODEL 1
REMARK minimizedAffinity 9.75261116
REMARK minimizedRMSD -1
REMARK  0 active torsions:
REMARK  status: ('A' for Active; 'I' for Inactive)
ROOT
ATOM      1  N1  IND d   1      -1.907   0.783   4.635  0.00  0.00    -0.196 N 
ATOM      2  C2  IND d   1      -3.247   0.932   4.858  0.00  0.00     0.054 A 
ATOM      3  C3  IND d   1      -3.953   0.110   4.048  0.00  0.00    -0.031 A 
ATOM      4  C4  IND d   1      -3.111  -1.636   2.355  0.00  0.00     0.051 A 
ATOM      5  C5  IND d   1      -1.968  -2.111   1.776  0.00  0.00    -0.031 A 
ATOM      6  C6  IND d   1      -0.721  -1.638   2.129  0.00  0.00     0.015 A 
ATOM      7  C7  IND d   1      -0.569  -0.676   3.087  0.00  0.00    -0.016 A 
ATOM      8  C8  IND d   1      -1.728  -0.187   3.672  0.00  0.00    -0.047 A 
ATOM      9  C9  IND d   1      -2.999  -0.632   3.288  0.00  0.00    -0.096 A 
ATOM     10  HN1 IND d   1      -1.281   1.220   5.029  0.00  0.00     0.298 HD
ENDROOT
TORSDOF 0
ENDMDL
