MODEL 1
REMARK minimizedAffinity 5.44672728
REMARK minimizedRMSD -1
REMARK  0 active torsions:
REMARK  status: ('A' for Active; 'I' for Inactive)
ROOT
ATOM      1  N1  IND d   1      -5.293  -5.505  -3.787  0.00  0.00    -0.196 N 
ATOM      2  C2  IND d   1      -5.997  -5.798  -4.922  0.00  0.00     0.054 A 
ATOM      3  C3  IND d   1      -5.155  -6.000  -5.960  0.00  0.00    -0.031 A 
ATOM      4  C4  IND d   1      -2.581  -5.999  -6.000  0.00  0.00     0.051 A 
ATOM      5  C5  IND d   1      -1.491  -5.747  -5.215  0.00  0.00    -0.031 A 
ATOM      6  C6  IND d   1      -1.616  -5.397  -3.886  0.00  0.00     0.015 A 
ATOM      7  C7  IND d   1      -2.840  -5.296  -3.287  0.00  0.00    -0.016 A 
ATOM      8  C8  IND d   1      -3.948  -5.545  -4.083  0.00  0.00    -0.047 A 
ATOM      9  C9  IND d   1      -3.830  -5.859  -5.443  0.00  0.00    -0.096 A 
ATOM     10  HN1 IND d   1      -5.633  -5.326  -3.018  0.00  0.00     0.298 HD
ENDROOT
TORSDOF 0
ENDMDL
