MODEL 1
REMARK minimizedAffinity 13.9191523
REMARK minimizedRMSD -1
REMARK  0 active torsions:
REMARK  status: ('A' for Active; 'I' for Inactive)
ROOT
ATOM      1  N1  IND d   1       3.231   0.377   1.991  0.00  0.00    -0.196 N 
ATOM      2  C2  IND d   1       3.811  -0.723   1.423  0.00  0.00     0.054 A 
ATOM      3  C3  IND d   1       3.551  -0.759   0.096  0.00  0.00    -0.031 A 
ATOM      4  C4  IND d   1       2.282   0.936  -1.368  0.00  0.00     0.051 A 
ATOM      5  C5  IND d   1       1.541   2.082  -1.293  0.00  0.00    -0.031 A 
ATOM      6  C6  IND d   1       1.323   2.732  -0.096  0.00  0.00     0.015 A 
ATOM      7  C7  IND d   1       1.850   2.265   1.075  0.00  0.00    -0.016 A 
ATOM      8  C8  IND d   1       2.597   1.098   1.004  0.00  0.00    -0.047 A 
ATOM      9  C9  IND d   1       2.787   0.410  -0.202  0.00  0.00    -0.096 A 
ATOM     10  HN1 IND d   1       3.257   0.583   2.826  0.00  0.00     0.298 HD
ENDROOT
TORSDOF 0
ENDMDL
