MODEL 1
REMARK minimizedAffinity 11.375906
REMARK minimizedRMSD -1
REMARK  0 active torsions:
REMARK  status: ('A' for Active; 'I' for Inactive)
ROOT
ATOM      1  N1  IND d   1       2.327  -0.202   1.807  0.00  0.00    -0.196 N 
ATOM      2  C2  IND d   1       3.331  -1.119   1.671  0.00  0.00     0.054 A 
ATOM      3  C3  IND d   1       3.883  -1.033   0.439  0.00  0.00    -0.031 A 
ATOM      4  C4  IND d   1       3.362   0.608  -1.475  0.00  0.00     0.051 A 
ATOM      5  C5  IND d   1       2.499   1.605  -1.834  0.00  0.00    -0.031 A 
ATOM      6  C6  IND d   1       1.517   2.062  -0.979  0.00  0.00     0.015 A 
ATOM      7  C7  IND d   1       1.367   1.544   0.276  0.00  0.00    -0.016 A 
ATOM      8  C8  IND d   1       2.237   0.526   0.641  0.00  0.00    -0.047 A 
ATOM      9  C9  IND d   1       3.208   0.029  -0.237  0.00  0.00    -0.096 A 
ATOM     10  HN1 IND d   1       1.834  -0.098   2.504  0.00  0.00     0.298 HD
ENDROOT
TORSDOF 0
ENDMDL
