MODEL 1
REMARK minimizedAffinity 8.28722095
REMARK minimizedRMSD -1
REMARK  0 active torsions:
REMARK  status: ('A' for Active; 'I' for Inactive)
ROOT
ATOM      1  N1  IND d   1       1.139   6.000  -5.246  0.00  0.00    -0.196 N 
ATOM      2  C2  IND d   1       0.007   5.866  -6.000  0.00  0.00     0.054 A 
ATOM      3  C3  IND d   1      -0.670   4.752  -5.638  0.00  0.00    -0.031 A 
ATOM      4  C4  IND d   1      -0.154   3.062  -3.766  0.00  0.00     0.051 A 
ATOM      5  C5  IND d   1       0.792   2.744  -2.832  0.00  0.00    -0.031 A 
ATOM      6  C6  IND d   1       1.923   3.512  -2.649  0.00  0.00     0.015 A 
ATOM      7  C7  IND d   1       2.146   4.639  -3.390  0.00  0.00    -0.016 A 
ATOM      8  C8  IND d   1       1.192   4.960  -4.344  0.00  0.00    -0.047 A 
ATOM      9  C9  IND d   1       0.063   4.161  -4.563  0.00  0.00    -0.096 A 
ATOM     10  HN1 IND d   1       1.721   6.628  -5.323  0.00  0.00     0.298 HD
ENDROOT
TORSDOF 0
ENDMDL
