MODEL 1
REMARK minimizedAffinity 21.9360332
REMARK minimizedRMSD -1
REMARK  0 active torsions:
REMARK  status: ('A' for Active; 'I' for Inactive)
ROOT
ATOM      1  N1  IND d   1       1.309   4.788  -5.616  0.00  0.00    -0.196 N 
ATOM      2  C2  IND d   1      -0.003   4.822  -5.999  0.00  0.00     0.054 A 
ATOM      3  C3  IND d   1      -0.767   4.131  -5.123  0.00  0.00    -0.031 A 
ATOM      4  C4  IND d   1      -0.088   2.949  -2.939  0.00  0.00     0.051 A 
ATOM      5  C5  IND d   1       1.005   2.615  -2.190  0.00  0.00    -0.031 A 
ATOM      6  C6  IND d   1       2.281   2.998  -2.550  0.00  0.00     0.015 A 
ATOM      7  C7  IND d   1       2.511   3.742  -3.672  0.00  0.00    -0.016 A 
ATOM      8  C8  IND d   1       1.404   4.078  -4.439  0.00  0.00    -0.047 A 
ATOM      9  C9  IND d   1       0.111   3.656  -4.101  0.00  0.00    -0.096 A 
ATOM     10  HN1 IND d   1       1.965   5.148  -6.039  0.00  0.00     0.298 HD
ENDROOT
TORSDOF 0
ENDMDL
