MODEL 1
REMARK minimizedAffinity 0.170179561
REMARK minimizedRMSD -1
REMARK  0 active torsions:
REMARK  status: ('A' for Active; 'I' for Inactive)
ROOT
ATOM      1  N1  IND d   1       1.755   4.461  -4.987  0.00  0.00    -0.196 N 
ATOM      2  C2  IND d   1       0.662   4.711  -4.206  0.00  0.00     0.054 A 
ATOM      3  C3  IND d   1       0.785   4.090  -3.011  0.00  0.00    -0.031 A 
ATOM      4  C4  IND d   1       2.742   2.696  -2.088  0.00  0.00     0.051 A 
ATOM      5  C5  IND d   1       3.947   2.160  -2.447  0.00  0.00    -0.031 A 
ATOM      6  C6  IND d   1       4.496   2.371  -3.695  0.00  0.00     0.015 A 
ATOM      7  C7  IND d   1       3.862   3.138  -4.631  0.00  0.00    -0.016 A 
ATOM      8  C8  IND d   1       2.635   3.677  -4.273  0.00  0.00    -0.047 A 
ATOM      9  C9  IND d   1       2.053   3.432  -3.022  0.00  0.00    -0.096 A 
ATOM     10  HN1 IND d   1       1.874   4.746  -5.790  0.00  0.00     0.298 HD
ENDROOT
TORSDOF 0
ENDMDL
