MODEL 1
REMARK minimizedAffinity 2.91574526
REMARK minimizedRMSD -1
REMARK  0 active torsions:
REMARK  status: ('A' for Active; 'I' for Inactive)
ROOT
ATOM      1  N1  IND d   1       1.920   4.538  -5.297  0.00  0.00    -0.196 N 
ATOM      2  C2  IND d   1       0.743   4.734  -4.630  0.00  0.00     0.054 A 
ATOM      3  C3  IND d   1       0.759   4.082  -3.446  0.00  0.00    -0.031 A 
ATOM      4  C4  IND d   1       2.650   2.716  -2.357  0.00  0.00     0.051 A 
ATOM      5  C5  IND d   1       3.902   2.226  -2.599  0.00  0.00    -0.031 A 
ATOM      6  C6  IND d   1       4.573   2.489  -3.776  0.00  0.00     0.015 A 
ATOM      7  C7  IND d   1       4.018   3.265  -4.754  0.00  0.00    -0.016 A 
ATOM      8  C8  IND d   1       2.743   3.759  -4.514  0.00  0.00    -0.047 A 
ATOM      9  C9  IND d   1       2.041   3.460  -3.339  0.00  0.00    -0.096 A 
ATOM     10  HN1 IND d   1       2.114   4.850  -6.075  0.00  0.00     0.298 HD
ENDROOT
TORSDOF 0
ENDMDL
