MODEL 1
REMARK minimizedAffinity 1.34754777
REMARK minimizedRMSD -1
REMARK  0 active torsions:
REMARK  status: ('A' for Active; 'I' for Inactive)
ROOT
ATOM      1  N1  IND d   1       2.291   1.794  -2.959  0.00  0.00    -0.196 N 
ATOM      2  C2  IND d   1       3.150   2.827  -3.213  0.00  0.00     0.054 A 
ATOM      3  C3  IND d   1       3.445   3.485  -2.070  0.00  0.00    -0.031 A 
ATOM      4  C4  IND d   1       2.712   2.978   0.345  0.00  0.00     0.051 A 
ATOM      5  C5  IND d   1       1.898   2.156   1.074  0.00  0.00    -0.031 A 
ATOM      6  C6  IND d   1       1.161   1.149   0.484  0.00  0.00     0.015 A 
ATOM      7  C7  IND d   1       1.220   0.919  -0.861  0.00  0.00    -0.016 A 
ATOM      8  C8  IND d   1       2.039   1.756  -1.606  0.00  0.00    -0.047 A 
ATOM      9  C9  IND d   1       2.756   2.806  -1.018  0.00  0.00    -0.096 A 
ATOM     10  HN1 IND d   1       1.963   1.258  -3.547  0.00  0.00     0.298 HD
ENDROOT
TORSDOF 0
ENDMDL
