MODEL 1
REMARK minimizedAffinity -1.63359106
REMARK minimizedRMSD -1
REMARK  0 active torsions:
REMARK  status: ('A' for Active; 'I' for Inactive)
ROOT
ATOM      1  N1  IND d   1       0.186   1.609  -2.649  0.00  0.00    -0.196 N 
ATOM      2  C2  IND d   1       1.187   1.170  -1.828  0.00  0.00     0.054 A 
ATOM      3  C3  IND d   1       2.308   1.901  -2.021  0.00  0.00    -0.031 A 
ATOM      4  C4  IND d   1       2.693   3.929  -3.559  0.00  0.00     0.051 A 
ATOM      5  C5  IND d   1       2.085   4.678  -4.527  0.00  0.00    -0.031 A 
ATOM      6  C6  IND d   1       0.786   4.439  -4.925  0.00  0.00     0.015 A 
ATOM      7  C7  IND d   1       0.039   3.445  -4.359  0.00  0.00    -0.016 A 
ATOM      8  C8  IND d   1       0.655   2.678  -3.380  0.00  0.00    -0.047 A 
ATOM      9  C9  IND d   1       1.988   2.889  -3.003  0.00  0.00    -0.096 A 
ATOM     10  HN1 IND d   1      -0.605   1.274  -2.700  0.00  0.00     0.298 HD
ENDROOT
TORSDOF 0
ENDMDL
