MODEL 1
REMARK minimizedAffinity 7.47856426
REMARK minimizedRMSD -1
REMARK  1 active torsions:
REMARK  status: ('A' for Active; 'I' for Inactive)
REMARK    1  A    between atoms: C1_2  and  C2_3 
ROOT
ATOM      1  C2  UNL d   1       0.889   3.042  -0.987  0.00  0.00    -0.076 A 
ATOM      2  C3  UNL d   1       1.074   2.238  -2.125  0.00  0.00     0.004 A 
ATOM      3  C4  UNL d   1       1.522   0.923  -2.009  0.00  0.00    -0.003 A 
ATOM      4  C5  UNL d   1       1.791   0.391  -0.753  0.00  0.00     0.000 A 
ATOM      5  C6  UNL d   1       1.596   1.169   0.388  0.00  0.00     0.000 A 
ATOM      6  C7  UNL d   1       1.130   2.491   0.289  0.00  0.00    -0.073 A 
ATOM      7  C8  UNL d   1       0.943   3.287   1.552  0.00  0.00     0.078 C 
ENDROOT
BRANCH   1   8
ATOM      8  C1  UNL d   1       0.428   4.470  -1.177  0.00  0.00     0.053 C 
ATOM      9  C   UNL d   1       1.494   5.483  -0.787  0.00  0.00     0.018 C 
ENDBRANCH   1   8
TORSDOF 1
ENDMDL
