MODEL 1
REMARK minimizedAffinity -1.00119209
REMARK minimizedRMSD -1
REMARK  1 active torsions:
REMARK  status: ('A' for Active; 'I' for Inactive)
REMARK    1  A    between atoms: C1_2  and  C2_3 
ROOT
ATOM      1  C2  UNL d   1       1.535   0.307  -0.752  0.00  0.00    -0.076 A 
ATOM      2  C3  UNL d   1       1.565   1.017  -1.964  0.00  0.00     0.004 A 
ATOM      3  C4  UNL d   1       1.187   2.358  -2.020  0.00  0.00    -0.003 A 
ATOM      4  C5  UNL d   1       0.773   3.010  -0.864  0.00  0.00     0.000 A 
ATOM      5  C6  UNL d   1       0.753   2.325   0.351  0.00  0.00     0.000 A 
ATOM      6  C7  UNL d   1       1.147   0.978   0.428  0.00  0.00    -0.073 A 
ATOM      7  C8  UNL d   1       1.100   0.287   1.763  0.00  0.00     0.078 C 
ENDROOT
BRANCH   1   8
ATOM      8  C1  UNL d   1       1.930  -1.153  -0.757  0.00  0.00     0.053 C 
ATOM      9  C   UNL d   1       0.734  -2.080  -0.911  0.00  0.00     0.018 C 
ENDBRANCH   1   8
TORSDOF 1
ENDMDL
