MODEL 1
REMARK minimizedAffinity -0.0297926106
REMARK minimizedRMSD -1
REMARK  1 active torsions:
REMARK  status: ('A' for Active; 'I' for Inactive)
REMARK    1  A    between atoms: C1_2  and  C2_3 
ROOT
ATOM      1  C2  UNL d   1       0.846  -1.007  -1.248  0.00  0.00    -0.076 A 
ATOM      2  C3  UNL d   1       0.394   0.280  -1.590  0.00  0.00     0.004 A 
ATOM      3  C4  UNL d   1       0.581   1.359  -0.728  0.00  0.00    -0.003 A 
ATOM      4  C5  UNL d   1       1.224   1.170   0.490  0.00  0.00     0.000 A 
ATOM      5  C6  UNL d   1       1.694  -0.096   0.839  0.00  0.00     0.000 A 
ATOM      6  C7  UNL d   1       1.529  -1.192  -0.026  0.00  0.00    -0.073 A 
ATOM      7  C8  UNL d   1       2.050  -2.535   0.403  0.00  0.00     0.078 C 
ENDROOT
BRANCH   1   8
ATOM      8  C1  UNL d   1       0.591  -2.144  -2.210  0.00  0.00     0.053 C 
ATOM      9  C   UNL d   1      -0.311  -3.217  -1.619  0.00  0.00     0.018 C 
ENDBRANCH   1   8
TORSDOF 1
ENDMDL
