MODEL 1
REMARK minimizedAffinity 1.11270809
REMARK minimizedRMSD -1
REMARK  1 active torsions:
REMARK  status: ('A' for Active; 'I' for Inactive)
REMARK    1  A    between atoms: C1_2  and  C2_3 
ROOT
ATOM      1  C2  UNL d   1       1.007   1.497  -1.287  0.00  0.00    -0.076 A 
ATOM      2  C3  UNL d   1       0.934   1.790   0.086  0.00  0.00     0.004 A 
ATOM      3  C4  UNL d   1       1.130   0.795   1.043  0.00  0.00    -0.003 A 
ATOM      4  C5  UNL d   1       1.404  -0.508   0.642  0.00  0.00     0.000 A 
ATOM      5  C6  UNL d   1       1.498  -0.812  -0.715  0.00  0.00     0.000 A 
ATOM      6  C7  UNL d   1       1.319   0.182  -1.692  0.00  0.00    -0.073 A 
ATOM      7  C8  UNL d   1       1.425  -0.204  -3.142  0.00  0.00     0.078 C 
ENDROOT
BRANCH   1   8
ATOM      8  C1  UNL d   1       0.758   2.611  -2.279  0.00  0.00     0.053 C 
ATOM      9  C   UNL d   1       1.125   3.979  -1.724  0.00  0.00     0.018 C 
ENDBRANCH   1   8
TORSDOF 1
ENDMDL
