MODEL 1
REMARK minimizedAffinity -0.19636935
REMARK minimizedRMSD -1
REMARK  1 active torsions:
REMARK  status: ('A' for Active; 'I' for Inactive)
REMARK    1  A    between atoms: C1_2  and  C2_3 
ROOT
ATOM      1  C2  UNL d   1       1.190   2.524  -0.773  0.00  0.00    -0.076 A 
ATOM      2  C3  UNL d   1       1.150   2.764   0.612  0.00  0.00     0.004 A 
ATOM      3  C4  UNL d   1       1.003   1.715   1.518  0.00  0.00    -0.003 A 
ATOM      4  C5  UNL d   1       0.893   0.409   1.054  0.00  0.00     0.000 A 
ATOM      5  C6  UNL d   1       0.948   0.150  -0.315  0.00  0.00     0.000 A 
ATOM      6  C7  UNL d   1       1.113   1.194  -1.241  0.00  0.00    -0.073 A 
ATOM      7  C8  UNL d   1       1.160   0.859  -2.707  0.00  0.00     0.078 C 
ENDROOT
BRANCH   1   8
ATOM      8  C1  UNL d   1       1.324   3.703  -1.709  0.00  0.00     0.053 C 
ATOM      9  C   UNL d   1       1.766   4.969  -0.991  0.00  0.00     0.018 C 
ENDBRANCH   1   8
TORSDOF 1
ENDMDL
