MODEL 1
REMARK minimizedAffinity -2.76341891
REMARK minimizedRMSD -1
REMARK  1 active torsions:
REMARK  status: ('A' for Active; 'I' for Inactive)
REMARK    1  A    between atoms: C1_2  and  C2_3 
ROOT
ATOM      1  C2  UNL d   1       1.623  -0.403  -0.321  0.00  0.00    -0.076 A 
ATOM      2  C3  UNL d   1       0.720  -1.481  -0.309  0.00  0.00     0.004 A 
ATOM      3  C4  UNL d   1       1.161  -2.783  -0.081  0.00  0.00    -0.003 A 
ATOM      4  C5  UNL d   1       2.511  -3.029   0.140  0.00  0.00     0.000 A 
ATOM      5  C6  UNL d   1       3.418  -1.970   0.149  0.00  0.00     0.000 A 
ATOM      6  C7  UNL d   1       2.988  -0.649  -0.063  0.00  0.00    -0.073 A 
ATOM      7  C8  UNL d   1       4.010   0.454  -0.049  0.00  0.00     0.078 C 
ENDROOT
BRANCH   1   8
ATOM      8  C1  UNL d   1       1.090   0.984  -0.601  0.00  0.00     0.053 C 
ATOM      9  C   UNL d   1       0.825   1.774   0.671  0.00  0.00     0.018 C 
ENDBRANCH   1   8
TORSDOF 1
ENDMDL
