MODEL 1
REMARK minimizedAffinity -4.00686932
REMARK minimizedRMSD -1
REMARK  1 active torsions:
REMARK  status: ('A' for Active; 'I' for Inactive)
REMARK    1  A    between atoms: C1_2  and  C2_3 
ROOT
ATOM      1  C2  UNL d   1       0.941   1.665  -0.641  0.00  0.00    -0.076 A 
ATOM      2  C3  UNL d   1       0.838   0.274  -0.814  0.00  0.00     0.004 A 
ATOM      3  C4  UNL d   1       0.934  -0.301  -2.080  0.00  0.00    -0.003 A 
ATOM      4  C5  UNL d   1       1.135   0.506  -3.194  0.00  0.00     0.000 A 
ATOM      5  C6  UNL d   1       1.257   1.886  -3.039  0.00  0.00     0.000 A 
ATOM      6  C7  UNL d   1       1.180   2.481  -1.768  0.00  0.00    -0.073 A 
ATOM      7  C8  UNL d   1       1.312   3.975  -1.660  0.00  0.00     0.078 C 
ENDROOT
BRANCH   1   8
ATOM      8  C1  UNL d   1       0.803   2.234   0.753  0.00  0.00     0.053 C 
ATOM      9  C   UNL d   1       1.566   1.426   1.791  0.00  0.00     0.018 C 
ENDBRANCH   1   8
TORSDOF 1
ENDMDL
