MODEL 1
REMARK minimizedAffinity 2.64416599
REMARK minimizedRMSD -1
REMARK  1 active torsions:
REMARK  status: ('A' for Active; 'I' for Inactive)
REMARK    1  A    between atoms: C1_2  and  C2_3 
ROOT
ATOM      1  C2  UNL d   1       1.237   0.852   0.204  0.00  0.00    -0.076 A 
ATOM      2  C3  UNL d   1       0.385   1.833   0.741  0.00  0.00     0.004 A 
ATOM      3  C4  UNL d   1       0.516   2.251   2.064  0.00  0.00    -0.003 A 
ATOM      4  C5  UNL d   1       1.503   1.695   2.872  0.00  0.00     0.000 A 
ATOM      5  C6  UNL d   1       2.368   0.734   2.350  0.00  0.00     0.000 A 
ATOM      6  C7  UNL d   1       2.260   0.314   1.013  0.00  0.00    -0.073 A 
ATOM      7  C8  UNL d   1       3.216  -0.730   0.505  0.00  0.00     0.078 C 
ENDROOT
BRANCH   1   8
ATOM      8  C1  UNL d   1       1.029   0.419  -1.230  0.00  0.00     0.053 C 
ATOM      9  C   UNL d   1       1.016   1.593  -2.197  0.00  0.00     0.018 C 
ENDBRANCH   1   8
TORSDOF 1
ENDMDL
