MODEL 1
REMARK minimizedAffinity -3.08873558
REMARK minimizedRMSD -1
REMARK  1 active torsions:
REMARK  status: ('A' for Active; 'I' for Inactive)
REMARK    1  A    between atoms: C1_2  and  C2_3 
ROOT
ATOM      1  C2  UNL d   1       1.113   1.076  -0.645  0.00  0.00    -0.076 A 
ATOM      2  C3  UNL d   1       0.056   1.551  -1.441  0.00  0.00     0.004 A 
ATOM      3  C4  UNL d   1      -0.131   1.081  -2.740  0.00  0.00    -0.003 A 
ATOM      4  C5  UNL d   1       0.734   0.127  -3.264  0.00  0.00     0.000 A 
ATOM      5  C6  UNL d   1       1.777  -0.368  -2.482  0.00  0.00     0.000 A 
ATOM      6  C7  UNL d   1       1.971   0.083  -1.165  0.00  0.00    -0.073 A 
ATOM      7  C8  UNL d   1       3.115  -0.482  -0.369  0.00  0.00     0.078 C 
ENDROOT
BRANCH   1   8
ATOM      8  C1  UNL d   1       1.283   1.642   0.746  0.00  0.00     0.053 C 
ATOM      9  C   UNL d   1       0.827   3.089   0.846  0.00  0.00     0.018 C 
ENDBRANCH   1   8
TORSDOF 1
ENDMDL
