MODEL 1
REMARK minimizedAffinity -2.56646752
REMARK minimizedRMSD -1
REMARK  1 active torsions:
REMARK  status: ('A' for Active; 'I' for Inactive)
REMARK    1  A    between atoms: C1_2  and  C2_3 
ROOT
ATOM      1  C2  UNL d   1       1.064   2.077   0.385  0.00  0.00    -0.076 A 
ATOM      2  C3  UNL d   1       0.840   0.750   0.790  0.00  0.00     0.004 A 
ATOM      3  C4  UNL d   1       0.750  -0.280  -0.144  0.00  0.00    -0.003 A 
ATOM      4  C5  UNL d   1       0.884   0.000  -1.500  0.00  0.00     0.000 A 
ATOM      5  C6  UNL d   1       1.125   1.308  -1.918  0.00  0.00     0.000 A 
ATOM      6  C7  UNL d   1       1.234   2.356  -0.988  0.00  0.00    -0.073 A 
ATOM      7  C8  UNL d   1       1.489   3.749  -1.496  0.00  0.00     0.078 C 
ENDROOT
BRANCH   1   8
ATOM      8  C1  UNL d   1       1.125   3.157   1.442  0.00  0.00     0.053 C 
ATOM      9  C   UNL d   1       2.341   3.020   2.345  0.00  0.00     0.018 C 
ENDBRANCH   1   8
TORSDOF 1
ENDMDL
