MODEL 1
REMARK minimizedAffinity 5.68512249
REMARK minimizedRMSD -1
REMARK  1 active torsions:
REMARK  status: ('A' for Active; 'I' for Inactive)
REMARK    1  A    between atoms: C1_2  and  C2_3 
ROOT
ATOM      1  C2  UNL d   1       1.098   1.874  -1.032  0.00  0.00    -0.076 A 
ATOM      2  C3  UNL d   1       0.760   0.724  -1.767  0.00  0.00     0.004 A 
ATOM      3  C4  UNL d   1       0.648  -0.518  -1.145  0.00  0.00    -0.003 A 
ATOM      4  C5  UNL d   1       0.871  -0.631   0.223  0.00  0.00     0.000 A 
ATOM      5  C6  UNL d   1       1.189   0.502   0.971  0.00  0.00     0.000 A 
ATOM      6  C7  UNL d   1       1.291   1.765   0.362  0.00  0.00    -0.073 A 
ATOM      7  C8  UNL d   1       1.643   2.952   1.216  0.00  0.00     0.078 C 
ENDROOT
BRANCH   1   8
ATOM      8  C1  UNL d   1       1.232   3.189  -1.765  0.00  0.00     0.053 C 
ATOM      9  C   UNL d   1       0.732   3.110  -3.199  0.00  0.00     0.018 C 
ENDBRANCH   1   8
TORSDOF 1
ENDMDL
