MODEL 1
REMARK minimizedAffinity -0.722178936
REMARK minimizedRMSD -1
REMARK  1 active torsions:
REMARK  status: ('A' for Active; 'I' for Inactive)
REMARK    1  A    between atoms: C1_2  and  C2_3 
ROOT
ATOM      1  C2  UNL d   1       1.321   0.278  -0.184  0.00  0.00    -0.076 A 
ATOM      2  C3  UNL d   1       0.975   0.540  -1.521  0.00  0.00     0.004 A 
ATOM      3  C4  UNL d   1       0.725   1.841  -1.955  0.00  0.00    -0.003 A 
ATOM      4  C5  UNL d   1       0.818   2.900  -1.059  0.00  0.00     0.000 A 
ATOM      5  C6  UNL d   1       1.178   2.660   0.267  0.00  0.00     0.000 A 
ATOM      6  C7  UNL d   1       1.449   1.357   0.717  0.00  0.00    -0.073 A 
ATOM      7  C8  UNL d   1       1.827   1.155   2.158  0.00  0.00     0.078 C 
ENDROOT
BRANCH   1   8
ATOM      8  C1  UNL d   1       1.555  -1.156   0.236  0.00  0.00     0.053 C 
ATOM      9  C   UNL d   1       0.896  -2.153  -0.705  0.00  0.00     0.018 C 
ENDBRANCH   1   8
TORSDOF 1
ENDMDL
