MODEL 1
REMARK minimizedAffinity 3.61441612
REMARK minimizedRMSD -1
REMARK  1 active torsions:
REMARK  status: ('A' for Active; 'I' for Inactive)
REMARK    1  A    between atoms: C1_2  and  C2_3 
ROOT
ATOM      1  C2  UNL d   1       0.616   1.852  -0.041  0.00  0.00    -0.076 A 
ATOM      2  C3  UNL d   1       0.646   0.691   0.750  0.00  0.00     0.004 A 
ATOM      3  C4  UNL d   1       1.125  -0.514   0.238  0.00  0.00    -0.003 A 
ATOM      4  C5  UNL d   1       1.584  -0.577  -1.073  0.00  0.00     0.000 A 
ATOM      5  C6  UNL d   1       1.578   0.570  -1.866  0.00  0.00     0.000 A 
ATOM      6  C7  UNL d   1       1.114   1.796  -1.361  0.00  0.00    -0.073 A 
ATOM      7  C8  UNL d   1       1.125   3.000  -2.263  0.00  0.00     0.078 C 
ENDROOT
BRANCH   1   8
ATOM      8  C1  UNL d   1       0.060   3.123   0.559  0.00  0.00     0.053 C 
ATOM      9  C   UNL d   1       1.125   4.192   0.750  0.00  0.00     0.018 C 
ENDBRANCH   1   8
TORSDOF 1
ENDMDL
