MODEL 1
REMARK minimizedAffinity -1.86976206
REMARK minimizedRMSD -1
REMARK  0 active torsions:
REMARK  status: ('A' for Active; 'I' for Inactive)
ROOT
ATOM      1  C   UNL d   1       0.648  -0.686  -1.737  0.00  0.00     0.172 C 
ATOM      2  N   UNL d   1       0.838  -0.230  -0.380  0.00  0.00    -0.070 N 
ATOM      3  C1  UNL d   1      -0.008   0.596   0.311  0.00  0.00    -0.004 A 
ATOM      4  C2  UNL d   1       0.526   0.792   1.566  0.00  0.00    -0.047 A 
ATOM      5  C3  UNL d   1       1.735   0.059   1.632  0.00  0.00    -0.047 A 
ATOM      6  C4  UNL d   1       1.904  -0.564   0.413  0.00  0.00    -0.004 A 
ENDROOT
TORSDOF 0
ENDMDL
