MODEL 1
REMARK minimizedAffinity -2.53290653
REMARK minimizedRMSD -1
REMARK  0 active torsions:
REMARK  status: ('A' for Active; 'I' for Inactive)
ROOT
ATOM      1  C   UNL d   1      -0.370   1.281   2.133  0.00  0.00     0.172 C 
ATOM      2  N   UNL d   1      -0.024   0.487   0.977  0.00  0.00    -0.070 N 
ATOM      3  C1  UNL d   1       1.236   0.067   0.645  0.00  0.00    -0.004 A 
ATOM      4  C2  UNL d   1       1.145  -0.662  -0.521  0.00  0.00    -0.047 A 
ATOM      5  C3  UNL d   1      -0.218  -0.680  -0.903  0.00  0.00    -0.047 A 
ATOM      6  C4  UNL d   1      -0.919   0.038   0.042  0.00  0.00    -0.004 A 
ENDROOT
TORSDOF 0
ENDMDL
