MODEL 1
REMARK minimizedAffinity -2.42347074
REMARK minimizedRMSD -1
REMARK  0 active torsions:
REMARK  status: ('A' for Active; 'I' for Inactive)
ROOT
ATOM      1  C   UNL d   1      -0.288   1.387   2.626  0.00  0.00     0.172 C 
ATOM      2  N   UNL d   1       0.249   0.688   1.482  0.00  0.00    -0.070 N 
ATOM      3  C1  UNL d   1      -0.316   0.644   0.235  0.00  0.00    -0.004 A 
ATOM      4  C2  UNL d   1       0.499  -0.120  -0.571  0.00  0.00    -0.047 A 
ATOM      5  C3  UNL d   1       1.592  -0.552   0.219  0.00  0.00    -0.047 A 
ATOM      6  C4  UNL d   1       1.411  -0.037   1.485  0.00  0.00    -0.004 A 
ENDROOT
TORSDOF 0
ENDMDL
