MODEL 1
REMARK minimizedAffinity -1.82556069
REMARK minimizedRMSD -1
REMARK  0 active torsions:
REMARK  status: ('A' for Active; 'I' for Inactive)
ROOT
ATOM      1  C   UNL d   1      -0.649   1.195   1.624  0.00  0.00     0.172 C 
ATOM      2  N   UNL d   1       0.014   0.447   0.582  0.00  0.00    -0.070 N 
ATOM      3  C1  UNL d   1      -0.580  -0.045  -0.550  0.00  0.00    -0.004 A 
ATOM      4  C2  UNL d   1       0.388  -0.694  -1.286  0.00  0.00    -0.047 A 
ATOM      5  C3  UNL d   1       1.605  -0.591  -0.571  0.00  0.00    -0.047 A 
ATOM      6  C4  UNL d   1       1.345   0.121   0.581  0.00  0.00    -0.004 A 
ENDROOT
TORSDOF 0
ENDMDL
