MODEL 1
REMARK minimizedAffinity -3.77524471
REMARK minimizedRMSD -1
REMARK  0 active torsions:
REMARK  status: ('A' for Active; 'I' for Inactive)
ROOT
ATOM      1  C   UNL d   1       0.380  -0.094  -0.961  0.00  0.00     0.172 C 
ATOM      2  N   UNL d   1      -0.249   0.351   0.260  0.00  0.00    -0.070 N 
ATOM      3  C1  UNL d   1      -1.564   0.169   0.593  0.00  0.00    -0.004 A 
ATOM      4  C2  UNL d   1      -1.768   0.735   1.833  0.00  0.00    -0.047 A 
ATOM      5  C3  UNL d   1      -0.532   1.277   2.259  0.00  0.00    -0.047 A 
ATOM      6  C4  UNL d   1       0.391   1.025   1.267  0.00  0.00    -0.004 A 
ENDROOT
TORSDOF 0
ENDMDL
