MODEL 1
REMARK minimizedAffinity -3.93851662
REMARK minimizedRMSD -1
REMARK  1 active torsions:
REMARK  status: ('A' for Active; 'I' for Inactive)
REMARK    1  A    between atoms: N_2  and  C1_3 
ROOT
ATOM      1  C1  UNL d   1      -0.339  -0.071   0.195  0.00  0.00     0.143 A 
ATOM      2  C2  UNL d   1      -0.011  -1.431   0.188  0.00  0.00    -0.057 A 
ATOM      3  C3  UNL d   1       1.214  -1.879  -0.320  0.00  0.00     0.033 A 
ATOM      4  C4  UNL d   1       2.123  -0.975  -0.860  0.00  0.00    -0.042 A 
ATOM      5  C5  UNL d   1       1.807   0.379  -0.886  0.00  0.00     0.033 A 
ATOM      6  C6  UNL d   1       0.585   0.821  -0.371  0.00  0.00    -0.057 A 
ENDROOT
BRANCH   1   7
ATOM      7  N   UNL d   1      -1.581   0.427   0.596  0.00  0.00    -0.732 N 
ATOM      8  C   UNL d   1      -1.831   0.754   1.984  0.00  0.00     0.284 C 
ATOM      9  H3  UNL d   1      -1.961   1.101  -0.065  0.00  0.00     0.395 HD
ENDBRANCH   1   7
TORSDOF 1
ENDMDL
