MODEL 1
REMARK minimizedAffinity -3.696069
REMARK minimizedRMSD -1
REMARK  1 active torsions:
REMARK  status: ('A' for Active; 'I' for Inactive)
REMARK    1  A    between atoms: N_2  and  C1_3 
ROOT
ATOM      1  C1  UNL d   1       0.449   0.381  -0.756  0.00  0.00     0.143 A 
ATOM      2  C2  UNL d   1       0.732  -0.969  -0.524  0.00  0.00    -0.057 A 
ATOM      3  C3  UNL d   1       1.863  -1.580  -1.079  0.00  0.00     0.033 A 
ATOM      4  C4  UNL d   1       2.719  -0.855  -1.902  0.00  0.00    -0.042 A 
ATOM      5  C5  UNL d   1       2.444   0.482  -2.167  0.00  0.00     0.033 A 
ATOM      6  C6  UNL d   1       1.316   1.088  -1.605  0.00  0.00    -0.057 A 
ENDROOT
BRANCH   1   7
ATOM      7  N   UNL d   1      -0.712   1.020  -0.314  0.00  0.00    -0.732 N 
ATOM      8  C   UNL d   1      -1.584   0.381   0.648  0.00  0.00     0.284 C 
ATOM      9  H3  UNL d   1      -0.571   2.014  -0.151  0.00  0.00     0.395 HD
ENDBRANCH   1   7
TORSDOF 1
ENDMDL
