MODEL 1
REMARK minimizedAffinity -4.41376209
REMARK minimizedRMSD -1
REMARK  1 active torsions:
REMARK  status: ('A' for Active; 'I' for Inactive)
REMARK    1  A    between atoms: N_2  and  C1_3 
ROOT
ATOM      1  C1  UNL d   1      -0.241  -0.097   0.215  0.00  0.00     0.143 A 
ATOM      2  C2  UNL d   1      -0.037  -1.423  -0.184  0.00  0.00    -0.057 A 
ATOM      3  C3  UNL d   1       1.161  -1.822  -0.790  0.00  0.00     0.033 A 
ATOM      4  C4  UNL d   1       2.166  -0.893  -1.035  0.00  0.00    -0.042 A 
ATOM      5  C5  UNL d   1       1.975   0.435  -0.670  0.00  0.00     0.033 A 
ATOM      6  C6  UNL d   1       0.780   0.826  -0.059  0.00  0.00    -0.057 A 
ENDROOT
BRANCH   1   7
ATOM      7  N   UNL d   1      -1.447   0.382   0.732  0.00  0.00    -0.732 N 
ATOM      8  C   UNL d   1      -1.518   0.893   2.084  0.00  0.00     0.284 C 
ATOM      9  H3  UNL d   1      -1.972   0.929   0.053  0.00  0.00     0.395 HD
ENDBRANCH   1   7
TORSDOF 1
ENDMDL
