MODEL 1
REMARK minimizedAffinity -4.6652441
REMARK minimizedRMSD -1
REMARK  1 active torsions:
REMARK  status: ('A' for Active; 'I' for Inactive)
REMARK    1  A    between atoms: N_2  and  C1_3 
ROOT
ATOM      1  C1  UNL d   1       0.953  -0.033  -0.553  0.00  0.00     0.143 A 
ATOM      2  C2  UNL d   1       2.088  -0.812  -0.804  0.00  0.00    -0.057 A 
ATOM      3  C3  UNL d   1       2.999  -0.464  -1.809  0.00  0.00     0.033 A 
ATOM      4  C4  UNL d   1       2.774   0.656  -2.603  0.00  0.00    -0.042 A 
ATOM      5  C5  UNL d   1       1.639   1.430  -2.388  0.00  0.00     0.033 A 
ATOM      6  C6  UNL d   1       0.737   1.081  -1.378  0.00  0.00    -0.057 A 
ENDROOT
BRANCH   1   7
ATOM      7  N   UNL d   1      -0.040  -0.381   0.366  0.00  0.00    -0.732 N 
ATOM      8  C   UNL d   1      -1.351   0.229   0.300  0.00  0.00     0.284 C 
ATOM      9  H3  UNL d   1      -0.056  -1.379   0.563  0.00  0.00     0.395 HD
ENDBRANCH   1   7
TORSDOF 1
ENDMDL
