MODEL 1
REMARK minimizedAffinity -4.74252653
REMARK minimizedRMSD -1
REMARK  1 active torsions:
REMARK  status: ('A' for Active; 'I' for Inactive)
REMARK    1  A    between atoms: N_2  and  C1_3 
ROOT
ATOM      1  C1  UNL d   1       0.243   0.464  -0.798  0.00  0.00     0.143 A 
ATOM      2  C2  UNL d   1       1.018  -0.680  -0.581  0.00  0.00    -0.057 A 
ATOM      3  C3  UNL d   1       2.234  -0.871  -1.250  0.00  0.00     0.033 A 
ATOM      4  C4  UNL d   1       2.682   0.069  -2.172  0.00  0.00    -0.042 A 
ATOM      5  C5  UNL d   1       1.915   1.202  -2.422  0.00  0.00     0.033 A 
ATOM      6  C6  UNL d   1       0.705   1.390  -1.746  0.00  0.00    -0.057 A 
ENDROOT
BRANCH   1   7
ATOM      7  N   UNL d   1      -1.022   0.664  -0.238  0.00  0.00    -0.732 N 
ATOM      8  C   UNL d   1      -1.253   0.415   1.169  0.00  0.00     0.284 C 
ATOM      9  H3  UNL d   1      -1.474   1.504  -0.591  0.00  0.00     0.395 HD
ENDBRANCH   1   7
TORSDOF 1
ENDMDL
