MODEL 1
REMARK minimizedAffinity -3.49427915
REMARK minimizedRMSD -1
REMARK  1 active torsions:
REMARK  status: ('A' for Active; 'I' for Inactive)
REMARK    1  A    between atoms: N_2  and  C1_3 
ROOT
ATOM      1  C1  UNL d   1       0.974  -0.616  -0.292  0.00  0.00     0.143 A 
ATOM      2  C2  UNL d   1       1.564  -0.998  -1.501  0.00  0.00    -0.057 A 
ATOM      3  C3  UNL d   1       2.921  -0.760  -1.754  0.00  0.00     0.033 A 
ATOM      4  C4  UNL d   1       3.707  -0.108  -0.810  0.00  0.00    -0.042 A 
ATOM      5  C5  UNL d   1       3.136   0.303   0.389  0.00  0.00     0.033 A 
ATOM      6  C6  UNL d   1       1.782   0.057   0.638  0.00  0.00    -0.057 A 
ENDROOT
BRANCH   1   7
ATOM      7  N   UNL d   1      -0.391  -0.735  -0.021  0.00  0.00    -0.732 N 
ATOM      8  C   UNL d   1      -1.158   0.410   0.421  0.00  0.00     0.284 C 
ATOM      9  H3  UNL d   1      -0.872  -1.320  -0.700  0.00  0.00     0.395 HD
ENDBRANCH   1   7
TORSDOF 1
ENDMDL
