MODEL 1
REMARK minimizedAffinity -3.86491776
REMARK minimizedRMSD -1
REMARK  1 active torsions:
REMARK  status: ('A' for Active; 'I' for Inactive)
REMARK    1  A    between atoms: N_2  and  C1_3 
ROOT
ATOM      1  C1  UNL d   1       0.218   0.037  -0.471  0.00  0.00     0.143 A 
ATOM      2  C2  UNL d   1       0.930  -1.134  -0.191  0.00  0.00    -0.057 A 
ATOM      3  C3  UNL d   1       2.166  -1.395  -0.796  0.00  0.00     0.033 A 
ATOM      4  C4  UNL d   1       2.700  -0.499  -1.716  0.00  0.00    -0.042 A 
ATOM      5  C5  UNL d   1       1.998   0.660  -2.028  0.00  0.00     0.033 A 
ATOM      6  C6  UNL d   1       0.767   0.918  -1.416  0.00  0.00    -0.057 A 
ENDROOT
BRANCH   1   7
ATOM      7  N   UNL d   1      -1.061   0.307   0.022  0.00  0.00    -0.732 N 
ATOM      8  C   UNL d   1      -1.304   0.364   1.448  0.00  0.00     0.284 C 
ATOM      9  H3  UNL d   1      -1.538   1.030  -0.510  0.00  0.00     0.395 HD
ENDBRANCH   1   7
TORSDOF 1
ENDMDL
