MODEL 1
REMARK minimizedAffinity -4.6959796
REMARK minimizedRMSD -1
REMARK  1 active torsions:
REMARK  status: ('A' for Active; 'I' for Inactive)
REMARK    1  A    between atoms: N_2  and  C1_3 
ROOT
ATOM      1  C1  UNL d   1      -0.074   0.476  -0.521  0.00  0.00     0.143 A 
ATOM      2  C2  UNL d   1       0.553  -0.774  -0.486  0.00  0.00    -0.057 A 
ATOM      3  C3  UNL d   1       1.791  -0.984  -1.103  0.00  0.00     0.033 A 
ATOM      4  C4  UNL d   1       2.414   0.050  -1.795  0.00  0.00    -0.042 A 
ATOM      5  C5  UNL d   1       1.798   1.294  -1.865  0.00  0.00     0.033 A 
ATOM      6  C6  UNL d   1       0.564   1.499  -1.240  0.00  0.00    -0.057 A 
ENDROOT
BRANCH   1   7
ATOM      7  N   UNL d   1      -1.351   0.721  -0.011  0.00  0.00    -0.732 N 
ATOM      8  C   UNL d   1      -1.607   0.627   1.410  0.00  0.00     0.284 C 
ATOM      9  H3  UNL d   1      -1.806   1.510  -0.464  0.00  0.00     0.395 HD
ENDBRANCH   1   7
TORSDOF 1
ENDMDL
