MODEL 1
REMARK minimizedAffinity -4.21355534
REMARK minimizedRMSD -1
REMARK  1 active torsions:
REMARK  status: ('A' for Active; 'I' for Inactive)
REMARK    1  A    between atoms: N_2  and  C1_3 
ROOT
ATOM      1  C1  UNL d   1      -0.646   0.316   0.937  0.00  0.00     0.143 A 
ATOM      2  C2  UNL d   1      -1.967  -0.105   0.749  0.00  0.00    -0.057 A 
ATOM      3  C3  UNL d   1      -2.953   0.151   1.710  0.00  0.00     0.033 A 
ATOM      4  C4  UNL d   1      -2.628   0.809   2.891  0.00  0.00    -0.042 A 
ATOM      5  C5  UNL d   1      -1.316   1.215   3.110  0.00  0.00     0.033 A 
ATOM      6  C6  UNL d   1      -0.337   0.962   2.144  0.00  0.00    -0.057 A 
ENDROOT
BRANCH   1   7
ATOM      7  N   UNL d   1       0.401   0.006   0.064  0.00  0.00    -0.732 N 
ATOM      8  C   UNL d   1       0.901  -1.348  -0.034  0.00  0.00     0.284 C 
ATOM      9  H3  UNL d   1       0.315   0.484  -0.830  0.00  0.00     0.395 HD
ENDBRANCH   1   7
TORSDOF 1
ENDMDL
