MODEL 1
REMARK minimizedAffinity -4.87573576
REMARK minimizedRMSD -1
REMARK  1 active torsions:
REMARK  status: ('A' for Active; 'I' for Inactive)
REMARK    1  A    between atoms: N_2  and  C1_3 
ROOT
ATOM      1  C1  UNL d   1       1.736   0.837  -1.806  0.00  0.00     0.143 A 
ATOM      2  C2  UNL d   1       0.684   0.818  -0.883  0.00  0.00    -0.057 A 
ATOM      3  C3  UNL d   1       0.468  -0.288  -0.052  0.00  0.00     0.033 A 
ATOM      4  C4  UNL d   1       1.284  -1.410  -0.150  0.00  0.00    -0.042 A 
ATOM      5  C5  UNL d   1       2.320  -1.423  -1.077  0.00  0.00     0.033 A 
ATOM      6  C6  UNL d   1       2.535  -0.313  -1.900  0.00  0.00    -0.057 A 
ENDROOT
BRANCH   1   7
ATOM      7  N   UNL d   1       1.943   1.865  -2.729  0.00  0.00    -0.732 N 
ATOM      8  C   UNL d   1       1.003   2.961  -2.834  0.00  0.00     0.284 C 
ATOM      9  H3  UNL d   1       2.919   2.147  -2.783  0.00  0.00     0.395 HD
ENDBRANCH   1   7
TORSDOF 1
ENDMDL
