MODEL 1
REMARK minimizedAffinity -5.50226068
REMARK minimizedRMSD -1
REMARK  1 active torsions:
REMARK  status: ('A' for Active; 'I' for Inactive)
REMARK    1  A    between atoms: N_2  and  C1_3 
ROOT
ATOM      1  C1  UNL d   1       0.933   1.193  -1.420  0.00  0.00     0.143 A 
ATOM      2  C2  UNL d   1       0.400   0.174  -0.623  0.00  0.00    -0.057 A 
ATOM      3  C3  UNL d   1       0.993  -1.094  -0.574  0.00  0.00     0.033 A 
ATOM      4  C4  UNL d   1       2.115  -1.374  -1.346  0.00  0.00    -0.042 A 
ATOM      5  C5  UNL d   1       2.647  -0.384  -2.165  0.00  0.00     0.033 A 
ATOM      6  C6  UNL d   1       2.055   0.882  -2.204  0.00  0.00    -0.057 A 
ENDROOT
BRANCH   1   7
ATOM      7  N   UNL d   1       0.333   2.444  -1.586  0.00  0.00    -0.732 N 
ATOM      8  C   UNL d   1       1.087   3.557  -2.121  0.00  0.00     0.284 C 
ATOM      9  H3  UNL d   1      -0.616   2.374  -1.945  0.00  0.00     0.395 HD
ENDBRANCH   1   7
TORSDOF 1
ENDMDL
