MODEL 1
REMARK minimizedAffinity -4.69456196
REMARK minimizedRMSD -1
REMARK  1 active torsions:
REMARK  status: ('A' for Active; 'I' for Inactive)
REMARK    1  A    between atoms: N_2  and  C1_3 
ROOT
ATOM      1  C1  UNL d   1       0.988   0.153  -0.847  0.00  0.00     0.143 A 
ATOM      2  C2  UNL d   1       2.269  -0.403  -0.921  0.00  0.00    -0.057 A 
ATOM      3  C3  UNL d   1       3.207   0.056  -1.854  0.00  0.00     0.033 A 
ATOM      4  C4  UNL d   1       2.869   1.064  -2.751  0.00  0.00    -0.042 A 
ATOM      5  C5  UNL d   1       1.593   1.614  -2.712  0.00  0.00     0.033 A 
ATOM      6  C6  UNL d   1       0.663   1.156  -1.774  0.00  0.00    -0.057 A 
ENDROOT
BRANCH   1   7
ATOM      7  N   UNL d   1      -0.021  -0.327  -0.008  0.00  0.00    -0.732 N 
ATOM      8  C   UNL d   1      -1.351   0.241  -0.055  0.00  0.00     0.284 C 
ATOM      9  H3  UNL d   1      -0.005  -1.340   0.078  0.00  0.00     0.395 HD
ENDBRANCH   1   7
TORSDOF 1
ENDMDL
