MODEL 1
REMARK minimizedAffinity -4.31726313
REMARK minimizedRMSD -1
REMARK  1 active torsions:
REMARK  status: ('A' for Active; 'I' for Inactive)
REMARK    1  A    between atoms: C1_2  and  C2_3 
ROOT
ATOM      1  C2  UNL d   1      -0.099  -0.057   1.154  0.00  0.00    -0.076 A 
ATOM      2  C3  UNL d   1      -1.345   0.540   1.416  0.00  0.00     0.004 A 
ATOM      3  C4  UNL d   1      -1.696   0.931   2.706  0.00  0.00    -0.003 A 
ATOM      4  C5  UNL d   1      -0.807   0.733   3.757  0.00  0.00     0.000 A 
ATOM      5  C6  UNL d   1       0.440   0.158   3.513  0.00  0.00     0.000 A 
ATOM      6  C7  UNL d   1       0.816  -0.227   2.215  0.00  0.00    -0.073 A 
ATOM      7  C8  UNL d   1       2.171  -0.847   2.010  0.00  0.00     0.078 C 
ENDROOT
BRANCH   1   8
ATOM      8  C1  UNL d   1       0.216  -0.485  -0.261  0.00  0.00     0.053 C 
ATOM      9  C   UNL d   1       0.058   0.649  -1.262  0.00  0.00     0.018 C 
ENDBRANCH   1   8
TORSDOF 1
ENDMDL
