MODEL 1
REMARK minimizedAffinity -4.42698812
REMARK minimizedRMSD -1
REMARK  1 active torsions:
REMARK  status: ('A' for Active; 'I' for Inactive)
REMARK    1  A    between atoms: C1_2  and  C2_3 
ROOT
ATOM      1  C2  UNL d   1      -0.550   0.368   0.558  0.00  0.00    -0.076 A 
ATOM      2  C3  UNL d   1       0.747   0.907   0.492  0.00  0.00     0.004 A 
ATOM      3  C4  UNL d   1       1.619   0.554  -0.537  0.00  0.00    -0.003 A 
ATOM      4  C5  UNL d   1       1.207  -0.343  -1.517  0.00  0.00     0.000 A 
ATOM      5  C6  UNL d   1      -0.082  -0.873  -1.477  0.00  0.00     0.000 A 
ATOM      6  C7  UNL d   1      -0.978  -0.515  -0.455  0.00  0.00    -0.073 A 
ATOM      7  C8  UNL d   1      -2.355  -1.121  -0.458  0.00  0.00     0.078 C 
ENDROOT
BRANCH   1   8
ATOM      8  C1  UNL d   1      -1.441   0.767   1.713  0.00  0.00     0.053 C 
ATOM      9  C   UNL d   1      -0.878   1.935   2.507  0.00  0.00     0.018 C 
ENDBRANCH   1   8
TORSDOF 1
ENDMDL
