MODEL 1
REMARK minimizedAffinity -5.77147293
REMARK minimizedRMSD -1
REMARK  1 active torsions:
REMARK  status: ('A' for Active; 'I' for Inactive)
REMARK    1  A    between atoms: C1_2  and  C2_3 
ROOT
ATOM      1  C2  UNL d   1       0.485   0.493   1.233  0.00  0.00    -0.076 A 
ATOM      2  C3  UNL d   1      -0.740   1.178   1.145  0.00  0.00     0.004 A 
ATOM      3  C4  UNL d   1      -1.370   1.670   2.287  0.00  0.00    -0.003 A 
ATOM      4  C5  UNL d   1      -0.785   1.486   3.535  0.00  0.00     0.000 A 
ATOM      5  C6  UNL d   1       0.438   0.824   3.639  0.00  0.00     0.000 A 
ATOM      6  C7  UNL d   1       1.094   0.336   2.496  0.00  0.00    -0.073 A 
ATOM      7  C8  UNL d   1       2.409  -0.375   2.667  0.00  0.00     0.078 C 
ENDROOT
BRANCH   1   8
ATOM      8  C1  UNL d   1       1.108  -0.042  -0.037  0.00  0.00     0.053 C 
ATOM      9  C   UNL d   1       0.070  -0.543  -1.029  0.00  0.00     0.018 C 
ENDBRANCH   1   8
TORSDOF 1
ENDMDL
