MODEL 1
REMARK minimizedAffinity -3.27346873
REMARK minimizedRMSD -1
REMARK  1 active torsions:
REMARK  status: ('A' for Active; 'I' for Inactive)
REMARK    1  A    between atoms: C1_2  and  C2_3 
ROOT
ATOM      1  C2  UNL d   1       0.390   0.138  -1.462  0.00  0.00    -0.076 A 
ATOM      2  C3  UNL d   1      -0.446   1.265  -1.373  0.00  0.00     0.004 A 
ATOM      3  C4  UNL d   1      -1.387   1.381  -0.351  0.00  0.00    -0.003 A 
ATOM      4  C5  UNL d   1      -1.507   0.373   0.599  0.00  0.00     0.000 A 
ATOM      5  C6  UNL d   1      -0.674  -0.744   0.536  0.00  0.00     0.000 A 
ATOM      6  C7  UNL d   1       0.291  -0.869  -0.478  0.00  0.00    -0.073 A 
ATOM      7  C8  UNL d   1       1.158  -2.098  -0.501  0.00  0.00     0.078 C 
ENDROOT
BRANCH   1   8
ATOM      8  C1  UNL d   1       1.373   0.054  -2.608  0.00  0.00     0.053 C 
ATOM      9  C   UNL d   1       0.750   0.443  -3.940  0.00  0.00     0.018 C 
ENDBRANCH   1   8
TORSDOF 1
ENDMDL
