MODEL 1
REMARK minimizedAffinity -1.45930922
REMARK minimizedRMSD -1
REMARK  1 active torsions:
REMARK  status: ('A' for Active; 'I' for Inactive)
REMARK    1  A    between atoms: C1_2  and  C2_3 
ROOT
ATOM      1  C2  UNL d   1      -0.117  -0.319  -0.129  0.00  0.00    -0.076 A 
ATOM      2  C3  UNL d   1      -1.467  -0.081  -0.438  0.00  0.00     0.004 A 
ATOM      3  C4  UNL d   1      -2.397   0.183   0.567  0.00  0.00    -0.003 A 
ATOM      4  C5  UNL d   1      -1.991   0.214   1.896  0.00  0.00     0.000 A 
ATOM      5  C6  UNL d   1      -0.651  -0.002   2.219  0.00  0.00     0.000 A 
ATOM      6  C7  UNL d   1       0.302  -0.254   1.217  0.00  0.00    -0.073 A 
ATOM      7  C8  UNL d   1       1.731  -0.486   1.622  0.00  0.00     0.078 C 
ENDROOT
BRANCH   1   8
ATOM      8  C1  UNL d   1       0.841  -0.627  -1.258  0.00  0.00     0.053 C 
ATOM      9  C   UNL d   1       1.411   0.630  -1.898  0.00  0.00     0.018 C 
ENDBRANCH   1   8
TORSDOF 1
ENDMDL
