MODEL 1
REMARK minimizedAffinity -1.78936505
REMARK minimizedRMSD -1
REMARK  1 active torsions:
REMARK  status: ('A' for Active; 'I' for Inactive)
REMARK    1  A    between atoms: C1_2  and  C2_3 
ROOT
ATOM      1  C2  UNL d   1       1.019   0.131  -2.051  0.00  0.00    -0.076 A 
ATOM      2  C3  UNL d   1       0.551  -1.104  -1.568  0.00  0.00     0.004 A 
ATOM      3  C4  UNL d   1      -0.253  -1.171  -0.432  0.00  0.00    -0.003 A 
ATOM      4  C5  UNL d   1      -0.603  -0.005   0.240  0.00  0.00     0.000 A 
ATOM      5  C6  UNL d   1      -0.162   1.230  -0.235  0.00  0.00     0.000 A 
ATOM      6  C7  UNL d   1       0.636   1.316  -1.389  0.00  0.00    -0.073 A 
ATOM      7  C8  UNL d   1       1.088   2.674  -1.853  0.00  0.00     0.078 C 
ENDROOT
BRANCH   1   8
ATOM      8  C1  UNL d   1       1.911   0.140  -3.272  0.00  0.00     0.053 C 
ATOM      9  C   UNL d   1       1.128   0.324  -4.563  0.00  0.00     0.018 C 
ENDBRANCH   1   8
TORSDOF 1
ENDMDL
