MODEL 1
REMARK minimizedAffinity -2.06288242
REMARK minimizedRMSD -1
REMARK  1 active torsions:
REMARK  status: ('A' for Active; 'I' for Inactive)
REMARK    1  A    between atoms: C1_2  and  C2_3 
ROOT
ATOM      1  C2  UNL d   1      -0.092  -0.327   0.682  0.00  0.00    -0.077 A 
ATOM      2  C3  UNL d   1      -0.720  -0.033  -0.536  0.00  0.00     0.002 A 
ATOM      3  C4  UNL d   1      -0.099  -0.349  -1.746  0.00  0.00     0.002 A 
ATOM      4  C5  UNL d   1       1.151  -0.964  -1.749  0.00  0.00    -0.004 A 
ATOM      5  C6  UNL d   1       1.785  -1.259  -0.542  0.00  0.00     0.002 A 
ATOM      6  C7  UNL d   1       1.166  -0.942   0.667  0.00  0.00     0.002 A 
ENDROOT
BRANCH   1   7
ATOM      7  C1  UNL d   1      -0.782  -0.031   1.988  0.00  0.00     0.055 C 
ATOM      8  C   UNL d   1      -0.481  -1.100   3.028  0.00  0.00     0.019 C 
ENDBRANCH   1   7
TORSDOF 1
ENDMDL
