MODEL 1
REMARK minimizedAffinity -4.67601252
REMARK minimizedRMSD -1
REMARK  1 active torsions:
REMARK  status: ('A' for Active; 'I' for Inactive)
REMARK    1  A    between atoms: C1_2  and  C2_3 
ROOT
ATOM      1  C2  UNL d   1       0.226  -0.783   1.326  0.00  0.00    -0.077 A 
ATOM      2  C3  UNL d   1       1.288  -1.435   0.684  0.00  0.00     0.002 A 
ATOM      3  C4  UNL d   1       1.514  -1.241  -0.680  0.00  0.00     0.002 A 
ATOM      4  C5  UNL d   1       0.685  -0.393  -1.412  0.00  0.00    -0.004 A 
ATOM      5  C6  UNL d   1      -0.375   0.258  -0.782  0.00  0.00     0.002 A 
ATOM      6  C7  UNL d   1      -0.603   0.065   0.581  0.00  0.00     0.002 A 
ENDROOT
BRANCH   1   7
ATOM      7  C1  UNL d   1       0.011  -0.952   2.808  0.00  0.00     0.055 C 
ATOM      8  C   UNL d   1       1.143  -1.744   3.445  0.00  0.00     0.019 C 
ENDBRANCH   1   7
TORSDOF 1
ENDMDL
