MODEL 1
REMARK minimizedAffinity -5.6792326
REMARK minimizedRMSD -1
REMARK  1 active torsions:
REMARK  status: ('A' for Active; 'I' for Inactive)
REMARK    1  A    between atoms: C1_2  and  C2_3 
ROOT
ATOM      1  C2  UNL d   1       0.712  -0.538   0.480  0.00  0.00    -0.077 A 
ATOM      2  C3  UNL d   1       0.364  -0.590   1.838  0.00  0.00     0.002 A 
ATOM      3  C4  UNL d   1       1.058  -1.430   2.712  0.00  0.00     0.002 A 
ATOM      4  C5  UNL d   1       2.105  -2.219   2.240  0.00  0.00    -0.004 A 
ATOM      5  C6  UNL d   1       2.456  -2.175   0.891  0.00  0.00     0.002 A 
ATOM      6  C7  UNL d   1       1.763  -1.337   0.016  0.00  0.00     0.002 A 
ENDROOT
BRANCH   1   7
ATOM      7  C1  UNL d   1      -0.003   0.403  -0.454  0.00  0.00     0.055 C 
ATOM      8  C   UNL d   1      -0.787  -0.358  -1.514  0.00  0.00     0.019 C 
ENDBRANCH   1   7
TORSDOF 1
ENDMDL
