MODEL 1
REMARK minimizedAffinity -4.34994888
REMARK minimizedRMSD -1
REMARK  1 active torsions:
REMARK  status: ('A' for Active; 'I' for Inactive)
REMARK    1  A    between atoms: C1_2  and  C2_3 
ROOT
ATOM      1  C2  UNL d   1       0.057  -0.374  -0.094  0.00  0.00    -0.077 A 
ATOM      2  C3  UNL d   1       1.245  -1.066   0.178  0.00  0.00     0.002 A 
ATOM      3  C4  UNL d   1       1.517  -1.521   1.470  0.00  0.00     0.002 A 
ATOM      4  C5  UNL d   1       0.605  -1.293   2.498  0.00  0.00    -0.004 A 
ATOM      5  C6  UNL d   1      -0.579  -0.604   2.238  0.00  0.00     0.002 A 
ATOM      6  C7  UNL d   1      -0.852  -0.147   0.948  0.00  0.00     0.002 A 
ENDROOT
BRANCH   1   7
ATOM      7  C1  UNL d   1      -0.262   0.075  -1.496  0.00  0.00     0.055 C 
ATOM      8  C   UNL d   1      -1.299   1.189  -1.499  0.00  0.00     0.019 C 
ENDBRANCH   1   7
TORSDOF 1
ENDMDL
