MODEL 1
REMARK minimizedAffinity -3.87977576
REMARK minimizedRMSD -1
REMARK  1 active torsions:
REMARK  status: ('A' for Active; 'I' for Inactive)
REMARK    1  A    between atoms: C1_2  and  C2_3 
ROOT
ATOM      1  C2  UNL d   1      -0.453   1.095  -1.441  0.00  0.00    -0.077 A 
ATOM      2  C3  UNL d   1      -1.680   1.373  -2.061  0.00  0.00     0.002 A 
ATOM      3  C4  UNL d   1      -1.873   2.578  -2.738  0.00  0.00     0.002 A 
ATOM      4  C5  UNL d   1      -0.843   3.514  -2.805  0.00  0.00    -0.004 A 
ATOM      5  C6  UNL d   1       0.380   3.249  -2.191  0.00  0.00     0.002 A 
ATOM      6  C7  UNL d   1       0.575   2.044  -1.513  0.00  0.00     0.002 A 
ENDROOT
BRANCH   1   7
ATOM      7  C1  UNL d   1      -0.227  -0.225  -0.753  0.00  0.00     0.055 C 
ATOM      8  C   UNL d   1      -0.374  -0.095   0.756  0.00  0.00     0.019 C 
ENDBRANCH   1   7
TORSDOF 1
ENDMDL
