MODEL 1
REMARK minimizedAffinity -2.77195334
REMARK minimizedRMSD -1
REMARK  1 active torsions:
REMARK  status: ('A' for Active; 'I' for Inactive)
REMARK    1  A    between atoms: C1_2  and  C2_3 
ROOT
ATOM      1  C2  UNL d   1      -0.525   1.148   0.283  0.00  0.00    -0.077 A 
ATOM      2  C3  UNL d   1      -0.031  -0.094  -0.141  0.00  0.00     0.002 A 
ATOM      3  C4  UNL d   1      -0.022  -1.184   0.731  0.00  0.00     0.002 A 
ATOM      4  C5  UNL d   1      -0.509  -1.045   2.029  0.00  0.00    -0.004 A 
ATOM      5  C6  UNL d   1      -1.000   0.186   2.460  0.00  0.00     0.002 A 
ATOM      6  C7  UNL d   1      -1.009   1.278   1.591  0.00  0.00     0.002 A 
ENDROOT
BRANCH   1   7
ATOM      7  C1  UNL d   1      -0.581   2.313  -0.671  0.00  0.00     0.055 C 
ATOM      8  C   UNL d   1      -0.824   1.848  -2.099  0.00  0.00     0.019 C 
ENDBRANCH   1   7
TORSDOF 1
ENDMDL
