MODEL 1
REMARK minimizedAffinity -1.17643332
REMARK minimizedRMSD -1
REMARK  1 active torsions:
REMARK  status: ('A' for Active; 'I' for Inactive)
REMARK    1  A    between atoms: C1_2  and  C2_3 
ROOT
ATOM      1  C2  UNL d   1      -0.736   1.117  -1.817  0.00  0.00    -0.077 A 
ATOM      2  C3  UNL d   1       0.244   1.922  -2.415  0.00  0.00     0.002 A 
ATOM      3  C4  UNL d   1      -0.090   3.177  -2.928  0.00  0.00     0.002 A 
ATOM      4  C5  UNL d   1      -1.401   3.640  -2.845  0.00  0.00    -0.004 A 
ATOM      5  C6  UNL d   1      -2.384   2.846  -2.254  0.00  0.00     0.002 A 
ATOM      6  C7  UNL d   1      -2.053   1.591  -1.741  0.00  0.00     0.002 A 
ENDROOT
BRANCH   1   7
ATOM      7  C1  UNL d   1      -0.369  -0.216  -1.219  0.00  0.00     0.055 C 
ATOM      8  C   UNL d   1      -0.781  -0.299   0.244  0.00  0.00     0.019 C 
ENDBRANCH   1   7
TORSDOF 1
ENDMDL
