MODEL 1
REMARK minimizedAffinity -3.90627503
REMARK minimizedRMSD -1
REMARK  1 active torsions:
REMARK  status: ('A' for Active; 'I' for Inactive)
REMARK    1  A    between atoms: C1_2  and  C2_3 
ROOT
ATOM      1  C2  UNL d   1      -0.076  -0.600   0.952  0.00  0.00    -0.077 A 
ATOM      2  C3  UNL d   1       0.529  -0.667  -0.310  0.00  0.00     0.002 A 
ATOM      3  C4  UNL d   1       1.578  -1.559  -0.544  0.00  0.00     0.002 A 
ATOM      4  C5  UNL d   1       2.028  -2.391   0.479  0.00  0.00    -0.004 A 
ATOM      5  C6  UNL d   1       1.433  -2.330   1.738  0.00  0.00     0.002 A 
ATOM      6  C7  UNL d   1       0.386  -1.439   1.974  0.00  0.00     0.002 A 
ENDROOT
BRANCH   1   7
ATOM      7  C1  UNL d   1      -1.240   0.326   1.192  0.00  0.00     0.055 C 
ATOM      8  C   UNL d   1      -2.555  -0.320   0.778  0.00  0.00     0.019 C 
ENDBRANCH   1   7
TORSDOF 1
ENDMDL
