MODEL 1
REMARK minimizedAffinity -4.49146843
REMARK minimizedRMSD -1
REMARK  1 active torsions:
REMARK  status: ('A' for Active; 'I' for Inactive)
REMARK    1  A    between atoms: C1_2  and  C2_3 
ROOT
ATOM      1  C2  UNL d   1       0.979  -1.433   0.289  0.00  0.00    -0.077 A 
ATOM      2  C3  UNL d   1      -0.008  -0.933  -0.572  0.00  0.00     0.002 A 
ATOM      3  C4  UNL d   1      -1.097  -0.224  -0.063  0.00  0.00     0.002 A 
ATOM      4  C5  UNL d   1      -1.208  -0.005   1.308  0.00  0.00    -0.004 A 
ATOM      5  C6  UNL d   1      -0.234  -0.499   2.174  0.00  0.00     0.002 A 
ATOM      6  C7  UNL d   1       0.855  -1.209   1.667  0.00  0.00     0.002 A 
ENDROOT
BRANCH   1   7
ATOM      7  C1  UNL d   1       2.180  -2.155  -0.263  0.00  0.00     0.055 C 
ATOM      8  C   UNL d   1       2.697  -3.198   0.717  0.00  0.00     0.019 C 
ENDBRANCH   1   7
TORSDOF 1
ENDMDL
