MODEL 1
REMARK minimizedAffinity 14.434165
REMARK minimizedRMSD -1
REMARK  1 active torsions:
REMARK  status: ('A' for Active; 'I' for Inactive)
REMARK    1  A    between atoms: C3_4  and  O_7 
ROOT
ATOM      1  C   UNL d   1      -0.925  -1.776   2.045  0.00  0.00    -0.033 A 
ATOM      2  C1  UNL d   1      -0.157  -2.921   1.825  0.00  0.00     0.039 A 
ATOM      3  C2  UNL d   1       1.035  -3.110   2.526  0.00  0.00    -0.080 A 
ATOM      4  C3  UNL d   1       1.447  -2.148   3.445  0.00  0.00     0.150 A 
ATOM      5  C4  UNL d   1       0.685  -1.007   3.672  0.00  0.00    -0.007 A 
ATOM      6  C5  UNL d   1      -0.504  -0.819   2.970  0.00  0.00     0.039 A 
ENDROOT
BRANCH   4   7
ATOM      7  O   UNL d   1       2.606  -2.287   4.150  0.00  0.00    -0.526 OA
ATOM      8  H5  UNL d   1       3.041  -3.109   3.868  0.00  0.00     0.418 HD
ENDBRANCH   4   7
TORSDOF 1
ENDMDL
