MODEL 1
REMARK minimizedAffinity 6.31693268
REMARK minimizedRMSD -1
REMARK  1 active torsions:
REMARK  status: ('A' for Active; 'I' for Inactive)
REMARK    1  A    between atoms: C3_4  and  O_7 
ROOT
ATOM      1  C   UNL d   1       1.885   3.790  -2.480  0.00  0.00    -0.033 A 
ATOM      2  C1  UNL d   1       1.075   4.914  -2.309  0.00  0.00     0.039 A 
ATOM      3  C2  UNL d   1      -0.028   5.115  -3.141  0.00  0.00    -0.080 A 
ATOM      4  C3  UNL d   1      -0.310   4.185  -4.138  0.00  0.00     0.150 A 
ATOM      5  C4  UNL d   1       0.491   3.061  -4.311  0.00  0.00    -0.007 A 
ATOM      6  C5  UNL d   1       1.592   2.863  -3.480  0.00  0.00     0.039 A 
ENDROOT
BRANCH   4   7
ATOM      7  O   UNL d   1      -1.373   4.340  -4.977  0.00  0.00    -0.526 OA
ATOM      8  H5  UNL d   1      -1.818   5.176  -4.758  0.00  0.00     0.418 HD
ENDBRANCH   4   7
TORSDOF 1
ENDMDL
