MODEL 1
REMARK minimizedAffinity 7.75420618
REMARK minimizedRMSD -1
REMARK  1 active torsions:
REMARK  status: ('A' for Active; 'I' for Inactive)
REMARK    1  A    between atoms: C3_4  and  O_7 
ROOT
ATOM      1  C   UNL d   1       2.231   3.931  -2.302  0.00  0.00    -0.033 A 
ATOM      2  C1  UNL d   1       1.965   2.860  -3.157  0.00  0.00     0.039 A 
ATOM      3  C2  UNL d   1       0.872   2.911  -4.024  0.00  0.00    -0.080 A 
ATOM      4  C3  UNL d   1       0.054   4.038  -4.027  0.00  0.00     0.150 A 
ATOM      5  C4  UNL d   1       0.316   5.111  -3.180  0.00  0.00    -0.007 A 
ATOM      6  C5  UNL d   1       1.407   5.057  -2.315  0.00  0.00     0.039 A 
ENDROOT
BRANCH   4   7
ATOM      7  O   UNL d   1      -1.027   4.132  -4.852  0.00  0.00    -0.526 OA
ATOM      8  H5  UNL d   1      -1.101   3.306  -5.358  0.00  0.00     0.418 HD
ENDBRANCH   4   7
TORSDOF 1
ENDMDL
