MODEL 1
REMARK minimizedAffinity 10.1945791
REMARK minimizedRMSD -1
REMARK  1 active torsions:
REMARK  status: ('A' for Active; 'I' for Inactive)
REMARK    1  A    between atoms: C3_4  and  O_7 
ROOT
ATOM      1  C   UNL d   1      -0.953  -2.115   1.354  0.00  0.00    -0.033 A 
ATOM      2  C1  UNL d   1       0.059  -1.365   1.955  0.00  0.00     0.039 A 
ATOM      3  C2  UNL d   1      -0.265  -0.293   2.789  0.00  0.00    -0.080 A 
ATOM      4  C3  UNL d   1      -1.603   0.017   3.014  0.00  0.00     0.150 A 
ATOM      5  C4  UNL d   1      -2.617  -0.729   2.422  0.00  0.00    -0.007 A 
ATOM      6  C5  UNL d   1      -2.292  -1.798   1.589  0.00  0.00     0.039 A 
ENDROOT
BRANCH   4   7
ATOM      7  O   UNL d   1      -1.969   1.057   3.817  0.00  0.00    -0.526 OA
ATOM      8  H5  UNL d   1      -1.163   1.499   4.133  0.00  0.00     0.418 HD
ENDBRANCH   4   7
TORSDOF 1
ENDMDL
