MODEL 1
REMARK minimizedAffinity 9.6581707
REMARK minimizedRMSD -1
REMARK  1 active torsions:
REMARK  status: ('A' for Active; 'I' for Inactive)
REMARK    1  A    between atoms: C3_4  and  O_7 
ROOT
ATOM      1  C   UNL d   1       0.115  -1.577   2.376  0.00  0.00    -0.033 A 
ATOM      2  C1  UNL d   1      -0.329  -2.636   1.581  0.00  0.00     0.039 A 
ATOM      3  C2  UNL d   1       0.592  -3.516   1.010  0.00  0.00    -0.080 A 
ATOM      4  C3  UNL d   1       1.952  -3.326   1.241  0.00  0.00     0.150 A 
ATOM      5  C4  UNL d   1       2.401  -2.276   2.035  0.00  0.00    -0.007 A 
ATOM      6  C5  UNL d   1       1.479  -1.398   2.604  0.00  0.00     0.039 A 
ENDROOT
BRANCH   4   7
ATOM      7  O   UNL d   1       2.889  -4.156   0.701  0.00  0.00    -0.526 OA
ATOM      8  H5  UNL d   1       2.435  -4.818   0.153  0.00  0.00     0.418 HD
ENDBRANCH   4   7
TORSDOF 1
ENDMDL
