MODEL 1
REMARK minimizedAffinity 8.33631802
REMARK minimizedRMSD -1
REMARK  1 active torsions:
REMARK  status: ('A' for Active; 'I' for Inactive)
REMARK    1  A    between atoms: C3_4  and  O_7 
ROOT
ATOM      1  C   UNL d   1      -1.231  -0.441   2.616  0.00  0.00    -0.033 A 
ATOM      2  C1  UNL d   1      -1.769  -1.624   2.106  0.00  0.00     0.039 A 
ATOM      3  C2  UNL d   1      -3.079  -1.647   1.624  0.00  0.00    -0.080 A 
ATOM      4  C3  UNL d   1      -3.839  -0.481   1.656  0.00  0.00     0.150 A 
ATOM      5  C4  UNL d   1      -3.308   0.702   2.159  0.00  0.00    -0.007 A 
ATOM      6  C5  UNL d   1      -2.001   0.722   2.642  0.00  0.00     0.039 A 
ENDROOT
BRANCH   4   7
ATOM      7  O   UNL d   1      -5.124  -0.455   1.200  0.00  0.00    -0.526 OA
ATOM      8  H5  UNL d   1      -5.365  -1.351   0.909  0.00  0.00     0.418 HD
ENDBRANCH   4   7
TORSDOF 1
ENDMDL
