MODEL 1
REMARK minimizedAffinity 5.16656637
REMARK minimizedRMSD -1
REMARK  1 active torsions:
REMARK  status: ('A' for Active; 'I' for Inactive)
REMARK    1  A    between atoms: C3_4  and  O_7 
ROOT
ATOM      1  C   UNL d   1       2.373   3.739  -3.366  0.00  0.00    -0.033 A 
ATOM      2  C1  UNL d   1       2.675   3.328  -4.665  0.00  0.00     0.039 A 
ATOM      3  C2  UNL d   1       3.894   3.685  -5.246  0.00  0.00    -0.080 A 
ATOM      4  C3  UNL d   1       4.800   4.450  -4.518  0.00  0.00     0.150 A 
ATOM      5  C4  UNL d   1       4.507   4.860  -3.222  0.00  0.00    -0.007 A 
ATOM      6  C5  UNL d   1       3.290   4.504  -2.643  0.00  0.00     0.039 A 
ENDROOT
BRANCH   4   7
ATOM      7  O   UNL d   1       6.000   4.827  -5.045  0.00  0.00    -0.526 OA
ATOM      8  H5  UNL d   1       6.053   4.496  -5.957  0.00  0.00     0.418 HD
ENDBRANCH   4   7
TORSDOF 1
ENDMDL
