MODEL 1
REMARK minimizedAffinity 10.8885622
REMARK minimizedRMSD -1
REMARK  1 active torsions:
REMARK  status: ('A' for Active; 'I' for Inactive)
REMARK    1  A    between atoms: C3_4  and  O_7 
ROOT
ATOM      1  C   UNL d   1       0.231  -5.094  -5.518  0.00  0.00    -0.033 A 
ATOM      2  C1  UNL d   1      -0.741  -6.000  -5.949  0.00  0.00     0.039 A 
ATOM      3  C2  UNL d   1      -2.007  -6.000  -5.360  0.00  0.00    -0.080 A 
ATOM      4  C3  UNL d   1      -2.289  -5.090  -4.345  0.00  0.00     0.150 A 
ATOM      5  C4  UNL d   1      -1.327  -4.183  -3.914  0.00  0.00    -0.007 A 
ATOM      6  C5  UNL d   1      -0.063  -4.185  -4.502  0.00  0.00     0.039 A 
ENDROOT
BRANCH   4   7
ATOM      7  O   UNL d   1      -3.509  -5.056  -3.737  0.00  0.00    -0.526 OA
ATOM      8  H5  UNL d   1      -4.062  -5.758  -4.117  0.00  0.00     0.418 HD
ENDBRANCH   4   7
TORSDOF 1
ENDMDL
