MODEL 1
REMARK minimizedAffinity 14.4438343
REMARK minimizedRMSD -1
REMARK  1 active torsions:
REMARK  status: ('A' for Active; 'I' for Inactive)
REMARK    1  A    between atoms: C3_4  and  O_7 
ROOT
ATOM      1  C   UNL d   1       3.230   3.590  -1.901  0.00  0.00    -0.033 A 
ATOM      2  C1  UNL d   1       2.237   2.836  -2.529  0.00  0.00     0.039 A 
ATOM      3  C2  UNL d   1       2.281   2.633  -3.909  0.00  0.00    -0.080 A 
ATOM      4  C3  UNL d   1       3.321   3.188  -4.649  0.00  0.00     0.150 A 
ATOM      5  C4  UNL d   1       4.316   3.937  -4.030  0.00  0.00    -0.007 A 
ATOM      6  C5  UNL d   1       4.270   4.140  -2.651  0.00  0.00     0.039 A 
ENDROOT
BRANCH   4   7
ATOM      7  O   UNL d   1       3.403   3.021  -6.000  0.00  0.00    -0.526 OA
ATOM      8  H5  UNL d   1       2.633   2.506  -6.294  0.00  0.00     0.418 HD
ENDBRANCH   4   7
TORSDOF 1
ENDMDL
