MODEL 1
REMARK minimizedAffinity 6.32961226
REMARK minimizedRMSD -1
REMARK  1 active torsions:
REMARK  status: ('A' for Active; 'I' for Inactive)
REMARK    1  A    between atoms: C3_4  and  O_7 
ROOT
ATOM      1  C   UNL d   1      -0.047  -2.094   2.357  0.00  0.00    -0.033 A 
ATOM      2  C1  UNL d   1      -1.137  -1.474   1.743  0.00  0.00     0.039 A 
ATOM      3  C2  UNL d   1      -1.753  -0.379   2.351  0.00  0.00    -0.080 A 
ATOM      4  C3  UNL d   1      -1.270   0.086   3.571  0.00  0.00     0.150 A 
ATOM      5  C4  UNL d   1      -0.183  -0.525   4.187  0.00  0.00    -0.007 A 
ATOM      6  C5  UNL d   1       0.431  -1.619   3.578  0.00  0.00     0.039 A 
ENDROOT
BRANCH   4   7
ATOM      7  O   UNL d   1      -1.842   1.149   4.206  0.00  0.00    -0.526 OA
ATOM      8  H5  UNL d   1      -2.600   1.451   3.678  0.00  0.00     0.418 HD
ENDBRANCH   4   7
TORSDOF 1
ENDMDL
