MODEL 1
REMARK minimizedAffinity 6.76250744
REMARK minimizedRMSD -1
REMARK  1 active torsions:
REMARK  status: ('A' for Active; 'I' for Inactive)
REMARK    1  A    between atoms: C3_4  and  O_7 
ROOT
ATOM      1  C   UNL d   1      -1.735   0.023   2.015  0.00  0.00    -0.033 A 
ATOM      2  C1  UNL d   1      -2.406   0.906   2.864  0.00  0.00     0.039 A 
ATOM      3  C2  UNL d   1      -2.045   0.995   4.209  0.00  0.00    -0.080 A 
ATOM      4  C3  UNL d   1      -1.010   0.198   4.693  0.00  0.00     0.150 A 
ATOM      5  C4  UNL d   1      -0.334  -0.680   3.853  0.00  0.00    -0.007 A 
ATOM      6  C5  UNL d   1      -0.698  -0.769   2.510  0.00  0.00     0.039 A 
ENDROOT
BRANCH   4   7
ATOM      7  O   UNL d   1      -0.625   0.247   6.000  0.00  0.00    -0.526 OA
ATOM      8  H5  UNL d   1      -1.199   0.876   6.467  0.00  0.00     0.418 HD
ENDBRANCH   4   7
TORSDOF 1
ENDMDL
