MODEL 1
REMARK minimizedAffinity 5.20801306
REMARK minimizedRMSD -1
REMARK  1 active torsions:
REMARK  status: ('A' for Active; 'I' for Inactive)
REMARK    1  A    between atoms: C3_4  and  O_7 
ROOT
ATOM      1  C   UNL d   1      -0.758  -1.154   1.141  0.00  0.00    -0.033 A 
ATOM      2  C1  UNL d   1       0.292  -0.460   1.746  0.00  0.00     0.039 A 
ATOM      3  C2  UNL d   1       0.023   0.536   2.686  0.00  0.00    -0.080 A 
ATOM      4  C3  UNL d   1      -1.299   0.829   3.012  0.00  0.00     0.150 A 
ATOM      5  C4  UNL d   1      -2.350   0.139   2.417  0.00  0.00    -0.007 A 
ATOM      6  C5  UNL d   1      -2.079  -0.855   1.478  0.00  0.00     0.039 A 
ENDROOT
BRANCH   4   7
ATOM      7  O   UNL d   1      -1.611   1.796   3.921  0.00  0.00    -0.526 OA
ATOM      8  H5  UNL d   1      -0.786   2.207   4.228  0.00  0.00     0.418 HD
ENDBRANCH   4   7
TORSDOF 1
ENDMDL
