MODEL 1
REMARK minimizedAffinity 5.70131826
REMARK minimizedRMSD -1
REMARK  1 active torsions:
REMARK  status: ('A' for Active; 'I' for Inactive)
REMARK    1  A    between atoms: C3_4  and  O_7 
ROOT
ATOM      1  C   UNL d   1      -2.268  -1.303   1.030  0.00  0.00    -0.033 A 
ATOM      2  C1  UNL d   1      -1.145  -1.180   1.851  0.00  0.00     0.039 A 
ATOM      3  C2  UNL d   1      -1.123  -0.221   2.866  0.00  0.00    -0.080 A 
ATOM      4  C3  UNL d   1      -2.228   0.606   3.050  0.00  0.00     0.150 A 
ATOM      5  C4  UNL d   1      -3.351   0.485   2.238  0.00  0.00    -0.007 A 
ATOM      6  C5  UNL d   1      -3.371  -0.472   1.224  0.00  0.00     0.039 A 
ENDROOT
BRANCH   4   7
ATOM      7  O   UNL d   1      -2.250   1.559   4.024  0.00  0.00    -0.526 OA
ATOM      8  H5  UNL d   1      -1.396   1.546   4.487  0.00  0.00     0.418 HD
ENDBRANCH   4   7
TORSDOF 1
ENDMDL
